MODEL 1
REMARK VINA RESULT: -8.063372910      0.000      0.000
REMARK  4 active torsions:
REMARK  status: ('A' for Active; 'I' for Inactive)
REMARK    1  A    between atoms: C2_2  and  N1_4 
REMARK    2  A    between atoms: N1_4  and  C4_6 
REMARK    3  A    between atoms: C6_8  and  N2_9 
REMARK    4  A    between atoms: N2_9  and  C7_11 
ROOT
HETATM    1  C7  UNL     1     -44.089  15.724   9.037  1.00  0.00     0.057 A 
HETATM    2  C8  UNL     1     -43.728  16.721   8.124  1.00  0.00     0.057 A 
HETATM    3  C9  UNL     1     -42.428  17.178   8.080  1.00  0.00     0.085 A 
HETATM    4  C10 UNL     1     -42.022  18.203   7.154  1.00  0.00     0.102 C 
HETATM    5  N3  UNL     1     -41.693  19.018   6.413  1.00  0.00    -0.191 NA
HETATM    6  C11 UNL     1     -41.512  16.623   8.952  1.00  0.00     0.138 A 
HETATM    7  F1  UNL     1     -40.228  17.035   8.947  1.00  0.00    -0.204 F 
HETATM    8  C12 UNL     1     -41.875  15.632   9.856  1.00  0.00     0.070 A 
HETATM    9  C13 UNL     1     -43.174  15.170   9.909  1.00  0.00     0.063 A 
HETATM   10 CL1  UNL     1     -43.660  13.917  11.043  1.00  0.00    -0.082 Cl
ENDROOT
BRANCH   1  11
HETATM   11  N2  UNL     1     -45.413  15.248   9.095  1.00  0.00    -0.341 N 
ATOM     12  H2  UNL     1     -46.130  15.745   9.624  1.00  0.00     0.167 HD
BRANCH  11  13
HETATM   13  C6  UNL     1     -45.692  14.137   8.443  1.00  0.00     0.111 A 
HETATM   14  C5  UNL     1     -46.276  13.100   9.126  1.00  0.00     0.096 A 
HETATM   15  C4  UNL     1     -46.571  11.923   8.432  1.00  0.00     0.107 A 
HETATM   16  N5  UNL     1     -46.250  11.905   7.128  1.00  0.00    -0.319 N 
HETATM   17  C14 UNL     1     -45.675  12.930   6.460  1.00  0.00     0.182 A 
ATOM     18  H5  UNL     1     -46.455  11.055   6.603  1.00  0.00     0.170 HD
HETATM   19  N4  UNL     1     -45.402  14.045   7.138  1.00  0.00    -0.319 N 
HETATM   20 CL2  UNL     1     -45.317  12.755   4.752  1.00  0.00    -0.045 Cl
ATOM     21  H4  UNL     1     -44.968  14.835   6.659  1.00  0.00     0.170 HD
BRANCH  15  22
HETATM   22  N1  UNL     1     -47.161  10.827   9.120  1.00  0.00    -0.372 N 
ATOM     23  H1  UNL     1     -47.097  10.770  10.136  1.00  0.00     0.161 HD
BRANCH  22  24
HETATM   24  C2  UNL     1     -47.843   9.803   8.389  1.00  0.00     0.075 C 
HETATM   25  C1  UNL     1     -47.001   8.539   8.276  1.00  0.00     0.031 C 
HETATM   26  C3  UNL     1     -49.156   9.470   9.087  1.00  0.00     0.031 C 
ENDBRANCH  22  24
ENDBRANCH  15  22
ENDBRANCH  11  13
ENDBRANCH   1  11
TORSDOF 4
ENDMDL
MODEL 2
REMARK VINA RESULT: -7.974840255      2.215      2.823
REMARK  4 active torsions:
REMARK  status: ('A' for Active; 'I' for Inactive)
REMARK    1  A    between atoms: C2_2  and  N1_4 
REMARK    2  A    between atoms: N1_4  and  C4_6 
REMARK    3  A    between atoms: C6_8  and  N2_9 
REMARK    4  A    between atoms: N2_9  and  C7_11 
ROOT
HETATM    1  C7  UNL     1     -44.211  16.221   9.640  1.00  0.00     0.057 A 
HETATM    2  C8  UNL     1     -43.835  17.020   8.555  1.00  0.00     0.057 A 
HETATM    3  C9  UNL     1     -42.523  17.422   8.416  1.00  0.00     0.085 A 
HETATM    4  C10 UNL     1     -42.102  18.245   7.312  1.00  0.00     0.102 C 
HETATM    5  N3  UNL     1     -41.760  18.897   6.430  1.00  0.00    -0.191 NA
HETATM    6  C11 UNL     1     -41.612  17.012   9.369  1.00  0.00     0.138 A 
HETATM    7  F1  UNL     1     -40.317  17.378   9.277  1.00  0.00    -0.204 F 
HETATM    8  C12 UNL     1     -41.990  16.218  10.445  1.00  0.00     0.070 A 
HETATM    9  C13 UNL     1     -43.300  15.812  10.593  1.00  0.00     0.063 A 
HETATM   10 CL1  UNL     1     -43.806  14.807  11.945  1.00  0.00    -0.082 Cl
ENDROOT
BRANCH   1  11
HETATM   11  N2  UNL     1     -45.547  15.804   9.796  1.00  0.00    -0.341 N 
ATOM     12  H2  UNL     1     -46.264  16.443  10.141  1.00  0.00     0.167 HD
BRANCH  11  13
HETATM   13  C6  UNL     1     -45.838  14.557   9.483  1.00  0.00     0.111 A 
HETATM   14  C5  UNL     1     -45.215  13.985   8.403  1.00  0.00     0.096 A 
HETATM   15  C4  UNL     1     -45.526  12.663   8.072  1.00  0.00     0.107 A 
HETATM   16  N5  UNL     1     -46.430  12.052   8.856  1.00  0.00    -0.319 N 
HETATM   17  C14 UNL     1     -47.041  12.619   9.918  1.00  0.00     0.182 A 
ATOM     18  H5  UNL     1     -46.672  11.087   8.631  1.00  0.00     0.170 HD
HETATM   19  N4  UNL     1     -46.732  13.881  10.219  1.00  0.00    -0.319 N 
HETATM   20 CL2  UNL     1     -48.202  11.689  10.848  1.00  0.00    -0.045 Cl
ATOM     21  H4  UNL     1     -47.178  14.336  11.017  1.00  0.00     0.170 HD
BRANCH  15  22
HETATM   22  N1  UNL     1     -44.906  12.052   6.949  1.00  0.00    -0.372 N 
ATOM     23  H1  UNL     1     -43.898  11.899   6.944  1.00  0.00     0.161 HD
BRANCH  22  24
HETATM   24  C2  UNL     1     -45.693  11.650   5.823  1.00  0.00     0.075 C 
HETATM   25  C1  UNL     1     -45.694  12.712   4.731  1.00  0.00     0.031 C 
HETATM   26  C3  UNL     1     -45.141  10.348   5.255  1.00  0.00     0.031 C 
ENDBRANCH  22  24
ENDBRANCH  15  22
ENDBRANCH  11  13
ENDBRANCH   1  11
TORSDOF 4
ENDMDL
MODEL 3
REMARK VINA RESULT: -7.765991882      3.688      5.333
REMARK  4 active torsions:
REMARK  status: ('A' for Active; 'I' for Inactive)
REMARK    1  A    between atoms: C2_2  and  N1_4 
REMARK    2  A    between atoms: N1_4  and  C4_6 
REMARK    3  A    between atoms: C6_8  and  N2_9 
REMARK    4  A    between atoms: N2_9  and  C7_11 
ROOT
HETATM    1  C7  UNL     1     -44.590  14.902   8.561  1.00  0.00     0.057 A 
HETATM    2  C8  UNL     1     -45.209  14.547   7.358  1.00  0.00     0.057 A 
HETATM    3  C9  UNL     1     -44.944  13.322   6.781  1.00  0.00     0.085 A 
HETATM    4  C10 UNL     1     -45.563  12.925   5.543  1.00  0.00     0.102 C 
HETATM    5  N3  UNL     1     -46.058  12.601   4.558  1.00  0.00    -0.191 NA
HETATM    6  C11 UNL     1     -44.062  12.477   7.424  1.00  0.00     0.138 A 
HETATM    7  F1  UNL     1     -43.770  11.269   6.901  1.00  0.00    -0.204 F 
HETATM    8  C12 UNL     1     -43.450  12.834   8.619  1.00  0.00     0.070 A 
HETATM    9  C13 UNL     1     -43.708  14.056   9.204  1.00  0.00     0.063 A 
HETATM   10 CL1  UNL     1     -42.948  14.534  10.716  1.00  0.00    -0.082 Cl
ENDROOT
BRANCH   1  11
HETATM   11  N2  UNL     1     -44.850  16.149   9.162  1.00  0.00    -0.341 N 
ATOM     12  H2  UNL     1     -44.329  16.984   8.895  1.00  0.00     0.167 HD
BRANCH  11  13
HETATM   13  C6  UNL     1     -45.791  16.198  10.084  1.00  0.00     0.111 A 
HETATM   14  C5  UNL     1     -46.997  15.596   9.830  1.00  0.00     0.096 A 
HETATM   15  C4  UNL     1     -47.993  15.650  10.808  1.00  0.00     0.107 A 
HETATM   16  N5  UNL     1     -47.680  16.303  11.939  1.00  0.00    -0.319 N 
HETATM   17  C14 UNL     1     -46.491  16.896  12.185  1.00  0.00     0.182 A 
ATOM     18  H5  UNL     1     -48.393  16.356  12.666  1.00  0.00     0.170 HD
HETATM   19  N4  UNL     1     -45.552  16.833  11.240  1.00  0.00    -0.319 N 
HETATM   20 CL2  UNL     1     -46.231  17.712  13.716  1.00  0.00    -0.045 Cl
ATOM     21  H4  UNL     1     -44.644  17.271  11.398  1.00  0.00     0.170 HD
BRANCH  15  22
HETATM   22  N1  UNL     1     -49.257  15.047  10.564  1.00  0.00    -0.372 N 
ATOM     23  H1  UNL     1     -49.714  15.173   9.661  1.00  0.00     0.161 HD
BRANCH  22  24
HETATM   24  C2  UNL     1     -49.890  14.265  11.581  1.00  0.00     0.075 C 
HETATM   25  C1  UNL     1     -51.366  14.039  11.278  1.00  0.00     0.031 C 
HETATM   26  C3  UNL     1     -49.189  12.917  11.696  1.00  0.00     0.031 C 
ENDBRANCH  22  24
ENDBRANCH  15  22
ENDBRANCH  11  13
ENDBRANCH   1  11
TORSDOF 4
ENDMDL
MODEL 4
REMARK VINA RESULT: -7.710267595      3.338      7.058
REMARK  4 active torsions:
REMARK  status: ('A' for Active; 'I' for Inactive)
REMARK    1  A    between atoms: C2_2  and  N1_4 
REMARK    2  A    between atoms: N1_4  and  C4_6 
REMARK    3  A    between atoms: C6_8  and  N2_9 
REMARK    4  A    between atoms: N2_9  and  C7_11 
ROOT
HETATM    1  C7  UNL     1     -44.528  14.929   8.081  1.00  0.00     0.057 A 
HETATM    2  C8  UNL     1     -44.999  15.893   8.979  1.00  0.00     0.057 A 
HETATM    3  C9  UNL     1     -46.003  15.574   9.869  1.00  0.00     0.085 A 
HETATM    4  C10 UNL     1     -46.511  16.542  10.806  1.00  0.00     0.102 C 
HETATM    5  N3  UNL     1     -46.916  17.310  11.559  1.00  0.00    -0.191 NA
HETATM    6  C11 UNL     1     -46.515  14.293   9.842  1.00  0.00     0.138 A 
HETATM    7  F1  UNL     1     -47.497  13.932  10.693  1.00  0.00    -0.204 F 
HETATM    8  C12 UNL     1     -46.044  13.338   8.949  1.00  0.00     0.070 A 
HETATM    9  C13 UNL     1     -45.041  13.647   8.054  1.00  0.00     0.063 A 
HETATM   10 CL1  UNL     1     -44.426  12.459   6.913  1.00  0.00    -0.082 Cl
ENDROOT
BRANCH   1  11
HETATM   11  N2  UNL     1     -43.504  15.238   7.165  1.00  0.00    -0.341 N 
ATOM     12  H2  UNL     1     -43.416  14.737   6.281  1.00  0.00     0.167 HD
BRANCH  11  13
HETATM   13  C6  UNL     1     -42.662  16.199   7.491  1.00  0.00     0.111 A 
HETATM   14  C5  UNL     1     -41.835  16.013   8.570  1.00  0.00     0.096 A 
HETATM   15  C4  UNL     1     -40.943  17.033   8.914  1.00  0.00     0.107 A 
HETATM   16  N5  UNL     1     -40.973  18.133   8.143  1.00  0.00    -0.319 N 
HETATM   17  C14 UNL     1     -41.790  18.311   7.082  1.00  0.00     0.182 A 
ATOM     18  H5  UNL     1     -40.331  18.890   8.378  1.00  0.00     0.170 HD
HETATM   19  N4  UNL     1     -42.634  17.327   6.768  1.00  0.00    -0.319 N 
HETATM   20 CL2  UNL     1     -41.710  19.807   6.170  1.00  0.00    -0.045 Cl
ATOM     21  H4  UNL     1     -43.262  17.433   5.971  1.00  0.00     0.170 HD
BRANCH  15  22
HETATM   22  N1  UNL     1     -40.087  16.874  10.037  1.00  0.00    -0.372 N 
ATOM     23  H1  UNL     1     -39.437  16.088  10.073  1.00  0.00     0.161 HD
BRANCH  22  24
HETATM   24  C2  UNL     1     -40.133  17.811  11.116  1.00  0.00     0.075 C 
HETATM   25  C1  UNL     1     -41.377  17.617  11.976  1.00  0.00     0.031 C 
HETATM   26  C3  UNL     1     -38.893  17.648  11.986  1.00  0.00     0.031 C 
ENDBRANCH  22  24
ENDBRANCH  15  22
ENDBRANCH  11  13
ENDBRANCH   1  11
TORSDOF 4
ENDMDL
MODEL 5
REMARK VINA RESULT: -7.665252117      2.922      4.226
REMARK  4 active torsions:
REMARK  status: ('A' for Active; 'I' for Inactive)
REMARK    1  A    between atoms: C2_2  and  N1_4 
REMARK    2  A    between atoms: N1_4  and  C4_6 
REMARK    3  A    between atoms: C6_8  and  N2_9 
REMARK    4  A    between atoms: N2_9  and  C7_11 
ROOT
HETATM    1  C7  UNL     1     -42.709  17.173   9.679  1.00  0.00     0.057 A 
HETATM    2  C8  UNL     1     -42.908  16.928  11.041  1.00  0.00     0.057 A 
HETATM    3  C9  UNL     1     -41.834  16.927  11.906  1.00  0.00     0.085 A 
HETATM    4  C10 UNL     1     -42.002  16.678  13.314  1.00  0.00     0.102 C 
HETATM    5  N3  UNL     1     -42.133  16.484  14.439  1.00  0.00    -0.191 NA
HETATM    6  C11 UNL     1     -40.579  17.174  11.386  1.00  0.00     0.138 A 
HETATM    7  F1  UNL     1     -39.497  17.186  12.190  1.00  0.00    -0.204 F 
HETATM    8  C12 UNL     1     -40.386  17.419  10.031  1.00  0.00     0.070 A 
HETATM    9  C13 UNL     1     -41.454  17.420   9.158  1.00  0.00     0.063 A 
HETATM   10 CL1  UNL     1     -41.239  17.726   7.440  1.00  0.00    -0.082 Cl
ENDROOT
BRANCH   1  11
HETATM   11  N2  UNL     1     -43.796  17.176   8.782  1.00  0.00    -0.341 N 
ATOM     12  H2  UNL     1     -44.024  18.004   8.230  1.00  0.00     0.167 HD
BRANCH  11  13
HETATM   13  C6  UNL     1     -44.509  16.072   8.683  1.00  0.00     0.111 A 
HETATM   14  C5  UNL     1     -44.060  15.068   7.863  1.00  0.00     0.096 A 
HETATM   15  C4  UNL     1     -44.819  13.899   7.759  1.00  0.00     0.107 A 
HETATM   16  N5  UNL     1     -45.948  13.856   8.485  1.00  0.00    -0.319 N 
HETATM   17  C14 UNL     1     -46.386  14.848   9.292  1.00  0.00     0.182 A 
ATOM     18  H5  UNL     1     -46.517  13.012   8.423  1.00  0.00     0.170 HD
HETATM   19  N4  UNL     1     -45.649  15.956   9.379  1.00  0.00    -0.319 N 
HETATM   20 CL2  UNL     1     -47.884  14.642  10.180  1.00  0.00    -0.045 Cl
ATOM     21  H4  UNL     1     -45.955  16.722   9.980  1.00  0.00     0.170 HD
BRANCH  15  22
HETATM   22  N1  UNL     1     -44.384  12.849   6.904  1.00  0.00    -0.372 N 
ATOM     23  H1  UNL     1     -43.387  12.677   6.776  1.00  0.00     0.161 HD
BRANCH  22  24
HETATM   24  C2  UNL     1     -45.342  12.034   6.222  1.00  0.00     0.075 C 
HETATM   25  C1  UNL     1     -45.639  12.566   4.825  1.00  0.00     0.031 C 
HETATM   26  C3  UNL     1     -44.813  10.609   6.114  1.00  0.00     0.031 C 
ENDBRANCH  22  24
ENDBRANCH  15  22
ENDBRANCH  11  13
ENDBRANCH   1  11
TORSDOF 4
ENDMDL
