MODEL 1
REMARK VINA RESULT: -6.488728971      0.000      0.000
REMARK  4 active torsions:
REMARK  status: ('A' for Active; 'I' for Inactive)
REMARK    1  A    between atoms: S1_2  and  C2_3 
REMARK    2  A    between atoms: C2_3  and  C3_6 
REMARK    3  A    between atoms: C5_9  and  N1_10 
REMARK    4  A    between atoms: N1_10  and  C6_12 
ROOT
HETATM    1  C3  UNL     1     -46.412  14.608   9.541  1.00  0.00     0.067 A 
HETATM    2  C4  UNL     1     -46.467  13.239   9.635  1.00  0.00     0.082 A 
HETATM    3  S2  UNL     1     -45.362  12.733   8.459  1.00  0.00    -0.064 SA
HETATM    4  C5  UNL     1     -44.885  14.285   7.908  1.00  0.00     0.150 A 
HETATM    5  N4  UNL     1     -45.597  15.114   8.645  1.00  0.00    -0.336 N 
ATOM      6  H4  UNL     1     -45.518  16.123   8.522  1.00  0.00     0.168 HD
ENDROOT
BRANCH   4   7
HETATM    7  N1  UNL     1     -44.002  14.624   7.002  1.00  0.00    -0.321 N 
ATOM      8  H1  UNL     1     -43.962  14.149   6.099  1.00  0.00     0.169 HD
BRANCH   7   9
HETATM    9  C6  UNL     1     -43.092  15.685   7.323  1.00  0.00     0.130 A 
HETATM   10  N2  UNL     1     -42.958  16.843   6.663  1.00  0.00    -0.329 N 
HETATM   11  C7  UNL     1     -42.036  17.650   7.197  1.00  0.00     0.119 A 
ATOM     12  H2  UNL     1     -43.504  17.084   5.836  1.00  0.00     0.168 HD
HETATM   13  N3  UNL     1     -41.683  18.932   6.712  1.00  0.00    -0.083 NA
HETATM   14  C8  UNL     1     -41.544  16.961   8.265  1.00  0.00     0.073 A 
HETATM   15  C9  UNL     1     -42.170  15.737   8.376  1.00  0.00     0.081 A 
HETATM   16 CL3  UNL     1     -41.886  14.505   9.569  1.00  0.00    -0.080 Cl
ENDBRANCH   7   9
ENDBRANCH   4   7
BRANCH   1  17
HETATM   17  C2  UNL     1     -47.283  15.447  10.465  1.00  0.00     0.203 C 
HETATM   18 CL1  UNL     1     -46.721  17.165  10.392  1.00  0.00    -0.082 Cl
HETATM   19 CL2  UNL     1     -48.995  15.419  10.075  1.00  0.00    -0.082 Cl
BRANCH  17  20
HETATM   20  S1  UNL     1     -46.969  14.894  12.162  1.00  0.00    -0.125 SA
HETATM   21  C1  UNL     1     -47.400  16.180  13.355  1.00  0.00     0.093 C 
ENDBRANCH  17  20
ENDBRANCH   1  17
TORSDOF 4
ENDMDL
MODEL 2
REMARK VINA RESULT: -6.434128777      3.052      4.305
REMARK  4 active torsions:
REMARK  status: ('A' for Active; 'I' for Inactive)
REMARK    1  A    between atoms: S1_2  and  C2_3 
REMARK    2  A    between atoms: C2_3  and  C3_6 
REMARK    3  A    between atoms: C5_9  and  N1_10 
REMARK    4  A    between atoms: N1_10  and  C6_12 
ROOT
HETATM    1  C3  UNL     1     -44.883  12.478   7.968  1.00  0.00     0.067 A 
HETATM    2  C4  UNL     1     -45.806  13.178   8.704  1.00  0.00     0.082 A 
HETATM    3  S2  UNL     1     -44.846  14.227   9.619  1.00  0.00    -0.064 SA
HETATM    4  C5  UNL     1     -43.321  13.725   9.020  1.00  0.00     0.150 A 
HETATM    5  N4  UNL     1     -43.618  12.777   8.154  1.00  0.00    -0.336 N 
ATOM      6  H4  UNL     1     -42.885  12.287   7.642  1.00  0.00     0.168 HD
ENDROOT
BRANCH   4   7
HETATM    7  N1  UNL     1     -42.119  14.170   9.294  1.00  0.00    -0.321 N 
ATOM      8  H1  UNL     1     -41.388  13.543   9.632  1.00  0.00     0.169 HD
BRANCH   7   9
HETATM    9  C6  UNL     1     -41.867  15.569   9.101  1.00  0.00     0.130 A 
HETATM   10  N2  UNL     1     -41.750  16.199   7.925  1.00  0.00    -0.329 N 
HETATM   11  C7  UNL     1     -41.526  17.511   8.051  1.00  0.00     0.119 A 
ATOM     12  H2  UNL     1     -41.823  15.726   7.024  1.00  0.00     0.168 HD
HETATM   13  N3  UNL     1     -41.361  18.425   6.982  1.00  0.00    -0.083 NA
HETATM   14  C8  UNL     1     -41.492  17.733   9.395  1.00  0.00     0.073 A 
HETATM   15  C9  UNL     1     -41.697  16.554  10.081  1.00  0.00     0.081 A 
HETATM   16 CL3  UNL     1     -41.737  16.323  11.803  1.00  0.00    -0.080 Cl
ENDBRANCH   7   9
ENDBRANCH   4   7
BRANCH   1  17
HETATM   17  C2  UNL     1     -45.368  11.415   6.993  1.00  0.00     0.203 C 
HETATM   18 CL1  UNL     1     -45.931  12.229   5.479  1.00  0.00    -0.082 Cl
HETATM   19 CL2  UNL     1     -44.154  10.225   6.550  1.00  0.00    -0.082 Cl
BRANCH  17  20
HETATM   20  S1  UNL     1     -46.837  10.641   7.716  1.00  0.00    -0.125 SA
HETATM   21  C1  UNL     1     -47.602   9.486   6.556  1.00  0.00     0.093 C 
ENDBRANCH  17  20
ENDBRANCH   1  17
TORSDOF 4
ENDMDL
MODEL 3
REMARK VINA RESULT: -6.343363202      4.983      7.375
REMARK  4 active torsions:
REMARK  status: ('A' for Active; 'I' for Inactive)
REMARK    1  A    between atoms: S1_2  and  C2_3 
REMARK    2  A    between atoms: C2_3  and  C3_6 
REMARK    3  A    between atoms: C5_9  and  N1_10 
REMARK    4  A    between atoms: N1_10  and  C6_12 
ROOT
HETATM    1  C3  UNL     1     -45.027  13.041   7.332  1.00  0.00     0.067 A 
HETATM    2  C4  UNL     1     -44.878  12.788   5.991  1.00  0.00     0.082 A 
HETATM    3  S2  UNL     1     -45.808  11.395   5.761  1.00  0.00    -0.064 SA
HETATM    4  C5  UNL     1     -46.341  11.204   7.379  1.00  0.00     0.150 A 
HETATM    5  N4  UNL     1     -45.777  12.209   8.017  1.00  0.00    -0.336 N 
ATOM      6  H4  UNL     1     -45.920  12.339   9.019  1.00  0.00     0.168 HD
ENDROOT
BRANCH   4   7
HETATM    7  N1  UNL     1     -47.145  10.311   7.902  1.00  0.00    -0.321 N 
ATOM      8  H1  UNL     1     -47.296  10.262   8.910  1.00  0.00     0.169 HD
BRANCH   7   9
HETATM    9  C6  UNL     1     -47.807   9.406   7.007  1.00  0.00     0.130 A 
HETATM   10  N2  UNL     1     -48.891   9.672   6.267  1.00  0.00    -0.329 N 
HETATM   11  C7  UNL     1     -49.282   8.638   5.516  1.00  0.00     0.119 A 
ATOM     12  H2  UNL     1     -49.370  10.572   6.276  1.00  0.00     0.168 HD
HETATM   13  N3  UNL     1     -50.393   8.631   4.638  1.00  0.00    -0.083 NA
HETATM   14  C8  UNL     1     -48.393   7.644   5.798  1.00  0.00     0.073 A 
HETATM   15  C9  UNL     1     -47.464   8.079   6.720  1.00  0.00     0.081 A 
HETATM   16 CL3  UNL     1     -46.139   7.179   7.395  1.00  0.00    -0.080 Cl
ENDBRANCH   7   9
ENDBRANCH   4   7
BRANCH   1  17
HETATM   17  C2  UNL     1     -44.328  14.249   7.939  1.00  0.00     0.203 C 
HETATM   18 CL1  UNL     1     -42.974  13.669   8.989  1.00  0.00    -0.082 Cl
HETATM   19 CL2  UNL     1     -43.661  15.370   6.762  1.00  0.00    -0.082 Cl
BRANCH  17  20
HETATM   20  S1  UNL     1     -45.506  15.060   9.050  1.00  0.00    -0.125 SA
HETATM   21  C1  UNL     1     -44.949  16.723   9.486  1.00  0.00     0.093 C 
ENDBRANCH  17  20
ENDBRANCH   1  17
TORSDOF 4
ENDMDL
MODEL 4
REMARK VINA RESULT: -6.341729753      4.208      6.982
REMARK  4 active torsions:
REMARK  status: ('A' for Active; 'I' for Inactive)
REMARK    1  A    between atoms: S1_2  and  C2_3 
REMARK    2  A    between atoms: C2_3  and  C3_6 
REMARK    3  A    between atoms: C5_9  and  N1_10 
REMARK    4  A    between atoms: N1_10  and  C6_12 
ROOT
HETATM    1  C3  UNL     1     -44.126  13.625   7.497  1.00  0.00     0.067 A 
HETATM    2  C4  UNL     1     -44.689  14.138   6.355  1.00  0.00     0.082 A 
HETATM    3  S2  UNL     1     -45.242  12.758   5.549  1.00  0.00    -0.064 SA
HETATM    4  C5  UNL     1     -44.732  11.598   6.704  1.00  0.00     0.150 A 
HETATM    5  N4  UNL     1     -44.159  12.321   7.645  1.00  0.00    -0.336 N 
ATOM      6  H4  UNL     1     -43.751  11.879   8.469  1.00  0.00     0.168 HD
ENDROOT
BRANCH   4   7
HETATM    7  N1  UNL     1     -44.884  10.297   6.715  1.00  0.00    -0.321 N 
ATOM      8  H1  UNL     1     -44.087   9.673   6.849  1.00  0.00     0.169 HD
BRANCH   7   9
HETATM    9  C6  UNL     1     -46.210   9.780   6.532  1.00  0.00     0.130 A 
HETATM   10  N2  UNL     1     -46.664   9.123   5.457  1.00  0.00    -0.329 N 
HETATM   11  C7  UNL     1     -47.942   8.749   5.570  1.00  0.00     0.119 A 
ATOM     12  H2  UNL     1     -46.092   8.928   4.635  1.00  0.00     0.168 HD
HETATM   13  N3  UNL     1     -48.683   8.042   4.592  1.00  0.00    -0.083 NA
HETATM   14  C8  UNL     1     -48.332   9.201   6.795  1.00  0.00     0.073 A 
HETATM   15  C9  UNL     1     -47.288   9.848   7.422  1.00  0.00     0.081 A 
HETATM   16 CL3  UNL     1     -47.295  10.598   8.990  1.00  0.00    -0.080 Cl
ENDBRANCH   7   9
ENDBRANCH   4   7
BRANCH   1  17
HETATM   17  C2  UNL     1     -43.508  14.578   8.509  1.00  0.00     0.203 C 
HETATM   18 CL1  UNL     1     -44.788  15.092   9.679  1.00  0.00    -0.082 Cl
HETATM   19 CL2  UNL     1     -42.173  13.899   9.427  1.00  0.00    -0.082 Cl
BRANCH  17  20
HETATM   20  S1  UNL     1     -43.019  16.078   7.619  1.00  0.00    -0.125 SA
HETATM   21  C1  UNL     1     -41.297  16.504   7.959  1.00  0.00     0.093 C 
ENDBRANCH  17  20
ENDBRANCH   1  17
TORSDOF 4
ENDMDL
MODEL 5
REMARK VINA RESULT: -6.337594680      4.859      7.338
REMARK  4 active torsions:
REMARK  status: ('A' for Active; 'I' for Inactive)
REMARK    1  A    between atoms: S1_2  and  C2_3 
REMARK    2  A    between atoms: C2_3  and  C3_6 
REMARK    3  A    between atoms: C5_9  and  N1_10 
REMARK    4  A    between atoms: N1_10  and  C6_12 
ROOT
HETATM    1  C3  UNL     1     -45.153  12.729   7.202  1.00  0.00     0.067 A 
HETATM    2  C4  UNL     1     -45.142  13.512   6.075  1.00  0.00     0.082 A 
HETATM    3  S2  UNL     1     -45.595  12.431   4.856  1.00  0.00    -0.064 SA
HETATM    4  C5  UNL     1     -45.777  11.039   5.840  1.00  0.00     0.150 A 
HETATM    5  N4  UNL     1     -45.477  11.466   7.050  1.00  0.00    -0.336 N 
ATOM      6  H4  UNL     1     -45.496  10.832   7.848  1.00  0.00     0.168 HD
ENDROOT
BRANCH   4   7
HETATM    7  N1  UNL     1     -46.157   9.826   5.522  1.00  0.00    -0.321 N 
ATOM      8  H1  UNL     1     -45.643   9.274   4.835  1.00  0.00     0.169 HD
BRANCH   7   9
HETATM    9  C6  UNL     1     -47.321   9.301   6.176  1.00  0.00     0.130 A 
HETATM   10  N2  UNL     1     -48.559   9.809   6.122  1.00  0.00    -0.329 N 
HETATM   11  C7  UNL     1     -49.450   9.102   6.823  1.00  0.00     0.119 A 
ATOM     12  H2  UNL     1     -48.798  10.652   5.598  1.00  0.00     0.168 HD
HETATM   13  N3  UNL     1     -50.828   9.403   6.946  1.00  0.00    -0.083 NA
HETATM   14  C8  UNL     1     -48.734   8.077   7.367  1.00  0.00     0.073 A 
HETATM   15  C9  UNL     1     -47.409   8.166   6.992  1.00  0.00     0.081 A 
HETATM   16 CL3  UNL     1     -46.109   7.100   7.432  1.00  0.00    -0.080 Cl
ENDBRANCH   7   9
ENDBRANCH   4   7
BRANCH   1  17
HETATM   17  C2  UNL     1     -44.797  13.358   8.542  1.00  0.00     0.203 C 
HETATM   18 CL1  UNL     1     -45.750  12.535   9.841  1.00  0.00    -0.082 Cl
HETATM   19 CL2  UNL     1     -43.096  13.251   8.966  1.00  0.00    -0.082 Cl
BRANCH  17  20
HETATM   20  S1  UNL     1     -45.378  15.074   8.512  1.00  0.00    -0.125 SA
HETATM   21  C1  UNL     1     -43.998  16.224   8.316  1.00  0.00     0.093 C 
ENDBRANCH  17  20
ENDBRANCH   1  17
TORSDOF 4
ENDMDL
