MODEL 1
REMARK VINA RESULT: -9.511618519      0.000      0.000
REMARK  15 active torsions:
REMARK  status: ('A' for Active; 'I' for Inactive)
REMARK    1  A    between atoms: C2_3  and  N2_4 
REMARK    2  A    between atoms: N2_4  and  S1_6 
REMARK    3  A    between atoms: S1_6  and  N3_9 
REMARK       I    between atoms: N3_9  and  C3_11 
REMARK    4  A    between atoms: C3_11  and  C4_13 
REMARK    5  A    between atoms: C4_13  and  C5_18 
REMARK    6  A    between atoms: N4_14  and  O4_16 
REMARK    7  A    between atoms: C5_18  and  O5_19 
REMARK    8  A    between atoms: C5_18  and  C6_21 
REMARK    9  A    between atoms: C6_21  and  O6_22 
REMARK   10  A    between atoms: C6_21  and  C7_24 
REMARK   11  A    between atoms: C7_24  and  O7_25 
REMARK   12  A    between atoms: C7_24  and  C8_27 
REMARK   13  A    between atoms: C11_33  and  C12_34 
REMARK   14  A    between atoms: C12_34  and  O9_35 
REMARK   15  A    between atoms: C12_34  and  O10_37 
ROOT
HETATM    1  C4  UNL     1       0.706  21.306  67.546  1.00  0.00     0.131 C 
HETATM    2  N4  UNL     1       0.010  22.249  67.981  1.00  0.00    -0.265 N 
ATOM      3  H4  UNL     1       0.043  23.069  67.376  1.00  0.00     0.194 HD
ENDROOT
BRANCH   1   4
HETATM    4  C3  UNL     1       0.843  20.019  68.204  1.00  0.00     0.283 C 
HETATM    5  N3  UNL     1       0.619  19.768  69.571  1.00  0.00    -0.232 N 
ATOM      6  H3  UNL     1       0.336  20.526  70.193  1.00  0.00     0.183 HD
HETATM    7  O3  UNL     1       1.199  19.018  67.480  1.00  0.00    -0.265 OA
BRANCH   5   8
HETATM    8  S1  UNL     1       0.827  18.161  70.191  1.00  0.00     0.327 S 
HETATM    9  O1  UNL     1      -0.124  17.260  69.415  1.00  0.00    -0.182 OA
HETATM   10  O2  UNL     1       2.204  17.666  69.870  1.00  0.00    -0.182 OA
BRANCH   8  11
HETATM   11  N2  UNL     1       0.495  18.056  71.869  1.00  0.00    -0.251 N 
ATOM     12  H2  UNL     1      -0.394  17.677  72.194  1.00  0.00     0.182 HD
BRANCH  11  13
HETATM   13  C2  UNL     1       1.464  18.501  72.798  1.00  0.00     0.146 A 
HETATM   14  N1  UNL     1       2.335  17.691  73.408  1.00  0.00    -0.320 N 
HETATM   15  C1  UNL     1       2.317  16.284  73.146  1.00  0.00     0.159 C 
HETATM   16  C16 UNL     1       3.249  18.151  74.287  1.00  0.00     0.134 A 
HETATM   17  C15 UNL     1       3.314  19.495  74.589  1.00  0.00     0.131 A 
HETATM   18  N9  UNL     1       4.056  17.320  74.837  1.00  0.00    -0.383 N 
HETATM   19  C14 UNL     1       2.427  20.364  73.978  1.00  0.00     0.117 A 
HETATM   20  N8  UNL     1       4.080  20.230  75.391  1.00  0.00    -0.236 N 
HETATM   21  C13 UNL     1       1.512  19.867  73.092  1.00  0.00     0.122 A 
HETATM   22  N7  UNL     1       2.731  21.578  74.466  1.00  0.00    -0.237 N 
HETATM   23  N6  UNL     1       0.607  20.785  72.473  1.00  0.00    -0.096 NA
HETATM   24  O12 UNL     1       3.717  21.474  75.305  1.00  0.00    -0.156 OA
ATOM     25  H7  UNL     1       2.260  22.448  74.216  1.00  0.00     0.197 HD
ATOM     26  H8  UNL     1       4.833  19.872  75.980  1.00  0.00     0.197 HD
ATOM     27  H92 UNL     1       4.008  16.326  74.614  1.00  0.00     0.157 HD
ATOM     28  H91 UNL     1       4.747  17.667  75.502  1.00  0.00     0.157 HD
ENDBRANCH  11  13
ENDBRANCH   8  11
ENDBRANCH   5   8
ENDBRANCH   1   4
BRANCH   1  29
HETATM   29  C5  UNL     1       1.481  21.446  66.254  1.00  0.00     0.207 C 
BRANCH  29  30
HETATM   30  O5  UNL     1       0.628  20.943  65.245  1.00  0.00    -0.387 OA
ATOM     31  H5  UNL     1       0.965  21.295  64.429  1.00  0.00     0.210 HD
ENDBRANCH  29  30
BRANCH  29  32
HETATM   32  C6  UNL     1       1.826  22.858  65.934  1.00  0.00     0.189 C 
BRANCH  32  33
HETATM   33  O6  UNL     1       2.863  23.359  66.723  1.00  0.00    -0.390 OA
ATOM     34  H6  UNL     1       3.382  24.019  66.280  1.00  0.00     0.210 HD
ENDBRANCH  32  33
BRANCH  32  35
HETATM   35  C7  UNL     1       2.070  23.030  64.456  1.00  0.00     0.224 C 
BRANCH  35  36
HETATM   36  O7  UNL     1       3.289  22.412  64.105  1.00  0.00    -0.385 OA
ATOM     37  H7  UNL     1       3.915  22.523  64.811  1.00  0.00     0.210 HD
ENDBRANCH  35  36
BRANCH  35  38
HETATM   38  C8  UNL     1       2.307  24.499  64.239  1.00  0.00     0.158 A 
HETATM   39  N5  UNL     1       3.494  25.073  64.484  1.00  0.00    -0.305 N 
HETATM   40  C9  UNL     1       3.705  26.400  64.286  1.00  0.00     0.249 A 
ATOM     41  H5  UNL     1       4.261  24.496  64.829  1.00  0.00     0.171 HD
HETATM   42  O8  UNL     1       4.812  26.952  64.511  1.00  0.00    -0.268 OA
HETATM   43  C10 UNL     1       2.651  27.157  63.820  1.00  0.00     0.112 A 
HETATM   44  C11 UNL     1       1.439  26.526  63.580  1.00  0.00     0.115 A 
HETATM   45  O11 UNL     1       1.332  25.249  63.799  1.00  0.00    -0.294 OA
BRANCH  44  46
HETATM   46  C12 UNL     1       0.286  27.315  63.078  1.00  0.00     0.312 C 
BRANCH  46  47
HETATM   47  O9  UNL     1       0.699  28.301  62.180  1.00  0.00    -0.365 OA
ATOM     48  H9  UNL     1       0.657  27.990  61.283  1.00  0.00     0.213 HD
ENDBRANCH  46  47
BRANCH  46  49
HETATM   49  O10 UNL     1      -0.444  27.821  64.125  1.00  0.00    -0.365 OA
ATOM     50  H10 UNL     1      -1.371  27.663  63.992  1.00  0.00     0.213 HD
ENDBRANCH  46  49
ENDBRANCH  44  46
ENDBRANCH  35  38
ENDBRANCH  32  35
ENDBRANCH  29  32
ENDBRANCH   1  29
BRANCH   2  51
HETATM   51  O4  UNL     1      -0.763  22.434  69.046  1.00  0.00    -0.289 OA
ATOM     52  H4  UNL     1      -1.693  22.359  69.223  1.00  0.00     0.244 HD
ENDBRANCH   2  51
TORSDOF 15
ENDMDL
MODEL 2
REMARK VINA RESULT: -9.487508833      0.813      1.819
REMARK  15 active torsions:
REMARK  status: ('A' for Active; 'I' for Inactive)
REMARK    1  A    between atoms: C2_3  and  N2_4 
REMARK    2  A    between atoms: N2_4  and  S1_6 
REMARK    3  A    between atoms: S1_6  and  N3_9 
REMARK       I    between atoms: N3_9  and  C3_11 
REMARK    4  A    between atoms: C3_11  and  C4_13 
REMARK    5  A    between atoms: C4_13  and  C5_18 
REMARK    6  A    between atoms: N4_14  and  O4_16 
REMARK    7  A    between atoms: C5_18  and  O5_19 
REMARK    8  A    between atoms: C5_18  and  C6_21 
REMARK    9  A    between atoms: C6_21  and  O6_22 
REMARK   10  A    between atoms: C6_21  and  C7_24 
REMARK   11  A    between atoms: C7_24  and  O7_25 
REMARK   12  A    between atoms: C7_24  and  C8_27 
REMARK   13  A    between atoms: C11_33  and  C12_34 
REMARK   14  A    between atoms: C12_34  and  O9_35 
REMARK   15  A    between atoms: C12_34  and  O10_37 
ROOT
HETATM    1  C4  UNL     1       0.700  21.251  67.488  1.00  0.00     0.131 C 
HETATM    2  N4  UNL     1      -0.007  22.199  67.896  1.00  0.00    -0.265 N 
ATOM      3  H4  UNL     1       0.053  23.018  67.291  1.00  0.00     0.194 HD
ENDROOT
BRANCH   1   4
HETATM    4  C3  UNL     1       0.805  19.965  68.153  1.00  0.00     0.283 C 
HETATM    5  N3  UNL     1       0.369  19.679  69.461  1.00  0.00    -0.232 N 
ATOM      6  H3  UNL     1      -0.063  20.407  70.030  1.00  0.00     0.183 HD
HETATM    7  O3  UNL     1       1.342  19.000  67.496  1.00  0.00    -0.265 OA
BRANCH   5   8
HETATM    8  S1  UNL     1       0.572  18.078  70.099  1.00  0.00     0.327 S 
HETATM    9  O1  UNL     1      -0.356  17.165  69.308  1.00  0.00    -0.182 OA
HETATM   10  O2  UNL     1       1.959  17.589  69.814  1.00  0.00    -0.182 OA
BRANCH   8  11
HETATM   11  N2  UNL     1       0.202  17.985  71.769  1.00  0.00    -0.251 N 
ATOM     12  H2  UNL     1      -0.702  17.626  72.077  1.00  0.00     0.182 HD
BRANCH  11  13
HETATM   13  C2  UNL     1       1.160  18.411  72.718  1.00  0.00     0.146 A 
HETATM   14  N1  UNL     1       1.389  19.694  73.017  1.00  0.00    -0.320 N 
HETATM   15  C1  UNL     1       0.657  20.731  72.356  1.00  0.00     0.159 C 
HETATM   16  C16 UNL     1       2.309  20.064  73.932  1.00  0.00     0.134 A 
HETATM   17  C15 UNL     1       3.054  19.115  74.598  1.00  0.00     0.131 A 
HETATM   18  N9  UNL     1       2.480  21.313  74.172  1.00  0.00    -0.383 N 
HETATM   19  C14 UNL     1       2.844  17.776  74.315  1.00  0.00     0.117 A 
HETATM   20  N8  UNL     1       4.007  19.166  75.526  1.00  0.00    -0.236 N 
HETATM   21  C13 UNL     1       1.905  17.433  73.383  1.00  0.00     0.122 A 
HETATM   22  N7  UNL     1       3.702  17.110  75.106  1.00  0.00    -0.237 N 
HETATM   23  N6  UNL     1       1.707  16.044  73.107  1.00  0.00    -0.096 NA
HETATM   24  O12 UNL     1       4.384  17.957  75.817  1.00  0.00    -0.156 OA
ATOM     25  H7  UNL     1       3.802  16.096  75.142  1.00  0.00     0.197 HD
ATOM     26  H8  UNL     1       4.383  20.019  75.941  1.00  0.00     0.197 HD
ATOM     27  H92 UNL     1       1.929  22.015  73.678  1.00  0.00     0.157 HD
ATOM     28  H91 UNL     1       3.176  21.593  74.863  1.00  0.00     0.157 HD
ENDBRANCH  11  13
ENDBRANCH   8  11
ENDBRANCH   5   8
ENDBRANCH   1   4
BRANCH   1  29
HETATM   29  C5  UNL     1       1.523  21.384  66.226  1.00  0.00     0.207 C 
BRANCH  29  30
HETATM   30  O5  UNL     1       0.707  20.878  65.188  1.00  0.00    -0.387 OA
ATOM     31  H5  UNL     1       1.246  20.247  64.726  1.00  0.00     0.210 HD
ENDBRANCH  29  30
BRANCH  29  32
HETATM   32  C6  UNL     1       1.881  22.795  65.913  1.00  0.00     0.189 C 
BRANCH  32  33
HETATM   33  O6  UNL     1       2.929  23.279  66.698  1.00  0.00    -0.390 OA
ATOM     34  H6  UNL     1       3.561  23.787  66.202  1.00  0.00     0.210 HD
ENDBRANCH  32  33
BRANCH  32  35
HETATM   35  C7  UNL     1       2.116  22.974  64.434  1.00  0.00     0.224 C 
BRANCH  35  36
HETATM   36  O7  UNL     1       3.341  22.370  64.076  1.00  0.00    -0.385 OA
ATOM     37  H7  UNL     1       3.170  21.564  63.603  1.00  0.00     0.210 HD
ENDBRANCH  35  36
BRANCH  35  38
HETATM   38  C8  UNL     1       2.337  24.445  64.220  1.00  0.00     0.158 A 
HETATM   39  N5  UNL     1       3.505  25.040  64.504  1.00  0.00    -0.305 N 
HETATM   40  C9  UNL     1       3.701  26.369  64.309  1.00  0.00     0.249 A 
ATOM     41  H5  UNL     1       4.269  24.476  64.877  1.00  0.00     0.171 HD
HETATM   42  O8  UNL     1       4.791  26.940  64.570  1.00  0.00    -0.268 OA
HETATM   43  C10 UNL     1       2.652  27.108  63.805  1.00  0.00     0.112 A 
HETATM   44  C11 UNL     1       1.459  26.457  63.525  1.00  0.00     0.115 A 
HETATM   45  O11 UNL     1       1.366  25.179  63.744  1.00  0.00    -0.294 OA
BRANCH  44  46
HETATM   46  C12 UNL     1       0.312  27.225  62.982  1.00  0.00     0.312 C 
BRANCH  46  47
HETATM   47  O9  UNL     1       0.694  28.001  61.885  1.00  0.00    -0.365 OA
ATOM     48  H9  UNL     1       0.563  27.532  61.069  1.00  0.00     0.213 HD
ENDBRANCH  46  47
BRANCH  46  49
HETATM   49  O10 UNL     1      -0.287  27.964  63.973  1.00  0.00    -0.365 OA
ATOM     50  H10 UNL     1      -1.227  27.994  63.845  1.00  0.00     0.213 HD
ENDBRANCH  46  49
ENDBRANCH  44  46
ENDBRANCH  35  38
ENDBRANCH  32  35
ENDBRANCH  29  32
ENDBRANCH   1  29
BRANCH   2  51
HETATM   51  O4  UNL     1      -0.817  22.390  68.931  1.00  0.00    -0.289 OA
ATOM     52  H4  UNL     1      -1.692  22.741  69.044  1.00  0.00     0.244 HD
ENDBRANCH   2  51
TORSDOF 15
ENDMDL
MODEL 3
REMARK VINA RESULT: -9.373372332      1.474      1.905
REMARK  15 active torsions:
REMARK  status: ('A' for Active; 'I' for Inactive)
REMARK    1  A    between atoms: C2_3  and  N2_4 
REMARK    2  A    between atoms: N2_4  and  S1_6 
REMARK    3  A    between atoms: S1_6  and  N3_9 
REMARK       I    between atoms: N3_9  and  C3_11 
REMARK    4  A    between atoms: C3_11  and  C4_13 
REMARK    5  A    between atoms: C4_13  and  C5_18 
REMARK    6  A    between atoms: N4_14  and  O4_16 
REMARK    7  A    between atoms: C5_18  and  O5_19 
REMARK    8  A    between atoms: C5_18  and  C6_21 
REMARK    9  A    between atoms: C6_21  and  O6_22 
REMARK   10  A    between atoms: C6_21  and  C7_24 
REMARK   11  A    between atoms: C7_24  and  O7_25 
REMARK   12  A    between atoms: C7_24  and  C8_27 
REMARK   13  A    between atoms: C11_33  and  C12_34 
REMARK   14  A    between atoms: C12_34  and  O9_35 
REMARK   15  A    between atoms: C12_34  and  O10_37 
ROOT
HETATM    1  C4  UNL     1       1.309  20.691  67.410  1.00  0.00     0.131 C 
HETATM    2  N4  UNL     1       1.812  19.866  66.617  1.00  0.00    -0.265 N 
ATOM      3  H4  UNL     1       1.725  20.158  65.643  1.00  0.00     0.194 HD
ENDROOT
BRANCH   1   4
HETATM    4  C3  UNL     1       1.291  20.531  68.854  1.00  0.00     0.283 C 
HETATM    5  N3  UNL     1       0.653  19.491  69.556  1.00  0.00    -0.232 N 
ATOM      6  H3  UNL     1       0.144  18.766  69.051  1.00  0.00     0.183 HD
HETATM    7  O3  UNL     1       1.911  21.412  69.555  1.00  0.00    -0.265 OA
BRANCH   5   8
HETATM    8  S1  UNL     1       0.736  19.454  71.289  1.00  0.00     0.327 S 
HETATM    9  O1  UNL     1      -0.364  20.372  71.806  1.00  0.00    -0.182 OA
HETATM   10  O2  UNL     1       0.385  18.085  71.786  1.00  0.00    -0.182 OA
BRANCH   8  11
HETATM   11  N2  UNL     1       2.258  19.969  71.884  1.00  0.00    -0.251 N 
ATOM     12  H2  UNL     1       2.991  20.259  71.238  1.00  0.00     0.182 HD
BRANCH  11  13
HETATM   13  C2  UNL     1       2.488  19.989  73.279  1.00  0.00     0.146 A 
HETATM   14  N1  UNL     1       2.992  18.957  73.963  1.00  0.00    -0.320 N 
HETATM   15  C1  UNL     1       3.321  17.737  73.290  1.00  0.00     0.159 C 
HETATM   16  C16 UNL     1       3.202  19.012  75.295  1.00  0.00     0.134 A 
HETATM   17  C15 UNL     1       2.899  20.155  76.004  1.00  0.00     0.131 A 
HETATM   18  N9  UNL     1       3.689  17.985  75.891  1.00  0.00    -0.383 N 
HETATM   19  C14 UNL     1       2.375  21.244  75.329  1.00  0.00     0.117 A 
HETATM   20  N8  UNL     1       2.990  20.504  77.285  1.00  0.00    -0.236 N 
HETATM   21  C13 UNL     1       2.173  21.157  73.980  1.00  0.00     0.122 A 
HETATM   22  N7  UNL     1       2.186  22.184  76.271  1.00  0.00    -0.237 N 
HETATM   23  N6  UNL     1       1.630  22.295  73.306  1.00  0.00    -0.096 NA
HETATM   24  O12 UNL     1       2.559  21.722  77.426  1.00  0.00    -0.156 OA
ATOM     25  H7  UNL     1       1.809  23.117  76.104  1.00  0.00     0.197 HD
ATOM     26  H8  UNL     1       3.343  19.910  78.035  1.00  0.00     0.197 HD
ATOM     27  H92 UNL     1       3.913  17.141  75.366  1.00  0.00     0.157 HD
ATOM     28  H91 UNL     1       3.848  18.027  76.897  1.00  0.00     0.157 HD
ENDBRANCH  11  13
ENDBRANCH   8  11
ENDBRANCH   5   8
ENDBRANCH   1   4
BRANCH   1  29
HETATM   29  C5  UNL     1       0.663  21.961  66.903  1.00  0.00     0.207 C 
BRANCH  29  30
HETATM   30  O5  UNL     1      -0.087  22.464  67.990  1.00  0.00    -0.387 OA
ATOM     31  H5  UNL     1      -0.762  23.009  67.603  1.00  0.00     0.210 HD
ENDBRANCH  29  30
BRANCH  29  32
HETATM   32  C6  UNL     1       1.655  22.989  66.484  1.00  0.00     0.189 C 
BRANCH  32  33
HETATM   33  O6  UNL     1       2.874  22.876  67.155  1.00  0.00    -0.390 OA
ATOM     34  H6  UNL     1       3.174  23.700  67.523  1.00  0.00     0.210 HD
ENDBRANCH  32  33
BRANCH  32  35
HETATM   35  C7  UNL     1       1.804  23.014  64.984  1.00  0.00     0.224 C 
BRANCH  35  36
HETATM   36  O7  UNL     1       2.941  22.264  64.612  1.00  0.00    -0.385 OA
ATOM     37  H7  UNL     1       3.708  22.823  64.629  1.00  0.00     0.210 HD
ENDBRANCH  35  36
BRANCH  35  38
HETATM   38  C8  UNL     1       2.142  24.432  64.620  1.00  0.00     0.158 A 
HETATM   39  N5  UNL     1       3.368  24.943  64.809  1.00  0.00    -0.305 N 
HETATM   40  C9  UNL     1       3.670  26.225  64.478  1.00  0.00     0.249 A 
ATOM     41  H5  UNL     1       4.094  24.352  65.213  1.00  0.00     0.171 HD
HETATM   42  O8  UNL     1       4.814  26.718  64.649  1.00  0.00    -0.268 OA
HETATM   43  C10 UNL     1       2.670  27.004  63.935  1.00  0.00     0.112 A 
HETATM   44  C11 UNL     1       1.416  26.439  63.756  1.00  0.00     0.115 A 
HETATM   45  O11 UNL     1       1.221  25.201  64.103  1.00  0.00    -0.294 OA
BRANCH  44  46
HETATM   46  C12 UNL     1       0.320  27.251  63.173  1.00  0.00     0.312 C 
BRANCH  46  47
HETATM   47  O9  UNL     1       0.820  28.260  62.348  1.00  0.00    -0.365 OA
ATOM     48  H9  UNL     1       0.446  28.209  61.476  1.00  0.00     0.213 HD
ENDBRANCH  46  47
BRANCH  46  49
HETATM   49  O10 UNL     1      -0.502  27.732  64.163  1.00  0.00    -0.365 OA
ATOM     50  H10 UNL     1      -0.018  28.295  64.755  1.00  0.00     0.213 HD
ENDBRANCH  46  49
ENDBRANCH  44  46
ENDBRANCH  35  38
ENDBRANCH  32  35
ENDBRANCH  29  32
ENDBRANCH   1  29
BRANCH   2  51
HETATM   51  O4  UNL     1       2.432  18.697  66.742  1.00  0.00    -0.289 OA
ATOM     52  H4  UNL     1       2.205  17.793  66.564  1.00  0.00     0.244 HD
ENDBRANCH   2  51
TORSDOF 15
ENDMDL
MODEL 4
REMARK VINA RESULT: -9.283004067      1.668      2.710
REMARK  15 active torsions:
REMARK  status: ('A' for Active; 'I' for Inactive)
REMARK    1  A    between atoms: C2_3  and  N2_4 
REMARK    2  A    between atoms: N2_4  and  S1_6 
REMARK    3  A    between atoms: S1_6  and  N3_9 
REMARK       I    between atoms: N3_9  and  C3_11 
REMARK    4  A    between atoms: C3_11  and  C4_13 
REMARK    5  A    between atoms: C4_13  and  C5_18 
REMARK    6  A    between atoms: N4_14  and  O4_16 
REMARK    7  A    between atoms: C5_18  and  O5_19 
REMARK    8  A    between atoms: C5_18  and  C6_21 
REMARK    9  A    between atoms: C6_21  and  O6_22 
REMARK   10  A    between atoms: C6_21  and  C7_24 
REMARK   11  A    between atoms: C7_24  and  O7_25 
REMARK   12  A    between atoms: C7_24  and  C8_27 
REMARK   13  A    between atoms: C11_33  and  C12_34 
REMARK   14  A    between atoms: C12_34  and  O9_35 
REMARK   15  A    between atoms: C12_34  and  O10_37 
ROOT
HETATM    1  C4  UNL     1       1.720  20.067  68.486  1.00  0.00     0.131 C 
HETATM    2  N4  UNL     1       1.917  21.187  69.007  1.00  0.00    -0.265 N 
ATOM      3  H4  UNL     1       2.201  21.890  68.325  1.00  0.00     0.194 HD
ENDROOT
BRANCH   1   4
HETATM    4  C3  UNL     1       1.307  18.885  69.221  1.00  0.00     0.283 C 
HETATM    5  N3  UNL     1      -0.023  18.479  69.443  1.00  0.00    -0.232 N 
ATOM      6  H3  UNL     1      -0.797  19.033  69.077  1.00  0.00     0.183 HD
HETATM    7  O3  UNL     1       2.232  18.141  69.713  1.00  0.00    -0.265 OA
BRANCH   5   8
HETATM    8  S1  UNL     1      -0.335  17.029  70.345  1.00  0.00     0.327 S 
HETATM    9  O1  UNL     1      -1.677  16.490  69.867  1.00  0.00    -0.182 OA
HETATM   10  O2  UNL     1       0.672  15.980  69.986  1.00  0.00    -0.182 OA
BRANCH   8  11
HETATM   11  N2  UNL     1      -0.382  17.305  72.035  1.00  0.00    -0.251 N 
ATOM     12  H2  UNL     1      -1.171  16.973  72.589  1.00  0.00     0.182 HD
BRANCH  11  13
HETATM   13  C2  UNL     1       0.683  17.999  72.656  1.00  0.00     0.146 A 
HETATM   14  N1  UNL     1       0.733  19.329  72.776  1.00  0.00    -0.320 N 
HETATM   15  C1  UNL     1      -0.323  20.141  72.251  1.00  0.00     0.159 C 
HETATM   16  C16 UNL     1       1.763  19.957  73.379  1.00  0.00     0.134 A 
HETATM   17  C15 UNL     1       2.815  19.234  73.899  1.00  0.00     0.131 A 
HETATM   18  N9  UNL     1       1.750  21.237  73.461  1.00  0.00    -0.383 N 
HETATM   19  C14 UNL     1       2.798  17.854  73.793  1.00  0.00     0.117 A 
HETATM   20  N8  UNL     1       3.941  19.556  74.532  1.00  0.00    -0.236 N 
HETATM   21  C13 UNL     1       1.740  17.246  73.176  1.00  0.00     0.122 A 
HETATM   22  N7  UNL     1       3.935  17.441  74.379  1.00  0.00    -0.237 N 
HETATM   23  N6  UNL     1       1.746  15.820  73.079  1.00  0.00    -0.096 NA
HETATM   24  O12 UNL     1       4.599  18.471  74.811  1.00  0.00    -0.156 OA
ATOM     25  H7  UNL     1       4.231  16.469  74.471  1.00  0.00     0.197 HD
ATOM     26  H8  UNL     1       4.239  20.505  74.760  1.00  0.00     0.197 HD
ATOM     27  H92 UNL     1       0.972  21.772  73.076  1.00  0.00     0.157 HD
ATOM     28  H91 UNL     1       2.528  21.712  73.917  1.00  0.00     0.157 HD
ENDBRANCH  11  13
ENDBRANCH   8  11
ENDBRANCH   5   8
ENDBRANCH   1   4
BRANCH   1  29
HETATM   29  C5  UNL     1       1.901  19.861  66.998  1.00  0.00     0.207 C 
BRANCH  29  30
HETATM   30  O5  UNL     1       1.705  18.478  66.782  1.00  0.00    -0.387 OA
ATOM     31  H5  UNL     1       2.419  18.206  66.218  1.00  0.00     0.210 HD
ENDBRANCH  29  30
BRANCH  29  32
HETATM   32  C6  UNL     1       0.915  20.622  66.183  1.00  0.00     0.189 C 
BRANCH  32  33
HETATM   33  O6  UNL     1       0.175  21.536  66.934  1.00  0.00    -0.390 OA
ATOM     34  H6  UNL     1       0.071  22.375  66.501  1.00  0.00     0.210 HD
ENDBRANCH  32  33
BRANCH  32  35
HETATM   35  C7  UNL     1       1.579  21.243  64.979  1.00  0.00     0.224 C 
BRANCH  35  36
HETATM   36  O7  UNL     1       2.863  20.683  64.810  1.00  0.00    -0.385 OA
ATOM     37  H7  UNL     1       2.794  19.875  64.316  1.00  0.00     0.210 HD
ENDBRANCH  35  36
BRANCH  35  38
HETATM   38  C8  UNL     1       1.830  22.681  65.335  1.00  0.00     0.158 A 
HETATM   39  N5  UNL     1       2.416  23.038  66.487  1.00  0.00    -0.305 N 
HETATM   40  C9  UNL     1       2.643  24.339  66.806  1.00  0.00     0.249 A 
ATOM     41  H5  UNL     1       2.701  22.312  67.144  1.00  0.00     0.171 HD
HETATM   42  O8  UNL     1       3.191  24.689  67.882  1.00  0.00    -0.268 OA
HETATM   43  C10 UNL     1       2.247  25.302  65.901  1.00  0.00     0.112 A 
HETATM   44  C11 UNL     1       1.643  24.892  64.722  1.00  0.00     0.115 A 
HETATM   45  O11 UNL     1       1.469  23.622  64.504  1.00  0.00    -0.294 OA
BRANCH  44  46
HETATM   46  C12 UNL     1       1.207  25.905  63.729  1.00  0.00     0.312 C 
BRANCH  46  47
HETATM   47  O9  UNL     1       2.277  26.340  62.945  1.00  0.00    -0.365 OA
ATOM     48  H9  UNL     1       2.454  25.733  62.236  1.00  0.00     0.213 HD
ENDBRANCH  46  47
BRANCH  46  49
HETATM   49  O10 UNL     1       0.548  26.937  64.351  1.00  0.00    -0.365 OA
ATOM     50  H10 UNL     1       0.065  27.455  63.718  1.00  0.00     0.213 HD
ENDBRANCH  46  49
ENDBRANCH  44  46
ENDBRANCH  35  38
ENDBRANCH  32  35
ENDBRANCH  29  32
ENDBRANCH   1  29
BRANCH   2  51
HETATM   51  O4  UNL     1       1.845  21.676  70.241  1.00  0.00    -0.289 OA
ATOM     52  H4  UNL     1       1.462  22.450  70.635  1.00  0.00     0.244 HD
ENDBRANCH   2  51
TORSDOF 15
ENDMDL
MODEL 5
REMARK VINA RESULT: -9.275266939      1.782      3.181
REMARK  15 active torsions:
REMARK  status: ('A' for Active; 'I' for Inactive)
REMARK    1  A    between atoms: C2_3  and  N2_4 
REMARK    2  A    between atoms: N2_4  and  S1_6 
REMARK    3  A    between atoms: S1_6  and  N3_9 
REMARK       I    between atoms: N3_9  and  C3_11 
REMARK    4  A    between atoms: C3_11  and  C4_13 
REMARK    5  A    between atoms: C4_13  and  C5_18 
REMARK    6  A    between atoms: N4_14  and  O4_16 
REMARK    7  A    between atoms: C5_18  and  O5_19 
REMARK    8  A    between atoms: C5_18  and  C6_21 
REMARK    9  A    between atoms: C6_21  and  O6_22 
REMARK   10  A    between atoms: C6_21  and  C7_24 
REMARK   11  A    between atoms: C7_24  and  O7_25 
REMARK   12  A    between atoms: C7_24  and  C8_27 
REMARK   13  A    between atoms: C11_33  and  C12_34 
REMARK   14  A    between atoms: C12_34  and  O9_35 
REMARK   15  A    between atoms: C12_34  and  O10_37 
ROOT
HETATM    1  C4  UNL     1       1.893  20.205  68.189  1.00  0.00     0.131 C 
HETATM    2  N4  UNL     1       2.020  21.378  68.603  1.00  0.00    -0.265 N 
ATOM      3  H4  UNL     1       2.237  22.035  67.854  1.00  0.00     0.194 HD
ENDROOT
BRANCH   1   4
HETATM    4  C3  UNL     1       1.584  19.068  69.037  1.00  0.00     0.283 C 
HETATM    5  N3  UNL     1       0.306  18.508  69.225  1.00  0.00    -0.232 N 
ATOM      6  H3  UNL     1      -0.504  18.903  68.746  1.00  0.00     0.183 HD
HETATM    7  O3  UNL     1       2.557  18.522  69.674  1.00  0.00    -0.265 OA
BRANCH   5   8
HETATM    8  S1  UNL     1       0.118  17.141  70.278  1.00  0.00     0.327 S 
HETATM    9  O1  UNL     1      -1.056  16.330  69.746  1.00  0.00    -0.182 OA
HETATM   10  O2  UNL     1       1.312  16.244  70.164  1.00  0.00    -0.182 OA
BRANCH   8  11
HETATM   11  N2  UNL     1      -0.174  17.599  71.903  1.00  0.00    -0.251 N 
ATOM     12  H2  UNL     1      -1.088  17.438  72.326  1.00  0.00     0.182 HD
BRANCH  11  13
HETATM   13  C2  UNL     1       0.862  18.204  72.651  1.00  0.00     0.146 A 
HETATM   14  N1  UNL     1       1.015  19.526  72.774  1.00  0.00    -0.320 N 
HETATM   15  C1  UNL     1       0.111  20.421  72.119  1.00  0.00     0.159 C 
HETATM   16  C16 UNL     1       2.014  20.068  73.501  1.00  0.00     0.134 A 
HETATM   17  C15 UNL     1       2.924  19.262  74.151  1.00  0.00     0.131 A 
HETATM   18  N9  UNL     1       2.104  21.346  73.578  1.00  0.00    -0.383 N 
HETATM   19  C14 UNL     1       2.797  17.887  74.046  1.00  0.00     0.117 A 
HETATM   20  N8  UNL     1       3.986  19.492  74.919  1.00  0.00    -0.236 N 
HETATM   21  C13 UNL     1       1.775  17.368  73.302  1.00  0.00     0.122 A 
HETATM   22  N7  UNL     1       3.810  17.384  74.771  1.00  0.00    -0.237 N 
HETATM   23  N6  UNL     1       1.665  15.945  73.209  1.00  0.00    -0.096 NA
HETATM   24  O12 UNL     1       4.504  18.357  75.281  1.00  0.00    -0.156 OA
ATOM     25  H7  UNL     1       4.004  16.391  74.901  1.00  0.00     0.197 HD
ATOM     26  H8  UNL     1       4.337  20.413  75.182  1.00  0.00     0.197 HD
ATOM     27  H92 UNL     1       1.432  21.942  73.097  1.00  0.00     0.157 HD
ATOM     28  H91 UNL     1       2.859  21.756  74.127  1.00  0.00     0.157 HD
ENDBRANCH  11  13
ENDBRANCH   8  11
ENDBRANCH   5   8
ENDBRANCH   1   4
BRANCH   1  29
HETATM   29  C5  UNL     1       2.058  19.879  66.721  1.00  0.00     0.207 C 
BRANCH  29  30
HETATM   30  O5  UNL     1       1.931  18.474  66.630  1.00  0.00    -0.387 OA
ATOM     31  H5  UNL     1       1.516  18.310  65.792  1.00  0.00     0.210 HD
ENDBRANCH  29  30
BRANCH  29  32
HETATM   32  C6  UNL     1       1.018  20.513  65.866  1.00  0.00     0.189 C 
BRANCH  32  33
HETATM   33  O6  UNL     1       0.201  21.402  66.567  1.00  0.00    -0.390 OA
ATOM     34  H6  UNL     1      -0.671  21.476  66.198  1.00  0.00     0.210 HD
ENDBRANCH  32  33
BRANCH  32  35
HETATM   35  C7  UNL     1       1.635  21.122  64.632  1.00  0.00     0.224 C 
BRANCH  35  36
HETATM   36  O7  UNL     1       2.983  20.717  64.532  1.00  0.00    -0.385 OA
ATOM     37  H7  UNL     1       3.550  21.447  64.752  1.00  0.00     0.210 HD
ENDBRANCH  35  36
BRANCH  35  38
HETATM   38  C8  UNL     1       1.696  22.603  64.882  1.00  0.00     0.158 A 
HETATM   39  N5  UNL     1       1.359  23.499  63.943  1.00  0.00    -0.305 N 
HETATM   40  C9  UNL     1       1.414  24.836  64.172  1.00  0.00     0.249 A 
ATOM     41  H5  UNL     1       1.053  23.166  63.029  1.00  0.00     0.171 HD
HETATM   42  O8  UNL     1       1.102  25.688  63.301  1.00  0.00    -0.268 OA
HETATM   43  C10 UNL     1       1.833  25.260  65.415  1.00  0.00     0.112 A 
HETATM   44  C11 UNL     1       2.173  24.303  66.360  1.00  0.00     0.115 A 
HETATM   45  O11 UNL     1       2.088  23.043  66.048  1.00  0.00    -0.294 OA
BRANCH  44  46
HETATM   46  C12 UNL     1       2.627  24.727  67.707  1.00  0.00     0.312 C 
BRANCH  46  47
HETATM   47  O9  UNL     1       2.905  26.095  67.741  1.00  0.00    -0.365 OA
ATOM     48  H9  UNL     1       2.985  26.409  68.634  1.00  0.00     0.213 HD
ENDBRANCH  46  47
BRANCH  46  49
HETATM   49  O10 UNL     1       3.686  23.959  68.124  1.00  0.00    -0.365 OA
ATOM     50  H10 UNL     1       4.009  24.262  68.964  1.00  0.00     0.213 HD
ENDBRANCH  46  49
ENDBRANCH  44  46
ENDBRANCH  35  38
ENDBRANCH  32  35
ENDBRANCH  29  32
ENDBRANCH   1  29
BRANCH   2  51
HETATM   51  O4  UNL     1       1.938  21.971  69.790  1.00  0.00    -0.289 OA
ATOM     52  H4  UNL     1       1.385  22.644  70.169  1.00  0.00     0.244 HD
ENDBRANCH   2  51
TORSDOF 15
ENDMDL
