MODEL 1
REMARK VINA RESULT: -7.648406837      0.000      0.000
REMARK  18 active torsions:
REMARK  status: ('A' for Active; 'I' for Inactive)
REMARK    1  A    between atoms: C3_5  and  O3_6 
REMARK    2  A    between atoms: C7_13  and  C8_14 
REMARK    3  A    between atoms: C8_14  and  O6_15 
REMARK    4  A    between atoms: C8_14  and  O7_17 
REMARK    5  A    between atoms: C10_23  and  O9_24 
REMARK    6  A    between atoms: C10_23  and  C11_26 
REMARK    7  A    between atoms: C11_26  and  O10_27 
REMARK    8  A    between atoms: O10_27  and  C12_28 
REMARK    9  A    between atoms: C12_28  and  C13_29 
REMARK   10  A    between atoms: C12_28  and  C14_32 
REMARK   11  A    between atoms: C13_29  and  O11_30 
REMARK   12  A    between atoms: C14_32  and  O12_33 
REMARK   13  A    between atoms: C17_39  and  O15_40 
REMARK   14  A    between atoms: C17_39  and  C18_42 
REMARK   15  A    between atoms: C18_42  and  C19_43 
REMARK   16  A    between atoms: C19_43  and  O16_44 
REMARK   17  A    between atoms: C19_43  and  O17_46 
REMARK   18  A    between atoms: N2_48  and  O18_49 
ROOT
HETATM    1  O1  UNL     1       2.294  15.003  71.462  1.00  0.00    -0.265 OA
HETATM    2  C1  UNL     1       1.119  15.133  71.871  1.00  0.00     0.272 C 
HETATM    3  O2  UNL     1       0.158  14.170  71.592  1.00  0.00    -0.316 OA
HETATM    4  C2  UNL     1      -1.025  14.940  71.282  1.00  0.00     0.248 C 
HETATM    5  C3  UNL     1      -1.043  16.021  72.319  1.00  0.00     0.205 C 
HETATM    6  O4  UNL     1      -1.745  17.119  72.111  1.00  0.00    -0.292 OA
HETATM    7  C4  UNL     1      -2.559  17.378  71.095  1.00  0.00     0.351 C 
HETATM    8  O5  UNL     1      -1.862  17.935  70.058  1.00  0.00    -0.328 OA
HETATM    9  C5  UNL     1      -0.938  18.890  70.329  1.00  0.00     0.217 C 
HETATM   10  C6  UNL     1       0.490  18.474  70.178  1.00  0.00     0.030 A 
HETATM   11  C7  UNL     1       1.283  18.586  69.037  1.00  0.00     0.098 A 
HETATM   12  N1  UNL     1       2.483  18.084  69.372  1.00  0.00    -0.260 N 
ATOM     13  H1  UNL     1       3.289  18.023  68.750  1.00  0.00     0.194 HD
HETATM   14  O8  UNL     1       2.458  17.702  70.566  1.00  0.00    -0.238 OA
HETATM   15  C9  UNL     1       1.260  17.909  71.134  1.00  0.00     0.124 A 
HETATM   16  C10 UNL     1       0.942  17.557  72.527  1.00  0.00     0.148 C 
HETATM   17  C15 UNL     1       0.431  16.158  72.658  1.00  0.00     0.193 C 
HETATM   18  C16 UNL     1      -3.507  16.322  70.655  1.00  0.00     0.345 C 
HETATM   19  O13 UNL     1      -3.588  15.601  69.635  1.00  0.00    -0.257 OA
HETATM   20  O14 UNL     1      -4.411  16.266  71.713  1.00  0.00    -0.261 OA
HETATM   21  C17 UNL     1      -4.638  17.616  72.127  1.00  0.00     0.266 C 
HETATM   22  N2  UNL     1      -3.574  18.367  71.518  1.00  0.00    -0.068 NA
ENDROOT
BRANCH  22  23
HETATM   23  O18 UNL     1      -3.131  19.281  72.361  1.00  0.00    -0.303 OA
ATOM     24  H18 UNL     1      -2.185  19.346  72.410  1.00  0.00     0.237 HD
ENDBRANCH  22  23
BRANCH   5  25
HETATM   25  O3  UNL     1      -1.634  15.398  73.459  1.00  0.00    -0.363 OA
ATOM     26  H3  UNL     1      -2.003  16.122  73.952  1.00  0.00     0.213 HD
ENDBRANCH   5  25
BRANCH  21  27
HETATM   27  O15 UNL     1      -4.491  17.629  73.510  1.00  0.00    -0.351 OA
ATOM     28  H15 UNL     1      -3.659  18.051  73.686  1.00  0.00     0.214 HD
ENDBRANCH  21  27
BRANCH  21  29
HETATM   29  C18 UNL     1      -6.008  18.090  71.785  1.00  0.00     0.150 C 
BRANCH  29  30
HETATM   30  C19 UNL     1      -6.522  18.961  72.939  1.00  0.00     0.260 C 
BRANCH  30  31
HETATM   31  O16 UNL     1      -5.790  20.167  72.977  1.00  0.00    -0.371 OA
ATOM     32  H16 UNL     1      -6.366  20.877  73.235  1.00  0.00     0.212 HD
ENDBRANCH  30  31
BRANCH  30  33
HETATM   33  O17 UNL     1      -7.855  19.261  72.815  1.00  0.00    -0.371 OA
ATOM     34  H17 UNL     1      -8.053  20.150  73.085  1.00  0.00     0.212 HD
ENDBRANCH  30  33
ENDBRANCH  29  30
ENDBRANCH  21  29
BRANCH  16  35
HETATM   35  O9  UNL     1       0.022  18.468  73.123  1.00  0.00    -0.380 OA
ATOM     36  H9  UNL     1      -0.869  18.331  72.825  1.00  0.00     0.211 HD
ENDBRANCH  16  35
BRANCH  16  37
HETATM   37  C11 UNL     1       2.141  17.766  73.442  1.00  0.00     0.214 C 
BRANCH  37  38
HETATM   38  O10 UNL     1       2.235  19.007  73.978  1.00  0.00    -0.378 OA
BRANCH  38  39
HETATM   39  C12 UNL     1       3.511  19.370  74.316  1.00  0.00     0.168 C 
BRANCH  39  40
HETATM   40  C13 UNL     1       4.299  18.075  74.551  1.00  0.00     0.198 C 
BRANCH  40  41
HETATM   41  O11 UNL     1       4.271  17.755  75.911  1.00  0.00    -0.398 OA
ATOM     42  H11 UNL     1       4.879  18.316  76.379  1.00  0.00     0.209 HD
ENDBRANCH  40  41
ENDBRANCH  39  40
BRANCH  39  43
HETATM   43  C14 UNL     1       3.589  20.151  75.608  1.00  0.00     0.198 C 
BRANCH  43  44
HETATM   44  O12 UNL     1       4.916  20.534  75.868  1.00  0.00    -0.398 OA
ATOM     45  H12 UNL     1       5.306  19.955  76.514  1.00  0.00     0.209 HD
ENDBRANCH  43  44
ENDBRANCH  39  43
ENDBRANCH  38  39
ENDBRANCH  37  38
ENDBRANCH  16  37
BRANCH  11  46
HETATM   46  C8  UNL     1       0.941  19.147  67.689  1.00  0.00     0.307 C 
BRANCH  46  47
HETATM   47  O6  UNL     1       1.826  18.754  66.704  1.00  0.00    -0.366 OA
ATOM     48  H6  UNL     1       1.768  19.289  65.922  1.00  0.00     0.213 HD
ENDBRANCH  46  47
BRANCH  46  49
HETATM   49  O7  UNL     1       0.790  20.530  67.744  1.00  0.00    -0.366 OA
ATOM     50  H7  UNL     1      -0.106  20.784  67.560  1.00  0.00     0.213 HD
ENDBRANCH  46  49
ENDBRANCH  11  46
TORSDOF 18
ENDMDL
MODEL 2
REMARK VINA RESULT: -7.307567475      2.275      7.295
REMARK  18 active torsions:
REMARK  status: ('A' for Active; 'I' for Inactive)
REMARK    1  A    between atoms: C3_5  and  O3_6 
REMARK    2  A    between atoms: C7_13  and  C8_14 
REMARK    3  A    between atoms: C8_14  and  O6_15 
REMARK    4  A    between atoms: C8_14  and  O7_17 
REMARK    5  A    between atoms: C10_23  and  O9_24 
REMARK    6  A    between atoms: C10_23  and  C11_26 
REMARK    7  A    between atoms: C11_26  and  O10_27 
REMARK    8  A    between atoms: O10_27  and  C12_28 
REMARK    9  A    between atoms: C12_28  and  C13_29 
REMARK   10  A    between atoms: C12_28  and  C14_32 
REMARK   11  A    between atoms: C13_29  and  O11_30 
REMARK   12  A    between atoms: C14_32  and  O12_33 
REMARK   13  A    between atoms: C17_39  and  O15_40 
REMARK   14  A    between atoms: C17_39  and  C18_42 
REMARK   15  A    between atoms: C18_42  and  C19_43 
REMARK   16  A    between atoms: C19_43  and  O16_44 
REMARK   17  A    between atoms: C19_43  and  O17_46 
REMARK   18  A    between atoms: N2_48  and  O18_49 
ROOT
HETATM    1  O1  UNL     1      -0.767  14.951  73.487  1.00  0.00    -0.265 OA
HETATM    2  C1  UNL     1      -0.047  15.523  72.640  1.00  0.00     0.272 C 
HETATM    3  O2  UNL     1       1.271  15.850  72.932  1.00  0.00    -0.316 OA
HETATM    4  C2  UNL     1       1.438  17.163  72.353  1.00  0.00     0.248 C 
HETATM    5  C3  UNL     1       0.761  17.069  71.021  1.00  0.00     0.205 C 
HETATM    6  O4  UNL     1       0.380  18.168  70.398  1.00  0.00    -0.292 OA
HETATM    7  C4  UNL     1       0.607  19.424  70.762  1.00  0.00     0.351 C 
HETATM    8  O5  UNL     1      -0.382  19.863  71.598  1.00  0.00    -0.328 OA
HETATM    9  C5  UNL     1      -1.671  19.560  71.303  1.00  0.00     0.217 C 
HETATM   10  C6  UNL     1      -2.315  18.534  72.178  1.00  0.00     0.030 A 
HETATM   11  C7  UNL     1      -3.048  18.761  73.342  1.00  0.00     0.098 A 
HETATM   12  N1  UNL     1      -3.424  17.550  73.783  1.00  0.00    -0.260 N 
ATOM     13  H1  UNL     1      -3.978  17.375  74.621  1.00  0.00     0.194 HD
HETATM   14  O8  UNL     1      -2.989  16.668  73.004  1.00  0.00    -0.238 OA
HETATM   15  C9  UNL     1      -2.293  17.197  71.987  1.00  0.00     0.124 A 
HETATM   16  C10 UNL     1      -1.665  16.399  70.921  1.00  0.00     0.148 C 
HETATM   17  C15 UNL     1      -0.271  15.982  71.269  1.00  0.00     0.193 C 
HETATM   18  C16 UNL     1       1.968  19.794  71.230  1.00  0.00     0.345 C 
HETATM   19  O13 UNL     1       2.444  20.115  72.342  1.00  0.00    -0.257 OA
HETATM   20  O14 UNL     1       2.722  19.715  70.062  1.00  0.00    -0.261 OA
HETATM   21  C17 UNL     1       1.911  20.256  69.016  1.00  0.00     0.266 C 
HETATM   22  N2  UNL     1       0.584  20.294  69.566  1.00  0.00    -0.068 NA
ENDROOT
BRANCH  22  23
HETATM   23  O18 UNL     1      -0.294  19.940  68.647  1.00  0.00    -0.303 OA
ATOM     24  H18 UNL     1       0.009  20.041  67.753  1.00  0.00     0.237 HD
ENDBRANCH  22  23
BRANCH   5  25
HETATM   25  O3  UNL     1       1.741  16.468  70.175  1.00  0.00    -0.363 OA
ATOM     26  H3  UNL     1       2.232  17.206  69.831  1.00  0.00     0.213 HD
ENDBRANCH   5  25
BRANCH  21  27
HETATM   27  O15 UNL     1       1.961  19.338  67.971  1.00  0.00    -0.351 OA
ATOM     28  H15 UNL     1       2.635  19.647  67.378  1.00  0.00     0.214 HD
ENDBRANCH  21  27
BRANCH  21  29
HETATM   29  C18 UNL     1       2.419  21.568  68.527  1.00  0.00     0.150 C 
BRANCH  29  30
HETATM   30  C19 UNL     1       2.028  21.721  67.051  1.00  0.00     0.260 C 
BRANCH  30  31
HETATM   31  O16 UNL     1       0.625  21.845  66.949  1.00  0.00    -0.371 OA
ATOM     32  H16 UNL     1       0.214  21.064  67.300  1.00  0.00     0.212 HD
ENDBRANCH  30  31
BRANCH  30  33
HETATM   33  O17 UNL     1       2.607  22.817  66.466  1.00  0.00    -0.371 OA
ATOM     34  H17 UNL     1       3.300  22.582  65.860  1.00  0.00     0.212 HD
ENDBRANCH  30  33
ENDBRANCH  29  30
ENDBRANCH  21  29
BRANCH  16  35
HETATM   35  O9  UNL     1      -1.673  17.067  69.663  1.00  0.00    -0.380 OA
ATOM     36  H9  UNL     1      -0.863  16.944  69.181  1.00  0.00     0.211 HD
ENDBRANCH  16  35
BRANCH  16  37
HETATM   37  C11 UNL     1      -2.505  15.179  70.571  1.00  0.00     0.214 C 
BRANCH  37  38
HETATM   38  O10 UNL     1      -3.445  15.392  69.618  1.00  0.00    -0.378 OA
BRANCH  38  39
HETATM   39  C12 UNL     1      -4.719  15.495  70.108  1.00  0.00     0.168 C 
BRANCH  39  40
HETATM   40  C13 UNL     1      -5.643  14.788  69.107  1.00  0.00     0.198 C 
BRANCH  40  41
HETATM   41  O11 UNL     1      -5.417  15.299  67.827  1.00  0.00    -0.398 OA
ATOM     42  H11 UNL     1      -5.957  14.831  67.200  1.00  0.00     0.209 HD
ENDBRANCH  40  41
ENDBRANCH  39  40
BRANCH  39  43
HETATM   43  C14 UNL     1      -5.212  16.920  70.201  1.00  0.00     0.198 C 
BRANCH  43  44
HETATM   44  O12 UNL     1      -4.533  17.733  69.276  1.00  0.00    -0.398 OA
ATOM     45  H12 UNL     1      -4.144  18.481  69.717  1.00  0.00     0.209 HD
ENDBRANCH  43  44
ENDBRANCH  39  43
ENDBRANCH  38  39
ENDBRANCH  37  38
ENDBRANCH  16  37
BRANCH  11  46
HETATM   46  C8  UNL     1      -3.393  20.057  74.014  1.00  0.00     0.307 C 
BRANCH  46  47
HETATM   47  O6  UNL     1      -3.392  19.962  75.393  1.00  0.00    -0.366 OA
ATOM     48  H6  UNL     1      -4.104  20.445  75.796  1.00  0.00     0.213 HD
ENDBRANCH  46  47
BRANCH  46  49
HETATM   49  O7  UNL     1      -4.585  20.577  73.520  1.00  0.00    -0.366 OA
ATOM     50  H7  UNL     1      -4.926  21.254  74.093  1.00  0.00     0.213 HD
ENDBRANCH  46  49
ENDBRANCH  11  46
TORSDOF 18
ENDMDL
MODEL 3
REMARK VINA RESULT: -7.297548610      2.180      5.582
REMARK  18 active torsions:
REMARK  status: ('A' for Active; 'I' for Inactive)
REMARK    1  A    between atoms: C3_5  and  O3_6 
REMARK    2  A    between atoms: C7_13  and  C8_14 
REMARK    3  A    between atoms: C8_14  and  O6_15 
REMARK    4  A    between atoms: C8_14  and  O7_17 
REMARK    5  A    between atoms: C10_23  and  O9_24 
REMARK    6  A    between atoms: C10_23  and  C11_26 
REMARK    7  A    between atoms: C11_26  and  O10_27 
REMARK    8  A    between atoms: O10_27  and  C12_28 
REMARK    9  A    between atoms: C12_28  and  C13_29 
REMARK   10  A    between atoms: C12_28  and  C14_32 
REMARK   11  A    between atoms: C13_29  and  O11_30 
REMARK   12  A    between atoms: C14_32  and  O12_33 
REMARK   13  A    between atoms: C17_39  and  O15_40 
REMARK   14  A    between atoms: C17_39  and  C18_42 
REMARK   15  A    between atoms: C18_42  and  C19_43 
REMARK   16  A    between atoms: C19_43  and  O16_44 
REMARK   17  A    between atoms: C19_43  and  O17_46 
REMARK   18  A    between atoms: N2_48  and  O18_49 
ROOT
HETATM    1  O1  UNL     1       0.649  22.319  72.532  1.00  0.00    -0.265 OA
HETATM    2  C1  UNL     1      -0.477  21.875  72.219  1.00  0.00     0.272 C 
HETATM    3  O2  UNL     1      -1.553  21.987  73.090  1.00  0.00    -0.316 OA
HETATM    4  C2  UNL     1      -2.228  20.715  72.971  1.00  0.00     0.248 C 
HETATM    5  C3  UNL     1      -2.229  20.434  71.499  1.00  0.00     0.205 C 
HETATM    6  O4  UNL     1      -2.406  19.200  71.066  1.00  0.00    -0.292 OA
HETATM    7  C4  UNL     1      -2.692  18.123  71.787  1.00  0.00     0.351 C 
HETATM    8  O5  UNL     1      -1.542  17.529  72.229  1.00  0.00    -0.328 OA
HETATM    9  C5  UNL     1      -0.499  17.403  71.372  1.00  0.00     0.217 C 
HETATM   10  C6  UNL     1       0.667  18.302  71.630  1.00  0.00     0.030 A 
HETATM   11  C7  UNL     1       1.786  18.025  72.413  1.00  0.00     0.098 A 
HETATM   12  N1  UNL     1       2.559  19.121  72.352  1.00  0.00    -0.260 N 
ATOM     13  H1  UNL     1       3.456  19.236  72.822  1.00  0.00     0.194 HD
HETATM   14  O8  UNL     1       2.006  19.983  71.626  1.00  0.00    -0.238 OA
HETATM   15  C9  UNL     1       0.831  19.551  71.143  1.00  0.00     0.124 A 
HETATM   16  C10 UNL     1      -0.037  20.352  70.264  1.00  0.00     0.148 C 
HETATM   17  C15 UNL     1      -1.001  21.196  71.033  1.00  0.00     0.193 C 
HETATM   18  C16 UNL     1      -3.734  18.228  72.842  1.00  0.00     0.345 C 
HETATM   19  O13 UNL     1      -3.704  18.208  74.093  1.00  0.00    -0.257 OA
HETATM   20  O14 UNL     1      -4.904  18.370  72.100  1.00  0.00    -0.261 OA
HETATM   21  C17 UNL     1      -4.787  17.486  70.982  1.00  0.00     0.266 C 
HETATM   22  N2  UNL     1      -3.394  17.136  70.938  1.00  0.00    -0.068 NA
ENDROOT
BRANCH  22  23
HETATM   23  O18 UNL     1      -2.980  17.097  69.686  1.00  0.00    -0.303 OA
ATOM     24  H18 UNL     1      -3.478  16.515  69.124  1.00  0.00     0.237 HD
ENDBRANCH  22  23
BRANCH   5  25
HETATM   25  O3  UNL     1      -3.343  21.178  71.005  1.00  0.00    -0.363 OA
ATOM     26  H3  UNL     1      -3.086  21.420  70.123  1.00  0.00     0.213 HD
ENDBRANCH   5  25
BRANCH  21  27
HETATM   27  O15 UNL     1      -5.120  18.235  69.858  1.00  0.00    -0.351 OA
ATOM     28  H15 UNL     1      -5.423  17.614  69.205  1.00  0.00     0.214 HD
ENDBRANCH  21  27
BRANCH  21  29
HETATM   29  C18 UNL     1      -5.717  16.326  71.080  1.00  0.00     0.150 C 
BRANCH  29  30
HETATM   30  C19 UNL     1      -6.214  15.983  69.669  1.00  0.00     0.260 C 
BRANCH  30  31
HETATM   31  O16 UNL     1      -5.127  15.540  68.884  1.00  0.00    -0.371 OA
ATOM     32  H16 UNL     1      -5.324  15.680  67.966  1.00  0.00     0.212 HD
ENDBRANCH  30  31
BRANCH  30  33
HETATM   33  O17 UNL     1      -7.176  15.006  69.676  1.00  0.00    -0.371 OA
ATOM     34  H17 UNL     1      -7.714  15.032  70.457  1.00  0.00     0.212 HD
ENDBRANCH  30  33
ENDBRANCH  29  30
ENDBRANCH  21  29
BRANCH  16  35
HETATM   35  O9  UNL     1      -0.739  19.552  69.316  1.00  0.00    -0.380 OA
ATOM     36  H9  UNL     1      -1.297  18.905  69.730  1.00  0.00     0.211 HD
ENDBRANCH  16  35
BRANCH  16  37
HETATM   37  C11 UNL     1       0.780  21.219  69.315  1.00  0.00     0.214 C 
BRANCH  37  38
HETATM   38  O10 UNL     1       0.539  21.001  67.999  1.00  0.00    -0.378 OA
BRANCH  38  39
HETATM   39  C12 UNL     1       1.670  20.937  67.231  1.00  0.00     0.168 C 
BRANCH  39  40
HETATM   40  C13 UNL     1       1.283  21.408  65.823  1.00  0.00     0.198 C 
BRANCH  40  41
HETATM   41  O11 UNL     1       0.488  20.436  65.210  1.00  0.00    -0.398 OA
ATOM     42  H11 UNL     1      -0.096  20.853  64.587  1.00  0.00     0.209 HD
ENDBRANCH  40  41
ENDBRANCH  39  40
BRANCH  39  43
HETATM   43  C14 UNL     1       2.208  19.534  67.072  1.00  0.00     0.198 C 
BRANCH  43  44
HETATM   44  O12 UNL     1       1.204  18.591  67.354  1.00  0.00    -0.398 OA
ATOM     45  H12 UNL     1       1.481  17.722  67.085  1.00  0.00     0.209 HD
ENDBRANCH  43  44
ENDBRANCH  39  43
ENDBRANCH  38  39
ENDBRANCH  37  38
ENDBRANCH  16  37
BRANCH  11  46
HETATM   46  C8  UNL     1       2.128  16.784  73.183  1.00  0.00     0.307 C 
BRANCH  46  47
HETATM   47  O6  UNL     1       2.908  17.041  74.294  1.00  0.00    -0.366 OA
ATOM     48  H6  UNL     1       2.826  16.372  74.964  1.00  0.00     0.213 HD
ENDBRANCH  46  47
BRANCH  46  49
HETATM   49  O7  UNL     1       2.691  15.818  72.354  1.00  0.00    -0.366 OA
ATOM     50  H7  UNL     1       2.021  15.349  71.871  1.00  0.00     0.213 HD
ENDBRANCH  46  49
ENDBRANCH  11  46
TORSDOF 18
ENDMDL
MODEL 4
REMARK VINA RESULT: -7.293391810      2.829      3.522
REMARK  18 active torsions:
REMARK  status: ('A' for Active; 'I' for Inactive)
REMARK    1  A    between atoms: C3_5  and  O3_6 
REMARK    2  A    between atoms: C7_13  and  C8_14 
REMARK    3  A    between atoms: C8_14  and  O6_15 
REMARK    4  A    between atoms: C8_14  and  O7_17 
REMARK    5  A    between atoms: C10_23  and  O9_24 
REMARK    6  A    between atoms: C10_23  and  C11_26 
REMARK    7  A    between atoms: C11_26  and  O10_27 
REMARK    8  A    between atoms: O10_27  and  C12_28 
REMARK    9  A    between atoms: C12_28  and  C13_29 
REMARK   10  A    between atoms: C12_28  and  C14_32 
REMARK   11  A    between atoms: C13_29  and  O11_30 
REMARK   12  A    between atoms: C14_32  and  O12_33 
REMARK   13  A    between atoms: C17_39  and  O15_40 
REMARK   14  A    between atoms: C17_39  and  C18_42 
REMARK   15  A    between atoms: C18_42  and  C19_43 
REMARK   16  A    between atoms: C19_43  and  O16_44 
REMARK   17  A    between atoms: C19_43  and  O17_46 
REMARK   18  A    between atoms: N2_48  and  O18_49 
ROOT
HETATM    1  O1  UNL     1       0.234  16.255  70.916  1.00  0.00    -0.265 OA
HETATM    2  C1  UNL     1      -0.532  17.086  71.451  1.00  0.00     0.272 C 
HETATM    3  O2  UNL     1      -1.910  16.967  71.324  1.00  0.00    -0.316 OA
HETATM    4  C2  UNL     1      -2.357  18.326  71.121  1.00  0.00     0.248 C 
HETATM    5  C3  UNL     1      -1.564  19.127  72.108  1.00  0.00     0.205 C 
HETATM    6  O4  UNL     1      -1.425  20.428  71.937  1.00  0.00    -0.292 OA
HETATM    7  C4  UNL     1      -1.997  21.188  71.012  1.00  0.00     0.351 C 
HETATM    8  O5  UNL     1      -1.230  21.217  69.880  1.00  0.00    -0.328 OA
HETATM    9  C5  UNL     1       0.114  21.353  70.004  1.00  0.00     0.217 C 
HETATM   10  C6  UNL     1       0.921  20.130  69.706  1.00  0.00     0.030 A 
HETATM   11  C7  UNL     1       1.467  19.759  68.478  1.00  0.00     0.098 A 
HETATM   12  N1  UNL     1       2.100  18.595  68.693  1.00  0.00    -0.260 N 
ATOM     13  H1  UNL     1       2.605  18.061  67.986  1.00  0.00     0.194 HD
HETATM   14  O8  UNL     1       1.975  18.267  69.897  1.00  0.00    -0.238 OA
HETATM   15  C9  UNL     1       1.258  19.165  70.589  1.00  0.00     0.124 A 
HETATM   16  C10 UNL     1       0.951  19.038  72.023  1.00  0.00     0.148 C 
HETATM   17  C15 UNL     1      -0.314  18.280  72.269  1.00  0.00     0.193 C 
HETATM   18  C16 UNL     1      -3.443  20.997  70.727  1.00  0.00     0.345 C 
HETATM   19  O13 UNL     1      -4.080  20.536  69.754  1.00  0.00    -0.257 OA
HETATM   20  O14 UNL     1      -4.047  21.484  71.883  1.00  0.00    -0.261 OA
HETATM   21  C17 UNL     1      -3.313  22.651  72.265  1.00  0.00     0.266 C 
HETATM   22  N2  UNL     1      -2.093  22.578  71.508  1.00  0.00    -0.068 NA
ENDROOT
BRANCH  22  23
HETATM   23  O18 UNL     1      -1.077  22.965  72.256  1.00  0.00    -0.303 OA
ATOM     24  H18 UNL     1      -1.296  23.127  73.165  1.00  0.00     0.237 HD
ENDBRANCH  22  23
BRANCH   5  25
HETATM   25  O3  UNL     1      -2.281  18.975  73.333  1.00  0.00    -0.363 OA
ATOM     26  H3  UNL     1      -1.663  19.256  73.998  1.00  0.00     0.213 HD
ENDBRANCH   5  25
BRANCH  21  27
HETATM   27  O15 UNL     1      -3.035  22.509  73.621  1.00  0.00    -0.351 OA
ATOM     28  H15 UNL     1      -2.102  22.341  73.685  1.00  0.00     0.214 HD
ENDBRANCH  21  27
BRANCH  21  29
HETATM   29  C18 UNL     1      -4.096  23.903  72.064  1.00  0.00     0.150 C 
BRANCH  29  30
HETATM   30  C19 UNL     1      -3.813  24.846  73.240  1.00  0.00     0.260 C 
BRANCH  30  31
HETATM   31  O16 UNL     1      -2.479  25.303  73.164  1.00  0.00    -0.371 OA
ATOM     32  H16 UNL     1      -2.459  26.144  72.724  1.00  0.00     0.212 HD
ENDBRANCH  30  31
BRANCH  30  33
HETATM   33  O17 UNL     1      -4.648  25.934  73.252  1.00  0.00    -0.371 OA
ATOM     34  H17 UNL     1      -4.940  26.177  72.381  1.00  0.00     0.212 HD
ENDBRANCH  30  33
ENDBRANCH  29  30
ENDBRANCH  21  29
BRANCH  16  35
HETATM   35  O9  UNL     1       0.897  20.300  72.684  1.00  0.00    -0.380 OA
ATOM     36  H9  UNL     1       1.423  20.318  73.474  1.00  0.00     0.211 HD
ENDBRANCH  16  35
BRANCH  16  37
HETATM   37  C11 UNL     1       2.103  18.397  72.785  1.00  0.00     0.214 C 
BRANCH  37  38
HETATM   38  O10 UNL     1       3.205  19.177  72.907  1.00  0.00    -0.378 OA
BRANCH  38  39
HETATM   39  C12 UNL     1       3.880  19.004  74.085  1.00  0.00     0.168 C 
BRANCH  39  40
HETATM   40  C13 UNL     1       3.247  17.798  74.792  1.00  0.00     0.198 C 
BRANCH  40  41
HETATM   41  O11 UNL     1       4.164  17.254  75.694  1.00  0.00    -0.398 OA
ATOM     42  H11 UNL     1       4.313  16.340  75.480  1.00  0.00     0.209 HD
ENDBRANCH  40  41
ENDBRANCH  39  40
BRANCH  39  43
HETATM   43  C14 UNL     1       3.736  20.171  75.034  1.00  0.00     0.198 C 
BRANCH  43  44
HETATM   44  O12 UNL     1       4.852  20.248  75.887  1.00  0.00    -0.398 OA
ATOM     45  H12 UNL     1       5.639  20.432  75.386  1.00  0.00     0.209 HD
ENDBRANCH  43  44
ENDBRANCH  39  43
ENDBRANCH  38  39
ENDBRANCH  37  38
ENDBRANCH  16  37
BRANCH  11  46
HETATM   46  C8  UNL     1       1.408  20.466  67.157  1.00  0.00     0.307 C 
BRANCH  46  47
HETATM   47  O6  UNL     1       0.389  21.397  67.092  1.00  0.00    -0.366 OA
ATOM     48  H6  UNL     1      -0.294  21.154  66.478  1.00  0.00     0.213 HD
ENDBRANCH  46  47
BRANCH  46  49
HETATM   49  O7  UNL     1       1.362  19.557  66.103  1.00  0.00    -0.366 OA
ATOM     50  H7  UNL     1       2.112  19.660  65.530  1.00  0.00     0.213 HD
ENDBRANCH  46  49
ENDBRANCH  11  46
TORSDOF 18
ENDMDL
MODEL 5
REMARK VINA RESULT: -7.158845583      0.894      1.073
REMARK  18 active torsions:
REMARK  status: ('A' for Active; 'I' for Inactive)
REMARK    1  A    between atoms: C3_5  and  O3_6 
REMARK    2  A    between atoms: C7_13  and  C8_14 
REMARK    3  A    between atoms: C8_14  and  O6_15 
REMARK    4  A    between atoms: C8_14  and  O7_17 
REMARK    5  A    between atoms: C10_23  and  O9_24 
REMARK    6  A    between atoms: C10_23  and  C11_26 
REMARK    7  A    between atoms: C11_26  and  O10_27 
REMARK    8  A    between atoms: O10_27  and  C12_28 
REMARK    9  A    between atoms: C12_28  and  C13_29 
REMARK   10  A    between atoms: C12_28  and  C14_32 
REMARK   11  A    between atoms: C13_29  and  O11_30 
REMARK   12  A    between atoms: C14_32  and  O12_33 
REMARK   13  A    between atoms: C17_39  and  O15_40 
REMARK   14  A    between atoms: C17_39  and  C18_42 
REMARK   15  A    between atoms: C18_42  and  C19_43 
REMARK   16  A    between atoms: C19_43  and  O16_44 
REMARK   17  A    between atoms: C19_43  and  O17_46 
REMARK   18  A    between atoms: N2_48  and  O18_49 
ROOT
HETATM    1  O1  UNL     1       2.428  15.242  71.544  1.00  0.00    -0.265 OA
HETATM    2  C1  UNL     1       1.242  15.331  71.933  1.00  0.00     0.272 C 
HETATM    3  O2  UNL     1       0.330  14.318  71.670  1.00  0.00    -0.316 OA
HETATM    4  C2  UNL     1      -0.882  15.025  71.322  1.00  0.00     0.248 C 
HETATM    5  C3  UNL     1      -0.963  16.134  72.326  1.00  0.00     0.205 C 
HETATM    6  O4  UNL     1      -1.711  17.192  72.076  1.00  0.00    -0.292 OA
HETATM    7  C4  UNL     1      -2.520  17.385  71.042  1.00  0.00     0.351 C 
HETATM    8  O5  UNL     1      -1.834  17.943  69.999  1.00  0.00    -0.328 OA
HETATM    9  C5  UNL     1      -0.957  18.945  70.254  1.00  0.00     0.217 C 
HETATM   10  C6  UNL     1       0.490  18.590  70.133  1.00  0.00     0.030 A 
HETATM   11  C7  UNL     1       1.293  18.705  69.000  1.00  0.00     0.098 A 
HETATM   12  N1  UNL     1       2.509  18.267  69.365  1.00  0.00    -0.260 N 
ATOM     13  H1  UNL     1       3.326  18.225  68.757  1.00  0.00     0.194 HD
HETATM   14  O8  UNL     1       2.485  17.919  70.570  1.00  0.00    -0.238 OA
HETATM   15  C9  UNL     1       1.270  18.089  71.115  1.00  0.00     0.124 A 
HETATM   16  C10 UNL     1       0.948  17.763  72.514  1.00  0.00     0.148 C 
HETATM   17  C15 UNL     1       0.498  16.346  72.680  1.00  0.00     0.193 C 
HETATM   18  C16 UNL     1      -3.414  16.275  70.622  1.00  0.00     0.345 C 
HETATM   19  O13 UNL     1      -3.448  15.522  69.622  1.00  0.00    -0.257 OA
HETATM   20  O14 UNL     1      -4.330  16.209  71.668  1.00  0.00    -0.261 OA
HETATM   21  C17 UNL     1      -4.622  17.559  72.039  1.00  0.00     0.266 C 
HETATM   22  N2  UNL     1      -3.584  18.339  71.423  1.00  0.00    -0.068 NA
ENDROOT
BRANCH  22  23
HETATM   23  O18 UNL     1      -3.195  19.296  72.243  1.00  0.00    -0.303 OA
ATOM     24  H18 UNL     1      -2.718  18.992  73.006  1.00  0.00     0.237 HD
ENDBRANCH  22  23
BRANCH   5  25
HETATM   25  O3  UNL     1      -1.542  15.518  73.476  1.00  0.00    -0.363 OA
ATOM     26  H3  UNL     1      -1.254  16.063  74.199  1.00  0.00     0.213 HD
ENDBRANCH   5  25
BRANCH  21  27
HETATM   27  O15 UNL     1      -4.496  17.618  73.424  1.00  0.00    -0.351 OA
ATOM     28  H15 UNL     1      -5.052  16.930  73.771  1.00  0.00     0.214 HD
ENDBRANCH  21  27
BRANCH  21  29
HETATM   29  C18 UNL     1      -6.007  17.961  71.666  1.00  0.00     0.150 C 
BRANCH  29  30
HETATM   30  C19 UNL     1      -5.935  18.843  70.412  1.00  0.00     0.260 C 
BRANCH  30  31
HETATM   31  O16 UNL     1      -7.160  18.764  69.713  1.00  0.00    -0.371 OA
ATOM     32  H16 UNL     1      -7.210  17.931  69.261  1.00  0.00     0.212 HD
ENDBRANCH  30  31
BRANCH  30  33
HETATM   33  O17 UNL     1      -5.687  20.158  70.712  1.00  0.00    -0.371 OA
ATOM     34  H17 UNL     1      -4.796  20.415  70.506  1.00  0.00     0.212 HD
ENDBRANCH  30  33
ENDBRANCH  29  30
ENDBRANCH  21  29
BRANCH  16  35
HETATM   35  O9  UNL     1      -0.020  18.648  73.071  1.00  0.00    -0.380 OA
ATOM     36  H9  UNL     1       0.076  18.747  74.011  1.00  0.00     0.211 HD
ENDBRANCH  16  35
BRANCH  16  37
HETATM   37  C11 UNL     1       2.123  18.052  73.438  1.00  0.00     0.214 C 
BRANCH  37  38
HETATM   38  O10 UNL     1       2.071  19.254  74.063  1.00  0.00    -0.378 OA
BRANCH  38  39
HETATM   39  C12 UNL     1       3.286  19.873  74.177  1.00  0.00     0.168 C 
BRANCH  39  40
HETATM   40  C13 UNL     1       4.201  18.925  74.963  1.00  0.00     0.198 C 
BRANCH  40  41
HETATM   41  O11 UNL     1       3.737  18.812  76.275  1.00  0.00    -0.398 OA
ATOM     42  H11 UNL     1       3.856  17.919  76.577  1.00  0.00     0.209 HD
ENDBRANCH  40  41
ENDBRANCH  39  40
BRANCH  39  43
HETATM   43  C14 UNL     1       3.230  21.158  74.971  1.00  0.00     0.198 C 
BRANCH  43  44
HETATM   44  O12 UNL     1       2.077  21.186  75.775  1.00  0.00    -0.398 OA
ATOM     45  H12 UNL     1       2.012  22.017  76.231  1.00  0.00     0.209 HD
ENDBRANCH  43  44
ENDBRANCH  39  43
ENDBRANCH  38  39
ENDBRANCH  37  38
ENDBRANCH  16  37
BRANCH  11  46
HETATM   46  C8  UNL     1       0.946  19.210  67.632  1.00  0.00     0.307 C 
BRANCH  46  47
HETATM   47  O6  UNL     1       1.824  18.772  66.660  1.00  0.00    -0.366 OA
ATOM     48  H6  UNL     1       2.734  18.906  66.896  1.00  0.00     0.213 HD
ENDBRANCH  46  47
BRANCH  46  49
HETATM   49  O7  UNL     1       0.803  20.595  67.630  1.00  0.00    -0.366 OA
ATOM     50  H7  UNL     1       1.235  20.982  66.878  1.00  0.00     0.213 HD
ENDBRANCH  46  49
ENDBRANCH  11  46
TORSDOF 18
ENDMDL
