MODEL 1
REMARK VINA RESULT: -7.752644709      0.000      0.000
REMARK  19 active torsions:
REMARK  status: ('A' for Active; 'I' for Inactive)
REMARK    1  A    between atoms: C4_7  and  C5_8 
REMARK    2  A    between atoms: C5_8  and  C6_9 
REMARK    3  A    between atoms: C6_9  and  O2_10 
REMARK    4  A    between atoms: C6_9  and  C7_12 
REMARK    5  A    between atoms: C7_12  and  O3_13 
REMARK    6  A    between atoms: C7_12  and  C8_15 
REMARK    7  A    between atoms: C8_15  and  O4_16 
REMARK    8  A    between atoms: C8_15  and  C9_18 
REMARK    9  A    between atoms: C9_18  and  O5_19 
REMARK   10  A    between atoms: C9_18  and  O6_21 
REMARK   11  A    between atoms: C11_24  and  O7_25 
REMARK   12  A    between atoms: C12_27  and  O8_28 
REMARK   13  A    between atoms: C13_32  and  N3_33 
REMARK   14  A    between atoms: C14_38  and  C15_39 
REMARK   15  A    between atoms: C15_39  and  O9_40 
REMARK   16  A    between atoms: C15_39  and  C16_42 
REMARK   17  A    between atoms: C16_42  and  O10_43 
REMARK   18  A    between atoms: C17_45  and  C18_46 
REMARK   19  A    between atoms: C18_46  and  O11_47 
ROOT
HETATM    1  O1  UNL     1      -0.569  23.208  69.360  1.00  0.00    -0.283 OA
HETATM    2  C1  UNL     1      -1.171  22.220  69.808  1.00  0.00     0.233 C 
HETATM    3  C2  UNL     1      -0.576  20.957  69.616  1.00  0.00     0.131 C 
HETATM    4  C3  UNL     1       0.343  20.909  68.502  1.00  0.00     0.100 A 
HETATM    5  N1  UNL     1       0.535  22.041  67.787  1.00  0.00    -0.355 N 
ATOM      6  H1  UNL     1       0.013  22.865  68.086  1.00  0.00     0.166 HD
HETATM    7  C4  UNL     1       1.331  22.192  66.739  1.00  0.00     0.015 A 
HETATM    8  C10 UNL     1       2.040  21.083  66.328  1.00  0.00     0.064 A 
HETATM    9  C11 UNL     1       1.921  19.881  66.982  1.00  0.00     0.103 A 
HETATM   10  C12 UNL     1       1.054  19.806  68.087  1.00  0.00     0.128 A 
HETATM   11  N2  UNL     1      -0.851  19.929  70.392  1.00  0.00    -0.183 N 
ATOM     12  H2  UNL     1      -0.123  19.215  70.373  1.00  0.00     0.184 HD
HETATM   13  C13 UNL     1      -1.872  19.607  71.203  1.00  0.00     0.707 C 
HETATM   14  N6  UNL     1      -2.818  20.447  71.635  1.00  0.00    -0.170 N 
ATOM     15  H6  UNL     1      -3.423  20.065  72.363  1.00  0.00     0.186 HD
HETATM   16  C19 UNL     1      -3.110  21.720  71.272  1.00  0.00     0.175 A 
HETATM   17  N7  UNL     1      -4.182  22.423  71.656  1.00  0.00    -0.223 N 
ATOM     18  H7  UNL     1      -4.930  22.106  72.273  1.00  0.00     0.198 HD
HETATM   19  O12 UNL     1      -4.087  23.590  71.088  1.00  0.00    -0.155 OA
HETATM   20  N8  UNL     1      -3.023  23.683  70.364  1.00  0.00    -0.234 N 
ATOM     21  H8  UNL     1      -2.732  24.497  69.824  1.00  0.00     0.197 HD
HETATM   22  C20 UNL     1      -2.371  22.523  70.449  1.00  0.00     0.155 A 
ENDROOT
BRANCH  10  23
HETATM   23  O8  UNL     1       0.966  18.623  68.694  1.00  0.00    -0.356 OA
ATOM     24  H8  UNL     1       1.686  18.004  68.719  1.00  0.00     0.218 HD
ENDBRANCH  10  23
BRANCH  13  25
HETATM   25  N3  UNL     1      -1.951  18.260  71.637  1.00  0.00    -0.072 N 
HETATM   26  N4  UNL     1      -3.046  17.485  71.696  1.00  0.00    -0.221 N 
HETATM   27  N5  UNL     1      -2.750  16.285  72.149  1.00  0.00    -0.285 N 
ATOM     28  H4  UNL     1      -3.983  17.785  71.425  1.00  0.00     0.209 HD
HETATM   29  C14 UNL     1      -1.421  16.221  72.414  1.00  0.00     0.085 A 
ATOM     30  H5  UNL     1      -3.415  15.523  72.281  1.00  0.00     0.188 HD
HETATM   31  C17 UNL     1      -0.947  17.474  72.083  1.00  0.00     0.103 A 
BRANCH  29  32
HETATM   32  C15 UNL     1      -0.631  15.085  72.936  1.00  0.00     0.195 C 
BRANCH  32  33
HETATM   33  O9  UNL     1      -1.177  14.513  74.061  1.00  0.00    -0.387 OA
ATOM     34  H9  UNL     1      -0.589  13.908  74.499  1.00  0.00     0.210 HD
ENDBRANCH  32  33
BRANCH  32  35
HETATM   35  C16 UNL     1      -0.505  14.074  71.791  1.00  0.00     0.202 C 
BRANCH  35  36
HETATM   36  O10 UNL     1      -0.315  14.697  70.579  1.00  0.00    -0.398 OA
ATOM     37  H10 UNL     1      -1.139  14.932  70.171  1.00  0.00     0.209 HD
ENDBRANCH  35  36
ENDBRANCH  32  35
ENDBRANCH  29  32
BRANCH  31  38
HETATM   38  C18 UNL     1       0.471  17.901  72.199  1.00  0.00     0.226 C 
BRANCH  38  39
HETATM   39  O11 UNL     1       1.235  17.463  71.126  1.00  0.00    -0.395 OA
ATOM     40  H11 UNL     1       1.497  16.556  71.223  1.00  0.00     0.209 HD
ENDBRANCH  38  39
ENDBRANCH  31  38
ENDBRANCH  13  25
BRANCH   7  41
HETATM   41  C5  UNL     1       1.498  23.484  66.027  1.00  0.00     0.091 C 
BRANCH  41  42
HETATM   42  C6  UNL     1       1.883  24.557  66.993  1.00  0.00     0.155 C 
BRANCH  42  43
HETATM   43  O2  UNL     1       3.073  24.258  67.669  1.00  0.00    -0.393 OA
ATOM     44  H2  UNL     1       2.917  23.772  68.471  1.00  0.00     0.210 HD
ENDBRANCH  42  43
BRANCH  42  45
HETATM   45  C7  UNL     1       2.017  25.926  66.398  1.00  0.00     0.180 C 
BRANCH  45  46
HETATM   46  O3  UNL     1       2.888  26.633  67.279  1.00  0.00    -0.390 OA
ATOM     47  H3  UNL     1       3.252  27.339  66.757  1.00  0.00     0.210 HD
ENDBRANCH  45  46
BRANCH  45  48
HETATM   48  C8  UNL     1       2.695  25.908  65.039  1.00  0.00     0.204 C 
BRANCH  48  49
HETATM   49  O4  UNL     1       4.083  25.929  65.171  1.00  0.00    -0.388 OA
ATOM     50  H4  UNL     1       4.434  26.784  64.954  1.00  0.00     0.210 HD
ENDBRANCH  48  49
BRANCH  48  51
HETATM   51  C9  UNL     1       2.176  27.034  64.205  1.00  0.00     0.285 C 
BRANCH  51  52
HETATM   52  O5  UNL     1       2.102  26.738  62.865  1.00  0.00    -0.369 OA
ATOM     53  H5  UNL     1       2.344  27.463  62.302  1.00  0.00     0.212 HD
ENDBRANCH  51  52
BRANCH  51  54
HETATM   54  O6  UNL     1       2.890  28.208  64.374  1.00  0.00    -0.369 OA
ATOM     55  H6  UNL     1       2.490  28.801  64.999  1.00  0.00     0.212 HD
ENDBRANCH  51  54
ENDBRANCH  48  51
ENDBRANCH  45  48
ENDBRANCH  42  45
ENDBRANCH  41  42
ENDBRANCH   7  41
BRANCH   9  56
HETATM   56  O7  UNL     1       2.607  18.745  66.613  1.00  0.00    -0.358 OA
ATOM     57  H7  UNL     1       3.462  18.515  66.957  1.00  0.00     0.217 HD
ENDBRANCH   9  56
TORSDOF 19
ENDMDL
MODEL 2
REMARK VINA RESULT: -7.678466750      6.388      8.461
REMARK  19 active torsions:
REMARK  status: ('A' for Active; 'I' for Inactive)
REMARK    1  A    between atoms: C4_7  and  C5_8 
REMARK    2  A    between atoms: C5_8  and  C6_9 
REMARK    3  A    between atoms: C6_9  and  O2_10 
REMARK    4  A    between atoms: C6_9  and  C7_12 
REMARK    5  A    between atoms: C7_12  and  O3_13 
REMARK    6  A    between atoms: C7_12  and  C8_15 
REMARK    7  A    between atoms: C8_15  and  O4_16 
REMARK    8  A    between atoms: C8_15  and  C9_18 
REMARK    9  A    between atoms: C9_18  and  O5_19 
REMARK   10  A    between atoms: C9_18  and  O6_21 
REMARK   11  A    between atoms: C11_24  and  O7_25 
REMARK   12  A    between atoms: C12_27  and  O8_28 
REMARK   13  A    between atoms: C13_32  and  N3_33 
REMARK   14  A    between atoms: C14_38  and  C15_39 
REMARK   15  A    between atoms: C15_39  and  O9_40 
REMARK   16  A    between atoms: C15_39  and  C16_42 
REMARK   17  A    between atoms: C16_42  and  O10_43 
REMARK   18  A    between atoms: C17_45  and  C18_46 
REMARK   19  A    between atoms: C18_46  and  O11_47 
ROOT
HETATM    1  O1  UNL     1       1.245  21.888  72.542  1.00  0.00    -0.283 OA
HETATM    2  C1  UNL     1       1.100  22.355  73.683  1.00  0.00     0.233 C 
HETATM    3  C2  UNL     1       1.906  21.820  74.708  1.00  0.00     0.131 C 
HETATM    4  C3  UNL     1       2.392  20.487  74.434  1.00  0.00     0.100 A 
HETATM    5  N1  UNL     1       2.040  19.912  73.260  1.00  0.00    -0.355 N 
ATOM      6  H1  UNL     1       1.449  20.464  72.639  1.00  0.00     0.166 HD
HETATM    7  C4  UNL     1       2.384  18.706  72.835  1.00  0.00     0.015 A 
HETATM    8  C10 UNL     1       3.182  17.953  73.669  1.00  0.00     0.064 A 
HETATM    9  C11 UNL     1       3.599  18.439  74.884  1.00  0.00     0.103 A 
HETATM   10  C12 UNL     1       3.189  19.730  75.262  1.00  0.00     0.128 A 
HETATM   11  N2  UNL     1       2.175  22.493  75.808  1.00  0.00    -0.183 N 
ATOM     12  H2  UNL     1       3.016  22.158  76.279  1.00  0.00     0.184 HD
HETATM   13  C13 UNL     1       1.594  23.519  76.451  1.00  0.00     0.707 C 
HETATM   14  N6  UNL     1       0.657  24.325  75.944  1.00  0.00    -0.170 N 
ATOM     15  H6  UNL     1       0.442  25.140  76.519  1.00  0.00     0.186 HD
HETATM   16  C19 UNL     1      -0.057  24.246  74.794  1.00  0.00     0.175 A 
HETATM   17  N7  UNL     1      -1.089  25.026  74.452  1.00  0.00    -0.223 N 
ATOM     18  H7  UNL     1      -1.486  25.788  75.002  1.00  0.00     0.198 HD
HETATM   19  O12 UNL     1      -1.490  24.623  73.281  1.00  0.00    -0.155 OA
HETATM   20  N8  UNL     1      -0.782  23.635  72.849  1.00  0.00    -0.234 N 
ATOM     21  H8  UNL     1      -0.905  23.150  71.960  1.00  0.00     0.197 HD
HETATM   22  C20 UNL     1       0.139  23.360  73.773  1.00  0.00     0.155 A 
ENDROOT
BRANCH  10  23
HETATM   23  O8  UNL     1       3.613  20.166  76.447  1.00  0.00    -0.356 OA
ATOM     24  H8  UNL     1       4.523  20.375  76.621  1.00  0.00     0.218 HD
ENDBRANCH  10  23
BRANCH  13  25
HETATM   25  N3  UNL     1       2.013  23.765  77.783  1.00  0.00    -0.072 N 
HETATM   26  N4  UNL     1       2.868  24.711  78.207  1.00  0.00    -0.221 N 
HETATM   27  N5  UNL     1       3.028  24.649  79.512  1.00  0.00    -0.285 N 
ATOM     28  H4  UNL     1       3.331  25.387  77.600  1.00  0.00     0.209 HD
HETATM   29  C14 UNL     1       2.271  23.638  80.010  1.00  0.00     0.085 A 
ATOM     30  H5  UNL     1       3.627  25.263  80.063  1.00  0.00     0.188 HD
HETATM   31  C17 UNL     1       1.647  23.103  78.902  1.00  0.00     0.103 A 
BRANCH  29  32
HETATM   32  C15 UNL     1       2.126  23.189  81.411  1.00  0.00     0.195 C 
BRANCH  32  33
HETATM   33  O9  UNL     1       2.682  21.954  81.649  1.00  0.00    -0.387 OA
ATOM     34  H9  UNL     1       2.449  21.593  82.496  1.00  0.00     0.210 HD
ENDBRANCH  32  33
BRANCH  32  35
HETATM   35  C16 UNL     1       2.761  24.274  82.288  1.00  0.00     0.202 C 
BRANCH  35  36
HETATM   36  O10 UNL     1       4.136  24.217  82.254  1.00  0.00    -0.398 OA
ATOM     37  H10 UNL     1       4.529  24.851  82.842  1.00  0.00     0.209 HD
ENDBRANCH  35  36
ENDBRANCH  32  35
ENDBRANCH  29  32
BRANCH  31  38
HETATM   38  C18 UNL     1       0.701  21.958  78.933  1.00  0.00     0.226 C 
BRANCH  38  39
HETATM   39  O11 UNL     1       1.221  20.836  78.302  1.00  0.00    -0.395 OA
ATOM     40  H11 UNL     1       0.634  20.091  78.361  1.00  0.00     0.209 HD
ENDBRANCH  38  39
ENDBRANCH  31  38
ENDBRANCH  13  25
BRANCH   7  41
HETATM   41  C5  UNL     1       1.969  18.162  71.517  1.00  0.00     0.091 C 
BRANCH  41  42
HETATM   42  C6  UNL     1       0.536  18.493  71.253  1.00  0.00     0.155 C 
BRANCH  42  43
HETATM   43  O2  UNL     1      -0.087  19.070  72.367  1.00  0.00    -0.393 OA
ATOM     44  H2  UNL     1      -0.974  19.353  72.176  1.00  0.00     0.210 HD
ENDBRANCH  42  43
BRANCH  42  45
HETATM   45  C7  UNL     1       0.299  19.385  70.073  1.00  0.00     0.180 C 
BRANCH  45  46
HETATM   46  O3  UNL     1      -0.368  20.532  70.599  1.00  0.00    -0.390 OA
ATOM     47  H3  UNL     1       0.325  21.096  70.923  1.00  0.00     0.210 HD
ENDBRANCH  45  46
BRANCH  45  48
HETATM   48  C8  UNL     1       1.591  19.882  69.448  1.00  0.00     0.204 C 
BRANCH  48  49
HETATM   49  O4  UNL     1       1.935  21.141  69.941  1.00  0.00    -0.388 OA
ATOM     50  H4  UNL     1       1.707  21.824  69.323  1.00  0.00     0.210 HD
ENDBRANCH  48  49
BRANCH  48  51
HETATM   51  C9  UNL     1       1.470  19.858  67.959  1.00  0.00     0.285 C 
BRANCH  51  52
HETATM   52  O5  UNL     1       0.450  20.641  67.476  1.00  0.00    -0.369 OA
ATOM     53  H5  UNL     1       0.615  20.989  66.608  1.00  0.00     0.212 HD
ENDBRANCH  51  52
BRANCH  51  54
HETATM   54  O6  UNL     1       1.345  18.578  67.446  1.00  0.00    -0.369 OA
ATOM     55  H6  UNL     1       0.607  18.102  67.807  1.00  0.00     0.212 HD
ENDBRANCH  51  54
ENDBRANCH  48  51
ENDBRANCH  45  48
ENDBRANCH  42  45
ENDBRANCH  41  42
ENDBRANCH   7  41
BRANCH   9  56
HETATM   56  O7  UNL     1       4.396  17.728  75.753  1.00  0.00    -0.358 OA
ATOM     57  H7  UNL     1       5.121  18.113  76.233  1.00  0.00     0.217 HD
ENDBRANCH   9  56
TORSDOF 19
ENDMDL
MODEL 3
REMARK VINA RESULT: -7.673459387      5.241      9.003
REMARK  19 active torsions:
REMARK  status: ('A' for Active; 'I' for Inactive)
REMARK    1  A    between atoms: C4_7  and  C5_8 
REMARK    2  A    between atoms: C5_8  and  C6_9 
REMARK    3  A    between atoms: C6_9  and  O2_10 
REMARK    4  A    between atoms: C6_9  and  C7_12 
REMARK    5  A    between atoms: C7_12  and  O3_13 
REMARK    6  A    between atoms: C7_12  and  C8_15 
REMARK    7  A    between atoms: C8_15  and  O4_16 
REMARK    8  A    between atoms: C8_15  and  C9_18 
REMARK    9  A    between atoms: C9_18  and  O5_19 
REMARK   10  A    between atoms: C9_18  and  O6_21 
REMARK   11  A    between atoms: C11_24  and  O7_25 
REMARK   12  A    between atoms: C12_27  and  O8_28 
REMARK   13  A    between atoms: C13_32  and  N3_33 
REMARK   14  A    between atoms: C14_38  and  C15_39 
REMARK   15  A    between atoms: C15_39  and  O9_40 
REMARK   16  A    between atoms: C15_39  and  C16_42 
REMARK   17  A    between atoms: C16_42  and  O10_43 
REMARK   18  A    between atoms: C17_45  and  C18_46 
REMARK   19  A    between atoms: C18_46  and  O11_47 
ROOT
HETATM    1  O1  UNL     1       0.174  20.397  71.796  1.00  0.00    -0.283 OA
HETATM    2  C1  UNL     1      -0.046  21.396  72.498  1.00  0.00     0.233 C 
HETATM    3  C2  UNL     1       0.977  21.810  73.375  1.00  0.00     0.131 C 
HETATM    4  C3  UNL     1       1.902  20.757  73.731  1.00  0.00     0.100 A 
HETATM    5  N1  UNL     1       1.700  19.529  73.200  1.00  0.00    -0.355 N 
ATOM      6  H1  UNL     1       0.900  19.426  72.576  1.00  0.00     0.166 HD
HETATM    7  C4  UNL     1       2.435  18.446  73.407  1.00  0.00     0.015 A 
HETATM    8  C10 UNL     1       3.517  18.577  74.250  1.00  0.00     0.064 A 
HETATM    9  C11 UNL     1       3.814  19.779  74.844  1.00  0.00     0.103 A 
HETATM   10  C12 UNL     1       2.984  20.881  74.571  1.00  0.00     0.128 A 
HETATM   11  N2  UNL     1       1.060  23.047  73.819  1.00  0.00    -0.183 N 
ATOM     12  H2  UNL     1       1.998  23.290  74.137  1.00  0.00     0.184 HD
HETATM   13  C13 UNL     1       0.189  24.062  73.948  1.00  0.00     0.707 C 
HETATM   14  N6  UNL     1      -1.017  24.131  73.376  1.00  0.00    -0.170 N 
ATOM     15  H6  UNL     1      -1.474  25.039  73.462  1.00  0.00     0.186 HD
HETATM   16  C19 UNL     1      -1.736  23.201  72.701  1.00  0.00     0.175 A 
HETATM   17  N7  UNL     1      -3.007  23.324  72.302  1.00  0.00    -0.223 N 
ATOM     18  H7  UNL     1      -3.615  24.130  72.446  1.00  0.00     0.198 HD
HETATM   19  O12 UNL     1      -3.317  22.215  71.695  1.00  0.00    -0.155 OA
HETATM   20  N8  UNL     1      -2.327  21.388  71.678  1.00  0.00    -0.234 N 
ATOM     21  H8  UNL     1      -2.329  20.457  71.261  1.00  0.00     0.197 HD
HETATM   22  C20 UNL     1      -1.303  21.967  72.304  1.00  0.00     0.155 A 
ENDROOT
BRANCH  10  23
HETATM   23  O8  UNL     1       3.305  22.029  75.167  1.00  0.00    -0.356 OA
ATOM     24  H8  UNL     1       4.144  22.171  75.589  1.00  0.00     0.218 HD
ENDBRANCH  10  23
BRANCH  13  25
HETATM   25  N3  UNL     1       0.587  25.152  74.762  1.00  0.00    -0.072 N 
HETATM   26  N4  UNL     1       0.958  26.378  74.359  1.00  0.00    -0.221 N 
HETATM   27  N5  UNL     1       1.264  27.140  75.388  1.00  0.00    -0.285 N 
ATOM     28  H4  UNL     1       0.997  26.679  73.385  1.00  0.00     0.209 HD
HETATM   29  C14 UNL     1       1.106  26.431  76.534  1.00  0.00     0.085 A 
ATOM     30  H5  UNL     1       1.572  28.111  75.332  1.00  0.00     0.188 HD
HETATM   31  C17 UNL     1       0.681  25.189  76.109  1.00  0.00     0.103 A 
BRANCH  29  32
HETATM   32  C15 UNL     1       1.328  26.861  77.931  1.00  0.00     0.195 C 
BRANCH  32  33
HETATM   33  O9  UNL     1       2.470  26.337  78.488  1.00  0.00    -0.387 OA
ATOM     34  H9  UNL     1       2.735  26.777  79.287  1.00  0.00     0.210 HD
ENDBRANCH  32  33
BRANCH  32  35
HETATM   35  C16 UNL     1       1.356  28.394  77.919  1.00  0.00     0.202 C 
BRANCH  35  36
HETATM   36  O10 UNL     1       2.550  28.878  77.437  1.00  0.00    -0.398 OA
ATOM     37  H10 UNL     1       2.418  29.585  76.817  1.00  0.00     0.209 HD
ENDBRANCH  35  36
ENDBRANCH  32  35
ENDBRANCH  29  32
BRANCH  31  38
HETATM   38  C18 UNL     1       0.368  24.048  77.008  1.00  0.00     0.226 C 
BRANCH  38  39
HETATM   39  O11 UNL     1       1.380  23.099  77.016  1.00  0.00    -0.395 OA
ATOM     40  H11 UNL     1       1.048  22.226  77.191  1.00  0.00     0.209 HD
ENDBRANCH  38  39
ENDBRANCH  31  38
ENDBRANCH  13  25
BRANCH   7  41
HETATM   41  C5  UNL     1       2.152  17.139  72.761  1.00  0.00     0.091 C 
BRANCH  41  42
HETATM   42  C6  UNL     1       1.491  17.352  71.438  1.00  0.00     0.155 C 
BRANCH  42  43
HETATM   43  O2  UNL     1       2.164  16.696  70.399  1.00  0.00    -0.393 OA
ATOM     44  H2  UNL     1       1.860  16.975  69.543  1.00  0.00     0.210 HD
ENDBRANCH  42  43
BRANCH  42  45
HETATM   45  C7  UNL     1       0.047  16.955  71.381  1.00  0.00     0.180 C 
BRANCH  45  46
HETATM   46  O3  UNL     1      -0.591  17.717  72.405  1.00  0.00    -0.390 OA
ATOM     47  H3  UNL     1      -1.207  18.280  71.950  1.00  0.00     0.210 HD
ENDBRANCH  45  46
BRANCH  45  48
HETATM   48  C8  UNL     1      -0.615  17.345  70.072  1.00  0.00     0.204 C 
BRANCH  48  49
HETATM   49  O4  UNL     1      -0.024  18.488  69.532  1.00  0.00    -0.388 OA
ATOM     50  H4  UNL     1       0.739  18.265  69.012  1.00  0.00     0.210 HD
ENDBRANCH  48  49
BRANCH  48  51
HETATM   51  C9  UNL     1      -2.086  17.499  70.279  1.00  0.00     0.285 C 
BRANCH  51  52
HETATM   52  O5  UNL     1      -2.450  18.737  70.750  1.00  0.00    -0.369 OA
ATOM     53  H5  UNL     1      -3.042  18.703  71.492  1.00  0.00     0.212 HD
ENDBRANCH  51  52
BRANCH  51  54
HETATM   54  O6  UNL     1      -2.623  16.522  71.101  1.00  0.00    -0.369 OA
ATOM     55  H6  UNL     1      -3.486  16.236  70.826  1.00  0.00     0.212 HD
ENDBRANCH  51  54
ENDBRANCH  48  51
ENDBRANCH  45  48
ENDBRANCH  42  45
ENDBRANCH  41  42
ENDBRANCH   7  41
BRANCH   9  56
HETATM   56  O7  UNL     1       4.883  19.963  75.693  1.00  0.00    -0.358 OA
ATOM     57  H7  UNL     1       5.607  20.549  75.504  1.00  0.00     0.217 HD
ENDBRANCH   9  56
TORSDOF 19
ENDMDL
MODEL 4
REMARK VINA RESULT: -7.639241464      3.154      5.209
REMARK  19 active torsions:
REMARK  status: ('A' for Active; 'I' for Inactive)
REMARK    1  A    between atoms: C4_7  and  C5_8 
REMARK    2  A    between atoms: C5_8  and  C6_9 
REMARK    3  A    between atoms: C6_9  and  O2_10 
REMARK    4  A    between atoms: C6_9  and  C7_12 
REMARK    5  A    between atoms: C7_12  and  O3_13 
REMARK    6  A    between atoms: C7_12  and  C8_15 
REMARK    7  A    between atoms: C8_15  and  O4_16 
REMARK    8  A    between atoms: C8_15  and  C9_18 
REMARK    9  A    between atoms: C9_18  and  O5_19 
REMARK   10  A    between atoms: C9_18  and  O6_21 
REMARK   11  A    between atoms: C11_24  and  O7_25 
REMARK   12  A    between atoms: C12_27  and  O8_28 
REMARK   13  A    between atoms: C13_32  and  N3_33 
REMARK   14  A    between atoms: C14_38  and  C15_39 
REMARK   15  A    between atoms: C15_39  and  O9_40 
REMARK   16  A    between atoms: C15_39  and  C16_42 
REMARK   17  A    between atoms: C16_42  and  O10_43 
REMARK   18  A    between atoms: C17_45  and  C18_46 
REMARK   19  A    between atoms: C18_46  and  O11_47 
ROOT
HETATM    1  O1  UNL     1      -0.099  20.782  71.544  1.00  0.00    -0.283 OA
HETATM    2  C1  UNL     1      -1.242  20.477  71.919  1.00  0.00     0.233 C 
HETATM    3  C2  UNL     1      -1.460  19.139  72.306  1.00  0.00     0.131 C 
HETATM    4  C3  UNL     1      -0.518  18.204  71.733  1.00  0.00     0.100 A 
HETATM    5  N1  UNL     1       0.445  18.693  70.917  1.00  0.00    -0.355 N 
ATOM      6  H1  UNL     1       0.443  19.700  70.760  1.00  0.00     0.166 HD
HETATM    7  C4  UNL     1       1.389  17.997  70.302  1.00  0.00     0.015 A 
HETATM    8  C10 UNL     1       1.397  16.635  70.509  1.00  0.00     0.064 A 
HETATM    9  C11 UNL     1       0.465  16.033  71.318  1.00  0.00     0.103 A 
HETATM   10  C12 UNL     1      -0.505  16.843  71.935  1.00  0.00     0.128 A 
HETATM   11  N2  UNL     1      -2.442  18.796  73.115  1.00  0.00    -0.183 N 
ATOM     12  H2  UNL     1      -2.277  17.902  73.577  1.00  0.00     0.184 HD
HETATM   13  C13 UNL     1      -3.610  19.357  73.469  1.00  0.00     0.707 C 
HETATM   14  N6  UNL     1      -3.964  20.626  73.245  1.00  0.00    -0.170 N 
ATOM     15  H6  UNL     1      -4.821  20.916  73.716  1.00  0.00     0.186 HD
HETATM   16  C19 UNL     1      -3.379  21.595  72.498  1.00  0.00     0.175 A 
HETATM   17  N7  UNL     1      -3.901  22.793  72.212  1.00  0.00    -0.223 N 
ATOM     18  H7  UNL     1      -4.808  23.150  72.511  1.00  0.00     0.198 HD
HETATM   19  O12 UNL     1      -3.026  23.415  71.475  1.00  0.00    -0.155 OA
HETATM   20  N8  UNL     1      -1.976  22.694  71.271  1.00  0.00    -0.234 N 
ATOM     21  H8  UNL     1      -1.158  22.964  70.726  1.00  0.00     0.197 HD
HETATM   22  C20 UNL     1      -2.152  21.532  71.899  1.00  0.00     0.155 A 
ENDROOT
BRANCH  10  23
HETATM   23  O8  UNL     1      -1.391  16.222  72.712  1.00  0.00    -0.356 OA
ATOM     24  H8  UNL     1      -1.612  15.304  72.606  1.00  0.00     0.218 HD
ENDBRANCH  10  23
BRANCH  13  25
HETATM   25  N3  UNL     1      -4.545  18.528  74.138  1.00  0.00    -0.072 N 
HETATM   26  N4  UNL     1      -4.835  18.520  75.450  1.00  0.00    -0.221 N 
HETATM   27  N5  UNL     1      -5.754  17.618  75.723  1.00  0.00    -0.285 N 
ATOM     28  H4  UNL     1      -4.401  19.130  76.142  1.00  0.00     0.209 HD
HETATM   29  C14 UNL     1      -6.112  16.982  74.579  1.00  0.00     0.085 A 
ATOM     30  H5  UNL     1      -6.136  17.426  76.649  1.00  0.00     0.188 HD
HETATM   31  C17 UNL     1      -5.337  17.575  73.603  1.00  0.00     0.103 A 
BRANCH  29  32
HETATM   32  C15 UNL     1      -7.103  15.900  74.388  1.00  0.00     0.195 C 
BRANCH  32  33
HETATM   33  O9  UNL     1      -6.538  14.702  74.021  1.00  0.00    -0.387 OA
ATOM     34  H9  UNL     1      -5.983  14.766  73.253  1.00  0.00     0.210 HD
ENDBRANCH  32  33
BRANCH  32  35
HETATM   35  C16 UNL     1      -7.881  15.780  75.703  1.00  0.00     0.202 C 
BRANCH  35  36
HETATM   36  O10 UNL     1      -7.149  15.132  76.672  1.00  0.00    -0.398 OA
ATOM     37  H10 UNL     1      -7.569  14.327  76.950  1.00  0.00     0.209 HD
ENDBRANCH  35  36
ENDBRANCH  32  35
ENDBRANCH  29  32
BRANCH  31  38
HETATM   38  C18 UNL     1      -5.370  17.216  72.161  1.00  0.00     0.226 C 
BRANCH  38  39
HETATM   39  O11 UNL     1      -4.217  16.554  71.764  1.00  0.00    -0.395 OA
ATOM     40  H11 UNL     1      -3.611  17.133  71.316  1.00  0.00     0.209 HD
ENDBRANCH  38  39
ENDBRANCH  31  38
ENDBRANCH  13  25
BRANCH   7  41
HETATM   41  C5  UNL     1       2.424  18.622  69.440  1.00  0.00     0.091 C 
BRANCH  41  42
HETATM   42  C6  UNL     1       1.882  19.860  68.801  1.00  0.00     0.155 C 
BRANCH  42  43
HETATM   43  O2  UNL     1       2.280  21.021  69.477  1.00  0.00    -0.393 OA
ATOM     44  H2  UNL     1       1.543  21.483  69.860  1.00  0.00     0.210 HD
ENDBRANCH  42  43
BRANCH  42  45
HETATM   45  C7  UNL     1       2.222  20.025  67.351  1.00  0.00     0.180 C 
BRANCH  45  46
HETATM   46  O3  UNL     1       1.634  18.901  66.698  1.00  0.00    -0.390 OA
ATOM     47  H3  UNL     1       2.352  18.297  66.546  1.00  0.00     0.210 HD
ENDBRANCH  45  46
BRANCH  45  48
HETATM   48  C8  UNL     1       1.590  21.263  66.740  1.00  0.00     0.204 C 
BRANCH  48  49
HETATM   49  O4  UNL     1       0.375  21.562  67.356  1.00  0.00    -0.388 OA
ATOM     50  H4  UNL     1       0.510  21.902  68.233  1.00  0.00     0.210 HD
ENDBRANCH  48  49
BRANCH  48  51
HETATM   51  C9  UNL     1       1.460  21.084  65.263  1.00  0.00     0.285 C 
BRANCH  51  52
HETATM   52  O5  UNL     1       0.322  20.414  64.887  1.00  0.00    -0.369 OA
ATOM     53  H5  UNL     1      -0.213  20.893  64.265  1.00  0.00     0.212 HD
ENDBRANCH  51  52
BRANCH  51  54
HETATM   54  O6  UNL     1       2.562  20.468  64.693  1.00  0.00    -0.369 OA
ATOM     55  H6  UNL     1       2.740  19.609  65.059  1.00  0.00     0.212 HD
ENDBRANCH  51  54
ENDBRANCH  48  51
ENDBRANCH  45  48
ENDBRANCH  42  45
ENDBRANCH  41  42
ENDBRANCH   7  41
BRANCH   9  56
HETATM   56  O7  UNL     1       0.431  14.677  71.558  1.00  0.00    -0.358 OA
ATOM     57  H7  UNL     1      -0.098  14.280  72.241  1.00  0.00     0.217 HD
ENDBRANCH   9  56
TORSDOF 19
ENDMDL
MODEL 5
REMARK VINA RESULT: -7.628395310      6.227      8.780
REMARK  19 active torsions:
REMARK  status: ('A' for Active; 'I' for Inactive)
REMARK    1  A    between atoms: C4_7  and  C5_8 
REMARK    2  A    between atoms: C5_8  and  C6_9 
REMARK    3  A    between atoms: C6_9  and  O2_10 
REMARK    4  A    between atoms: C6_9  and  C7_12 
REMARK    5  A    between atoms: C7_12  and  O3_13 
REMARK    6  A    between atoms: C7_12  and  C8_15 
REMARK    7  A    between atoms: C8_15  and  O4_16 
REMARK    8  A    between atoms: C8_15  and  C9_18 
REMARK    9  A    between atoms: C9_18  and  O5_19 
REMARK   10  A    between atoms: C9_18  and  O6_21 
REMARK   11  A    between atoms: C11_24  and  O7_25 
REMARK   12  A    between atoms: C12_27  and  O8_28 
REMARK   13  A    between atoms: C13_32  and  N3_33 
REMARK   14  A    between atoms: C14_38  and  C15_39 
REMARK   15  A    between atoms: C15_39  and  O9_40 
REMARK   16  A    between atoms: C15_39  and  C16_42 
REMARK   17  A    between atoms: C16_42  and  O10_43 
REMARK   18  A    between atoms: C17_45  and  C18_46 
REMARK   19  A    between atoms: C18_46  and  O11_47 
ROOT
HETATM    1  O1  UNL     1       1.255  21.378  72.326  1.00  0.00    -0.283 OA
HETATM    2  C1  UNL     1       1.104  21.919  73.433  1.00  0.00     0.233 C 
HETATM    3  C2  UNL     1       1.913  21.462  74.493  1.00  0.00     0.131 C 
HETATM    4  C3  UNL     1       2.409  20.117  74.310  1.00  0.00     0.100 A 
HETATM    5  N1  UNL     1       2.063  19.461  73.178  1.00  0.00    -0.355 N 
ATOM      6  H1  UNL     1       1.469  19.965  72.521  1.00  0.00     0.166 HD
HETATM    7  C4  UNL     1       2.417  18.231  72.836  1.00  0.00     0.015 A 
HETATM    8  C10 UNL     1       3.219  17.542  73.720  1.00  0.00     0.064 A 
HETATM    9  C11 UNL     1       3.630  18.113  74.900  1.00  0.00     0.103 A 
HETATM   10  C12 UNL     1       3.210  19.424  75.188  1.00  0.00     0.128 A 
HETATM   11  N2  UNL     1       2.175  22.209  75.545  1.00  0.00    -0.183 N 
ATOM     12  H2  UNL     1       3.018  21.914  76.038  1.00  0.00     0.184 HD
HETATM   13  C13 UNL     1       1.585  23.272  76.116  1.00  0.00     0.707 C 
HETATM   14  N6  UNL     1       0.643  24.036  75.554  1.00  0.00    -0.170 N 
ATOM     15  H6  UNL     1       0.422  24.886  76.073  1.00  0.00     0.186 HD
HETATM   16  C19 UNL     1      -0.069  23.874  74.412  1.00  0.00     0.175 A 
HETATM   17  N7  UNL     1      -1.106  24.620  74.017  1.00  0.00    -0.223 N 
ATOM     18  H7  UNL     1      -1.509  25.415  74.513  1.00  0.00     0.198 HD
HETATM   19  O12 UNL     1      -1.502  24.136  72.875  1.00  0.00    -0.155 OA
HETATM   20  N8  UNL     1      -0.786  23.126  72.512  1.00  0.00    -0.234 N 
ATOM     21  H8  UNL     1      -0.903  22.582  71.658  1.00  0.00     0.197 HD
HETATM   22  C20 UNL     1       0.136  22.921  73.453  1.00  0.00     0.155 A 
ENDROOT
BRANCH  10  23
HETATM   23  O8  UNL     1       3.629  19.942  76.342  1.00  0.00    -0.356 OA
ATOM     24  H8  UNL     1       3.635  19.448  77.154  1.00  0.00     0.218 HD
ENDBRANCH  10  23
BRANCH  13  25
HETATM   25  N3  UNL     1       2.001  23.611  77.429  1.00  0.00    -0.072 N 
HETATM   26  N4  UNL     1       2.866  24.574  77.787  1.00  0.00    -0.221 N 
HETATM   27  N5  UNL     1       3.018  24.608  79.094  1.00  0.00    -0.285 N 
ATOM     28  H4  UNL     1       3.341  25.197  77.134  1.00  0.00     0.209 HD
HETATM   29  C14 UNL     1       2.245  23.647  79.660  1.00  0.00     0.085 A 
ATOM     30  H5  UNL     1       3.622  25.254  79.602  1.00  0.00     0.188 HD
HETATM   31  C17 UNL     1       1.620  23.039  78.591  1.00  0.00     0.103 A 
BRANCH  29  32
HETATM   32  C15 UNL     1       2.086  23.306  81.091  1.00  0.00     0.195 C 
BRANCH  32  33
HETATM   33  O9  UNL     1       2.649  22.098  81.429  1.00  0.00    -0.387 OA
ATOM     34  H9  UNL     1       2.016  21.393  81.496  1.00  0.00     0.210 HD
ENDBRANCH  32  33
BRANCH  32  35
HETATM   35  C16 UNL     1       2.701  24.460  81.889  1.00  0.00     0.202 C 
BRANCH  35  36
HETATM   36  O10 UNL     1       4.068  24.344  81.984  1.00  0.00    -0.398 OA
ATOM     37  H10 UNL     1       4.499  25.187  81.916  1.00  0.00     0.209 HD
ENDBRANCH  35  36
ENDBRANCH  32  35
ENDBRANCH  29  32
BRANCH  31  38
HETATM   38  C18 UNL     1       0.657  21.913  78.701  1.00  0.00     0.226 C 
BRANCH  38  39
HETATM   39  O11 UNL     1       1.208  20.714  78.268  1.00  0.00    -0.395 OA
ATOM     40  H11 UNL     1       0.731  19.963  78.601  1.00  0.00     0.209 HD
ENDBRANCH  38  39
ENDBRANCH  31  38
ENDBRANCH  13  25
BRANCH   7  41
HETATM   41  C5  UNL     1       2.008  17.596  71.557  1.00  0.00     0.091 C 
BRANCH  41  42
HETATM   42  C6  UNL     1       1.956  18.619  70.469  1.00  0.00     0.155 C 
BRANCH  42  43
HETATM   43  O2  UNL     1       2.896  18.367  69.461  1.00  0.00    -0.393 OA
ATOM     44  H2  UNL     1       2.825  17.483  69.119  1.00  0.00     0.210 HD
ENDBRANCH  42  43
BRANCH  42  45
HETATM   45  C7  UNL     1       0.614  18.789  69.824  1.00  0.00     0.180 C 
BRANCH  45  46
HETATM   46  O3  UNL     1       0.703  18.085  68.586  1.00  0.00    -0.390 OA
ATOM     47  H3  UNL     1       0.861  17.179  68.825  1.00  0.00     0.210 HD
ENDBRANCH  45  46
BRANCH  45  48
HETATM   48  C8  UNL     1      -0.503  18.135  70.617  1.00  0.00     0.204 C 
BRANCH  48  49
HETATM   49  O4  UNL     1      -1.339  17.391  69.785  1.00  0.00    -0.388 OA
ATOM     50  H4  UNL     1      -1.007  16.509  69.667  1.00  0.00     0.210 HD
ENDBRANCH  48  49
BRANCH  48  51
HETATM   51  C9  UNL     1      -1.240  19.174  71.397  1.00  0.00     0.285 C 
BRANCH  51  52
HETATM   52  O5  UNL     1      -1.069  20.449  70.916  1.00  0.00    -0.369 OA
ATOM     53  H5  UNL     1      -1.393  20.569  70.031  1.00  0.00     0.212 HD
ENDBRANCH  51  52
BRANCH  51  54
HETATM   54  O6  UNL     1      -0.939  19.152  72.749  1.00  0.00    -0.369 OA
ATOM     55  H6  UNL     1      -0.139  19.618  72.960  1.00  0.00     0.212 HD
ENDBRANCH  51  54
ENDBRANCH  48  51
ENDBRANCH  45  48
ENDBRANCH  42  45
ENDBRANCH  41  42
ENDBRANCH   7  41
BRANCH   9  56
HETATM   56  O7  UNL     1       4.431  17.468  75.816  1.00  0.00    -0.358 OA
ATOM     57  H7  UNL     1       4.809  17.898  76.575  1.00  0.00     0.217 HD
ENDBRANCH   9  56
TORSDOF 19
ENDMDL
