MODEL 1
REMARK VINA RESULT: -5.343724949      0.000      0.000
REMARK  13 active torsions:
REMARK  status: ('A' for Active; 'I' for Inactive)
REMARK    1  A    between atoms: O1_2  and  C2_3 
REMARK    2  A    between atoms: C2_3  and  O2_4 
REMARK    3  A    between atoms: C2_3  and  C3_6 
REMARK    4  A    between atoms: C6_13  and  C7_14 
REMARK    5  A    between atoms: C7_14  and  O3_15 
REMARK    6  A    between atoms: C7_14  and  O4_17 
REMARK    7  A    between atoms: C9_21  and  N4_22 
REMARK    8  A    between atoms: N5_25  and  N6_26 
REMARK       I    between atoms: N6_26  and  C10_28 
REMARK       I    between atoms: C10_28  and  N8_32 
REMARK    9  A    between atoms: N8_32  and  N9_34 
REMARK   10  A    between atoms: N9_34  and  C12_36 
REMARK   11  A    between atoms: C12_36  and  O5_37 
REMARK   12  A    between atoms: C12_36  and  O6_39 
REMARK   13  A    between atoms: C12_36  and  N10_41 
ROOT
HETATM    1  N10 UNL     1      73.208 -18.287 -46.963  1.00  0.00    -0.252 N 
ATOM      2  H10 UNL     1      72.957 -18.264 -45.975  1.00  0.00     0.179 HD
HETATM    3  C13 UNL     1      72.553 -19.223 -47.773  1.00  0.00     0.183 C 
HETATM    4  N11 UNL     1      71.999 -20.001 -48.422  1.00  0.00    -0.172 NA
ENDROOT
BRANCH   1   5
HETATM    5  C12 UNL     1      74.204 -17.359 -47.411  1.00  0.00     0.360 C 
BRANCH   5   6
HETATM    6  N9  UNL     1      75.425 -17.363 -46.701  1.00  0.00    -0.240 N 
HETATM    7  C11 UNL     1      76.231 -18.523 -46.790  1.00  0.00     0.179 C 
BRANCH   6   8
HETATM    8  N8  UNL     1      76.141 -16.218 -46.601  1.00  0.00    -0.128 N 
HETATM    9  C10 UNL     1      77.328 -16.052 -47.424  1.00  0.00     0.705 C 
HETATM   10  N6  UNL     1      77.198 -16.051 -48.813  1.00  0.00    -0.121 N 
HETATM   11  N7  UNL     1      78.460 -15.945 -46.795  1.00  0.00    -0.232 N 
ATOM     12  H6  UNL     1      77.234 -16.978 -49.236  1.00  0.00     0.206 HD
ATOM     13  H72 UNL     1      79.293 -15.828 -47.371  1.00  0.00     0.174 HD
ATOM     14  H71 UNL     1      78.555 -15.946 -45.778  1.00  0.00     0.174 HD
ATOM     15  H8  UNL     1      75.851 -15.482 -45.958  1.00  0.00     0.205 HD
BRANCH  10  16
HETATM   16  N5  UNL     1      77.028 -15.025 -49.720  1.00  0.00    -0.206 N 
HETATM   17  C4  UNL     1      78.182 -14.624 -50.350  1.00  0.00     0.157 A 
HETATM   18  N2  UNL     1      79.429 -15.058 -50.245  1.00  0.00    -0.283 N 
HETATM   19  C5  UNL     1      78.209 -13.606 -51.303  1.00  0.00     0.053 A 
HETATM   20  N1  UNL     1      80.212 -14.385 -51.045  1.00  0.00    -0.297 N 
ATOM     21  H2  UNL     1      79.735 -15.809 -49.627  1.00  0.00     0.188 HD
HETATM   22  C3  UNL     1      79.500 -13.440 -51.751  1.00  0.00     0.095 A 
ATOM     23  H1  UNL     1      81.216 -14.538 -51.135  1.00  0.00     0.187 HD
HETATM   24  C6  UNL     1      77.028 -12.974 -51.644  1.00  0.00     0.040 A 
HETATM   25  C8  UNL     1      75.885 -13.386 -51.009  1.00  0.00     0.103 A 
HETATM   26  N3  UNL     1      74.607 -12.802 -51.225  1.00  0.00    -0.098 NA
HETATM   27  C9  UNL     1      75.880 -14.426 -50.034  1.00  0.00     0.148 A 
BRANCH  22  28
HETATM   28  C2  UNL     1      80.035 -12.429 -52.671  1.00  0.00     0.309 C 
BRANCH  28  29
HETATM   29  O1  UNL     1      81.385 -12.269 -52.739  1.00  0.00    -0.360 OA
HETATM   30  C1  UNL     1      81.666 -11.033 -52.109  1.00  0.00     0.205 C 
ENDBRANCH  28  29
BRANCH  28  31
HETATM   31  O2  UNL     1      79.965 -13.224 -53.958  1.00  0.00    -0.366 OA
ATOM     32  H2  UNL     1      79.057 -13.470 -53.829  1.00  0.00     0.213 HD
ENDBRANCH  28  31
ENDBRANCH  22  28
BRANCH  24  33
HETATM   33  C7  UNL     1      76.894 -11.986 -52.723  1.00  0.00     0.291 C 
BRANCH  33  34
HETATM   34  O3  UNL     1      75.872 -12.580 -53.582  1.00  0.00    -0.367 OA
ATOM     35  H3  UNL     1      75.087 -12.107 -53.334  1.00  0.00     0.213 HD
ENDBRANCH  33  34
BRANCH  33  36
HETATM   36  O4  UNL     1      76.250 -10.810 -52.361  1.00  0.00    -0.367 OA
ATOM     37  H4  UNL     1      75.818 -10.356 -53.075  1.00  0.00     0.213 HD
ENDBRANCH  33  36
ENDBRANCH  24  33
BRANCH  27  38
HETATM   38  N4  UNL     1      74.771 -14.747 -49.548  1.00  0.00    -0.382 N 
ATOM     39  H42 UNL     1      73.887 -14.318 -49.821  1.00  0.00     0.157 HD
ATOM     40  H41 UNL     1      74.772 -15.458 -48.817  1.00  0.00     0.157 HD
ENDBRANCH  27  38
ENDBRANCH  10  16
ENDBRANCH   6   8
ENDBRANCH   5   6
BRANCH   5  41
HETATM   41  O5  UNL     1      73.625 -16.074 -47.369  1.00  0.00    -0.329 OA
ATOM     42  H5  UNL     1      72.963 -16.037 -46.688  1.00  0.00     0.217 HD
ENDBRANCH   5  41
BRANCH   5  43
HETATM   43  O6  UNL     1      74.439 -17.581 -48.797  1.00  0.00    -0.329 OA
ATOM     44  H6  UNL     1      74.113 -18.436 -49.054  1.00  0.00     0.217 HD
ENDBRANCH   5  43
ENDBRANCH   1   5
TORSDOF 13
ENDMDL
MODEL 2
REMARK VINA RESULT: -5.219252470      5.539      7.817
REMARK  13 active torsions:
REMARK  status: ('A' for Active; 'I' for Inactive)
REMARK    1  A    between atoms: O1_2  and  C2_3 
REMARK    2  A    between atoms: C2_3  and  O2_4 
REMARK    3  A    between atoms: C2_3  and  C3_6 
REMARK    4  A    between atoms: C6_13  and  C7_14 
REMARK    5  A    between atoms: C7_14  and  O3_15 
REMARK    6  A    between atoms: C7_14  and  O4_17 
REMARK    7  A    between atoms: C9_21  and  N4_22 
REMARK    8  A    between atoms: N5_25  and  N6_26 
REMARK       I    between atoms: N6_26  and  C10_28 
REMARK       I    between atoms: C10_28  and  N8_32 
REMARK    9  A    between atoms: N8_32  and  N9_34 
REMARK   10  A    between atoms: N9_34  and  C12_36 
REMARK   11  A    between atoms: C12_36  and  O5_37 
REMARK   12  A    between atoms: C12_36  and  O6_39 
REMARK   13  A    between atoms: C12_36  and  N10_41 
ROOT
HETATM    1  N10 UNL     1      76.237 -13.784 -51.785  1.00  0.00    -0.252 N 
ATOM      2  H10 UNL     1      76.678 -14.703 -51.826  1.00  0.00     0.179 HD
HETATM    3  C13 UNL     1      75.051 -13.671 -51.050  1.00  0.00     0.183 C 
HETATM    4  N11 UNL     1      74.074 -13.602 -50.437  1.00  0.00    -0.172 NA
ENDROOT
BRANCH   1   5
HETATM    5  C12 UNL     1      76.882 -12.713 -52.485  1.00  0.00     0.360 C 
BRANCH   5   6
HETATM    6  N9  UNL     1      77.464 -11.706 -51.684  1.00  0.00    -0.240 N 
HETATM    7  C11 UNL     1      78.671 -12.016 -51.015  1.00  0.00     0.179 C 
BRANCH   6   8
HETATM    8  N8  UNL     1      77.388 -10.412 -52.082  1.00  0.00    -0.128 N 
HETATM    9  C10 UNL     1      78.602  -9.725 -52.490  1.00  0.00     0.705 C 
HETATM   10  N6  UNL     1      79.314 -10.200 -53.592  1.00  0.00    -0.121 N 
HETATM   11  N7  UNL     1      78.966  -8.711 -51.764  1.00  0.00    -0.232 N 
ATOM     12  H6  UNL     1      79.995 -10.925 -53.367  1.00  0.00     0.206 HD
ATOM     13  H72 UNL     1      79.818  -8.228 -52.051  1.00  0.00     0.174 HD
ATOM     14  H71 UNL     1      78.445  -8.363 -50.959  1.00  0.00     0.174 HD
ATOM     15  H8  UNL     1      76.490  -9.928 -52.094  1.00  0.00     0.205 HD
BRANCH  10  16
HETATM   16  N5  UNL     1      79.265  -9.870 -54.931  1.00  0.00    -0.206 N 
HETATM   17  C4  UNL     1      80.284  -9.048 -55.352  1.00  0.00     0.157 A 
HETATM   18  N2  UNL     1      81.311  -8.526 -54.698  1.00  0.00    -0.283 N 
HETATM   19  C5  UNL     1      80.407  -8.612 -56.671  1.00  0.00     0.053 A 
HETATM   20  N1  UNL     1      82.041  -7.803 -55.505  1.00  0.00    -0.297 N 
ATOM     21  H2  UNL     1      81.504  -8.667 -53.707  1.00  0.00     0.188 HD
HETATM   22  C3  UNL     1      81.522  -7.812 -56.781  1.00  0.00     0.095 A 
ATOM     23  H1  UNL     1      82.883  -7.299 -55.227  1.00  0.00     0.187 HD
HETATM   24  C6  UNL     1      79.476  -9.026 -57.604  1.00  0.00     0.040 A 
HETATM   25  C8  UNL     1      78.467  -9.846 -57.170  1.00  0.00     0.103 A 
HETATM   26  N3  UNL     1      77.416 -10.316 -58.004  1.00  0.00    -0.098 NA
HETATM   27  C9  UNL     1      78.358 -10.277 -55.816  1.00  0.00     0.148 A 
BRANCH  22  28
HETATM   28  C2  UNL     1      81.998  -7.046 -57.939  1.00  0.00     0.309 C 
BRANCH  28  29
HETATM   29  O1  UNL     1      81.409  -5.850 -58.207  1.00  0.00    -0.360 OA
HETATM   30  C1  UNL     1      81.503  -5.672 -59.609  1.00  0.00     0.205 C 
ENDBRANCH  28  29
BRANCH  28  31
HETATM   31  O2  UNL     1      83.223  -6.414 -57.312  1.00  0.00    -0.366 OA
ATOM     32  H2  UNL     1      83.689  -7.239 -57.241  1.00  0.00     0.213 HD
ENDBRANCH  28  31
ENDBRANCH  22  28
BRANCH  24  33
HETATM   33  C7  UNL     1      79.564  -8.753 -59.046  1.00  0.00     0.291 C 
BRANCH  33  34
HETATM   34  O3  UNL     1      79.743 -10.085 -59.618  1.00  0.00    -0.367 OA
ATOM     35  H3  UNL     1      80.606 -10.032 -60.011  1.00  0.00     0.213 HD
ENDBRANCH  33  34
BRANCH  33  36
HETATM   36  O4  UNL     1      78.364  -8.392 -59.645  1.00  0.00    -0.367 OA
ATOM     37  H4  UNL     1      78.330  -7.498 -59.964  1.00  0.00     0.213 HD
ENDBRANCH  33  36
ENDBRANCH  24  33
BRANCH  27  38
HETATM   38  N4  UNL     1      77.417 -11.059 -55.540  1.00  0.00    -0.382 N 
ATOM     39  H42 UNL     1      77.261 -11.947 -56.015  1.00  0.00     0.157 HD
ATOM     40  H41 UNL     1      76.762 -10.760 -54.818  1.00  0.00     0.157 HD
ENDBRANCH  27  38
ENDBRANCH  10  16
ENDBRANCH   6   8
ENDBRANCH   5   6
BRANCH   5  41
HETATM   41  O5  UNL     1      75.926 -12.147 -53.353  1.00  0.00    -0.329 OA
ATOM     42  H5  UNL     1      75.785 -12.718 -54.100  1.00  0.00     0.217 HD
ENDBRANCH   5  41
BRANCH   5  43
HETATM   43  O6  UNL     1      77.853 -13.267 -53.365  1.00  0.00    -0.329 OA
ATOM     44  H6  UNL     1      77.605 -14.150 -53.617  1.00  0.00     0.217 HD
ENDBRANCH   5  43
ENDBRANCH   1   5
TORSDOF 13
ENDMDL
MODEL 3
REMARK VINA RESULT: -5.013245280      2.694      8.249
REMARK  13 active torsions:
REMARK  status: ('A' for Active; 'I' for Inactive)
REMARK    1  A    between atoms: O1_2  and  C2_3 
REMARK    2  A    between atoms: C2_3  and  O2_4 
REMARK    3  A    between atoms: C2_3  and  C3_6 
REMARK    4  A    between atoms: C6_13  and  C7_14 
REMARK    5  A    between atoms: C7_14  and  O3_15 
REMARK    6  A    between atoms: C7_14  and  O4_17 
REMARK    7  A    between atoms: C9_21  and  N4_22 
REMARK    8  A    between atoms: N5_25  and  N6_26 
REMARK       I    between atoms: N6_26  and  C10_28 
REMARK       I    between atoms: C10_28  and  N8_32 
REMARK    9  A    between atoms: N8_32  and  N9_34 
REMARK   10  A    between atoms: N9_34  and  C12_36 
REMARK   11  A    between atoms: C12_36  and  O5_37 
REMARK   12  A    between atoms: C12_36  and  O6_39 
REMARK   13  A    between atoms: C12_36  and  N10_41 
ROOT
HETATM    1  N10 UNL     1      77.338 -11.002 -53.909  1.00  0.00    -0.252 N 
ATOM      2  H10 UNL     1      77.613 -10.262 -53.264  1.00  0.00     0.179 HD
HETATM    3  C13 UNL     1      77.312 -10.691 -55.274  1.00  0.00     0.183 C 
HETATM    4  N11 UNL     1      77.300 -10.411 -56.395  1.00  0.00    -0.172 NA
ENDROOT
BRANCH   1   5
HETATM    5  C12 UNL     1      77.007 -12.278 -53.346  1.00  0.00     0.360 C 
BRANCH   5   6
HETATM    6  N9  UNL     1      77.386 -12.482 -52.001  1.00  0.00    -0.240 N 
HETATM    7  C11 UNL     1      78.596 -11.894 -51.563  1.00  0.00     0.179 C 
BRANCH   6   8
HETATM    8  N8  UNL     1      76.431 -12.524 -51.040  1.00  0.00    -0.128 N 
HETATM    9  C10 UNL     1      75.810 -13.796 -50.714  1.00  0.00     0.705 C 
HETATM   10  N6  UNL     1      76.601 -14.830 -50.212  1.00  0.00    -0.121 N 
HETATM   11  N7  UNL     1      74.535 -13.896 -50.947  1.00  0.00    -0.232 N 
ATOM     12  H6  UNL     1      77.032 -15.411 -50.931  1.00  0.00     0.206 HD
ATOM     13  H72 UNL     1      74.099 -14.789 -50.719  1.00  0.00     0.174 HD
ATOM     14  H71 UNL     1      73.957 -13.140 -51.314  1.00  0.00     0.174 HD
ATOM     15  H8  UNL     1      76.154 -11.672 -50.551  1.00  0.00     0.205 HD
BRANCH  10  16
HETATM   16  N5  UNL     1      76.907 -15.212 -48.922  1.00  0.00    -0.206 N 
HETATM   17  C4  UNL     1      75.953 -15.996 -48.318  1.00  0.00     0.157 A 
HETATM   18  N2  UNL     1      74.794 -16.458 -48.762  1.00  0.00    -0.283 N 
HETATM   19  C5  UNL     1      76.088 -16.483 -47.018  1.00  0.00     0.053 A 
HETATM   20  N1  UNL     1      74.210 -17.176 -47.840  1.00  0.00    -0.297 N 
ATOM     21  H2  UNL     1      74.412 -16.278 -49.690  1.00  0.00     0.188 HD
HETATM   22  C3  UNL     1      74.979 -17.234 -46.699  1.00  0.00     0.095 A 
ATOM     23  H1  UNL     1      73.305 -17.632 -47.951  1.00  0.00     0.187 HD
HETATM   24  C6  UNL     1      77.231 -16.179 -46.302  1.00  0.00     0.040 A 
HETATM   25  C8  UNL     1      78.173 -15.398 -46.919  1.00  0.00     0.103 A 
HETATM   26  N3  UNL     1      79.376 -14.971 -46.294  1.00  0.00    -0.098 NA
HETATM   27  C9  UNL     1      78.014 -14.907 -48.247  1.00  0.00     0.148 A 
BRANCH  22  28
HETATM   28  C2  UNL     1      74.624 -17.859 -45.419  1.00  0.00     0.309 C 
BRANCH  28  29
HETATM   29  O1  UNL     1      74.285 -17.049 -44.379  1.00  0.00    -0.360 OA
HETATM   30  C1  UNL     1      74.419 -17.836 -43.210  1.00  0.00     0.205 C 
ENDBRANCH  28  29
BRANCH  28  31
HETATM   31  O2  UNL     1      73.188 -18.225 -45.730  1.00  0.00    -0.366 OA
ATOM     32  H2  UNL     1      72.844 -17.392 -45.430  1.00  0.00     0.213 HD
ENDBRANCH  28  31
ENDBRANCH  22  28
BRANCH  24  33
HETATM   33  C7  UNL     1      77.559 -16.737 -44.982  1.00  0.00     0.291 C 
BRANCH  33  34
HETATM   34  O3  UNL     1      78.781 -17.494 -45.245  1.00  0.00    -0.367 OA
ATOM     35  H3  UNL     1      79.046 -17.177 -46.100  1.00  0.00     0.213 HD
ENDBRANCH  33  34
BRANCH  33  36
HETATM   36  O4  UNL     1      78.040 -15.814 -44.063  1.00  0.00    -0.367 OA
ATOM     37  H4  UNL     1      78.013 -16.102 -43.158  1.00  0.00     0.213 HD
ENDBRANCH  33  36
ENDBRANCH  24  33
BRANCH  27  38
HETATM   38  N4  UNL     1      78.959 -14.236 -48.724  1.00  0.00    -0.382 N 
ATOM     39  H42 UNL     1      79.223 -13.310 -48.387  1.00  0.00     0.157 HD
ATOM     40  H41 UNL     1      79.463 -14.639 -49.513  1.00  0.00     0.157 HD
ENDBRANCH  27  38
ENDBRANCH  10  16
ENDBRANCH   6   8
ENDBRANCH   5   6
BRANCH   5  41
HETATM   41  O5  UNL     1      77.595 -13.261 -54.168  1.00  0.00    -0.329 OA
ATOM     42  H5  UNL     1      77.077 -14.058 -54.144  1.00  0.00     0.217 HD
ENDBRANCH   5  41
BRANCH   5  43
HETATM   43  O6  UNL     1      75.609 -12.494 -53.504  1.00  0.00    -0.329 OA
ATOM     44  H6  UNL     1      75.145 -11.665 -53.502  1.00  0.00     0.217 HD
ENDBRANCH   5  43
ENDBRANCH   1   5
TORSDOF 13
ENDMDL
MODEL 4
REMARK VINA RESULT: -4.969987454      2.478      3.550
REMARK  13 active torsions:
REMARK  status: ('A' for Active; 'I' for Inactive)
REMARK    1  A    between atoms: O1_2  and  C2_3 
REMARK    2  A    between atoms: C2_3  and  O2_4 
REMARK    3  A    between atoms: C2_3  and  C3_6 
REMARK    4  A    between atoms: C6_13  and  C7_14 
REMARK    5  A    between atoms: C7_14  and  O3_15 
REMARK    6  A    between atoms: C7_14  and  O4_17 
REMARK    7  A    between atoms: C9_21  and  N4_22 
REMARK    8  A    between atoms: N5_25  and  N6_26 
REMARK       I    between atoms: N6_26  and  C10_28 
REMARK       I    between atoms: C10_28  and  N8_32 
REMARK    9  A    between atoms: N8_32  and  N9_34 
REMARK   10  A    between atoms: N9_34  and  C12_36 
REMARK   11  A    between atoms: C12_36  and  O5_37 
REMARK   12  A    between atoms: C12_36  and  O6_39 
REMARK   13  A    between atoms: C12_36  and  N10_41 
ROOT
HETATM    1  N10 UNL     1      77.412 -18.689 -52.468  1.00  0.00    -0.252 N 
ATOM      2  H10 UNL     1      76.511 -19.056 -52.774  1.00  0.00     0.179 HD
HETATM    3  C13 UNL     1      78.043 -17.757 -53.301  1.00  0.00     0.183 C 
HETATM    4  N11 UNL     1      78.545 -16.988 -54.004  1.00  0.00    -0.172 NA
ENDROOT
BRANCH   1   5
HETATM    5  C12 UNL     1      77.930 -19.169 -51.222  1.00  0.00     0.360 C 
BRANCH   5   6
HETATM    6  N9  UNL     1      77.015 -19.231 -50.148  1.00  0.00    -0.240 N 
HETATM    7  C11 UNL     1      77.533 -19.499 -48.859  1.00  0.00     0.179 C 
BRANCH   6   8
HETATM    8  N8  UNL     1      75.948 -18.396 -50.135  1.00  0.00    -0.128 N 
HETATM    9  C10 UNL     1      76.004 -17.189 -49.327  1.00  0.00     0.705 C 
HETATM   10  N6  UNL     1      76.971 -16.224 -49.613  1.00  0.00    -0.121 N 
HETATM   11  N7  UNL     1      75.150 -17.103 -48.351  1.00  0.00    -0.232 N 
ATOM     12  H6  UNL     1      77.865 -16.380 -49.148  1.00  0.00     0.206 HD
ATOM     13  H72 UNL     1      75.189 -16.256 -47.784  1.00  0.00     0.174 HD
ATOM     14  H71 UNL     1      74.443 -17.809 -48.142  1.00  0.00     0.174 HD
ATOM     15  H8  UNL     1      75.116 -18.612 -50.684  1.00  0.00     0.205 HD
BRANCH  10  16
HETATM   16  N5  UNL     1      76.939 -15.098 -50.409  1.00  0.00    -0.206 N 
HETATM   17  C4  UNL     1      78.099 -14.863 -51.110  1.00  0.00     0.157 A 
HETATM   18  N2  UNL     1      79.238 -15.535 -51.161  1.00  0.00    -0.283 N 
HETATM   19  C5  UNL     1      78.254 -13.776 -51.970  1.00  0.00     0.053 A 
HETATM   20  N1  UNL     1      80.075 -14.946 -51.973  1.00  0.00    -0.297 N 
ATOM     21  H2  UNL     1      79.435 -16.391 -50.642  1.00  0.00     0.188 HD
HETATM   22  C3  UNL     1      79.514 -13.815 -52.524  1.00  0.00     0.095 A 
ATOM     23  H1  UNL     1      81.019 -15.278 -52.171  1.00  0.00     0.187 HD
HETATM   24  C6  UNL     1      77.200 -12.899 -52.142  1.00  0.00     0.040 A 
HETATM   25  C8  UNL     1      76.051 -13.147 -51.438  1.00  0.00     0.103 A 
HETATM   26  N3  UNL     1      74.903 -12.310 -51.480  1.00  0.00    -0.098 NA
HETATM   27  C9  UNL     1      75.914 -14.261 -50.560  1.00  0.00     0.148 A 
BRANCH  22  28
HETATM   28  C2  UNL     1      80.168 -12.836 -53.402  1.00  0.00     0.309 C 
BRANCH  28  29
HETATM   29  O1  UNL     1      81.333 -12.272 -52.982  1.00  0.00    -0.360 OA
HETATM   30  C1  UNL     1      80.966 -11.157 -52.191  1.00  0.00     0.205 C 
ENDBRANCH  28  29
BRANCH  28  31
HETATM   31  O2  UNL     1      80.858 -13.796 -54.347  1.00  0.00    -0.366 OA
ATOM     32  H2  UNL     1      80.111 -14.380 -54.400  1.00  0.00     0.213 HD
ENDBRANCH  28  31
ENDBRANCH  22  28
BRANCH  24  33
HETATM   33  C7  UNL     1      77.184 -11.798 -53.115  1.00  0.00     0.291 C 
BRANCH  33  34
HETATM   34  O3  UNL     1      76.089 -12.171 -54.008  1.00  0.00    -0.367 OA
ATOM     35  H3  UNL     1      76.371 -11.821 -54.845  1.00  0.00     0.213 HD
ENDBRANCH  33  34
BRANCH  33  36
HETATM   36  O4  UNL     1      76.696 -10.594 -52.626  1.00  0.00    -0.367 OA
ATOM     37  H4  UNL     1      75.760 -10.469 -52.737  1.00  0.00     0.213 HD
ENDBRANCH  33  36
ENDBRANCH  24  33
BRANCH  27  38
HETATM   38  N4  UNL     1      74.803 -14.412 -49.999  1.00  0.00    -0.382 N 
ATOM     39  H42 UNL     1      74.244 -15.262 -50.068  1.00  0.00     0.157 HD
ATOM     40  H41 UNL     1      74.437 -13.619 -49.473  1.00  0.00     0.157 HD
ENDBRANCH  27  38
ENDBRANCH  10  16
ENDBRANCH   6   8
ENDBRANCH   5   6
BRANCH   5  41
HETATM   41  O5  UNL     1      79.021 -18.345 -50.879  1.00  0.00    -0.329 OA
ATOM     42  H5  UNL     1      79.707 -18.863 -50.474  1.00  0.00     0.217 HD
ENDBRANCH   5  41
BRANCH   5  43
HETATM   43  O6  UNL     1      78.523 -20.445 -51.440  1.00  0.00    -0.329 OA
ATOM     44  H6  UNL     1      78.319 -20.758 -52.313  1.00  0.00     0.217 HD
ENDBRANCH   5  43
ENDBRANCH   1   5
TORSDOF 13
ENDMDL
MODEL 5
REMARK VINA RESULT: -4.906762988      6.449     10.192
REMARK  13 active torsions:
REMARK  status: ('A' for Active; 'I' for Inactive)
REMARK    1  A    between atoms: O1_2  and  C2_3 
REMARK    2  A    between atoms: C2_3  and  O2_4 
REMARK    3  A    between atoms: C2_3  and  C3_6 
REMARK    4  A    between atoms: C6_13  and  C7_14 
REMARK    5  A    between atoms: C7_14  and  O3_15 
REMARK    6  A    between atoms: C7_14  and  O4_17 
REMARK    7  A    between atoms: C9_21  and  N4_22 
REMARK    8  A    between atoms: N5_25  and  N6_26 
REMARK       I    between atoms: N6_26  and  C10_28 
REMARK       I    between atoms: C10_28  and  N8_32 
REMARK    9  A    between atoms: N8_32  and  N9_34 
REMARK   10  A    between atoms: N9_34  and  C12_36 
REMARK   11  A    between atoms: C12_36  and  O5_37 
REMARK   12  A    between atoms: C12_36  and  O6_39 
REMARK   13  A    between atoms: C12_36  and  N10_41 
ROOT
HETATM    1  N10 UNL     1      77.222  -4.443 -48.823  1.00  0.00    -0.252 N 
ATOM      2  H10 UNL     1      76.580  -5.189 -48.558  1.00  0.00     0.179 HD
HETATM    3  C13 UNL     1      77.934  -3.811 -47.795  1.00  0.00     0.183 C 
HETATM    4  N11 UNL     1      78.511  -3.306 -46.931  1.00  0.00    -0.172 NA
ENDROOT
BRANCH   1   5
HETATM    5  C12 UNL     1      77.324  -4.124 -50.216  1.00  0.00     0.360 C 
BRANCH   5   6
HETATM    6  N9  UNL     1      77.498  -5.217 -51.094  1.00  0.00    -0.240 N 
HETATM    7  C11 UNL     1      76.639  -6.330 -50.935  1.00  0.00     0.179 C 
BRANCH   6   8
HETATM    8  N8  UNL     1      77.843  -4.985 -52.384  1.00  0.00    -0.128 N 
HETATM    9  C10 UNL     1      79.183  -5.328 -52.830  1.00  0.00     0.705 C 
HETATM   10  N6  UNL     1      79.597  -6.660 -52.780  1.00  0.00    -0.121 N 
HETATM   11  N7  UNL     1      79.933  -4.343 -53.226  1.00  0.00    -0.232 N 
ATOM     12  H6  UNL     1      80.001  -6.937 -51.886  1.00  0.00     0.206 HD
ATOM     13  H72 UNL     1      80.873  -4.583 -53.539  1.00  0.00     0.174 HD
ATOM     14  H71 UNL     1      79.630  -3.369 -53.263  1.00  0.00     0.174 HD
ATOM     15  H8  UNL     1      77.171  -4.576 -53.032  1.00  0.00     0.205 HD
BRANCH  10  16
HETATM   16  N5  UNL     1      79.559  -7.671 -53.718  1.00  0.00    -0.206 N 
HETATM   17  C4  UNL     1      78.685  -8.690 -53.422  1.00  0.00     0.157 A 
HETATM   18  N2  UNL     1      77.864  -8.866 -52.398  1.00  0.00    -0.283 N 
HETATM   19  C5  UNL     1      78.504  -9.796 -54.253  1.00  0.00     0.053 A 
HETATM   20  N1  UNL     1      77.208  -9.988 -52.531  1.00  0.00    -0.297 N 
ATOM     21  H2  UNL     1      77.760  -8.219 -51.617  1.00  0.00     0.188 HD
HETATM   22  C3  UNL     1      77.567 -10.635 -53.693  1.00  0.00     0.095 A 
ATOM     23  H1  UNL     1      76.521 -10.338 -51.863  1.00  0.00     0.187 HD
HETATM   24  C6  UNL     1      79.222  -9.875 -55.432  1.00  0.00     0.040 A 
HETATM   25  C8  UNL     1      80.088  -8.851 -55.714  1.00  0.00     0.103 A 
HETATM   26  N3  UNL     1      80.922  -8.815 -56.864  1.00  0.00    -0.098 NA
HETATM   27  C9  UNL     1      80.261  -7.731 -54.849  1.00  0.00     0.148 A 
BRANCH  22  28
HETATM   28  C2  UNL     1      77.126 -11.960 -54.144  1.00  0.00     0.309 C 
BRANCH  28  29
HETATM   29  O1  UNL     1      77.921 -13.030 -53.873  1.00  0.00    -0.360 OA
HETATM   30  C1  UNL     1      77.776 -13.286 -52.488  1.00  0.00     0.205 C 
ENDBRANCH  28  29
BRANCH  28  31
HETATM   31  O2  UNL     1      76.153 -12.274 -53.027  1.00  0.00    -0.366 OA
ATOM     32  H2  UNL     1      75.658 -12.894 -53.549  1.00  0.00     0.213 HD
ENDBRANCH  28  31
ENDBRANCH  22  28
BRANCH  24  33
HETATM   33  C7  UNL     1      79.028 -10.910 -56.456  1.00  0.00     0.291 C 
BRANCH  33  34
HETATM   34  O3  UNL     1      78.520 -10.149 -57.595  1.00  0.00    -0.367 OA
ATOM     35  H3  UNL     1      78.523 -10.790 -58.296  1.00  0.00     0.213 HD
ENDBRANCH  33  34
BRANCH  33  36
HETATM   36  O4  UNL     1      80.201 -11.413 -57.007  1.00  0.00    -0.367 OA
ATOM     37  H4  UNL     1      80.089 -11.875 -57.829  1.00  0.00     0.213 HD
ENDBRANCH  33  36
ENDBRANCH  24  33
BRANCH  27  38
HETATM   38  N4  UNL     1      81.050  -6.834 -55.227  1.00  0.00    -0.382 N 
ATOM     39  H42 UNL     1      80.935  -5.846 -55.003  1.00  0.00     0.157 HD
ATOM     40  H41 UNL     1      81.830  -7.121 -55.818  1.00  0.00     0.157 HD
ENDBRANCH  27  38
ENDBRANCH  10  16
ENDBRANCH   6   8
ENDBRANCH   5   6
BRANCH   5  41
HETATM   41  O5  UNL     1      78.391  -3.214 -50.359  1.00  0.00    -0.329 OA
ATOM     42  H5  UNL     1      78.154  -2.527 -50.972  1.00  0.00     0.217 HD
ENDBRANCH   5  41
BRANCH   5  43
HETATM   43  O6  UNL     1      76.179  -3.367 -50.592  1.00  0.00    -0.329 OA
ATOM     44  H6  UNL     1      76.395  -2.772 -51.301  1.00  0.00     0.217 HD
ENDBRANCH   5  43
ENDBRANCH   1   5
TORSDOF 13
ENDMDL
