MODEL 1
REMARK VINA RESULT: -5.866677124      0.000      0.000
REMARK  10 active torsions:
REMARK  status: ('A' for Active; 'I' for Inactive)
REMARK    1  A    between atoms: N1_2  and  N2_3 
REMARK    2  A    between atoms: N2_3  and  C2_5 
REMARK    3  A    between atoms: C4_7  and  N3_8 
REMARK    4  A    between atoms: N4_11  and  N5_12 
REMARK    5  A    between atoms: C5_15  and  N6_16 
REMARK    6  A    between atoms: N6_16  and  C6_18 
REMARK    7  A    between atoms: C6_18  and  C7_19 
REMARK    8  A    between atoms: C6_18  and  N12_35 
REMARK    9  A    between atoms: C7_19  and  N7_20 
REMARK   10  A    between atoms: C10_25  and  N9_26 
ROOT
HETATM    1  C6  UNL     1      78.168 -10.052 -53.173  1.00  0.00     0.242 C 
ENDROOT
BRANCH   1   2
HETATM    2  N6  UNL     1      78.717  -8.877 -52.597  1.00  0.00    -0.200 N 
ATOM      3  H6  UNL     1      79.390  -8.394 -53.192  1.00  0.00     0.180 HD
BRANCH   2   4
HETATM    4  C5  UNL     1      78.524  -8.325 -51.486  1.00  0.00     0.704 A 
HETATM    5  N4  UNL     1      77.639  -7.292 -51.466  1.00  0.00    -0.077 N 
HETATM    6  C4  UNL     1      77.382  -6.660 -50.334  1.00  0.00     0.142 A 
HETATM    7  C3  UNL     1      78.010  -7.040 -49.149  1.00  0.00     0.100 A 
HETATM    8  C2  UNL     1      78.900  -8.075 -49.158  1.00  0.00     0.136 A 
HETATM    9  N16 UNL     1      79.122  -8.682 -50.345  1.00  0.00    -0.174 N 
ATOM     10  H16 UNL     1      79.783  -9.458 -50.372  1.00  0.00     0.186 HD
BRANCH   5  11
HETATM   11  N5  UNL     1      76.992  -6.892 -52.654  1.00  0.00    -0.322 N 
ATOM     12  H52 UNL     1      76.049  -6.506 -52.618  1.00  0.00     0.178 HD
ATOM     13  H51 UNL     1      77.471  -6.989 -53.549  1.00  0.00     0.178 HD
ENDBRANCH   5  11
BRANCH   6  14
HETATM   14  N3  UNL     1      76.536  -5.674 -50.318  1.00  0.00    -0.383 N 
ATOM     15  H32 UNL     1      76.588  -4.971 -49.582  1.00  0.00     0.157 HD
ATOM     16  H31 UNL     1      75.826  -5.613 -51.048  1.00  0.00     0.157 HD
ENDBRANCH   6  14
BRANCH   8  17
HETATM   17  N2  UNL     1      79.550  -8.481 -47.968  1.00  0.00    -0.289 N 
ATOM     18  H2  UNL     1      80.548  -8.308 -47.848  1.00  0.00     0.184 HD
BRANCH  17  19
HETATM   19  N1  UNL     1      78.831  -9.113 -46.961  1.00  0.00    -0.144 NA
HETATM   20  C1  UNL     1      79.193  -8.518 -45.694  1.00  0.00     0.159 C 
ENDBRANCH  17  19
ENDBRANCH   8  17
ENDBRANCH   2   4
ENDBRANCH   1   2
BRANCH   1  21
HETATM   21  C7  UNL     1      78.665 -11.322 -52.509  1.00  0.00     0.179 C 
BRANCH  21  22
HETATM   22  N7  UNL     1      77.561 -12.028 -51.928  1.00  0.00    -0.324 N 
HETATM   23  C8  UNL     1      76.259 -11.793 -52.142  1.00  0.00     0.185 A 
HETATM   24  N8  UNL     1      75.501 -12.644 -51.437  1.00  0.00    -0.346 N 
HETATM   25  C9  UNL     1      76.307 -13.454 -50.748  1.00  0.00     0.122 A 
ATOM     26  H8  UNL     1      74.481 -12.669 -51.429  1.00  0.00     0.167 HD
HETATM   27  C10 UNL     1      76.037 -14.492 -49.880  1.00  0.00     0.131 A 
HETATM   28  C12 UNL     1      77.593 -13.063 -51.060  1.00  0.00     0.140 A 
HETATM   29  N10 UNL     1      77.073 -15.141 -49.324  1.00  0.00    -0.337 N 
HETATM   30  C11 UNL     1      78.333 -14.763 -49.625  1.00  0.00     0.183 A 
ATOM     31  H10 UNL     1      76.908 -15.913 -48.679  1.00  0.00     0.168 HD
HETATM   32  N11 UNL     1      78.598 -13.743 -50.478  1.00  0.00    -0.336 N 
ATOM     33  H11 UNL     1      79.565 -13.488 -50.679  1.00  0.00     0.168 HD
BRANCH  27  34
HETATM   34  N9  UNL     1      74.845 -14.862 -49.586  1.00  0.00    -0.383 N 
ATOM     35  H92 UNL     1      74.058 -14.368 -50.008  1.00  0.00     0.157 HD
ATOM     36  H91 UNL     1      74.645 -15.630 -48.946  1.00  0.00     0.157 HD
ENDBRANCH  27  34
ENDBRANCH  21  22
ENDBRANCH   1  21
BRANCH   1  37
HETATM   37  N12 UNL     1      78.420 -10.033 -54.580  1.00  0.00    -0.166 N 
HETATM   38  C13 UNL     1      79.256  -9.183 -55.188  1.00  0.00     0.157 A 
HETATM   39  C14 UNL     1      79.253  -9.449 -56.536  1.00  0.00     0.148 A 
HETATM   40  N13 UNL     1      79.995  -8.785 -57.549  1.00  0.00    -0.081 NA
HETATM   41  N14 UNL     1      78.417 -10.458 -56.743  1.00  0.00    -0.178 N 
HETATM   42  C15 UNL     1      77.911 -10.813 -55.549  1.00  0.00     0.681 A 
ATOM     43  H14 UNL     1      78.199 -10.887 -57.643  1.00  0.00     0.185 HD
HETATM   44  N15 UNL     1      77.058 -11.776 -55.421  1.00  0.00    -0.234 N 
ATOM     45 2H15 UNL     1      76.673 -12.044 -54.514  1.00  0.00     0.174 HD
ATOM     46 1H15 UNL     1      76.671 -12.368 -56.155  1.00  0.00     0.174 HD
ENDBRANCH   1  37
TORSDOF 10
ENDMDL
MODEL 2
REMARK VINA RESULT: -5.811372584      1.906      6.265
REMARK  10 active torsions:
REMARK  status: ('A' for Active; 'I' for Inactive)
REMARK    1  A    between atoms: N1_2  and  N2_3 
REMARK    2  A    between atoms: N2_3  and  C2_5 
REMARK    3  A    between atoms: C4_7  and  N3_8 
REMARK    4  A    between atoms: N4_11  and  N5_12 
REMARK    5  A    between atoms: C5_15  and  N6_16 
REMARK    6  A    between atoms: N6_16  and  C6_18 
REMARK    7  A    between atoms: C6_18  and  C7_19 
REMARK    8  A    between atoms: C6_18  and  N12_35 
REMARK    9  A    between atoms: C7_19  and  N7_20 
REMARK   10  A    between atoms: C10_25  and  N9_26 
ROOT
HETATM    1  C6  UNL     1      79.048 -10.720 -52.836  1.00  0.00     0.242 C 
ENDROOT
BRANCH   1   2
HETATM    2  N6  UNL     1      80.021 -10.428 -53.826  1.00  0.00    -0.200 N 
ATOM      3  H6  UNL     1      80.855  -9.961 -53.468  1.00  0.00     0.180 HD
BRANCH   2   4
HETATM    4  C5  UNL     1      80.042 -10.641 -55.064  1.00  0.00     0.704 A 
HETATM    5  N4  UNL     1      80.852 -11.645 -55.494  1.00  0.00    -0.077 N 
HETATM    6  C4  UNL     1      80.927 -11.929 -56.783  1.00  0.00     0.142 A 
HETATM    7  C3  UNL     1      80.183 -11.210 -57.716  1.00  0.00     0.100 A 
HETATM    8  C2  UNL     1      79.367 -10.199 -57.293  1.00  0.00     0.136 A 
HETATM    9  N16 UNL     1      79.332  -9.955 -55.964  1.00  0.00    -0.174 N 
ATOM     10  H16 UNL     1      78.729  -9.204 -55.630  1.00  0.00     0.186 HD
BRANCH   5  11
HETATM   11  N5  UNL     1      81.614 -12.386 -54.567  1.00  0.00    -0.322 N 
ATOM     12  H52 UNL     1      81.283 -12.501 -53.609  1.00  0.00     0.178 HD
ATOM     13  H51 UNL     1      82.496 -12.806 -54.857  1.00  0.00     0.178 HD
ENDBRANCH   5  11
BRANCH   6  14
HETATM   14  N3  UNL     1      81.702 -12.890 -57.191  1.00  0.00    -0.383 N 
ATOM     15  H32 UNL     1      81.664 -13.196 -58.163  1.00  0.00     0.157 HD
ATOM     16  H31 UNL     1      82.343 -13.329 -56.531  1.00  0.00     0.157 HD
ENDBRANCH   6  14
BRANCH   8  17
HETATM   17  N2  UNL     1      78.600  -9.454 -58.221  1.00  0.00    -0.289 N 
ATOM     18  H2  UNL     1      77.594  -9.355 -58.087  1.00  0.00     0.184 HD
BRANCH  17  19
HETATM   19  N1  UNL     1      79.216  -8.855 -59.313  1.00  0.00    -0.144 NA
HETATM   20  C1  UNL     1      79.885  -7.655 -58.862  1.00  0.00     0.159 C 
ENDBRANCH  17  19
ENDBRANCH   8  17
ENDBRANCH   2   4
ENDBRANCH   1   2
BRANCH   1  21
HETATM   21  C7  UNL     1      78.001 -11.710 -53.311  1.00  0.00     0.179 C 
BRANCH  21  22
HETATM   22  N7  UNL     1      77.748 -12.677 -52.285  1.00  0.00    -0.324 N 
HETATM   23  C8  UNL     1      78.652 -13.462 -51.683  1.00  0.00     0.185 A 
HETATM   24  N8  UNL     1      78.066 -14.246 -50.768  1.00  0.00    -0.346 N 
HETATM   25  C9  UNL     1      76.759 -13.978 -50.760  1.00  0.00     0.122 A 
ATOM     26  H8  UNL     1      78.539 -14.931 -50.178  1.00  0.00     0.167 HD
HETATM   27  C10 UNL     1      75.722 -14.500 -50.012  1.00  0.00     0.131 A 
HETATM   28  C12 UNL     1      76.567 -12.996 -51.710  1.00  0.00     0.140 A 
HETATM   29  N10 UNL     1      74.484 -14.026 -50.226  1.00  0.00    -0.337 N 
HETATM   30  C11 UNL     1      74.290 -13.066 -51.154  1.00  0.00     0.183 A 
ATOM     31  H10 UNL     1      73.696 -14.390 -49.691  1.00  0.00     0.168 HD
HETATM   32  N11 UNL     1      75.309 -12.554 -51.888  1.00  0.00    -0.336 N 
ATOM     33  H11 UNL     1      75.120 -11.829 -52.581  1.00  0.00     0.168 HD
BRANCH  27  34
HETATM   34  N9  UNL     1      75.893 -15.412 -49.127  1.00  0.00    -0.383 N 
ATOM     35  H92 UNL     1      76.795 -15.885 -49.075  1.00  0.00     0.157 HD
ATOM     36  H91 UNL     1      75.164 -15.689 -48.470  1.00  0.00     0.157 HD
ENDBRANCH  27  34
ENDBRANCH  21  22
ENDBRANCH   1  21
BRANCH   1  37
HETATM   37  N12 UNL     1      78.475  -9.492 -52.379  1.00  0.00    -0.166 N 
HETATM   38  C13 UNL     1      77.653  -8.725 -53.104  1.00  0.00     0.157 A 
HETATM   39  C14 UNL     1      77.297  -7.629 -52.355  1.00  0.00     0.148 A 
HETATM   40  N13 UNL     1      76.441  -6.563 -52.739  1.00  0.00    -0.081 NA
HETATM   41  N14 UNL     1      77.904  -7.733 -51.180  1.00  0.00    -0.178 N 
HETATM   42  C15 UNL     1      78.622  -8.870 -51.197  1.00  0.00     0.681 A 
ATOM     43  H14 UNL     1      77.838  -7.072 -50.406  1.00  0.00     0.185 HD
HETATM   44  N15 UNL     1      79.331  -9.252 -50.186  1.00  0.00    -0.234 N 
ATOM     45 2H15 UNL     1      79.876 -10.115 -50.199  1.00  0.00     0.174 HD
ATOM     46 1H15 UNL     1      79.442  -8.780 -49.289  1.00  0.00     0.174 HD
ENDBRANCH   1  37
TORSDOF 10
ENDMDL
MODEL 3
REMARK VINA RESULT: -5.764714103      2.382      6.060
REMARK  10 active torsions:
REMARK  status: ('A' for Active; 'I' for Inactive)
REMARK    1  A    between atoms: N1_2  and  N2_3 
REMARK    2  A    between atoms: N2_3  and  C2_5 
REMARK    3  A    between atoms: C4_7  and  N3_8 
REMARK    4  A    between atoms: N4_11  and  N5_12 
REMARK    5  A    between atoms: C5_15  and  N6_16 
REMARK    6  A    between atoms: N6_16  and  C6_18 
REMARK    7  A    between atoms: C6_18  and  C7_19 
REMARK    8  A    between atoms: C6_18  and  N12_35 
REMARK    9  A    between atoms: C7_19  and  N7_20 
REMARK   10  A    between atoms: C10_25  and  N9_26 
ROOT
HETATM    1  C6  UNL     1      78.265 -10.733 -53.679  1.00  0.00     0.242 C 
ENDROOT
BRANCH   1   2
HETATM    2  N6  UNL     1      78.683 -10.434 -55.002  1.00  0.00    -0.200 N 
ATOM      3  H6  UNL     1      78.187  -9.651 -55.430  1.00  0.00     0.180 HD
BRANCH   2   4
HETATM    4  C5  UNL     1      79.553 -10.958 -55.740  1.00  0.00     0.704 A 
HETATM    5  N4  UNL     1      79.596 -10.526 -57.029  1.00  0.00    -0.077 N 
HETATM    6  C4  UNL     1      80.485 -11.031 -57.868  1.00  0.00     0.142 A 
HETATM    7  C3  UNL     1      81.387 -12.006 -57.447  1.00  0.00     0.100 A 
HETATM    8  C2  UNL     1      81.351 -12.446 -56.155  1.00  0.00     0.136 A 
HETATM    9  N16 UNL     1      80.421 -11.894 -55.345  1.00  0.00    -0.174 N 
ATOM     10  H16 UNL     1      80.379 -12.209 -54.376  1.00  0.00     0.186 HD
BRANCH   5  11
HETATM   11  N5  UNL     1      78.693  -9.540 -57.476  1.00  0.00    -0.322 N 
ATOM     12  H52 UNL     1      78.922  -8.966 -58.287  1.00  0.00     0.178 HD
ATOM     13  H51 UNL     1      77.810  -9.402 -56.985  1.00  0.00     0.178 HD
ENDBRANCH   5  11
BRANCH   6  14
HETATM   14  N3  UNL     1      80.523 -10.617 -59.099  1.00  0.00    -0.383 N 
ATOM     15  H32 UNL     1      80.983  -9.735 -59.325  1.00  0.00     0.157 HD
ATOM     16  H31 UNL     1      80.092 -11.182 -59.830  1.00  0.00     0.157 HD
ENDBRANCH   6  14
BRANCH   8  17
HETATM   17  N2  UNL     1      82.258 -13.435 -55.703  1.00  0.00    -0.289 N 
ATOM     18  H2  UNL     1      83.235 -13.194 -55.538  1.00  0.00     0.184 HD
BRANCH  17  19
HETATM   19  N1  UNL     1      81.819 -14.735 -55.483  1.00  0.00    -0.144 NA
HETATM   20  C1  UNL     1      82.242 -15.557 -56.595  1.00  0.00     0.159 C 
ENDBRANCH  17  19
ENDBRANCH   8  17
ENDBRANCH   2   4
ENDBRANCH   1   2
BRANCH   1  21
HETATM   21  C7  UNL     1      77.029 -11.613 -53.636  1.00  0.00     0.179 C 
BRANCH  21  22
HETATM   22  N7  UNL     1      77.138 -12.547 -52.556  1.00  0.00    -0.324 N 
HETATM   23  C8  UNL     1      78.258 -13.136 -52.115  1.00  0.00     0.185 A 
HETATM   24  N8  UNL     1      77.993 -13.952 -51.085  1.00  0.00    -0.346 N 
HETATM   25  C9  UNL     1      76.682 -13.905 -50.838  1.00  0.00     0.122 A 
ATOM     26  H8  UNL     1      78.676 -14.513 -50.577  1.00  0.00     0.167 HD
HETATM   27  C10 UNL     1      75.905 -14.546 -49.896  1.00  0.00     0.131 A 
HETATM   28  C12 UNL     1      76.154 -13.025 -51.760  1.00  0.00     0.140 A 
HETATM   29  N10 UNL     1      74.586 -14.298 -49.885  1.00  0.00    -0.337 N 
HETATM   30  C11 UNL     1      74.063 -13.439 -50.784  1.00  0.00     0.183 A 
ATOM     31  H10 UNL     1      73.983 -14.756 -49.201  1.00  0.00     0.168 HD
HETATM   32  N11 UNL     1      74.827 -12.808 -51.710  1.00  0.00    -0.336 N 
ATOM     33  H11 UNL     1      74.394 -12.166 -52.373  1.00  0.00     0.168 HD
BRANCH  27  34
HETATM   34  N9  UNL     1      76.389 -15.365 -49.035  1.00  0.00    -0.383 N 
ATOM     35  H92 UNL     1      77.116 -16.017 -49.330  1.00  0.00     0.157 HD
ATOM     36  H91 UNL     1      76.079 -15.395 -48.064  1.00  0.00     0.157 HD
ENDBRANCH  27  34
ENDBRANCH  21  22
ENDBRANCH   1  21
BRANCH   1  37
HETATM   37  N12 UNL     1      78.092  -9.508 -52.964  1.00  0.00    -0.166 N 
HETATM   38  C13 UNL     1      77.509  -8.414 -53.468  1.00  0.00     0.157 A 
HETATM   39  C14 UNL     1      77.513  -7.430 -52.508  1.00  0.00     0.148 A 
HETATM   40  N13 UNL     1      76.997  -6.112 -52.621  1.00  0.00    -0.081 NA
HETATM   41  N14 UNL     1      78.097  -7.928 -51.426  1.00  0.00    -0.178 N 
HETATM   42  C15 UNL     1      78.449  -9.196 -51.706  1.00  0.00     0.681 A 
ATOM     43  H14 UNL     1      78.251  -7.440 -50.544  1.00  0.00     0.185 HD
HETATM   44  N15 UNL     1      79.045  -9.952 -50.844  1.00  0.00    -0.234 N 
ATOM     45 2H15 UNL     1      79.312 -10.914 -51.057  1.00  0.00     0.174 HD
ATOM     46 1H15 UNL     1      79.316  -9.716 -49.890  1.00  0.00     0.174 HD
ENDBRANCH   1  37
TORSDOF 10
ENDMDL
MODEL 4
REMARK VINA RESULT: -5.739432641      0.813      2.491
REMARK  10 active torsions:
REMARK  status: ('A' for Active; 'I' for Inactive)
REMARK    1  A    between atoms: N1_2  and  N2_3 
REMARK    2  A    between atoms: N2_3  and  C2_5 
REMARK    3  A    between atoms: C4_7  and  N3_8 
REMARK    4  A    between atoms: N4_11  and  N5_12 
REMARK    5  A    between atoms: C5_15  and  N6_16 
REMARK    6  A    between atoms: N6_16  and  C6_18 
REMARK    7  A    between atoms: C6_18  and  C7_19 
REMARK    8  A    between atoms: C6_18  and  N12_35 
REMARK    9  A    between atoms: C7_19  and  N7_20 
REMARK   10  A    between atoms: C10_25  and  N9_26 
ROOT
HETATM    1  C6  UNL     1      78.462 -10.207 -52.975  1.00  0.00     0.242 C 
ENDROOT
BRANCH   1   2
HETATM    2  N6  UNL     1      79.145  -9.268 -52.159  1.00  0.00    -0.200 N 
ATOM      3  H6  UNL     1      80.137  -9.172 -52.373  1.00  0.00     0.180 HD
BRANCH   2   4
HETATM    4  C5  UNL     1      78.747  -8.535 -51.221  1.00  0.00     0.704 A 
HETATM    5  N4  UNL     1      79.179  -8.858 -49.972  1.00  0.00    -0.077 N 
HETATM    6  C4  UNL     1      78.804  -8.132 -48.933  1.00  0.00     0.142 A 
HETATM    7  C3  UNL     1      77.965  -7.031 -49.098  1.00  0.00     0.100 A 
HETATM    8  C2  UNL     1      77.526  -6.699 -50.348  1.00  0.00     0.136 A 
HETATM    9  N16 UNL     1      77.943  -7.478 -51.371  1.00  0.00    -0.174 N 
ATOM     10  H16 UNL     1      77.626  -7.246 -52.312  1.00  0.00     0.186 HD
BRANCH   5  11
HETATM   11  N5  UNL     1      80.028  -9.967 -49.782  1.00  0.00    -0.322 N 
ATOM     12  H52 UNL     1      80.732  -9.952 -49.044  1.00  0.00     0.178 HD
ATOM     13  H51 UNL     1      79.937 -10.784 -50.384  1.00  0.00     0.178 HD
ENDBRANCH   5  11
BRANCH   6  14
HETATM   14  N3  UNL     1      79.218  -8.443 -47.741  1.00  0.00    -0.383 N 
ATOM     15  H32 UNL     1      78.927  -9.322 -47.314  1.00  0.00     0.157 HD
ATOM     16  H31 UNL     1      79.833  -7.800 -47.242  1.00  0.00     0.157 HD
ENDBRANCH   6  14
BRANCH   8  17
HETATM   17  N2  UNL     1      76.675  -5.585 -50.543  1.00  0.00    -0.289 N 
ATOM     18  H2  UNL     1      75.768  -5.550 -50.078  1.00  0.00     0.184 HD
BRANCH  17  19
HETATM   19  N1  UNL     1      77.072  -4.539 -51.366  1.00  0.00    -0.144 NA
HETATM   20  C1  UNL     1      77.739  -3.545 -50.555  1.00  0.00     0.159 C 
ENDBRANCH  17  19
ENDBRANCH   8  17
ENDBRANCH   2   4
ENDBRANCH   1   2
BRANCH   1  21
HETATM   21  C7  UNL     1      78.775 -11.646 -52.608  1.00  0.00     0.179 C 
BRANCH  21  22
HETATM   22  N7  UNL     1      77.634 -12.245 -51.984  1.00  0.00    -0.324 N 
HETATM   23  C8  UNL     1      76.351 -11.893 -52.150  1.00  0.00     0.185 A 
HETATM   24  N8  UNL     1      75.546 -12.669 -51.413  1.00  0.00    -0.346 N 
HETATM   25  C9  UNL     1      76.299 -13.548 -50.750  1.00  0.00     0.122 A 
ATOM     26  H8  UNL     1      74.529 -12.600 -51.367  1.00  0.00     0.167 HD
HETATM   27  C10 UNL     1      75.967 -14.555 -49.867  1.00  0.00     0.131 A 
HETATM   28  C12 UNL     1      77.603 -13.278 -51.111  1.00  0.00     0.140 A 
HETATM   29  N10 UNL     1      76.959 -15.295 -49.346  1.00  0.00    -0.337 N 
HETATM   30  C11 UNL     1      78.237 -15.035 -49.695  1.00  0.00     0.183 A 
ATOM     31  H10 UNL     1      76.749 -16.047 -48.690  1.00  0.00     0.168 HD
HETATM   32  N11 UNL     1      78.562 -14.045 -50.563  1.00  0.00    -0.336 N 
ATOM     33  H11 UNL     1      79.540 -13.881 -50.801  1.00  0.00     0.168 HD
BRANCH  27  34
HETATM   34  N9  UNL     1      74.758 -14.813 -49.527  1.00  0.00    -0.383 N 
ATOM     35  H92 UNL     1      74.179 -15.372 -50.154  1.00  0.00     0.157 HD
ATOM     36  H91 UNL     1      74.345 -14.482 -48.655  1.00  0.00     0.157 HD
ENDBRANCH  27  34
ENDBRANCH  21  22
ENDBRANCH   1  21
BRANCH   1  37
HETATM   37  N12 UNL     1      78.745  -9.915 -54.345  1.00  0.00    -0.166 N 
HETATM   38  C13 UNL     1      79.725  -9.103 -54.759  1.00  0.00     0.157 A 
HETATM   39  C14 UNL     1      79.708  -9.056 -56.132  1.00  0.00     0.148 A 
HETATM   40  N13 UNL     1      80.574  -8.316 -56.981  1.00  0.00    -0.081 NA
HETATM   41  N14 UNL     1      78.720  -9.837 -56.548  1.00  0.00    -0.178 N 
HETATM   42  C15 UNL     1      78.134 -10.361 -55.457  1.00  0.00     0.681 A 
ATOM     43  H14 UNL     1      78.454 -10.009 -57.518  1.00  0.00     0.185 HD
HETATM   44  N15 UNL     1      77.129 -11.170 -55.535  1.00  0.00    -0.234 N 
ATOM     45 2H15 UNL     1      76.685 -11.567 -54.707  1.00  0.00     0.174 HD
ATOM     46 1H15 UNL     1      76.666 -11.509 -56.378  1.00  0.00     0.174 HD
ENDBRANCH   1  37
TORSDOF 10
ENDMDL
MODEL 5
REMARK VINA RESULT: -5.675318274      3.933      7.241
REMARK  10 active torsions:
REMARK  status: ('A' for Active; 'I' for Inactive)
REMARK    1  A    between atoms: N1_2  and  N2_3 
REMARK    2  A    between atoms: N2_3  and  C2_5 
REMARK    3  A    between atoms: C4_7  and  N3_8 
REMARK    4  A    between atoms: N4_11  and  N5_12 
REMARK    5  A    between atoms: C5_15  and  N6_16 
REMARK    6  A    between atoms: N6_16  and  C6_18 
REMARK    7  A    between atoms: C6_18  and  C7_19 
REMARK    8  A    between atoms: C6_18  and  N12_35 
REMARK    9  A    between atoms: C7_19  and  N7_20 
REMARK   10  A    between atoms: C10_25  and  N9_26 
ROOT
HETATM    1  C6  UNL     1      77.322 -16.681 -50.072  1.00  0.00     0.242 C 
ENDROOT
BRANCH   1   2
HETATM    2  N6  UNL     1      77.349 -15.270 -49.918  1.00  0.00    -0.200 N 
ATOM      3  H6  UNL     1      77.874 -14.949 -49.103  1.00  0.00     0.180 HD
BRANCH   2   4
HETATM    4  C5  UNL     1      76.845 -14.346 -50.602  1.00  0.00     0.704 A 
HETATM    5  N4  UNL     1      75.515 -14.118 -50.429  1.00  0.00    -0.077 N 
HETATM    6  C4  UNL     1      74.912 -13.162 -51.114  1.00  0.00     0.142 A 
HETATM    7  C3  UNL     1      75.624 -12.377 -52.019  1.00  0.00     0.100 A 
HETATM    8  C2  UNL     1      76.959 -12.598 -52.199  1.00  0.00     0.136 A 
HETATM    9  N16 UNL     1      77.520 -13.589 -51.472  1.00  0.00    -0.174 N 
ATOM     10  H16 UNL     1      78.517 -13.770 -51.593  1.00  0.00     0.186 HD
BRANCH   5  11
HETATM   11  N5  UNL     1      74.775 -14.900 -49.519  1.00  0.00    -0.322 N 
ATOM     12  H52 UNL     1      73.942 -15.399 -49.831  1.00  0.00     0.178 HD
ATOM     13  H51 UNL     1      75.075 -14.966 -48.547  1.00  0.00     0.178 HD
ENDBRANCH   5  11
BRANCH   6  14
HETATM   14  N3  UNL     1      73.641 -12.946 -50.947  1.00  0.00    -0.383 N 
ATOM     15  H32 UNL     1      73.112 -12.444 -51.659  1.00  0.00     0.157 HD
ATOM     16  H31 UNL     1      73.185 -13.283 -50.100  1.00  0.00     0.157 HD
ENDBRANCH   6  14
BRANCH   8  17
HETATM   17  N2  UNL     1      77.705 -11.813 -53.112  1.00  0.00    -0.289 N 
ATOM     18  H2  UNL     1      78.259 -11.027 -52.773  1.00  0.00     0.184 HD
BRANCH  17  19
HETATM   19  N1  UNL     1      77.685 -12.113 -54.468  1.00  0.00    -0.144 NA
HETATM   20  C1  UNL     1      77.348 -10.912 -55.199  1.00  0.00     0.159 C 
ENDBRANCH  17  19
ENDBRANCH   8  17
ENDBRANCH   2   4
ENDBRANCH   1   2
BRANCH   1  21
HETATM   21  C7  UNL     1      77.756 -17.420 -48.820  1.00  0.00     0.179 C 
BRANCH  21  22
HETATM   22  N7  UNL     1      76.646 -17.544 -47.923  1.00  0.00    -0.324 N 
HETATM   23  C8  UNL     1      75.563 -18.315 -48.091  1.00  0.00     0.185 A 
HETATM   24  N8  UNL     1      74.724 -18.188 -47.053  1.00  0.00    -0.346 N 
HETATM   25  C9  UNL     1      75.255 -17.325 -46.186  1.00  0.00     0.122 A 
ATOM     26  H8  UNL     1      73.831 -18.670 -46.945  1.00  0.00     0.167 HD
HETATM   27  C10 UNL     1      74.802 -16.852 -44.971  1.00  0.00     0.131 A 
HETATM   28  C12 UNL     1      76.457 -16.926 -46.735  1.00  0.00     0.140 A 
HETATM   29  N10 UNL     1      75.567 -15.971 -44.307  1.00  0.00    -0.337 N 
HETATM   30  C11 UNL     1      76.743 -15.577 -44.840  1.00  0.00     0.183 A 
ATOM     31  H10 UNL     1      75.261 -15.602 -43.407  1.00  0.00     0.168 HD
HETATM   32  N11 UNL     1      77.188 -16.042 -46.033  1.00  0.00    -0.336 N 
ATOM     33  H11 UNL     1      78.083 -15.719 -46.402  1.00  0.00     0.168 HD
BRANCH  27  34
HETATM   34  N9  UNL     1      73.687 -17.218 -44.454  1.00  0.00    -0.383 N 
ATOM     35  H92 UNL     1      73.673 -17.525 -43.481  1.00  0.00     0.157 HD
ATOM     36  H91 UNL     1      72.809 -17.218 -44.972  1.00  0.00     0.157 HD
ENDBRANCH  27  34
ENDBRANCH  21  22
ENDBRANCH   1  21
BRANCH   1  37
HETATM   37  N12 UNL     1      78.102 -17.032 -51.217  1.00  0.00    -0.166 N 
HETATM   38  C13 UNL     1      77.598 -17.521 -52.355  1.00  0.00     0.157 A 
HETATM   39  C14 UNL     1      78.630 -17.742 -53.235  1.00  0.00     0.148 A 
HETATM   40  N13 UNL     1      78.542 -18.256 -54.557  1.00  0.00    -0.081 NA
HETATM   41  N14 UNL     1      79.756 -17.388 -52.630  1.00  0.00    -0.178 N 
HETATM   42  C15 UNL     1      79.432 -16.955 -51.399  1.00  0.00     0.681 A 
ATOM     43  H14 UNL     1      80.695 -17.436 -53.025  1.00  0.00     0.185 HD
HETATM   44  N15 UNL     1      80.321 -16.538 -50.559  1.00  0.00    -0.234 N 
ATOM     45 2H15 UNL     1      80.075 -16.210 -49.624  1.00  0.00     0.174 HD
ATOM     46 1H15 UNL     1      81.330 -16.479 -50.697  1.00  0.00     0.174 HD
ENDBRANCH   1  37
TORSDOF 10
ENDMDL
