MODEL 1
REMARK VINA RESULT: -6.269118463      0.000      0.000
REMARK  9 active torsions:
REMARK  status: ('A' for Active; 'I' for Inactive)
REMARK    1  A    between atoms: N1_1  and  C1_4 
REMARK    2  A    between atoms: C3_7  and  C4_8 
REMARK    3  A    between atoms: C4_8  and  N3_9 
REMARK    4  A    between atoms: C4_8  and  O1_13 
REMARK    5  A    between atoms: N7_22  and  C7_23 
REMARK    6  A    between atoms: C7_23  and  C8_24 
REMARK    7  A    between atoms: C7_23  and  C14_41 
REMARK       I    between atoms: N8_27  and  C11_29 
REMARK       I    between atoms: C11_29  and  N9_30 
REMARK       I    between atoms: C11_29  and  N10_34 
REMARK    8  A    between atoms: C14_41  and  O2_42 
REMARK    9  A    between atoms: C14_41  and  C15_44 
ROOT
HETATM    1  C7  UNL     1      77.390 -10.547 -53.242  1.00  0.00     0.201 C 
ENDROOT
BRANCH   1   2
HETATM    2  N7  UNL     1      78.064  -9.987 -52.104  1.00  0.00    -0.197 N 
HETATM    3  N6  UNL     1      78.837 -10.719 -51.321  1.00  0.00    -0.223 N 
HETATM    4  N5  UNL     1      79.353 -10.004 -50.343  1.00  0.00    -0.266 N 
ATOM      5  H6  UNL     1      79.014 -11.715 -51.458  1.00  0.00     0.210 HD
HETATM    6  C6  UNL     1      78.875  -8.771 -50.528  1.00  0.00     0.171 A 
ATOM      7  H5  UNL     1      79.981 -10.322 -49.604  1.00  0.00     0.190 HD
HETATM    8  C5  UNL     1      79.053  -7.587 -49.833  1.00  0.00     0.106 A 
HETATM    9  N12 UNL     1      78.077  -8.760 -51.617  1.00  0.00    -0.201 N 
HETATM   10  C3  UNL     1      78.443  -6.420 -50.225  1.00  0.00     0.053 A 
HETATM   11  N4  UNL     1      79.902  -7.636 -48.688  1.00  0.00    -0.098 NA
HETATM   12  C2  UNL     1      77.638  -6.461 -51.344  1.00  0.00     0.104 A 
HETATM   13  C1  UNL     1      77.466  -7.643 -52.030  1.00  0.00     0.149 A 
HETATM   14  N2  UNL     1      77.001  -5.258 -51.760  1.00  0.00    -0.098 NA
BRANCH  10  15
HETATM   15  C4  UNL     1      78.673  -5.185 -49.441  1.00  0.00     0.354 C 
BRANCH  15  16
HETATM   16  N3  UNL     1      77.475  -4.641 -48.880  1.00  0.00    -0.049 N 
ATOM     17  H33 UNL     1      77.500  -3.621 -48.894  1.00  0.00     0.277 HD
ATOM     18  H32 UNL     1      76.680  -4.798 -49.500  1.00  0.00     0.277 HD
ATOM     19  H31 UNL     1      77.276  -4.986 -47.942  1.00  0.00     0.277 HD
ENDBRANCH  15  16
BRANCH  15  20
HETATM   20  O1  UNL     1      79.267  -4.184 -50.220  1.00  0.00    -0.366 OA
ATOM     21  H1  UNL     1      79.507  -3.430 -49.695  1.00  0.00     0.212 HD
ENDBRANCH  15  20
ENDBRANCH  10  15
BRANCH  13  22
HETATM   22  N1  UNL     1      76.720  -7.680 -53.071  1.00  0.00    -0.382 N 
ATOM     23  H12 UNL     1      75.875  -7.110 -53.103  1.00  0.00     0.157 HD
ATOM     24  H11 UNL     1      76.971  -8.276 -53.859  1.00  0.00     0.157 HD
ENDBRANCH  13  22
ENDBRANCH   1   2
BRANCH   1  25
HETATM   25  C8  UNL     1      78.249 -10.387 -54.480  1.00  0.00    -0.025 A 
HETATM   26  C9  UNL     1      77.880  -9.801 -55.600  1.00  0.00     0.040 A 
HETATM   27  C10 UNL     1      79.013  -9.859 -56.552  1.00  0.00     0.056 A 
HETATM   28  N8  UNL     1      79.002  -9.379 -57.748  1.00  0.00    -0.339 N 
HETATM   29  C12 UNL     1      80.067 -10.550 -55.830  1.00  0.00     0.073 A 
HETATM   30  C11 UNL     1      80.084  -9.422 -58.687  1.00  0.00     0.480 C 
ATOM     31  H8  UNL     1      78.141  -8.926 -58.056  1.00  0.00     0.163 HD
HETATM   32  N9  UNL     1      81.130  -8.465 -58.371  1.00  0.00    -0.033 N 
HETATM   33  N10 UNL     1      79.625  -9.140 -60.047  1.00  0.00    -0.033 N 
ATOM     34  H93 UNL     1      80.751  -7.521 -58.288  1.00  0.00     0.278 HD
ATOM     35  H92 UNL     1      81.467  -8.590 -57.416  1.00  0.00     0.278 HD
ATOM     36  H91 UNL     1      81.899  -8.496 -59.039  1.00  0.00     0.278 HD
ATOM     37 3H10 UNL     1      78.867  -9.765 -60.322  1.00  0.00     0.278 HD
ATOM     38 2H10 UNL     1      79.124  -8.252 -60.095  1.00  0.00     0.278 HD
ATOM     39 1H10 UNL     1      80.395  -9.171 -60.714  1.00  0.00     0.278 HD
HETATM   40  N11 UNL     1      81.370 -10.845 -56.350  1.00  0.00    -0.100 NA
HETATM   41  C13 UNL     1      79.612 -10.853 -54.626  1.00  0.00     0.038 A 
ENDBRANCH   1  25
BRANCH   1  42
HETATM   42  C14 UNL     1      77.152 -12.027 -52.976  1.00  0.00     0.249 C 
BRANCH  42  43
HETATM   43  O2  UNL     1      76.628 -12.551 -54.168  1.00  0.00    -0.382 OA
ATOM     44  H2  UNL     1      76.287 -13.409 -53.946  1.00  0.00     0.210 HD
ENDBRANCH  42  43
BRANCH  42  45
HETATM   45  C15 UNL     1      76.347 -12.334 -51.811  1.00  0.00     0.205 C 
HETATM   46  O3  UNL     1      75.122 -12.122 -51.796  1.00  0.00    -0.646 OA
HETATM   47  O4  UNL     1      76.902 -12.871 -50.672  1.00  0.00    -0.646 OA
ENDBRANCH  42  45
ENDBRANCH   1  42
TORSDOF 9
ENDMDL
MODEL 2
REMARK VINA RESULT: -6.183150030      1.224      1.618
REMARK  9 active torsions:
REMARK  status: ('A' for Active; 'I' for Inactive)
REMARK    1  A    between atoms: N1_1  and  C1_4 
REMARK    2  A    between atoms: C3_7  and  C4_8 
REMARK    3  A    between atoms: C4_8  and  N3_9 
REMARK    4  A    between atoms: C4_8  and  O1_13 
REMARK    5  A    between atoms: N7_22  and  C7_23 
REMARK    6  A    between atoms: C7_23  and  C8_24 
REMARK    7  A    between atoms: C7_23  and  C14_41 
REMARK       I    between atoms: N8_27  and  C11_29 
REMARK       I    between atoms: C11_29  and  N9_30 
REMARK       I    between atoms: C11_29  and  N10_34 
REMARK    8  A    between atoms: C14_41  and  O2_42 
REMARK    9  A    between atoms: C14_41  and  C15_44 
ROOT
HETATM    1  C7  UNL     1      77.536 -10.057 -52.691  1.00  0.00     0.201 C 
ENDROOT
BRANCH   1   2
HETATM    2  N7  UNL     1      78.382  -9.255 -51.851  1.00  0.00    -0.197 N 
HETATM    3  N6  UNL     1      79.326  -9.791 -51.097  1.00  0.00    -0.223 N 
HETATM    4  N5  UNL     1      79.978  -8.874 -50.411  1.00  0.00    -0.266 N 
ATOM      5  H6  UNL     1      79.525 -10.790 -51.051  1.00  0.00     0.210 HD
HETATM    6  C6  UNL     1      79.410  -7.717 -50.757  1.00  0.00     0.171 A 
ATOM      7  H5  UNL     1      80.749  -9.018 -49.759  1.00  0.00     0.190 HD
HETATM    8  C5  UNL     1      79.652  -6.408 -50.378  1.00  0.00     0.106 A 
HETATM    9  N12 UNL     1      78.422  -7.951 -51.648  1.00  0.00    -0.201 N 
HETATM   10  C3  UNL     1      78.920  -5.360 -50.882  1.00  0.00     0.053 A 
HETATM   11  N4  UNL     1      80.703  -6.197 -49.436  1.00  0.00    -0.098 NA
HETATM   12  C2  UNL     1      77.922  -5.653 -51.788  1.00  0.00     0.104 A 
HETATM   13  C1  UNL     1      77.687  -6.958 -52.160  1.00  0.00     0.149 A 
HETATM   14  N2  UNL     1      77.156  -4.577 -52.318  1.00  0.00    -0.098 NA
BRANCH  10  15
HETATM   15  C4  UNL     1      79.228  -3.982 -50.437  1.00  0.00     0.354 C 
BRANCH  15  16
HETATM   16  N3  UNL     1      78.207  -3.412 -49.614  1.00  0.00    -0.049 N 
ATOM     17  H33 UNL     1      78.366  -2.414 -49.479  1.00  0.00     0.277 HD
ATOM     18  H32 UNL     1      77.317  -3.375 -50.113  1.00  0.00     0.277 HD
ATOM     19  H31 UNL     1      78.099  -3.887 -48.718  1.00  0.00     0.277 HD
ENDBRANCH  15  16
BRANCH  15  20
HETATM   20  O1  UNL     1      79.421  -3.122 -51.526  1.00  0.00    -0.366 OA
ATOM     21  H1  UNL     1      80.344  -3.009 -51.721  1.00  0.00     0.212 HD
ENDBRANCH  15  20
ENDBRANCH  10  15
BRANCH  13  22
HETATM   22  N1  UNL     1      76.762  -7.229 -53.005  1.00  0.00    -0.382 N 
ATOM     23  H12 UNL     1      76.908  -7.023 -53.993  1.00  0.00     0.157 HD
ATOM     24  H11 UNL     1      75.887  -7.647 -52.688  1.00  0.00     0.157 HD
ENDBRANCH  13  22
ENDBRANCH   1   2
BRANCH   1  25
HETATM   25  C8  UNL     1      77.999  -9.959 -54.131  1.00  0.00    -0.025 A 
HETATM   26  C9  UNL     1      79.192  -9.567 -54.527  1.00  0.00     0.040 A 
HETATM   27  C10 UNL     1      79.230  -9.616 -56.007  1.00  0.00     0.056 A 
HETATM   28  N8  UNL     1      80.246  -9.299 -56.734  1.00  0.00    -0.339 N 
HETATM   29  C12 UNL     1      77.912 -10.086 -56.396  1.00  0.00     0.073 A 
HETATM   30  C11 UNL     1      80.308  -9.339 -58.165  1.00  0.00     0.480 C 
ATOM     31  H8  UNL     1      81.086  -8.991 -56.244  1.00  0.00     0.163 HD
HETATM   32  N9  UNL     1      80.433 -10.693 -58.677  1.00  0.00    -0.033 N 
HETATM   33  N10 UNL     1      81.443  -8.570 -58.675  1.00  0.00    -0.033 N 
ATOM     34  H93 UNL     1      81.232 -11.171 -58.260  1.00  0.00     0.278 HD
ATOM     35  H92 UNL     1      79.685 -11.290 -58.325  1.00  0.00     0.278 HD
ATOM     36  H91 UNL     1      80.477 -10.722 -59.695  1.00  0.00     0.278 HD
ATOM     37 3H10 UNL     1      81.428  -7.611 -58.328  1.00  0.00     0.278 HD
ATOM     38 2H10 UNL     1      82.321  -8.877 -58.254  1.00  0.00     0.278 HD
ATOM     39 1H10 UNL     1      81.487  -8.599 -59.693  1.00  0.00     0.278 HD
HETATM   40  N11 UNL     1      77.471 -10.294 -57.743  1.00  0.00    -0.100 NA
HETATM   41  C13 UNL     1      77.204 -10.282 -55.296  1.00  0.00     0.038 A 
ENDBRANCH   1  25
BRANCH   1  42
HETATM   42  C14 UNL     1      77.631 -11.502 -52.223  1.00  0.00     0.249 C 
BRANCH  42  43
HETATM   43  O2  UNL     1      78.586 -12.111 -53.053  1.00  0.00    -0.382 OA
ATOM     44  H2  UNL     1      78.983 -11.407 -53.551  1.00  0.00     0.210 HD
ENDBRANCH  42  43
BRANCH  42  45
HETATM   45  C15 UNL     1      76.378 -12.227 -52.161  1.00  0.00     0.205 C 
HETATM   46  O3  UNL     1      75.738 -12.501 -53.192  1.00  0.00    -0.646 OA
HETATM   47  O4  UNL     1      75.842 -12.640 -50.963  1.00  0.00    -0.646 OA
ENDBRANCH  42  45
ENDBRANCH   1  42
TORSDOF 9
ENDMDL
MODEL 3
REMARK VINA RESULT: -6.076920807      3.427      6.918
REMARK  9 active torsions:
REMARK  status: ('A' for Active; 'I' for Inactive)
REMARK    1  A    between atoms: N1_1  and  C1_4 
REMARK    2  A    between atoms: C3_7  and  C4_8 
REMARK    3  A    between atoms: C4_8  and  N3_9 
REMARK    4  A    between atoms: C4_8  and  O1_13 
REMARK    5  A    between atoms: N7_22  and  C7_23 
REMARK    6  A    between atoms: C7_23  and  C8_24 
REMARK    7  A    between atoms: C7_23  and  C14_41 
REMARK       I    between atoms: N8_27  and  C11_29 
REMARK       I    between atoms: C11_29  and  N9_30 
REMARK       I    between atoms: C11_29  and  N10_34 
REMARK    8  A    between atoms: C14_41  and  O2_42 
REMARK    9  A    between atoms: C14_41  and  C15_44 
ROOT
HETATM    1  C7  UNL     1      77.793 -11.320 -53.251  1.00  0.00     0.201 C 
ENDROOT
BRANCH   1   2
HETATM    2  N7  UNL     1      78.129 -12.402 -52.368  1.00  0.00    -0.197 N 
HETATM    3  N6  UNL     1      79.366 -12.855 -52.258  1.00  0.00    -0.223 N 
HETATM    4  N5  UNL     1      79.445 -13.847 -51.395  1.00  0.00    -0.266 N 
ATOM      5  H6  UNL     1      80.161 -12.483 -52.778  1.00  0.00     0.210 HD
HETATM    6  C6  UNL     1      78.198 -14.016 -50.950  1.00  0.00     0.171 A 
ATOM      7  H5  UNL     1      80.277 -14.370 -51.125  1.00  0.00     0.190 HD
HETATM    8  C5  UNL     1      77.644 -14.897 -50.037  1.00  0.00     0.106 A 
HETATM    9  N12 UNL     1      77.382 -13.123 -51.552  1.00  0.00    -0.201 N 
HETATM   10  C3  UNL     1      76.304 -14.879 -49.735  1.00  0.00     0.053 A 
HETATM   11  N4  UNL     1      78.534 -15.825 -49.420  1.00  0.00    -0.098 NA
HETATM   12  C2  UNL     1      75.514 -13.948 -50.377  1.00  0.00     0.104 A 
HETATM   13  C1  UNL     1      76.072 -13.075 -51.284  1.00  0.00     0.149 A 
HETATM   14  N2  UNL     1      74.124 -13.919 -50.073  1.00  0.00    -0.098 NA
BRANCH  10  15
HETATM   15  C4  UNL     1      75.771 -15.846 -48.748  1.00  0.00     0.354 C 
BRANCH  15  16
HETATM   16  N3  UNL     1      76.405 -15.757 -47.469  1.00  0.00    -0.049 N 
ATOM     17  H33 UNL     1      77.223 -16.366 -47.427  1.00  0.00     0.277 HD
ATOM     18  H32 UNL     1      76.862 -14.853 -47.354  1.00  0.00     0.277 HD
ATOM     19  H31 UNL     1      75.772 -15.945 -46.692  1.00  0.00     0.277 HD
ENDBRANCH  15  16
BRANCH  15  20
HETATM   20  O1  UNL     1      75.910 -17.166 -49.197  1.00  0.00    -0.366 OA
ATOM     21  H1  UNL     1      75.070 -17.607 -49.245  1.00  0.00     0.212 HD
ENDBRANCH  15  20
ENDBRANCH  10  15
BRANCH  13  22
HETATM   22  N1  UNL     1      75.339 -12.209 -51.878  1.00  0.00    -0.382 N 
ATOM     23  H12 UNL     1      74.343 -12.392 -51.998  1.00  0.00     0.157 HD
ATOM     24  H11 UNL     1      75.750 -11.344 -52.228  1.00  0.00     0.157 HD
ENDBRANCH  13  22
ENDBRANCH   1   2
BRANCH   1  25
HETATM   25  C8  UNL     1      77.911 -10.000 -52.515  1.00  0.00    -0.025 A 
HETATM   26  C9  UNL     1      77.395  -8.854 -52.909  1.00  0.00     0.040 A 
HETATM   27  C10 UNL     1      77.742  -7.819 -51.907  1.00  0.00     0.056 A 
HETATM   28  N8  UNL     1      77.398  -6.579 -51.973  1.00  0.00    -0.339 N 
HETATM   29  C12 UNL     1      78.515  -8.524 -50.900  1.00  0.00     0.073 A 
HETATM   30  C11 UNL     1      77.719  -5.560 -51.018  1.00  0.00     0.480 C 
ATOM     31  H8  UNL     1      76.845  -6.295 -52.782  1.00  0.00     0.163 HD
HETATM   32  N9  UNL     1      76.919  -5.661 -49.809  1.00  0.00    -0.033 N 
HETATM   33  N10 UNL     1      77.513  -4.222 -51.571  1.00  0.00    -0.033 N 
ATOM     34  H93 UNL     1      75.923  -5.660 -50.027  1.00  0.00     0.278 HD
ATOM     35  H92 UNL     1      76.995  -6.590 -49.395  1.00  0.00     0.278 HD
ATOM     36  H91 UNL     1      77.148  -4.936 -49.130  1.00  0.00     0.278 HD
ATOM     37 3H10 UNL     1      78.030  -4.094 -52.441  1.00  0.00     0.278 HD
ATOM     38 2H10 UNL     1      76.565  -4.109 -51.932  1.00  0.00     0.278 HD
ATOM     39 1H10 UNL     1      77.742  -3.497 -50.892  1.00  0.00     0.278 HD
HETATM   40  N11 UNL     1      79.075  -7.930 -49.721  1.00  0.00    -0.100 NA
HETATM   41  C13 UNL     1      78.608  -9.791 -51.264  1.00  0.00     0.038 A 
ENDBRANCH   1  25
BRANCH   1  42
HETATM   42  C14 UNL     1      78.766 -11.338 -54.421  1.00  0.00     0.249 C 
BRANCH  42  43
HETATM   43  O2  UNL     1      79.868 -10.568 -54.014  1.00  0.00    -0.382 OA
ATOM     44  H2  UNL     1      79.545  -9.678 -53.934  1.00  0.00     0.210 HD
ENDBRANCH  42  43
BRANCH  42  45
HETATM   45  C15 UNL     1      78.221 -10.930 -55.699  1.00  0.00     0.205 C 
HETATM   46  O3  UNL     1      77.009 -10.681 -55.836  1.00  0.00    -0.646 OA
HETATM   47  O4  UNL     1      79.015 -10.802 -56.815  1.00  0.00    -0.646 OA
ENDBRANCH  42  45
ENDBRANCH   1  42
TORSDOF 9
ENDMDL
MODEL 4
REMARK VINA RESULT: -6.051895917      0.803      1.505
REMARK  9 active torsions:
REMARK  status: ('A' for Active; 'I' for Inactive)
REMARK    1  A    between atoms: N1_1  and  C1_4 
REMARK    2  A    between atoms: C3_7  and  C4_8 
REMARK    3  A    between atoms: C4_8  and  N3_9 
REMARK    4  A    between atoms: C4_8  and  O1_13 
REMARK    5  A    between atoms: N7_22  and  C7_23 
REMARK    6  A    between atoms: C7_23  and  C8_24 
REMARK    7  A    between atoms: C7_23  and  C14_41 
REMARK       I    between atoms: N8_27  and  C11_29 
REMARK       I    between atoms: C11_29  and  N9_30 
REMARK       I    between atoms: C11_29  and  N10_34 
REMARK    8  A    between atoms: C14_41  and  O2_42 
REMARK    9  A    between atoms: C14_41  and  C15_44 
ROOT
HETATM    1  C7  UNL     1      77.440 -10.640 -53.465  1.00  0.00     0.201 C 
ENDROOT
BRANCH   1   2
HETATM    2  N7  UNL     1      78.205 -10.093 -52.379  1.00  0.00    -0.197 N 
HETATM    3  N6  UNL     1      79.032 -10.836 -51.664  1.00  0.00    -0.223 N 
HETATM    4  N5  UNL     1      79.627 -10.132 -50.724  1.00  0.00    -0.266 N 
ATOM      5  H6  UNL     1      79.189 -11.832 -51.821  1.00  0.00     0.210 HD
HETATM    6  C6  UNL     1      79.146  -8.894 -50.864  1.00  0.00     0.171 A 
ATOM      7  H5  UNL     1      80.308 -10.460 -50.040  1.00  0.00     0.190 HD
HETATM    8  C5  UNL     1      79.387  -7.716 -50.178  1.00  0.00     0.106 A 
HETATM    9  N12 UNL     1      78.266  -8.869 -51.888  1.00  0.00    -0.201 N 
HETATM   10  C3  UNL     1      78.759  -6.542 -50.514  1.00  0.00     0.053 A 
HETATM   11  N4  UNL     1      80.323  -7.780 -49.103  1.00  0.00    -0.098 NA
HETATM   12  C2  UNL     1      77.868  -6.569 -51.567  1.00  0.00     0.104 A 
HETATM   13  C1  UNL     1      77.634  -7.745 -52.244  1.00  0.00     0.149 A 
HETATM   14  N2  UNL     1      77.210  -5.359 -51.924  1.00  0.00    -0.098 NA
BRANCH  10  15
HETATM   15  C4  UNL     1      79.058  -5.314 -49.742  1.00  0.00     0.354 C 
BRANCH  15  16
HETATM   16  N3  UNL     1      77.932  -4.814 -49.016  1.00  0.00    -0.049 N 
ATOM     17  H33 UNL     1      77.071  -4.944 -49.547  1.00  0.00     0.277 HD
ATOM     18  H32 UNL     1      77.726  -5.407 -48.213  1.00  0.00     0.277 HD
ATOM     19  H31 UNL     1      78.038  -3.841 -48.729  1.00  0.00     0.277 HD
ENDBRANCH  15  16
BRANCH  15  20
HETATM   20  O1  UNL     1      79.517  -4.284 -50.573  1.00  0.00    -0.366 OA
ATOM     21  H1  UNL     1      80.448  -4.135 -50.460  1.00  0.00     0.212 HD
ENDBRANCH  15  20
ENDBRANCH  10  15
BRANCH  13  22
HETATM   22  N1  UNL     1      76.809  -7.770 -53.224  1.00  0.00    -0.382 N 
ATOM     23  H12 UNL     1      77.162  -7.718 -54.179  1.00  0.00     0.157 HD
ATOM     24  H11 UNL     1      75.807  -7.839 -53.048  1.00  0.00     0.157 HD
ENDBRANCH  13  22
ENDBRANCH   1   2
BRANCH   1  25
HETATM   25  C8  UNL     1      78.170 -10.416 -54.774  1.00  0.00    -0.025 A 
HETATM   26  C9  UNL     1      79.474 -10.483 -54.946  1.00  0.00     0.040 A 
HETATM   27  C10 UNL     1      79.771 -10.199 -56.369  1.00  0.00     0.056 A 
HETATM   28  N8  UNL     1      80.949 -10.181 -56.892  1.00  0.00    -0.339 N 
HETATM   29  C12 UNL     1      78.473  -9.964 -56.978  1.00  0.00     0.073 A 
HETATM   30  C11 UNL     1      81.262  -9.910 -58.264  1.00  0.00     0.480 C 
ATOM     31  H8  UNL     1      81.733 -10.378 -56.269  1.00  0.00     0.163 HD
HETATM   32  N9  UNL     1      80.952 -11.031 -59.135  1.00  0.00    -0.033 N 
HETATM   33  N10 UNL     1      82.680  -9.597 -58.438  1.00  0.00    -0.033 N 
ATOM     34  H93 UNL     1      81.411 -11.883 -58.814  1.00  0.00     0.278 HD
ATOM     35  H92 UNL     1      79.979 -11.320 -59.030  1.00  0.00     0.278 HD
ATOM     36  H91 UNL     1      81.175 -10.838 -60.111  1.00  0.00     0.278 HD
ATOM     37 3H10 UNL     1      82.969  -8.830 -57.831  1.00  0.00     0.278 HD
ATOM     38 2H10 UNL     1      83.275 -10.333 -58.058  1.00  0.00     0.278 HD
ATOM     39 1H10 UNL     1      82.903  -9.404 -59.414  1.00  0.00     0.278 HD
HETATM   40  N11 UNL     1      78.252  -9.647 -58.358  1.00  0.00    -0.100 NA
HETATM   41  C13 UNL     1      77.549 -10.092 -56.041  1.00  0.00     0.038 A 
ENDBRANCH   1  25
BRANCH   1  42
HETATM   42  C14 UNL     1      77.272 -12.134 -53.226  1.00  0.00     0.249 C 
BRANCH  42  43
HETATM   43  O2  UNL     1      77.009 -12.696 -54.485  1.00  0.00    -0.382 OA
ATOM     44  H2  UNL     1      77.726 -12.422 -55.046  1.00  0.00     0.210 HD
ENDBRANCH  42  43
BRANCH  42  45
HETATM   45  C15 UNL     1      76.300 -12.504 -52.218  1.00  0.00     0.205 C 
HETATM   46  O3  UNL     1      76.602 -12.549 -51.012  1.00  0.00    -0.646 OA
HETATM   47  O4  UNL     1      75.003 -12.822 -52.549  1.00  0.00    -0.646 OA
ENDBRANCH  42  45
ENDBRANCH   1  42
TORSDOF 9
ENDMDL
MODEL 5
REMARK VINA RESULT: -5.974322183      6.346     10.457
REMARK  9 active torsions:
REMARK  status: ('A' for Active; 'I' for Inactive)
REMARK    1  A    between atoms: N1_1  and  C1_4 
REMARK    2  A    between atoms: C3_7  and  C4_8 
REMARK    3  A    between atoms: C4_8  and  N3_9 
REMARK    4  A    between atoms: C4_8  and  O1_13 
REMARK    5  A    between atoms: N7_22  and  C7_23 
REMARK    6  A    between atoms: C7_23  and  C8_24 
REMARK    7  A    between atoms: C7_23  and  C14_41 
REMARK       I    between atoms: N8_27  and  C11_29 
REMARK       I    between atoms: C11_29  and  N9_30 
REMARK       I    between atoms: C11_29  and  N10_34 
REMARK    8  A    between atoms: C14_41  and  O2_42 
REMARK    9  A    between atoms: C14_41  and  C15_44 
ROOT
HETATM    1  C7  UNL     1      77.059 -16.874 -48.475  1.00  0.00     0.201 C 
ENDROOT
BRANCH   1   2
HETATM    2  N7  UNL     1      76.363 -15.835 -49.182  1.00  0.00    -0.197 N 
HETATM    3  N6  UNL     1      75.081 -15.588 -48.974  1.00  0.00    -0.223 N 
HETATM    4  N5  UNL     1      74.651 -14.596 -49.727  1.00  0.00    -0.266 N 
ATOM      5  H6  UNL     1      74.497 -16.101 -48.314  1.00  0.00     0.210 HD
HETATM    6  C6  UNL     1      75.716 -14.212 -50.434  1.00  0.00     0.171 A 
ATOM      7  H5  UNL     1      73.709 -14.206 -49.761  1.00  0.00     0.190 HD
HETATM    8  C5  UNL     1      75.897 -13.226 -51.388  1.00  0.00     0.106 A 
HETATM    9  N12 UNL     1      76.776 -14.978 -50.097  1.00  0.00    -0.201 N 
HETATM   10  C3  UNL     1      77.115 -13.014 -51.988  1.00  0.00     0.053 A 
HETATM   11  N4  UNL     1      74.756 -12.436 -51.718  1.00  0.00    -0.098 NA
HETATM   12  C2  UNL     1      78.166 -13.824 -51.610  1.00  0.00     0.104 A 
HETATM   13  C1  UNL     1      77.977 -14.803 -50.660  1.00  0.00     0.149 A 
HETATM   14  N2  UNL     1      79.432 -13.615 -52.225  1.00  0.00    -0.098 NA
BRANCH  10  15
HETATM   15  C4  UNL     1      77.245 -11.943 -53.002  1.00  0.00     0.354 C 
BRANCH  15  16
HETATM   16  N3  UNL     1      77.074 -10.629 -52.462  1.00  0.00    -0.049 N 
ATOM     17  H33 UNL     1      76.576 -10.665 -51.573  1.00  0.00     0.277 HD
ATOM     18  H32 UNL     1      77.965 -10.250 -52.141  1.00  0.00     0.277 HD
ATOM     19  H31 UNL     1      76.618  -9.985 -53.107  1.00  0.00     0.277 HD
ENDBRANCH  15  16
BRANCH  15  20
HETATM   20  O1  UNL     1      76.315 -12.099 -54.037  1.00  0.00    -0.366 OA
ATOM     21  H1  UNL     1      75.438 -11.866 -53.755  1.00  0.00     0.212 HD
ENDBRANCH  15  20
ENDBRANCH  10  15
BRANCH  13  22
HETATM   22  N1  UNL     1      78.955 -15.553 -50.307  1.00  0.00    -0.382 N 
ATOM     23  H12 UNL     1      79.869 -15.137 -50.132  1.00  0.00     0.157 HD
ATOM     24  H11 UNL     1      78.817 -16.558 -50.203  1.00  0.00     0.157 HD
ENDBRANCH  13  22
ENDBRANCH   1   2
BRANCH   1  25
HETATM   25  C8  UNL     1      76.762 -16.775 -46.992  1.00  0.00    -0.025 A 
HETATM   26  C9  UNL     1      77.535 -16.202 -46.092  1.00  0.00     0.040 A 
HETATM   27  C10 UNL     1      76.879 -16.325 -44.770  1.00  0.00     0.056 A 
HETATM   28  N8  UNL     1      77.356 -15.873 -43.660  1.00  0.00    -0.339 N 
HETATM   29  C12 UNL     1      75.642 -17.037 -45.035  1.00  0.00     0.073 A 
HETATM   30  C11 UNL     1      76.742 -15.978 -42.370  1.00  0.00     0.480 C 
ATOM     31  H8  UNL     1      78.256 -15.395 -43.706  1.00  0.00     0.163 HD
HETATM   32  N9  UNL     1      75.633 -15.053 -42.207  1.00  0.00    -0.033 N 
HETATM   33  N10 UNL     1      77.699 -15.711 -41.297  1.00  0.00    -0.033 N 
ATOM     34  H93 UNL     1      75.923 -14.095 -42.399  1.00  0.00     0.278 HD
ATOM     35  H92 UNL     1      74.945 -15.168 -42.952  1.00  0.00     0.278 HD
ATOM     36  H91 UNL     1      75.196 -15.128 -41.289  1.00  0.00     0.278 HD
ATOM     37 3H10 UNL     1      78.518 -16.313 -41.370  1.00  0.00     0.278 HD
ATOM     38 2H10 UNL     1      78.155 -14.807 -41.421  1.00  0.00     0.278 HD
ATOM     39 1H10 UNL     1      77.262 -15.786 -40.379  1.00  0.00     0.278 HD
HETATM   40  N11 UNL     1      74.664 -17.393 -44.049  1.00  0.00    -0.100 NA
HETATM   41  C13 UNL     1      75.584 -17.294 -46.331  1.00  0.00     0.038 A 
ENDBRANCH   1  25
BRANCH   1  42
HETATM   42  C14 UNL     1      76.574 -18.217 -49.002  1.00  0.00     0.249 C 
BRANCH  42  43
HETATM   43  O2  UNL     1      77.177 -19.188 -48.186  1.00  0.00    -0.382 OA
ATOM     44  H2  UNL     1      76.634 -19.245 -47.408  1.00  0.00     0.210 HD
ENDBRANCH  42  43
BRANCH  42  45
HETATM   45  C15 UNL     1      76.780 -18.448 -50.417  1.00  0.00     0.205 C 
HETATM   46  O3  UNL     1      75.857 -18.847 -51.149  1.00  0.00    -0.646 OA
HETATM   47  O4  UNL     1      78.003 -18.239 -51.011  1.00  0.00    -0.646 OA
ENDBRANCH  42  45
ENDBRANCH   1  42
TORSDOF 9
ENDMDL
