MODEL 1
REMARK VINA RESULT: -5.879364513      0.000      0.000
REMARK  18 active torsions:
REMARK  status: ('A' for Active; 'I' for Inactive)
REMARK    1  A    between atoms: C2_2  and  O1_3 
REMARK    2  A    between atoms: C2_2  and  C13_36 
REMARK    3  A    between atoms: O1_3  and  C3_4 
REMARK    4  A    between atoms: C3_4  and  O2_5 
REMARK    5  A    between atoms: C3_4  and  N1_7 
REMARK    6  A    between atoms: C5_9  and  O3_10 
REMARK    7  A    between atoms: O3_10  and  C6_11 
REMARK    8  A    between atoms: C6_11  and  C7_13 
REMARK    9  A    between atoms: C7_13  and  O5_14 
REMARK   10  A    between atoms: C7_13  and  O6_16 
REMARK   11  A    between atoms: C8_18  and  N2_19 
REMARK   12  A    between atoms: C10_23  and  N3_24 
REMARK   13  A    between atoms: C11_29  and  N5_30 
REMARK   14  A    between atoms: C13_36  and  O7_37 
REMARK   15  A    between atoms: C13_36  and  C14_39 
REMARK   16  A    between atoms: C14_39  and  O8_40 
REMARK   17  A    between atoms: C14_39  and  C15_42 
REMARK   18  A    between atoms: C15_42  and  O9_43 
ROOT
HETATM    1  N1  UNL     1      78.263  -9.649 -51.945  1.00  0.00    -0.264 N 
HETATM    2  C4  UNL     1      77.376 -10.675 -51.798  1.00  0.00     0.142 A 
HETATM    3  C5  UNL     1      76.936 -11.447 -52.837  1.00  0.00     0.122 A 
HETATM    4  C8  UNL     1      77.412 -11.177 -54.098  1.00  0.00     0.079 A 
HETATM    5  C9  UNL     1      78.301 -10.155 -54.282  1.00  0.00     0.082 A 
HETATM    6  C10 UNL     1      78.765  -9.901 -55.549  1.00  0.00     0.131 A 
HETATM    7  N4  UNL     1      79.640  -8.905 -55.766  1.00  0.00    -0.176 N 
ATOM      8  H4  UNL     1      79.993  -8.706 -56.702  1.00  0.00     0.186 HD
HETATM    9  C11 UNL     1      80.032  -8.185 -54.709  1.00  0.00     0.679 A 
HETATM   10  N6  UNL     1      79.586  -8.417 -53.435  1.00  0.00    -0.175 N 
ATOM     11  H6  UNL     1      79.926  -7.830 -52.672  1.00  0.00     0.186 HD
HETATM   12  C12 UNL     1      78.715  -9.397 -53.168  1.00  0.00     0.147 A 
ENDROOT
BRANCH   1  13
HETATM   13  C3  UNL     1      78.648  -8.921 -50.823  1.00  0.00     0.271 C 
BRANCH  13  14
HETATM   14  O1  UNL     1      78.708  -7.599 -50.543  1.00  0.00    -0.308 OA
BRANCH  14  15
HETATM   15  C2  UNL     1      77.760  -6.825 -49.876  1.00  0.00     0.159 C 
HETATM   16  C1  UNL     1      78.463  -6.000 -48.836  1.00  0.00     0.043 C 
BRANCH  15  17
HETATM   17  C13 UNL     1      76.946  -5.925 -50.754  1.00  0.00     0.178 C 
BRANCH  17  18
HETATM   18  O7  UNL     1      76.459  -6.634 -51.876  1.00  0.00    -0.390 OA
ATOM     19  H7  UNL     1      75.611  -7.017 -51.686  1.00  0.00     0.210 HD
ENDBRANCH  17  18
BRANCH  17  20
HETATM   20  C14 UNL     1      77.653  -4.681 -51.190  1.00  0.00     0.172 C 
BRANCH  20  21
HETATM   21  O8  UNL     1      76.900  -3.528 -51.134  1.00  0.00    -0.391 OA
ATOM     22  H8  UNL     1      76.301  -3.472 -50.399  1.00  0.00     0.210 HD
ENDBRANCH  20  21
BRANCH  20  23
HETATM   23  C15 UNL     1      78.201  -4.786 -52.595  1.00  0.00     0.198 C 
BRANCH  23  24
HETATM   24  O9  UNL     1      79.336  -5.592 -52.545  1.00  0.00    -0.398 OA
ATOM     25  H9  UNL     1      80.095  -5.020 -52.557  1.00  0.00     0.209 HD
ENDBRANCH  23  24
ENDBRANCH  20  23
ENDBRANCH  17  20
ENDBRANCH  15  17
ENDBRANCH  14  15
ENDBRANCH  13  14
BRANCH  13  26
HETATM   26  O2  UNL     1      79.044  -9.621 -49.799  1.00  0.00    -0.326 OA
ATOM     27  H2  UNL     1      78.641 -10.482 -49.809  1.00  0.00     0.221 HD
ENDBRANCH  13  26
ENDBRANCH   1  13
BRANCH   3  28
HETATM   28  O3  UNL     1      76.038 -12.492 -52.707  1.00  0.00    -0.271 OA
BRANCH  28  29
HETATM   29  C6  UNL     1      75.684 -12.984 -51.478  1.00  0.00     0.319 C 
HETATM   30  O4  UNL     1      76.596 -13.226 -50.657  1.00  0.00    -0.259 OA
BRANCH  29  31
HETATM   31  C7  UNL     1      74.246 -13.202 -51.188  1.00  0.00     0.357 C 
BRANCH  31  32
HETATM   32  O5  UNL     1      74.077 -13.961 -50.053  1.00  0.00    -0.363 OA
ATOM     33  H5  UNL     1      74.538 -13.580 -49.315  1.00  0.00     0.213 HD
ENDBRANCH  31  32
BRANCH  31  34
HETATM   34  O6  UNL     1      73.737 -13.948 -52.277  1.00  0.00    -0.363 OA
ATOM     35  H6  UNL     1      72.808 -14.051 -52.112  1.00  0.00     0.213 HD
ENDBRANCH  31  34
ENDBRANCH  29  31
ENDBRANCH  28  29
ENDBRANCH   3  28
BRANCH   4  36
HETATM   36  N2  UNL     1      77.034 -11.875 -55.137  1.00  0.00    -0.396 N 
ATOM     37  H22 UNL     1      76.036 -11.999 -55.306  1.00  0.00     0.156 HD
ATOM     38  H21 UNL     1      77.711 -12.293 -55.775  1.00  0.00     0.156 HD
ENDBRANCH   4  36
BRANCH   6  39
HETATM   39  N3  UNL     1      78.334 -10.647 -56.527  1.00  0.00    -0.384 N 
ATOM     40  H32 UNL     1      77.343 -10.686 -56.767  1.00  0.00     0.157 HD
ATOM     41  H31 UNL     1      79.014 -11.197 -57.053  1.00  0.00     0.157 HD
ENDBRANCH   6  39
BRANCH   9  42
HETATM   42  N5  UNL     1      80.874  -7.213 -54.863  1.00  0.00    -0.234 N 
ATOM     43  H52 UNL     1      81.855  -7.421 -54.673  1.00  0.00     0.174 HD
ATOM     44  H51 UNL     1      80.545  -6.296 -55.161  1.00  0.00     0.174 HD
ENDBRANCH   9  42
TORSDOF 18
ENDMDL
MODEL 2
REMARK VINA RESULT: -5.811304174      1.643      6.499
REMARK  18 active torsions:
REMARK  status: ('A' for Active; 'I' for Inactive)
REMARK    1  A    between atoms: C2_2  and  O1_3 
REMARK    2  A    between atoms: C2_2  and  C13_36 
REMARK    3  A    between atoms: O1_3  and  C3_4 
REMARK    4  A    between atoms: C3_4  and  O2_5 
REMARK    5  A    between atoms: C3_4  and  N1_7 
REMARK    6  A    between atoms: C5_9  and  O3_10 
REMARK    7  A    between atoms: O3_10  and  C6_11 
REMARK    8  A    between atoms: C6_11  and  C7_13 
REMARK    9  A    between atoms: C7_13  and  O5_14 
REMARK   10  A    between atoms: C7_13  and  O6_16 
REMARK   11  A    between atoms: C8_18  and  N2_19 
REMARK   12  A    between atoms: C10_23  and  N3_24 
REMARK   13  A    between atoms: C11_29  and  N5_30 
REMARK   14  A    between atoms: C13_36  and  O7_37 
REMARK   15  A    between atoms: C13_36  and  C14_39 
REMARK   16  A    between atoms: C14_39  and  O8_40 
REMARK   17  A    between atoms: C14_39  and  C15_42 
REMARK   18  A    between atoms: C15_42  and  O9_43 
ROOT
HETATM    1  N1  UNL     1      77.951 -10.837 -53.783  1.00  0.00    -0.264 N 
HETATM    2  C4  UNL     1      77.605  -9.936 -52.819  1.00  0.00     0.142 A 
HETATM    3  C5  UNL     1      78.143  -8.683 -52.729  1.00  0.00     0.122 A 
HETATM    4  C8  UNL     1      79.084  -8.308 -53.658  1.00  0.00     0.079 A 
HETATM    5  C9  UNL     1      79.456  -9.187 -54.638  1.00  0.00     0.082 A 
HETATM    6  C10 UNL     1      80.397  -8.794 -55.556  1.00  0.00     0.131 A 
HETATM    7  N4  UNL     1      80.785  -9.631 -56.533  1.00  0.00    -0.176 N 
ATOM      8  H4  UNL     1      81.483  -9.352 -57.223  1.00  0.00     0.186 HD
HETATM    9  C11 UNL     1      80.222 -10.844 -56.568  1.00  0.00     0.679 A 
HETATM   10  N6  UNL     1      79.280 -11.261 -55.665  1.00  0.00    -0.175 N 
ATOM     11  H6  UNL     1      78.890 -12.200 -55.748  1.00  0.00     0.186 HD
HETATM   12  C12 UNL     1      78.862 -10.465 -54.675  1.00  0.00     0.147 A 
ENDROOT
BRANCH   1  13
HETATM   13  C3  UNL     1      77.344 -12.090 -53.789  1.00  0.00     0.271 C 
BRANCH  13  14
HETATM   14  O1  UNL     1      77.781 -13.340 -53.511  1.00  0.00    -0.308 OA
BRANCH  14  15
HETATM   15  C2  UNL     1      78.199 -13.843 -52.280  1.00  0.00     0.159 C 
HETATM   16  C1  UNL     1      79.655 -13.517 -52.101  1.00  0.00     0.043 C 
BRANCH  15  17
HETATM   17  C13 UNL     1      77.431 -13.339 -51.098  1.00  0.00     0.178 C 
BRANCH  17  18
HETATM   18  O7  UNL     1      78.255 -13.298 -49.950  1.00  0.00    -0.390 OA
ATOM     19  H7  UNL     1      77.741 -13.445 -49.165  1.00  0.00     0.210 HD
ENDBRANCH  17  18
BRANCH  17  20
HETATM   20  C14 UNL     1      76.172 -14.094 -50.809  1.00  0.00     0.172 C 
BRANCH  20  21
HETATM   21  O8  UNL     1      76.016 -15.266 -51.515  1.00  0.00    -0.391 OA
ATOM     22  H8  UNL     1      75.529 -15.947 -51.067  1.00  0.00     0.210 HD
ENDBRANCH  20  21
BRANCH  20  23
HETATM   23  C15 UNL     1      74.930 -13.264 -51.045  1.00  0.00     0.198 C 
BRANCH  23  24
HETATM   24  O9  UNL     1      74.308 -13.753 -52.190  1.00  0.00    -0.398 OA
ATOM     25  H9  UNL     1      74.207 -13.028 -52.795  1.00  0.00     0.209 HD
ENDBRANCH  23  24
ENDBRANCH  20  23
ENDBRANCH  17  20
ENDBRANCH  15  17
ENDBRANCH  14  15
ENDBRANCH  13  14
BRANCH  13  26
HETATM   26  O2  UNL     1      76.088 -12.112 -54.128  1.00  0.00    -0.326 OA
ATOM     27  H2  UNL     1      75.975 -12.565 -54.955  1.00  0.00     0.221 HD
ENDBRANCH  13  26
ENDBRANCH   1  13
BRANCH   3  28
HETATM   28  O3  UNL     1      77.804  -7.756 -51.758  1.00  0.00    -0.271 OA
BRANCH  28  29
HETATM   29  C6  UNL     1      77.048  -6.652 -52.055  1.00  0.00     0.319 C 
HETATM   30  O4  UNL     1      76.062  -6.800 -52.810  1.00  0.00    -0.259 OA
BRANCH  29  31
HETATM   31  C7  UNL     1      77.437  -5.347 -51.468  1.00  0.00     0.357 C 
BRANCH  31  32
HETATM   32  O5  UNL     1      77.200  -4.316 -52.347  1.00  0.00    -0.363 OA
ATOM     33  H5  UNL     1      77.467  -3.483 -51.978  1.00  0.00     0.213 HD
ENDBRANCH  31  32
BRANCH  31  34
HETATM   34  O6  UNL     1      78.835  -5.415 -51.259  1.00  0.00    -0.363 OA
ATOM     35  H6  UNL     1      79.233  -5.272 -52.109  1.00  0.00     0.213 HD
ENDBRANCH  31  34
ENDBRANCH  29  31
ENDBRANCH  28  29
ENDBRANCH   3  28
BRANCH   4  36
HETATM   36  N2  UNL     1      79.641  -7.126 -53.631  1.00  0.00    -0.396 N 
ATOM     37  H22 UNL     1      79.811  -6.685 -52.727  1.00  0.00     0.156 HD
ATOM     38  H21 UNL     1      79.905  -6.639 -54.487  1.00  0.00     0.156 HD
ENDBRANCH   4  36
BRANCH   6  39
HETATM   39  N3  UNL     1      80.900  -7.595 -55.454  1.00  0.00    -0.384 N 
ATOM     40  H32 UNL     1      80.805  -7.053 -54.595  1.00  0.00     0.157 HD
ATOM     41  H31 UNL     1      81.394  -7.207 -56.257  1.00  0.00     0.157 HD
ENDBRANCH   6  39
BRANCH   9  42
HETATM   42  N5  UNL     1      80.560 -11.689 -57.488  1.00  0.00    -0.234 N 
ATOM     43  H52 UNL     1      81.028 -11.308 -58.312  1.00  0.00     0.174 HD
ATOM     44  H51 UNL     1      80.358 -12.681 -57.369  1.00  0.00     0.174 HD
ENDBRANCH   9  42
TORSDOF 18
ENDMDL
MODEL 3
REMARK VINA RESULT: -5.632332353      2.300      6.822
REMARK  18 active torsions:
REMARK  status: ('A' for Active; 'I' for Inactive)
REMARK    1  A    between atoms: C2_2  and  O1_3 
REMARK    2  A    between atoms: C2_2  and  C13_36 
REMARK    3  A    between atoms: O1_3  and  C3_4 
REMARK    4  A    between atoms: C3_4  and  O2_5 
REMARK    5  A    between atoms: C3_4  and  N1_7 
REMARK    6  A    between atoms: C5_9  and  O3_10 
REMARK    7  A    between atoms: O3_10  and  C6_11 
REMARK    8  A    between atoms: C6_11  and  C7_13 
REMARK    9  A    between atoms: C7_13  and  O5_14 
REMARK   10  A    between atoms: C7_13  and  O6_16 
REMARK   11  A    between atoms: C8_18  and  N2_19 
REMARK   12  A    between atoms: C10_23  and  N3_24 
REMARK   13  A    between atoms: C11_29  and  N5_30 
REMARK   14  A    between atoms: C13_36  and  O7_37 
REMARK   15  A    between atoms: C13_36  and  C14_39 
REMARK   16  A    between atoms: C14_39  and  O8_40 
REMARK   17  A    between atoms: C14_39  and  C15_42 
REMARK   18  A    between atoms: C15_42  and  O9_43 
ROOT
HETATM    1  N1  UNL     1      77.880 -10.989 -53.365  1.00  0.00    -0.264 N 
HETATM    2  C4  UNL     1      77.467  -9.694 -53.480  1.00  0.00     0.142 A 
HETATM    3  C5  UNL     1      78.275  -8.620 -53.230  1.00  0.00     0.122 A 
HETATM    4  C8  UNL     1      79.572  -8.855 -52.841  1.00  0.00     0.079 A 
HETATM    5  C9  UNL     1      80.020 -10.141 -52.715  1.00  0.00     0.082 A 
HETATM    6  C10 UNL     1      81.318 -10.355 -52.326  1.00  0.00     0.131 A 
HETATM    7  N4  UNL     1      81.790 -11.606 -52.193  1.00  0.00    -0.176 N 
ATOM      8  H4  UNL     1      82.754 -11.780 -51.905  1.00  0.00     0.186 HD
HETATM    9  C11 UNL     1      80.951 -12.615 -52.451  1.00  0.00     0.679 A 
HETATM   10  N6  UNL     1      79.651 -12.429 -52.841  1.00  0.00    -0.175 N 
ATOM     11  H6  UNL     1      79.064 -13.244 -53.024  1.00  0.00     0.186 HD
HETATM   12  C12 UNL     1      79.135 -11.205 -52.989  1.00  0.00     0.147 A 
ENDROOT
BRANCH   1  13
HETATM   13  C3  UNL     1      76.980 -12.014 -53.643  1.00  0.00     0.271 C 
BRANCH  13  14
HETATM   14  O1  UNL     1      76.004 -12.619 -52.926  1.00  0.00    -0.308 OA
BRANCH  14  15
HETATM   15  C2  UNL     1      75.802 -12.566 -51.548  1.00  0.00     0.159 C 
HETATM   16  C1  UNL     1      74.344 -12.801 -51.270  1.00  0.00     0.043 C 
BRANCH  15  17
HETATM   17  C13 UNL     1      76.619 -13.536 -50.752  1.00  0.00     0.178 C 
BRANCH  17  18
HETATM   18  O7  UNL     1      77.921 -13.030 -50.537  1.00  0.00    -0.390 OA
ATOM     19  H7  UNL     1      77.996 -12.661 -49.665  1.00  0.00     0.210 HD
ENDBRANCH  17  18
BRANCH  17  20
HETATM   20  C14 UNL     1      76.684 -14.914 -51.332  1.00  0.00     0.172 C 
BRANCH  20  21
HETATM   21  O8  UNL     1      76.219 -15.918 -50.512  1.00  0.00    -0.391 OA
ATOM     22  H8  UNL     1      75.415 -15.721 -50.046  1.00  0.00     0.210 HD
ENDBRANCH  20  21
BRANCH  20  23
HETATM   23  C15 UNL     1      78.083 -15.299 -51.758  1.00  0.00     0.198 C 
BRANCH  23  24
HETATM   24  O9  UNL     1      78.258 -14.865 -53.069  1.00  0.00    -0.398 OA
ATOM     25  H9  UNL     1      78.411 -15.632 -53.608  1.00  0.00     0.209 HD
ENDBRANCH  23  24
ENDBRANCH  20  23
ENDBRANCH  17  20
ENDBRANCH  15  17
ENDBRANCH  14  15
ENDBRANCH  13  14
BRANCH  13  26
HETATM   26  O2  UNL     1      77.056 -12.531 -54.835  1.00  0.00    -0.326 OA
ATOM     27  H2  UNL     1      77.963 -12.671 -55.078  1.00  0.00     0.221 HD
ENDBRANCH  13  26
ENDBRANCH   1  13
BRANCH   3  28
HETATM   28  O3  UNL     1      77.874  -7.300 -53.342  1.00  0.00    -0.271 OA
BRANCH  28  29
HETATM   29  C6  UNL     1      77.090  -6.706 -52.387  1.00  0.00     0.319 C 
HETATM   30  O4  UNL     1      75.966  -7.204 -52.156  1.00  0.00    -0.259 OA
BRANCH  29  31
HETATM   31  C7  UNL     1      77.614  -5.511 -51.681  1.00  0.00     0.357 C 
BRANCH  31  32
HETATM   32  O5  UNL     1      77.140  -4.351 -52.250  1.00  0.00    -0.363 OA
ATOM     33  H5  UNL     1      76.651  -3.836 -51.619  1.00  0.00     0.213 HD
ENDBRANCH  31  32
BRANCH  31  34
HETATM   34  O6  UNL     1      79.016  -5.533 -51.866  1.00  0.00    -0.363 OA
ATOM     35  H6  UNL     1      79.322  -6.330 -51.450  1.00  0.00     0.213 HD
ENDBRANCH  31  34
ENDBRANCH  29  31
ENDBRANCH  28  29
ENDBRANCH   3  28
BRANCH   4  36
HETATM   36  N2  UNL     1      80.399  -7.875 -52.585  1.00  0.00    -0.396 N 
ATOM     37  H22 UNL     1      80.233  -7.297 -51.762  1.00  0.00     0.156 HD
ATOM     38  H21 UNL     1      81.199  -7.679 -53.187  1.00  0.00     0.156 HD
ENDBRANCH   4  36
BRANCH   6  39
HETATM   39  N3  UNL     1      82.073  -9.319 -52.091  1.00  0.00    -0.384 N 
ATOM     40  H32 UNL     1      81.754  -8.556 -51.495  1.00  0.00     0.157 HD
ATOM     41  H31 UNL     1      82.998  -9.286 -52.520  1.00  0.00     0.157 HD
ENDBRANCH   6  39
BRANCH   9  42
HETATM   42  N5  UNL     1      81.356 -13.839 -52.338  1.00  0.00    -0.234 N 
ATOM     43  H52 UNL     1      82.350 -13.979 -52.156  1.00  0.00     0.174 HD
ATOM     44  H51 UNL     1      80.692 -14.607 -52.430  1.00  0.00     0.174 HD
ENDBRANCH   9  42
TORSDOF 18
ENDMDL
MODEL 4
REMARK VINA RESULT: -5.459654493      0.998      1.769
REMARK  18 active torsions:
REMARK  status: ('A' for Active; 'I' for Inactive)
REMARK    1  A    between atoms: C2_2  and  O1_3 
REMARK    2  A    between atoms: C2_2  and  C13_36 
REMARK    3  A    between atoms: O1_3  and  C3_4 
REMARK    4  A    between atoms: C3_4  and  O2_5 
REMARK    5  A    between atoms: C3_4  and  N1_7 
REMARK    6  A    between atoms: C5_9  and  O3_10 
REMARK    7  A    between atoms: O3_10  and  C6_11 
REMARK    8  A    between atoms: C6_11  and  C7_13 
REMARK    9  A    between atoms: C7_13  and  O5_14 
REMARK   10  A    between atoms: C7_13  and  O6_16 
REMARK   11  A    between atoms: C8_18  and  N2_19 
REMARK   12  A    between atoms: C10_23  and  N3_24 
REMARK   13  A    between atoms: C11_29  and  N5_30 
REMARK   14  A    between atoms: C13_36  and  O7_37 
REMARK   15  A    between atoms: C13_36  and  C14_39 
REMARK   16  A    between atoms: C14_39  and  O8_40 
REMARK   17  A    between atoms: C14_39  and  C15_42 
REMARK   18  A    between atoms: C15_42  and  O9_43 
ROOT
HETATM    1  N1  UNL     1      78.126  -9.394 -52.357  1.00  0.00    -0.264 N 
HETATM    2  C4  UNL     1      77.268 -10.424 -52.107  1.00  0.00     0.142 A 
HETATM    3  C5  UNL     1      76.935 -11.371 -53.035  1.00  0.00     0.122 A 
HETATM    4  C8  UNL     1      77.494 -11.282 -54.288  1.00  0.00     0.079 A 
HETATM    5  C9  UNL     1      78.358 -10.261 -54.574  1.00  0.00     0.082 A 
HETATM    6  C10 UNL     1      78.906 -10.189 -55.829  1.00  0.00     0.131 A 
HETATM    7  N4  UNL     1      79.759  -9.200 -56.144  1.00  0.00    -0.176 N 
ATOM      8  H4  UNL     1      80.174  -9.135 -57.073  1.00  0.00     0.186 HD
HETATM    9  C11 UNL     1      80.045  -8.304 -55.193  1.00  0.00     0.679 A 
HETATM   10  N6  UNL     1      79.513  -8.353 -53.931  1.00  0.00    -0.175 N 
ATOM     11  H6  UNL     1      79.773  -7.637 -53.252  1.00  0.00     0.186 HD
HETATM   12  C12 UNL     1      78.660  -9.317 -53.570  1.00  0.00     0.147 A 
ENDROOT
BRANCH   1  13
HETATM   13  C3  UNL     1      78.400  -8.480 -51.343  1.00  0.00     0.271 C 
BRANCH  13  14
HETATM   14  O1  UNL     1      78.538  -7.135 -51.311  1.00  0.00    -0.308 OA
BRANCH  14  15
HETATM   15  C2  UNL     1      77.628  -6.174 -51.752  1.00  0.00     0.159 C 
HETATM   16  C1  UNL     1      76.360  -6.869 -52.159  1.00  0.00     0.043 C 
BRANCH  15  17
HETATM   17  C13 UNL     1      77.307  -5.104 -50.755  1.00  0.00     0.178 C 
BRANCH  17  18
HETATM   18  O7  UNL     1      77.151  -3.856 -51.399  1.00  0.00    -0.390 OA
ATOM     19  H7  UNL     1      76.913  -3.978 -52.311  1.00  0.00     0.210 HD
ENDBRANCH  17  18
BRANCH  17  20
HETATM   20  C14 UNL     1      78.286  -4.991 -49.629  1.00  0.00     0.172 C 
BRANCH  20  21
HETATM   21  O8  UNL     1      78.323  -6.070 -48.774  1.00  0.00    -0.391 OA
ATOM     22  H8  UNL     1      78.937  -5.995 -48.054  1.00  0.00     0.210 HD
ENDBRANCH  20  21
BRANCH  20  23
HETATM   23  C15 UNL     1      78.057  -3.760 -48.782  1.00  0.00     0.198 C 
BRANCH  23  24
HETATM   24  O9  UNL     1      76.699  -3.702 -48.481  1.00  0.00    -0.398 OA
ATOM     25  H9  UNL     1      76.616  -3.662 -47.535  1.00  0.00     0.209 HD
ENDBRANCH  23  24
ENDBRANCH  20  23
ENDBRANCH  17  20
ENDBRANCH  15  17
ENDBRANCH  14  15
ENDBRANCH  13  14
BRANCH  13  26
HETATM   26  O2  UNL     1      78.568  -8.983 -50.154  1.00  0.00    -0.326 OA
ATOM     27  H2  UNL     1      78.812  -9.899 -50.212  1.00  0.00     0.221 HD
ENDBRANCH  13  26
ENDBRANCH   1  13
BRANCH   3  28
HETATM   28  O3  UNL     1      76.067 -12.423 -52.800  1.00  0.00    -0.271 OA
BRANCH  28  29
HETATM   29  C6  UNL     1      75.783 -12.847 -51.528  1.00  0.00     0.319 C 
HETATM   30  O4  UNL     1      76.735 -12.989 -50.730  1.00  0.00    -0.259 OA
BRANCH  29  31
HETATM   31  C7  UNL     1      74.369 -13.114 -51.169  1.00  0.00     0.357 C 
BRANCH  31  32
HETATM   32  O5  UNL     1      74.283 -13.971 -50.096  1.00  0.00    -0.363 OA
ATOM     33  H5  UNL     1      73.561 -14.579 -50.200  1.00  0.00     0.213 HD
ENDBRANCH  31  32
BRANCH  31  34
HETATM   34  O6  UNL     1      73.800 -13.771 -52.285  1.00  0.00    -0.363 OA
ATOM     35  H6  UNL     1      72.926 -14.030 -52.018  1.00  0.00     0.213 HD
ENDBRANCH  31  34
ENDBRANCH  29  31
ENDBRANCH  28  29
ENDBRANCH   3  28
BRANCH   4  36
HETATM   36  N2  UNL     1      77.220 -12.152 -55.224  1.00  0.00    -0.396 N 
ATOM     37  H22 UNL     1      77.181 -13.141 -54.977  1.00  0.00     0.156 HD
ATOM     38  H21 UNL     1      77.047 -11.865 -56.187  1.00  0.00     0.156 HD
ENDBRANCH   4  36
BRANCH   6  39
HETATM   39  N3  UNL     1      78.577 -11.101 -56.702  1.00  0.00    -0.384 N 
ATOM     40  H32 UNL     1      78.605 -10.909 -57.703  1.00  0.00     0.157 HD
ATOM     41  H31 UNL     1      78.288 -12.017 -56.360  1.00  0.00     0.157 HD
ENDBRANCH   6  39
BRANCH   9  42
HETATM   42  N5  UNL     1      80.861  -7.331 -55.443  1.00  0.00    -0.234 N 
ATOM     43  H52 UNL     1      80.468  -6.508 -55.902  1.00  0.00     0.174 HD
ATOM     44  H51 UNL     1      81.844  -7.410 -55.184  1.00  0.00     0.174 HD
ENDBRANCH   9  42
TORSDOF 18
ENDMDL
MODEL 5
REMARK VINA RESULT: -5.448293923      1.234      1.977
REMARK  18 active torsions:
REMARK  status: ('A' for Active; 'I' for Inactive)
REMARK    1  A    between atoms: C2_2  and  O1_3 
REMARK    2  A    between atoms: C2_2  and  C13_36 
REMARK    3  A    between atoms: O1_3  and  C3_4 
REMARK    4  A    between atoms: C3_4  and  O2_5 
REMARK    5  A    between atoms: C3_4  and  N1_7 
REMARK    6  A    between atoms: C5_9  and  O3_10 
REMARK    7  A    between atoms: O3_10  and  C6_11 
REMARK    8  A    between atoms: C6_11  and  C7_13 
REMARK    9  A    between atoms: C7_13  and  O5_14 
REMARK   10  A    between atoms: C7_13  and  O6_16 
REMARK   11  A    between atoms: C8_18  and  N2_19 
REMARK   12  A    between atoms: C10_23  and  N3_24 
REMARK   13  A    between atoms: C11_29  and  N5_30 
REMARK   14  A    between atoms: C13_36  and  O7_37 
REMARK   15  A    between atoms: C13_36  and  C14_39 
REMARK   16  A    between atoms: C14_39  and  O8_40 
REMARK   17  A    between atoms: C14_39  and  C15_42 
REMARK   18  A    between atoms: C15_42  and  O9_43 
ROOT
HETATM    1  N1  UNL     1      78.848  -8.650 -52.610  1.00  0.00    -0.264 N 
HETATM    2  C4  UNL     1      77.889  -9.485 -52.117  1.00  0.00     0.142 A 
HETATM    3  C5  UNL     1      77.243 -10.422 -52.874  1.00  0.00     0.122 A 
HETATM    4  C8  UNL     1      77.576 -10.530 -54.204  1.00  0.00     0.079 A 
HETATM    5  C9  UNL     1      78.533  -9.708 -54.731  1.00  0.00     0.082 A 
HETATM    6  C10 UNL     1      78.852  -9.831 -56.060  1.00  0.00     0.131 A 
HETATM    7  N4  UNL     1      79.788  -9.040 -56.611  1.00  0.00    -0.176 N 
ATOM      8  H4  UNL     1      80.036  -9.121 -57.597  1.00  0.00     0.186 HD
HETATM    9  C11 UNL     1      80.384  -8.143 -55.818  1.00  0.00     0.679 A 
HETATM   10  N6  UNL     1      80.086  -8.000 -54.489  1.00  0.00    -0.175 N 
ATOM     11  H6  UNL     1      80.579  -7.295 -53.940  1.00  0.00     0.186 HD
HETATM   12  C12 UNL     1      79.162  -8.763 -53.895  1.00  0.00     0.147 A 
ENDROOT
BRANCH   1  13
HETATM   13  C3  UNL     1      79.448  -7.729 -51.755  1.00  0.00     0.271 C 
BRANCH  13  14
HETATM   14  O1  UNL     1      80.073  -6.545 -51.949  1.00  0.00    -0.308 OA
BRANCH  14  15
HETATM   15  C2  UNL     1      79.509  -5.271 -51.932  1.00  0.00     0.159 C 
HETATM   16  C1  UNL     1      79.821  -4.593 -53.236  1.00  0.00     0.043 C 
BRANCH  15  17
HETATM   17  C13 UNL     1      78.030  -5.237 -51.699  1.00  0.00     0.178 C 
BRANCH  17  18
HETATM   18  O7  UNL     1      77.426  -4.233 -52.489  1.00  0.00    -0.390 OA
ATOM     19  H7  UNL     1      77.009  -3.580 -51.938  1.00  0.00     0.210 HD
ENDBRANCH  17  18
BRANCH  17  20
HETATM   20  C14 UNL     1      77.632  -5.083 -50.266  1.00  0.00     0.172 C 
BRANCH  20  21
HETATM   21  O8  UNL     1      78.608  -5.405 -49.348  1.00  0.00    -0.391 OA
ATOM     22  H8  UNL     1      78.983  -4.668 -48.881  1.00  0.00     0.210 HD
ENDBRANCH  20  21
BRANCH  20  23
HETATM   23  C15 UNL     1      76.405  -5.895 -49.913  1.00  0.00     0.198 C 
BRANCH  23  24
HETATM   24  O9  UNL     1      75.886  -6.408 -51.099  1.00  0.00    -0.398 OA
ATOM     25  H9  UNL     1      75.009  -6.059 -51.203  1.00  0.00     0.209 HD
ENDBRANCH  23  24
ENDBRANCH  20  23
ENDBRANCH  17  20
ENDBRANCH  15  17
ENDBRANCH  14  15
ENDBRANCH  13  14
BRANCH  13  26
HETATM   26  O2  UNL     1      79.426  -8.030 -50.489  1.00  0.00    -0.326 OA
ATOM     27  H2  UNL     1      79.699  -8.930 -50.356  1.00  0.00     0.221 HD
ENDBRANCH  13  26
ENDBRANCH   1  13
BRANCH   3  28
HETATM   28  O3  UNL     1      76.267 -11.278 -52.393  1.00  0.00    -0.271 OA
BRANCH  28  29
HETATM   29  C6  UNL     1      76.591 -12.431 -51.726  1.00  0.00     0.319 C 
HETATM   30  O4  UNL     1      77.798 -12.651 -51.485  1.00  0.00    -0.259 OA
BRANCH  29  31
HETATM   31  C7  UNL     1      75.498 -13.351 -51.329  1.00  0.00     0.357 C 
BRANCH  31  32
HETATM   32  O5  UNL     1      75.917 -14.661 -51.356  1.00  0.00    -0.363 OA
ATOM     33  H5  UNL     1      75.225 -15.248 -51.074  1.00  0.00     0.213 HD
ENDBRANCH  31  32
BRANCH  31  34
HETATM   34  O6  UNL     1      74.490 -13.206 -52.311  1.00  0.00    -0.363 OA
ATOM     35  H6  UNL     1      74.525 -13.994 -52.840  1.00  0.00     0.213 HD
ENDBRANCH  31  34
ENDBRANCH  29  31
ENDBRANCH  28  29
ENDBRANCH   3  28
BRANCH   4  36
HETATM   36  N2  UNL     1      76.998 -11.403 -54.987  1.00  0.00    -0.396 N 
ATOM     37  H22 UNL     1      76.480 -12.173 -54.563  1.00  0.00     0.156 HD
ATOM     38  H21 UNL     1      77.054 -11.330 -56.002  1.00  0.00     0.156 HD
ENDBRANCH   4  36
BRANCH   6  39
HETATM   39  N3  UNL     1      78.225 -10.729 -56.767  1.00  0.00    -0.384 N 
ATOM     40  H32 UNL     1      78.487 -11.714 -56.724  1.00  0.00     0.157 HD
ATOM     41  H31 UNL     1      77.460 -10.424 -57.370  1.00  0.00     0.157 HD
ENDBRANCH   6  39
BRANCH   9  42
HETATM   42  N5  UNL     1      81.294  -7.356 -56.299  1.00  0.00    -0.234 N 
ATOM     43  H52 UNL     1      82.240  -7.732 -56.359  1.00  0.00     0.174 HD
ATOM     44  H51 UNL     1      81.047  -6.412 -56.595  1.00  0.00     0.174 HD
ENDBRANCH   9  42
TORSDOF 18
ENDMDL
