MODEL 1
REMARK VINA RESULT: -8.186461156      0.000      0.000
REMARK  14 active torsions:
REMARK  status: ('A' for Active; 'I' for Inactive)
REMARK    1  A    between atoms: C2_2  and  C3_3 
REMARK    2  A    between atoms: C3_3  and  O1_4 
REMARK    3  A    between atoms: C4_8  and  S1_9 
REMARK    4  A    between atoms: S1_9  and  C5_10 
REMARK    5  A    between atoms: C5_10  and  C6_11 
REMARK       I    between atoms: C6_11  and  N2_13 
REMARK    6  A    between atoms: N2_13  and  N3_15 
REMARK       I    between atoms: N3_15  and  C7_17 
REMARK       I    between atoms: C7_17  and  N4_19 
REMARK    7  A    between atoms: N4_19  and  N5_21 
REMARK    8  A    between atoms: C9_23  and  N6_24 
REMARK    9  A    between atoms: C10_28  and  S2_29 
REMARK   10  A    between atoms: S2_29  and  N7_32 
REMARK   11  A    between atoms: N7_32  and  N8_34 
REMARK   12  A    between atoms: C11_38  and  O7_39 
REMARK   13  A    between atoms: C12_41  and  C13_42 
REMARK   14  A    between atoms: C13_42  and  O8_43 
ROOT
HETATM    1  N3  UNL     1      79.373 -22.568 -47.554  1.00  0.00    -0.248 N 
ATOM      2  H3  UNL     1      79.827 -23.036 -48.339  1.00  0.00     0.192 HD
HETATM    3  C7  UNL     1      79.961 -22.631 -46.257  1.00  0.00     0.353 C 
HETATM    4  O3  UNL     1      79.394 -22.033 -45.333  1.00  0.00    -0.244 OA
HETATM    5  N4  UNL     1      81.140 -23.370 -46.126  1.00  0.00    -0.248 N 
ATOM      6  H4  UNL     1      81.506 -23.820 -46.966  1.00  0.00     0.191 HD
ENDROOT
BRANCH   1   7
HETATM    7  N2  UNL     1      78.188 -21.875 -47.756  1.00  0.00    -0.265 N 
HETATM    8  C6  UNL     1      78.206 -20.810 -48.681  1.00  0.00     0.245 C 
HETATM    9  O2  UNL     1      79.198 -20.464 -49.337  1.00  0.00    -0.271 OA
ATOM     10  H2  UNL     1      77.336 -22.127 -47.255  1.00  0.00     0.190 HD
BRANCH   8  11
HETATM   11  C5  UNL     1      76.894 -20.069 -48.839  1.00  0.00     0.185 C 
BRANCH  11  12
HETATM   12  S1  UNL     1      76.174 -20.578 -50.387  1.00  0.00    -0.105 SA
BRANCH  12  13
HETATM   13  C4  UNL     1      76.782 -19.694 -51.837  1.00  0.00     0.076 C 
HETATM   14  N1  UNL     1      78.004 -19.221 -51.876  1.00  0.00    -0.353 N 
HETATM   15  C2  UNL     1      78.210 -18.586 -53.129  1.00  0.00     0.153 C 
ATOM     16  H1  UNL     1      78.695 -19.298 -51.128  1.00  0.00     0.163 HD
HETATM   17  C1  UNL     1      79.567 -19.167 -53.621  1.00  0.00     0.073 C 
HETATM   18  O9  UNL     1      77.215 -19.077 -53.963  1.00  0.00    -0.345 OA
HETATM   19  C12 UNL     1      76.140 -19.359 -53.111  1.00  0.00     0.204 C 
BRANCH  15  20
HETATM   20  C3  UNL     1      78.311 -17.104 -53.056  1.00  0.00     0.224 C 
BRANCH  20  21
HETATM   21  O1  UNL     1      78.277 -16.563 -54.318  1.00  0.00    -0.396 OA
ATOM     22  H1  UNL     1      78.216 -15.617 -54.267  1.00  0.00     0.209 HD
ENDBRANCH  20  21
ENDBRANCH  15  20
BRANCH  19  23
HETATM   23  C13 UNL     1      75.201 -20.365 -53.682  1.00  0.00     0.203 C 
BRANCH  23  24
HETATM   24  O8  UNL     1      74.114 -19.664 -54.281  1.00  0.00    -0.398 OA
ATOM     25  H8  UNL     1      73.533 -19.376 -53.588  1.00  0.00     0.209 HD
ENDBRANCH  23  24
ENDBRANCH  19  23
ENDBRANCH  12  13
ENDBRANCH  11  12
ENDBRANCH   8  11
ENDBRANCH   1   7
BRANCH   5  26
HETATM   26  N5  UNL     1      81.840 -23.537 -44.976  1.00  0.00    -0.270 N 
HETATM   27  C8  UNL     1      82.801 -24.584 -44.980  1.00  0.00     0.184 C 
HETATM   28  C9  UNL     1      82.897 -25.345 -43.682  1.00  0.00     0.248 C 
HETATM   29  C10 UNL     1      81.784 -24.835 -42.774  1.00  0.00     0.302 C 
HETATM   30  O6  UNL     1      81.942 -23.458 -42.635  1.00  0.00    -0.318 OA
HETATM   31  C11 UNL     1      81.625 -22.793 -43.828  1.00  0.00     0.387 C 
BRANCH  28  32
HETATM   32  N6  UNL     1      82.798 -26.783 -43.872  1.00  0.00    -0.070 N 
ATOM     33  H63 UNL     1      83.608 -27.143 -44.376  1.00  0.00     0.274 HD
ATOM     34  H62 UNL     1      82.921 -27.278 -42.989  1.00  0.00     0.274 HD
ATOM     35  H61 UNL     1      81.929 -27.057 -44.329  1.00  0.00     0.274 HD
ENDBRANCH  28  32
BRANCH  29  36
HETATM   36  S2  UNL     1      81.864 -25.553 -41.152  1.00  0.00     0.273 S 
HETATM   37  O4  UNL     1      83.294 -25.956 -40.915  1.00  0.00    -0.202 OA
HETATM   38  O5  UNL     1      80.941 -26.759 -41.066  1.00  0.00    -0.202 OA
BRANCH  36  39
HETATM   39  N7  UNL     1      81.393 -24.362 -40.010  1.00  0.00    -0.231 N 
ATOM     40  H7  UNL     1      81.065 -23.422 -40.228  1.00  0.00     0.199 HD
BRANCH  39  41
HETATM   41  N8  UNL     1      81.539 -24.912 -38.714  1.00  0.00    -0.336 N 
ATOM     42  H82 UNL     1      82.413 -24.956 -38.190  1.00  0.00     0.177 HD
ATOM     43  H81 UNL     1      80.626 -25.248 -38.407  1.00  0.00     0.177 HD
ENDBRANCH  39  41
ENDBRANCH  36  39
ENDBRANCH  29  36
BRANCH  31  44
HETATM   44  O7  UNL     1      82.313 -21.576 -43.895  1.00  0.00    -0.353 OA
ATOM     45  H7  UNL     1      81.708 -20.857 -44.028  1.00  0.00     0.214 HD
ENDBRANCH  31  44
ENDBRANCH   5  26
TORSDOF 14
ENDMDL
MODEL 2
REMARK VINA RESULT: -8.076641808      6.068     10.714
REMARK  14 active torsions:
REMARK  status: ('A' for Active; 'I' for Inactive)
REMARK    1  A    between atoms: C2_2  and  C3_3 
REMARK    2  A    between atoms: C3_3  and  O1_4 
REMARK    3  A    between atoms: C4_8  and  S1_9 
REMARK    4  A    between atoms: S1_9  and  C5_10 
REMARK    5  A    between atoms: C5_10  and  C6_11 
REMARK       I    between atoms: C6_11  and  N2_13 
REMARK    6  A    between atoms: N2_13  and  N3_15 
REMARK       I    between atoms: N3_15  and  C7_17 
REMARK       I    between atoms: C7_17  and  N4_19 
REMARK    7  A    between atoms: N4_19  and  N5_21 
REMARK    8  A    between atoms: C9_23  and  N6_24 
REMARK    9  A    between atoms: C10_28  and  S2_29 
REMARK   10  A    between atoms: S2_29  and  N7_32 
REMARK   11  A    between atoms: N7_32  and  N8_34 
REMARK   12  A    between atoms: C11_38  and  O7_39 
REMARK   13  A    between atoms: C12_41  and  C13_42 
REMARK   14  A    between atoms: C13_42  and  O8_43 
ROOT
HETATM    1  N3  UNL     1      82.342 -19.414 -46.323  1.00  0.00    -0.248 N 
ATOM      2  H3  UNL     1      82.901 -18.962 -47.047  1.00  0.00     0.192 HD
HETATM    3  C7  UNL     1      81.674 -18.620 -45.345  1.00  0.00     0.353 C 
HETATM    4  O3  UNL     1      80.988 -19.202 -44.495  1.00  0.00    -0.244 OA
HETATM    5  N4  UNL     1      81.851 -17.236 -45.419  1.00  0.00    -0.248 N 
ATOM      6  H4  UNL     1      82.447 -16.879 -46.167  1.00  0.00     0.191 HD
ENDROOT
BRANCH   1   7
HETATM    7  N2  UNL     1      82.235 -20.797 -46.297  1.00  0.00    -0.265 N 
HETATM    8  C6  UNL     1      81.296 -21.394 -47.165  1.00  0.00     0.245 C 
HETATM    9  O2  UNL     1      80.576 -20.773 -47.958  1.00  0.00    -0.271 OA
ATOM     10  H2  UNL     1      82.814 -21.361 -45.675  1.00  0.00     0.190 HD
BRANCH   8  11
HETATM   11  C5  UNL     1      81.200 -22.904 -47.073  1.00  0.00     0.185 C 
BRANCH  11  12
HETATM   12  S1  UNL     1      82.765 -23.506 -46.471  1.00  0.00    -0.105 SA
BRANCH  12  13
HETATM   13  C4  UNL     1      82.749 -24.094 -44.766  1.00  0.00     0.076 C 
HETATM   14  N1  UNL     1      83.751 -24.787 -44.282  1.00  0.00    -0.353 N 
HETATM   15  C2  UNL     1      83.474 -25.107 -42.926  1.00  0.00     0.153 C 
ATOM     16  H1  UNL     1      84.593 -25.052 -44.795  1.00  0.00     0.163 HD
HETATM   17  C1  UNL     1      84.783 -24.718 -42.178  1.00  0.00     0.073 C 
HETATM   18  O9  UNL     1      82.483 -24.220 -42.529  1.00  0.00    -0.345 OA
HETATM   19  C12 UNL     1      81.759 -23.947 -43.696  1.00  0.00     0.204 C 
BRANCH  15  20
HETATM   20  C3  UNL     1      83.182 -26.544 -42.683  1.00  0.00     0.224 C 
BRANCH  20  21
HETATM   21  O1  UNL     1      83.915 -27.329 -43.538  1.00  0.00    -0.396 OA
ATOM     22  H1  UNL     1      84.250 -28.090 -43.080  1.00  0.00     0.209 HD
ENDBRANCH  20  21
ENDBRANCH  15  20
BRANCH  19  23
HETATM   23  C13 UNL     1      81.022 -22.654 -43.627  1.00  0.00     0.203 C 
BRANCH  23  24
HETATM   24  O8  UNL     1      81.978 -21.598 -43.650  1.00  0.00    -0.398 OA
ATOM     25  H8  UNL     1      81.507 -20.774 -43.643  1.00  0.00     0.209 HD
ENDBRANCH  23  24
ENDBRANCH  19  23
ENDBRANCH  12  13
ENDBRANCH  11  12
ENDBRANCH   8  11
ENDBRANCH   1   7
BRANCH   5  26
HETATM   26  N5  UNL     1      81.294 -16.326 -44.580  1.00  0.00    -0.270 N 
HETATM   27  C8  UNL     1      79.978 -15.902 -44.908  1.00  0.00     0.184 C 
HETATM   28  C9  UNL     1      79.715 -14.439 -44.656  1.00  0.00     0.248 C 
HETATM   29  C10 UNL     1      81.040 -13.804 -44.250  1.00  0.00     0.302 C 
HETATM   30  O6  UNL     1      81.521 -14.492 -43.138  1.00  0.00    -0.318 OA
HETATM   31  C11 UNL     1      81.951 -15.779 -43.491  1.00  0.00     0.387 C 
BRANCH  28  32
HETATM   32  N6  UNL     1      79.148 -13.768 -45.814  1.00  0.00    -0.070 N 
ATOM     33  H63 UNL     1      79.496 -12.813 -45.891  1.00  0.00     0.274 HD
ATOM     34  H62 UNL     1      79.526 -14.150 -46.681  1.00  0.00     0.274 HD
ATOM     35  H61 UNL     1      78.129 -13.789 -45.818  1.00  0.00     0.274 HD
ENDBRANCH  28  32
BRANCH  29  36
HETATM   36  S2  UNL     1      80.849 -12.100 -43.789  1.00  0.00     0.273 S 
HETATM   37  O4  UNL     1      80.836 -11.295 -45.059  1.00  0.00    -0.202 OA
HETATM   38  O5  UNL     1      81.995 -11.670 -42.887  1.00  0.00    -0.202 OA
BRANCH  36  39
HETATM   39  N7  UNL     1      79.351 -11.927 -42.969  1.00  0.00    -0.231 N 
ATOM     40  H7  UNL     1      78.481 -11.588 -43.378  1.00  0.00     0.199 HD
BRANCH  39  41
HETATM   41  N8  UNL     1      79.534 -12.335 -41.626  1.00  0.00    -0.336 N 
ATOM     42  H82 UNL     1      78.998 -11.989 -40.830  1.00  0.00     0.177 HD
ATOM     43  H81 UNL     1      80.285 -13.024 -41.603  1.00  0.00     0.177 HD
ENDBRANCH  39  41
ENDBRANCH  36  39
ENDBRANCH  29  36
BRANCH  31  44
HETATM   44  O7  UNL     1      81.865 -16.633 -42.385  1.00  0.00    -0.353 OA
ATOM     45  H7  UNL     1      82.226 -17.486 -42.593  1.00  0.00     0.214 HD
ENDBRANCH  31  44
ENDBRANCH   5  26
TORSDOF 14
ENDMDL
MODEL 3
REMARK VINA RESULT: -7.928437881      5.206      8.638
REMARK  14 active torsions:
REMARK  status: ('A' for Active; 'I' for Inactive)
REMARK    1  A    between atoms: C2_2  and  C3_3 
REMARK    2  A    between atoms: C3_3  and  O1_4 
REMARK    3  A    between atoms: C4_8  and  S1_9 
REMARK    4  A    between atoms: S1_9  and  C5_10 
REMARK    5  A    between atoms: C5_10  and  C6_11 
REMARK       I    between atoms: C6_11  and  N2_13 
REMARK    6  A    between atoms: N2_13  and  N3_15 
REMARK       I    between atoms: N3_15  and  C7_17 
REMARK       I    between atoms: C7_17  and  N4_19 
REMARK    7  A    between atoms: N4_19  and  N5_21 
REMARK    8  A    between atoms: C9_23  and  N6_24 
REMARK    9  A    between atoms: C10_28  and  S2_29 
REMARK   10  A    between atoms: S2_29  and  N7_32 
REMARK   11  A    between atoms: N7_32  and  N8_34 
REMARK   12  A    between atoms: C11_38  and  O7_39 
REMARK   13  A    between atoms: C12_41  and  C13_42 
REMARK   14  A    between atoms: C13_42  and  O8_43 
ROOT
HETATM    1  N3  UNL     1      77.192 -16.363 -46.790  1.00  0.00    -0.248 N 
ATOM      2  H3  UNL     1      76.656 -16.114 -47.621  1.00  0.00     0.192 HD
HETATM    3  C7  UNL     1      77.845 -17.629 -46.722  1.00  0.00     0.353 C 
HETATM    4  O3  UNL     1      78.504 -17.889 -45.707  1.00  0.00    -0.244 OA
HETATM    5  N4  UNL     1      77.687 -18.487 -47.815  1.00  0.00    -0.248 N 
ATOM      6  H4  UNL     1      77.113 -18.156 -48.591  1.00  0.00     0.191 HD
ENDROOT
BRANCH   1   7
HETATM    7  N2  UNL     1      77.282 -15.469 -45.733  1.00  0.00    -0.265 N 
HETATM    8  C6  UNL     1      78.364 -14.564 -45.736  1.00  0.00     0.245 C 
HETATM    9  O2  UNL     1      79.226 -14.500 -46.622  1.00  0.00    -0.271 OA
ATOM     10  H2  UNL     1      76.591 -15.466 -44.982  1.00  0.00     0.190 HD
BRANCH   8  11
HETATM   11  C5  UNL     1      78.430 -13.631 -44.542  1.00  0.00     0.185 C 
BRANCH  11  12
HETATM   12  S1  UNL     1      80.140 -13.492 -44.065  1.00  0.00    -0.105 SA
BRANCH  12  13
HETATM   13  C4  UNL     1      80.988 -15.062 -43.804  1.00  0.00     0.076 C 
HETATM   14  N1  UNL     1      81.488 -15.735 -44.812  1.00  0.00    -0.353 N 
HETATM   15  C2  UNL     1      82.099 -16.917 -44.315  1.00  0.00     0.153 C 
ATOM     16  H1  UNL     1      81.445 -15.456 -45.792  1.00  0.00     0.163 HD
HETATM   17  C1  UNL     1      83.494 -16.932 -45.006  1.00  0.00     0.073 C 
HETATM   18  O9  UNL     1      82.303 -16.690 -42.960  1.00  0.00    -0.345 OA
HETATM   19  C12 UNL     1      81.271 -15.822 -42.584  1.00  0.00     0.204 C 
BRANCH  15  20
HETATM   20  C3  UNL     1      81.374 -18.171 -44.651  1.00  0.00     0.224 C 
BRANCH  20  21
HETATM   21  O1  UNL     1      82.266 -19.193 -44.862  1.00  0.00    -0.396 OA
ATOM     22  H1  UNL     1      81.850 -20.031 -44.695  1.00  0.00     0.209 HD
ENDBRANCH  20  21
ENDBRANCH  15  20
BRANCH  19  23
HETATM   23  C13 UNL     1      81.594 -15.042 -41.357  1.00  0.00     0.203 C 
BRANCH  23  24
HETATM   24  O8  UNL     1      81.563 -15.932 -40.245  1.00  0.00    -0.398 OA
ATOM     25  H8  UNL     1      81.261 -15.447 -39.487  1.00  0.00     0.209 HD
ENDBRANCH  23  24
ENDBRANCH  19  23
ENDBRANCH  12  13
ENDBRANCH  11  12
ENDBRANCH   8  11
ENDBRANCH   1   7
BRANCH   5  26
HETATM   26  N5  UNL     1      78.234 -19.724 -47.928  1.00  0.00    -0.270 N 
HETATM   27  C8  UNL     1      77.636 -20.742 -47.136  1.00  0.00     0.184 C 
HETATM   28  C9  UNL     1      78.614 -21.728 -46.551  1.00  0.00     0.248 C 
HETATM   29  C10 UNL     1      80.015 -21.225 -46.878  1.00  0.00     0.302 C 
HETATM   30  O6  UNL     1      80.110 -21.089 -48.261  1.00  0.00    -0.318 OA
HETATM   31  C11 UNL     1      79.338 -20.009 -48.713  1.00  0.00     0.387 C 
BRANCH  28  32
HETATM   32  N6  UNL     1      78.442 -21.899 -45.118  1.00  0.00    -0.070 N 
ATOM     33  H63 UNL     1      79.146 -21.375 -44.599  1.00  0.00     0.274 HD
ATOM     34  H62 UNL     1      77.605 -21.418 -44.789  1.00  0.00     0.274 HD
ATOM     35  H61 UNL     1      78.435 -22.879 -44.839  1.00  0.00     0.274 HD
ENDBRANCH  28  32
BRANCH  29  36
HETATM   36  S2  UNL     1      81.272 -22.369 -46.362  1.00  0.00     0.273 S 
HETATM   37  O4  UNL     1      80.743 -23.754 -46.614  1.00  0.00    -0.202 OA
HETATM   38  O5  UNL     1      81.589 -22.171 -44.888  1.00  0.00    -0.202 OA
BRANCH  36  39
HETATM   39  N7  UNL     1      82.674 -22.095 -47.313  1.00  0.00    -0.231 N 
ATOM     40  H7  UNL     1      83.273 -22.815 -47.717  1.00  0.00     0.199 HD
BRANCH  39  41
HETATM   41  N8  UNL     1      82.856 -20.697 -47.439  1.00  0.00    -0.336 N 
ATOM     42  H82 UNL     1      82.331 -19.989 -46.925  1.00  0.00     0.177 HD
ATOM     43  H81 UNL     1      83.593 -20.533 -48.124  1.00  0.00     0.177 HD
ENDBRANCH  39  41
ENDBRANCH  36  39
ENDBRANCH  29  36
BRANCH  31  44
HETATM   44  O7  UNL     1      78.955 -20.218 -50.043  1.00  0.00    -0.353 OA
ATOM     45  H7  UNL     1      78.261 -20.864 -50.093  1.00  0.00     0.214 HD
ENDBRANCH  31  44
ENDBRANCH   5  26
TORSDOF 14
ENDMDL
MODEL 4
REMARK VINA RESULT: -7.919105778      2.045      2.694
REMARK  14 active torsions:
REMARK  status: ('A' for Active; 'I' for Inactive)
REMARK    1  A    between atoms: C2_2  and  C3_3 
REMARK    2  A    between atoms: C3_3  and  O1_4 
REMARK    3  A    between atoms: C4_8  and  S1_9 
REMARK    4  A    between atoms: S1_9  and  C5_10 
REMARK    5  A    between atoms: C5_10  and  C6_11 
REMARK       I    between atoms: C6_11  and  N2_13 
REMARK    6  A    between atoms: N2_13  and  N3_15 
REMARK       I    between atoms: N3_15  and  C7_17 
REMARK       I    between atoms: C7_17  and  N4_19 
REMARK    7  A    between atoms: N4_19  and  N5_21 
REMARK    8  A    between atoms: C9_23  and  N6_24 
REMARK    9  A    between atoms: C10_28  and  S2_29 
REMARK   10  A    between atoms: S2_29  and  N7_32 
REMARK   11  A    between atoms: N7_32  and  N8_34 
REMARK   12  A    between atoms: C11_38  and  O7_39 
REMARK   13  A    between atoms: C12_41  and  C13_42 
REMARK   14  A    between atoms: C13_42  and  O8_43 
ROOT
HETATM    1  N3  UNL     1      79.180 -22.256 -47.793  1.00  0.00    -0.248 N 
ATOM      2  H3  UNL     1      79.636 -22.751 -48.559  1.00  0.00     0.192 HD
HETATM    3  C7  UNL     1      79.763 -22.274 -46.492  1.00  0.00     0.353 C 
HETATM    4  O3  UNL     1      79.193 -21.645 -45.591  1.00  0.00    -0.244 OA
HETATM    5  N4  UNL     1      80.941 -23.009 -46.332  1.00  0.00    -0.248 N 
ATOM      6  H4  UNL     1      81.309 -23.489 -47.154  1.00  0.00     0.191 HD
ENDROOT
BRANCH   1   7
HETATM    7  N2  UNL     1      77.997 -21.570 -48.023  1.00  0.00    -0.265 N 
HETATM    8  C6  UNL     1      77.983 -20.629 -49.074  1.00  0.00     0.245 C 
HETATM    9  O2  UNL     1      78.946 -20.387 -49.815  1.00  0.00    -0.271 OA
ATOM     10  H2  UNL     1      77.167 -21.739 -47.454  1.00  0.00     0.190 HD
BRANCH   8  11
HETATM   11  C5  UNL     1      76.675 -19.886 -49.260  1.00  0.00     0.185 C 
BRANCH  11  12
HETATM   12  S1  UNL     1      76.696 -19.164 -50.888  1.00  0.00    -0.105 SA
BRANCH  12  13
HETATM   13  C4  UNL     1      76.952 -17.379 -50.927  1.00  0.00     0.076 C 
HETATM   14  N1  UNL     1      76.704 -16.639 -49.874  1.00  0.00    -0.353 N 
HETATM   15  C2  UNL     1      77.000 -15.285 -50.186  1.00  0.00     0.153 C 
ATOM     16  H1  UNL     1      76.355 -16.979 -48.977  1.00  0.00     0.163 HD
HETATM   17  C1  UNL     1      77.866 -14.809 -48.983  1.00  0.00     0.073 C 
HETATM   18  O9  UNL     1      77.822 -15.332 -51.304  1.00  0.00    -0.345 OA
HETATM   19  C12 UNL     1      77.429 -16.489 -51.988  1.00  0.00     0.204 C 
BRANCH  15  20
HETATM   20  C3  UNL     1      75.806 -14.407 -50.305  1.00  0.00     0.224 C 
BRANCH  20  21
HETATM   21  O1  UNL     1      74.762 -14.926 -49.580  1.00  0.00    -0.396 OA
ATOM     22  H1  UNL     1      74.614 -15.833 -49.822  1.00  0.00     0.209 HD
ENDBRANCH  20  21
ENDBRANCH  15  20
BRANCH  19  23
HETATM   23  C13 UNL     1      78.494 -17.014 -52.887  1.00  0.00     0.203 C 
BRANCH  23  24
HETATM   24  O8  UNL     1      78.258 -16.505 -54.197  1.00  0.00    -0.398 OA
ATOM     25  H8  UNL     1      78.900 -15.828 -54.370  1.00  0.00     0.209 HD
ENDBRANCH  23  24
ENDBRANCH  19  23
ENDBRANCH  12  13
ENDBRANCH  11  12
ENDBRANCH   8  11
ENDBRANCH   1   7
BRANCH   5  26
HETATM   26  N5  UNL     1      81.636 -23.138 -45.173  1.00  0.00    -0.270 N 
HETATM   27  C8  UNL     1      82.698 -24.082 -45.188  1.00  0.00     0.184 C 
HETATM   28  C9  UNL     1      82.851 -24.866 -43.909  1.00  0.00     0.248 C 
HETATM   29  C10 UNL     1      81.678 -24.496 -43.008  1.00  0.00     0.302 C 
HETATM   30  O6  UNL     1      81.694 -23.114 -42.830  1.00  0.00    -0.318 OA
HETATM   31  C11 UNL     1      81.330 -22.451 -44.010  1.00  0.00     0.387 C 
BRANCH  28  32
HETATM   32  N6  UNL     1      82.901 -26.300 -44.138  1.00  0.00    -0.070 N 
ATOM     33  H63 UNL     1      81.971 -26.714 -44.074  1.00  0.00     0.274 HD
ATOM     34  H62 UNL     1      83.106 -26.509 -45.114  1.00  0.00     0.274 HD
ATOM     35  H61 UNL     1      83.557 -26.772 -43.516  1.00  0.00     0.274 HD
ENDBRANCH  28  32
BRANCH  29  36
HETATM   36  S2  UNL     1      81.805 -25.247 -41.404  1.00  0.00     0.273 S 
HETATM   37  O4  UNL     1      83.269 -25.339 -41.071  1.00  0.00    -0.202 OA
HETATM   38  O5  UNL     1      81.167 -26.627 -41.420  1.00  0.00    -0.202 OA
BRANCH  36  39
HETATM   39  N7  UNL     1      81.008 -24.236 -40.270  1.00  0.00    -0.231 N 
ATOM     40  H7  UNL     1      80.135 -23.734 -40.426  1.00  0.00     0.199 HD
BRANCH  39  41
HETATM   41  N8  UNL     1      81.772 -24.222 -39.078  1.00  0.00    -0.336 N 
ATOM     42  H82 UNL     1      82.774 -24.035 -39.026  1.00  0.00     0.177 HD
ATOM     43  H81 UNL     1      81.149 -24.428 -38.298  1.00  0.00     0.177 HD
ENDBRANCH  39  41
ENDBRANCH  36  39
ENDBRANCH  29  36
BRANCH  31  44
HETATM   44  O7  UNL     1      81.892 -21.170 -44.034  1.00  0.00    -0.353 OA
ATOM     45  H7  UNL     1      81.461 -20.604 -43.404  1.00  0.00     0.214 HD
ENDBRANCH  31  44
ENDBRANCH   5  26
TORSDOF 14
ENDMDL
MODEL 5
REMARK VINA RESULT: -7.841211776      1.987      2.419
REMARK  14 active torsions:
REMARK  status: ('A' for Active; 'I' for Inactive)
REMARK    1  A    between atoms: C2_2  and  C3_3 
REMARK    2  A    between atoms: C3_3  and  O1_4 
REMARK    3  A    between atoms: C4_8  and  S1_9 
REMARK    4  A    between atoms: S1_9  and  C5_10 
REMARK    5  A    between atoms: C5_10  and  C6_11 
REMARK       I    between atoms: C6_11  and  N2_13 
REMARK    6  A    between atoms: N2_13  and  N3_15 
REMARK       I    between atoms: N3_15  and  C7_17 
REMARK       I    between atoms: C7_17  and  N4_19 
REMARK    7  A    between atoms: N4_19  and  N5_21 
REMARK    8  A    between atoms: C9_23  and  N6_24 
REMARK    9  A    between atoms: C10_28  and  S2_29 
REMARK   10  A    between atoms: S2_29  and  N7_32 
REMARK   11  A    between atoms: N7_32  and  N8_34 
REMARK   12  A    between atoms: C11_38  and  O7_39 
REMARK   13  A    between atoms: C12_41  and  C13_42 
REMARK   14  A    between atoms: C13_42  and  O8_43 
ROOT
HETATM    1  N3  UNL     1      79.309 -22.036 -47.903  1.00  0.00    -0.248 N 
ATOM      2  H3  UNL     1      78.937 -22.952 -48.156  1.00  0.00     0.192 HD
HETATM    3  C7  UNL     1      80.226 -21.919 -46.818  1.00  0.00     0.353 C 
HETATM    4  O3  UNL     1      80.673 -20.795 -46.553  1.00  0.00    -0.244 OA
HETATM    5  N4  UNL     1      80.551 -23.092 -46.130  1.00  0.00    -0.248 N 
ATOM      6  H4  UNL     1      80.111 -23.956 -46.444  1.00  0.00     0.191 HD
ENDROOT
BRANCH   1   7
HETATM    7  N2  UNL     1      78.919 -20.912 -48.617  1.00  0.00    -0.265 N 
HETATM    8  C6  UNL     1      77.541 -20.748 -48.871  1.00  0.00     0.245 C 
HETATM    9  O2  UNL     1      76.656 -21.524 -48.486  1.00  0.00    -0.271 OA
ATOM     10  H2  UNL     1      79.603 -20.230 -48.946  1.00  0.00     0.190 HD
BRANCH   8  11
HETATM   11  C5  UNL     1      77.175 -19.520 -49.681  1.00  0.00     0.185 C 
BRANCH  11  12
HETATM   12  S1  UNL     1      78.664 -18.573 -49.922  1.00  0.00    -0.105 SA
BRANCH  12  13
HETATM   13  C4  UNL     1      79.165 -18.368 -51.643  1.00  0.00     0.076 C 
HETATM   14  N1  UNL     1      79.576 -19.390 -52.353  1.00  0.00    -0.353 N 
HETATM   15  C2  UNL     1      79.895 -18.940 -53.662  1.00  0.00     0.153 C 
ATOM     16  H1  UNL     1      79.654 -20.351 -52.020  1.00  0.00     0.163 HD
HETATM   17  C1  UNL     1      79.172 -19.959 -54.591  1.00  0.00     0.073 C 
HETATM   18  O9  UNL     1      79.255 -17.716 -53.801  1.00  0.00    -0.345 OA
HETATM   19  C12 UNL     1      79.213 -17.184 -52.506  1.00  0.00     0.204 C 
BRANCH  15  20
HETATM   20  C3  UNL     1      81.349 -18.942 -53.974  1.00  0.00     0.224 C 
BRANCH  20  21
HETATM   21  O1  UNL     1      82.044 -19.600 -52.990  1.00  0.00    -0.396 OA
ATOM     22  H1  UNL     1      82.537 -18.979 -52.466  1.00  0.00     0.209 HD
ENDBRANCH  20  21
ENDBRANCH  15  20
BRANCH  19  23
HETATM   23  C13 UNL     1      78.133 -16.174 -52.334  1.00  0.00     0.203 C 
BRANCH  23  24
HETATM   24  O8  UNL     1      77.859 -15.598 -53.608  1.00  0.00    -0.398 OA
ATOM     25  H8  UNL     1      77.397 -16.242 -54.129  1.00  0.00     0.209 HD
ENDBRANCH  23  24
ENDBRANCH  19  23
ENDBRANCH  12  13
ENDBRANCH  11  12
ENDBRANCH   8  11
ENDBRANCH   1   7
BRANCH   5  26
HETATM   26  N5  UNL     1      81.404 -23.174 -45.077  1.00  0.00    -0.270 N 
HETATM   27  C8  UNL     1      82.483 -24.088 -45.223  1.00  0.00     0.184 C 
HETATM   28  C9  UNL     1      82.837 -24.838 -43.964  1.00  0.00     0.248 C 
HETATM   29  C10 UNL     1      81.790 -24.481 -42.915  1.00  0.00     0.302 C 
HETATM   30  O6  UNL     1      81.787 -23.096 -42.766  1.00  0.00    -0.318 OA
HETATM   31  C11 UNL     1      81.242 -22.471 -43.896  1.00  0.00     0.387 C 
BRANCH  28  32
HETATM   32  N6  UNL     1      82.899 -26.275 -44.171  1.00  0.00    -0.070 N 
ATOM     33  H63 UNL     1      83.285 -26.497 -45.089  1.00  0.00     0.274 HD
ATOM     34  H62 UNL     1      83.617 -26.700 -43.585  1.00  0.00     0.274 HD
ATOM     35  H61 UNL     1      81.996 -26.729 -44.033  1.00  0.00     0.274 HD
ENDBRANCH  28  32
BRANCH  29  36
HETATM   36  S2  UNL     1      82.163 -25.193 -41.331  1.00  0.00     0.273 S 
HETATM   37  O4  UNL     1      82.123 -24.078 -40.323  1.00  0.00    -0.202 OA
HETATM   38  O5  UNL     1      83.535 -25.848 -41.361  1.00  0.00    -0.202 OA
BRANCH  36  39
HETATM   39  N7  UNL     1      80.957 -26.358 -40.966  1.00  0.00    -0.231 N 
ATOM     40  H7  UNL     1      80.267 -26.729 -41.617  1.00  0.00     0.199 HD
BRANCH  39  41
HETATM   41  N8  UNL     1      81.087 -26.714 -39.602  1.00  0.00    -0.336 N 
ATOM     42  H82 UNL     1      81.244 -26.058 -38.836  1.00  0.00     0.177 HD
ATOM     43  H81 UNL     1      80.996 -27.727 -39.528  1.00  0.00     0.177 HD
ENDBRANCH  39  41
ENDBRANCH  36  39
ENDBRANCH  29  36
BRANCH  31  44
HETATM   44  O7  UNL     1      81.755 -21.174 -44.021  1.00  0.00    -0.353 OA
ATOM     45  H7  UNL     1      82.108 -20.874 -43.192  1.00  0.00     0.214 HD
ENDBRANCH  31  44
ENDBRANCH   5  26
TORSDOF 14
ENDMDL
