MODEL 1
REMARK VINA RESULT: -7.910773770      0.000      0.000
REMARK  14 active torsions:
REMARK  status: ('A' for Active; 'I' for Inactive)
REMARK    1  A    between atoms: C1_2  and  C2_4 
REMARK    2  A    between atoms: C2_4  and  O3_5 
REMARK    3  A    between atoms: C2_4  and  C3_7 
REMARK    4  A    between atoms: C3_7  and  O4_8 
REMARK    5  A    between atoms: C3_7  and  C4_10 
REMARK    6  A    between atoms: C4_10  and  O5_11 
REMARK    7  A    between atoms: C4_10  and  C5_13 
REMARK    8  A    between atoms: C7_17  and  O8_18 
REMARK    9  A    between atoms: C10_24  and  O11_25 
REMARK   10  A    between atoms: C11_27  and  O12_28 
REMARK   11  A    between atoms: C14_33  and  O14_34 
REMARK   12  A    between atoms: C14_33  and  C15_36 
REMARK   13  A    between atoms: C16_39  and  C17_40 
REMARK   14  A    between atoms: C17_40  and  O17_41 
ROOT
HETATM    1  C5  UNL     1      77.300 -19.796 -52.311  1.00  0.00     0.182 C 
HETATM    2  O6  UNL     1      78.418 -19.444 -53.203  1.00  0.00    -0.309 OA
HETATM    3  C6  UNL     1      78.276 -18.046 -53.409  1.00  0.00     0.303 C 
HETATM    4  O7  UNL     1      78.655 -17.498 -54.472  1.00  0.00    -0.261 OA
HETATM    5  C7  UNL     1      77.648 -17.489 -52.204  1.00  0.00     0.230 C 
HETATM    6  C8  UNL     1      78.517 -16.563 -51.450  1.00  0.00     0.243 C 
HETATM    7  O9  UNL     1      79.644 -16.362 -51.886  1.00  0.00    -0.285 OA
HETATM    8  C9  UNL     1      78.108 -15.887 -50.228  1.00  0.00     0.230 C 
HETATM    9  O10 UNL     1      78.863 -14.963 -49.834  1.00  0.00    -0.286 OA
HETATM   10  C10 UNL     1      76.897 -16.182 -49.407  1.00  0.00     0.241 C 
HETATM   11  C11 UNL     1      76.711 -17.617 -49.086  1.00  0.00     0.185 C 
HETATM   12  C12 UNL     1      76.553 -18.558 -50.219  1.00  0.00     0.003 C 
HETATM   13  C13 UNL     1      75.448 -19.246 -49.985  1.00  0.00     0.146 C 
HETATM   14  O13 UNL     1      74.830 -18.871 -48.803  1.00  0.00    -0.314 OA
HETATM   15  C14 UNL     1      75.377 -17.690 -48.334  1.00  0.00     0.297 C 
HETATM   16  C16 UNL     1      77.453 -18.727 -51.346  1.00  0.00     0.087 C 
ENDROOT
BRANCH   1  17
HETATM   17  C4  UNL     1      76.180 -20.016 -53.216  1.00  0.00     0.180 C 
BRANCH  17  18
HETATM   18  C3  UNL     1      75.803 -21.524 -53.053  1.00  0.00     0.188 C 
BRANCH  18  19
HETATM   19  C2  UNL     1      74.957 -21.974 -54.194  1.00  0.00     0.250 C 
BRANCH  19  20
HETATM   20  C1  UNL     1      74.388 -23.317 -53.919  1.00  0.00     0.205 C 
HETATM   21  O1  UNL     1      74.949 -24.103 -53.090  1.00  0.00    -0.646 OA
HETATM   22  O2  UNL     1      73.234 -23.792 -54.530  1.00  0.00    -0.646 OA
ENDBRANCH  19  20
BRANCH  19  23
HETATM   23  O3  UNL     1      73.873 -21.122 -54.431  1.00  0.00    -0.382 OA
ATOM     24  H3  UNL     1      73.530 -20.876 -53.580  1.00  0.00     0.210 HD
ENDBRANCH  19  23
ENDBRANCH  18  19
BRANCH  18  25
HETATM   25  O4  UNL     1      75.131 -21.745 -51.879  1.00  0.00    -0.390 OA
ATOM     26  H4  UNL     1      75.717 -21.585 -51.149  1.00  0.00     0.210 HD
ENDBRANCH  18  25
ENDBRANCH  17  18
BRANCH  17  27
HETATM   27  O5  UNL     1      76.481 -19.945 -54.572  1.00  0.00    -0.390 OA
ATOM     28  H5  UNL     1      75.642 -20.149 -54.967  1.00  0.00     0.210 HD
ENDBRANCH  17  27
ENDBRANCH   1  17
BRANCH  16  29
HETATM   29  C17 UNL     1      78.883 -18.993 -50.752  1.00  0.00     0.185 C 
BRANCH  29  30
HETATM   30  O17 UNL     1      78.912 -20.255 -50.184  1.00  0.00    -0.400 OA
ATOM     31  H17 UNL     1      79.372 -20.213 -49.354  1.00  0.00     0.209 HD
ENDBRANCH  29  30
ENDBRANCH  16  29
BRANCH   5  32
HETATM   32  O8  UNL     1      76.465 -16.790 -52.432  1.00  0.00    -0.371 OA
ATOM     33  H8  UNL     1      75.733 -17.061 -51.891  1.00  0.00     0.211 HD
ENDBRANCH   5  32
BRANCH  11  34
HETATM   34  O12 UNL     1      77.673 -18.076 -48.177  1.00  0.00    -0.376 OA
ATOM     35  H12 UNL     1      77.502 -17.766 -47.296  1.00  0.00     0.211 HD
ENDBRANCH  11  34
BRANCH  10  36
HETATM   36  O11 UNL     1      77.076 -15.523 -48.170  1.00  0.00    -0.384 OA
ATOM     37  H11 UNL     1      76.449 -14.810 -48.149  1.00  0.00     0.210 HD
ENDBRANCH  10  36
BRANCH  15  38
HETATM   38  O14 UNL     1      74.582 -16.577 -48.641  1.00  0.00    -0.354 OA
ATOM     39  H14 UNL     1      74.037 -16.345 -47.898  1.00  0.00     0.213 HD
ENDBRANCH  15  38
BRANCH  15  40
HETATM   40  C15 UNL     1      75.620 -17.667 -46.883  1.00  0.00     0.243 C 
HETATM   41  O15 UNL     1      75.854 -18.746 -46.287  1.00  0.00    -0.644 OA
HETATM   42  O16 UNL     1      75.602 -16.495 -46.133  1.00  0.00    -0.644 OA
ENDBRANCH  15  40
TORSDOF 14
ENDMDL
MODEL 2
REMARK VINA RESULT: -7.527405041      2.665      6.802
REMARK  14 active torsions:
REMARK  status: ('A' for Active; 'I' for Inactive)
REMARK    1  A    between atoms: C1_2  and  C2_4 
REMARK    2  A    between atoms: C2_4  and  O3_5 
REMARK    3  A    between atoms: C2_4  and  C3_7 
REMARK    4  A    between atoms: C3_7  and  O4_8 
REMARK    5  A    between atoms: C3_7  and  C4_10 
REMARK    6  A    between atoms: C4_10  and  O5_11 
REMARK    7  A    between atoms: C4_10  and  C5_13 
REMARK    8  A    between atoms: C7_17  and  O8_18 
REMARK    9  A    between atoms: C10_24  and  O11_25 
REMARK   10  A    between atoms: C11_27  and  O12_28 
REMARK   11  A    between atoms: C14_33  and  O14_34 
REMARK   12  A    between atoms: C14_33  and  C15_36 
REMARK   13  A    between atoms: C16_39  and  C17_40 
REMARK   14  A    between atoms: C17_40  and  O17_41 
ROOT
HETATM    1  C5  UNL     1      76.462 -15.633 -49.240  1.00  0.00     0.182 C 
HETATM    2  O6  UNL     1      75.936 -15.869 -47.885  1.00  0.00    -0.309 OA
HETATM    3  C6  UNL     1      75.284 -17.126 -47.975  1.00  0.00     0.303 C 
HETATM    4  O7  UNL     1      74.297 -17.408 -47.251  1.00  0.00    -0.261 OA
HETATM    5  C7  UNL     1      75.982 -17.907 -49.004  1.00  0.00     0.230 C 
HETATM    6  C8  UNL     1      76.669 -19.106 -48.485  1.00  0.00     0.243 C 
HETATM    7  O9  UNL     1      76.597 -19.323 -47.281  1.00  0.00    -0.285 OA
HETATM    8  C9  UNL     1      77.420 -20.032 -49.319  1.00  0.00     0.230 C 
HETATM    9  O10 UNL     1      77.747 -21.117 -48.776  1.00  0.00    -0.286 OA
HETATM   10  C10 UNL     1      77.834 -19.820 -50.737  1.00  0.00     0.241 C 
HETATM   11  C11 UNL     1      78.490 -18.516 -50.994  1.00  0.00     0.185 C 
HETATM   12  C12 UNL     1      77.708 -17.289 -50.715  1.00  0.00     0.003 C 
HETATM   13  C13 UNL     1      77.752 -16.556 -51.814  1.00  0.00     0.146 C 
HETATM   14  O13 UNL     1      78.488 -17.157 -52.823  1.00  0.00    -0.314 OA
HETATM   15  C14 UNL     1      78.735 -18.482 -52.506  1.00  0.00     0.297 C 
HETATM   16  C16 UNL     1      77.055 -16.936 -49.466  1.00  0.00     0.087 C 
ENDROOT
BRANCH   1  17
HETATM   17  C4  UNL     1      75.345 -15.033 -49.956  1.00  0.00     0.180 C 
BRANCH  17  18
HETATM   18  C3  UNL     1      75.761 -13.549 -50.209  1.00  0.00     0.188 C 
BRANCH  18  19
HETATM   19  C2  UNL     1      75.099 -13.026 -51.437  1.00  0.00     0.250 C 
BRANCH  19  20
HETATM   20  C1  UNL     1      76.109 -12.486 -52.381  1.00  0.00     0.205 C 
HETATM   21  O1  UNL     1      76.346 -11.236 -52.434  1.00  0.00    -0.646 OA
HETATM   22  O2  UNL     1      76.843 -13.286 -53.247  1.00  0.00    -0.646 OA
ENDBRANCH  19  20
BRANCH  19  23
HETATM   23  O3  UNL     1      74.392 -14.014 -52.131  1.00  0.00    -0.382 OA
ATOM     24  H3  UNL     1      74.719 -14.850 -51.821  1.00  0.00     0.210 HD
ENDBRANCH  19  23
ENDBRANCH  18  19
BRANCH  18  25
HETATM   25  O4  UNL     1      77.120 -13.429 -50.345  1.00  0.00    -0.390 OA
ATOM     26  H4  UNL     1      77.497 -14.290 -50.480  1.00  0.00     0.210 HD
ENDBRANCH  18  25
ENDBRANCH  17  18
BRANCH  17  27
HETATM   27  O5  UNL     1      74.175 -14.878 -49.220  1.00  0.00    -0.390 OA
ATOM     28  H5  UNL     1      74.073 -15.740 -48.835  1.00  0.00     0.210 HD
ENDBRANCH  17  27
ENDBRANCH   1  17
BRANCH  16  29
HETATM   29  C17 UNL     1      78.144 -17.026 -48.338  1.00  0.00     0.185 C 
BRANCH  29  30
HETATM   30  O17 UNL     1      78.649 -15.761 -48.091  1.00  0.00    -0.400 OA
ATOM     31  H17 UNL     1      79.372 -15.828 -47.479  1.00  0.00     0.209 HD
ENDBRANCH  29  30
ENDBRANCH  16  29
BRANCH   5  32
HETATM   32  O8  UNL     1      75.172 -18.360 -50.043  1.00  0.00    -0.371 OA
ATOM     33  H8  UNL     1      75.605 -18.929 -50.667  1.00  0.00     0.211 HD
ENDBRANCH   5  32
BRANCH  11  34
HETATM   34  O12 UNL     1      79.762 -18.449 -50.411  1.00  0.00    -0.376 OA
ATOM     35  H12 UNL     1      79.913 -17.613 -49.987  1.00  0.00     0.211 HD
ENDBRANCH  11  34
BRANCH  10  36
HETATM   36  O11 UNL     1      78.801 -20.809 -51.028  1.00  0.00    -0.384 OA
ATOM     37  H11 UNL     1      79.580 -20.350 -51.319  1.00  0.00     0.210 HD
ENDBRANCH  10  36
BRANCH  15  38
HETATM   38  O14 UNL     1      77.860 -19.358 -53.164  1.00  0.00    -0.354 OA
ATOM     39  H14 UNL     1      77.069 -19.481 -52.653  1.00  0.00     0.213 HD
ENDBRANCH  15  38
BRANCH  15  40
HETATM   40  C15 UNL     1      80.106 -18.931 -52.800  1.00  0.00     0.243 C 
HETATM   41  O15 UNL     1      81.041 -18.094 -52.769  1.00  0.00    -0.644 OA
HETATM   42  O16 UNL     1      80.417 -20.249 -53.115  1.00  0.00    -0.644 OA
ENDBRANCH  15  40
TORSDOF 14
ENDMDL
MODEL 3
REMARK VINA RESULT: -7.498566373      2.530      4.796
REMARK  14 active torsions:
REMARK  status: ('A' for Active; 'I' for Inactive)
REMARK    1  A    between atoms: C1_2  and  C2_4 
REMARK    2  A    between atoms: C2_4  and  O3_5 
REMARK    3  A    between atoms: C2_4  and  C3_7 
REMARK    4  A    between atoms: C3_7  and  O4_8 
REMARK    5  A    between atoms: C3_7  and  C4_10 
REMARK    6  A    between atoms: C4_10  and  O5_11 
REMARK    7  A    between atoms: C4_10  and  C5_13 
REMARK    8  A    between atoms: C7_17  and  O8_18 
REMARK    9  A    between atoms: C10_24  and  O11_25 
REMARK   10  A    between atoms: C11_27  and  O12_28 
REMARK   11  A    between atoms: C14_33  and  O14_34 
REMARK   12  A    between atoms: C14_33  and  C15_36 
REMARK   13  A    between atoms: C16_39  and  C17_40 
REMARK   14  A    between atoms: C17_40  and  O17_41 
ROOT
HETATM    1  C5  UNL     1      77.925 -16.961 -50.716  1.00  0.00     0.182 C 
HETATM    2  O6  UNL     1      78.550 -15.721 -50.228  1.00  0.00    -0.309 OA
HETATM    3  C6  UNL     1      77.482 -14.998 -49.635  1.00  0.00     0.303 C 
HETATM    4  O7  UNL     1      77.474 -13.743 -49.606  1.00  0.00    -0.261 OA
HETATM    5  C7  UNL     1      76.517 -15.983 -49.129  1.00  0.00     0.230 C 
HETATM    6  C8  UNL     1      76.380 -15.989 -47.659  1.00  0.00     0.243 C 
HETATM    7  O9  UNL     1      77.069 -15.200 -47.023  1.00  0.00    -0.285 OA
HETATM    8  C9  UNL     1      75.481 -16.875 -46.935  1.00  0.00     0.230 C 
HETATM    9  O10 UNL     1      75.307 -16.604 -45.720  1.00  0.00    -0.286 OA
HETATM   10  C10 UNL     1      74.758 -18.058 -47.487  1.00  0.00     0.241 C 
HETATM   11  C11 UNL     1      75.612 -18.990 -48.260  1.00  0.00     0.185 C 
HETATM   12  C12 UNL     1      76.295 -18.458 -49.461  1.00  0.00     0.003 C 
HETATM   13  C13 UNL     1      75.990 -19.270 -50.458  1.00  0.00     0.146 C 
HETATM   14  O13 UNL     1      75.164 -20.310 -50.062  1.00  0.00    -0.314 OA
HETATM   15  C14 UNL     1      74.653 -20.057 -48.801  1.00  0.00     0.297 C 
HETATM   16  C16 UNL     1      77.166 -17.297 -49.528  1.00  0.00     0.087 C 
ENDROOT
BRANCH   1  17
HETATM   17  C4  UNL     1      77.402 -16.603 -52.027  1.00  0.00     0.180 C 
BRANCH  17  18
HETATM   18  C3  UNL     1      78.271 -17.399 -53.053  1.00  0.00     0.188 C 
BRANCH  18  19
HETATM   19  C2  UNL     1      79.602 -17.722 -52.466  1.00  0.00     0.250 C 
BRANCH  19  20
HETATM   20  C1  UNL     1      80.307 -18.728 -53.301  1.00  0.00     0.205 C 
HETATM   21  O1  UNL     1      79.752 -19.215 -54.337  1.00  0.00    -0.646 OA
HETATM   22  O2  UNL     1      81.585 -19.190 -53.015  1.00  0.00    -0.646 OA
ENDBRANCH  19  20
BRANCH  19  23
HETATM   23  O3  UNL     1      80.443 -16.607 -52.390  1.00  0.00    -0.382 OA
ATOM     24  H3  UNL     1      80.254 -16.072 -53.152  1.00  0.00     0.210 HD
ENDBRANCH  19  23
ENDBRANCH  18  19
BRANCH  18  25
HETATM   25  O4  UNL     1      78.450 -16.689 -54.211  1.00  0.00    -0.390 OA
ATOM     26  H4  UNL     1      78.743 -15.811 -53.997  1.00  0.00     0.210 HD
ENDBRANCH  18  25
ENDBRANCH  17  18
BRANCH  17  27
HETATM   27  O5  UNL     1      77.626 -15.290 -52.425  1.00  0.00    -0.390 OA
ATOM     28  H5  UNL     1      76.775 -14.895 -52.276  1.00  0.00     0.210 HD
ENDBRANCH  17  27
ENDBRANCH   1  17
BRANCH  16  29
HETATM   29  C17 UNL     1      78.284 -17.501 -48.444  1.00  0.00     0.185 C 
BRANCH  29  30
HETATM   30  O17 UNL     1      79.101 -18.551 -48.825  1.00  0.00    -0.400 OA
ATOM     31  H17 UNL     1      79.279 -19.099 -48.069  1.00  0.00     0.209 HD
ENDBRANCH  29  30
ENDBRANCH  16  29
BRANCH   5  32
HETATM   32  O8  UNL     1      75.223 -15.840 -49.625  1.00  0.00    -0.371 OA
ATOM     33  H8  UNL     1      74.599 -16.478 -49.300  1.00  0.00     0.211 HD
ENDBRANCH   5  32
BRANCH  11  34
HETATM   34  O12 UNL     1      76.507 -19.683 -47.433  1.00  0.00    -0.376 OA
ATOM     35  H12 UNL     1      77.270 -19.982 -47.913  1.00  0.00     0.211 HD
ENDBRANCH  11  34
BRANCH  10  36
HETATM   36  O11 UNL     1      74.278 -18.791 -46.379  1.00  0.00    -0.384 OA
ATOM     37  H11 UNL     1      74.563 -19.689 -46.504  1.00  0.00     0.210 HD
ENDBRANCH  10  36
BRANCH  15  38
HETATM   38  O14 UNL     1      73.344 -19.559 -48.847  1.00  0.00    -0.354 OA
ATOM     39  H14 UNL     1      72.900 -19.865 -49.629  1.00  0.00     0.213 HD
ENDBRANCH  15  38
BRANCH  15  40
HETATM   40  C15 UNL     1      74.646 -21.223 -47.903  1.00  0.00     0.243 C 
HETATM   41  O15 UNL     1      73.705 -21.354 -47.082  1.00  0.00    -0.644 OA
HETATM   42  O16 UNL     1      75.639 -22.196 -47.922  1.00  0.00    -0.644 OA
ENDBRANCH  15  40
TORSDOF 14
ENDMDL
MODEL 4
REMARK VINA RESULT: -7.438651263      2.262      4.909
REMARK  14 active torsions:
REMARK  status: ('A' for Active; 'I' for Inactive)
REMARK    1  A    between atoms: C1_2  and  C2_4 
REMARK    2  A    between atoms: C2_4  and  O3_5 
REMARK    3  A    between atoms: C2_4  and  C3_7 
REMARK    4  A    between atoms: C3_7  and  O4_8 
REMARK    5  A    between atoms: C3_7  and  C4_10 
REMARK    6  A    between atoms: C4_10  and  O5_11 
REMARK    7  A    between atoms: C4_10  and  C5_13 
REMARK    8  A    between atoms: C7_17  and  O8_18 
REMARK    9  A    between atoms: C10_24  and  O11_25 
REMARK   10  A    between atoms: C11_27  and  O12_28 
REMARK   11  A    between atoms: C14_33  and  O14_34 
REMARK   12  A    between atoms: C14_33  and  C15_36 
REMARK   13  A    between atoms: C16_39  and  C17_40 
REMARK   14  A    between atoms: C17_40  and  O17_41 
ROOT
HETATM    1  C5  UNL     1      77.773 -20.074 -49.712  1.00  0.00     0.182 C 
HETATM    2  O6  UNL     1      78.187 -21.072 -50.713  1.00  0.00    -0.309 OA
HETATM    3  C6  UNL     1      77.452 -20.728 -51.878  1.00  0.00     0.303 C 
HETATM    4  O7  UNL     1      77.110 -21.594 -52.719  1.00  0.00    -0.261 OA
HETATM    5  C7  UNL     1      77.229 -19.277 -51.840  1.00  0.00     0.230 C 
HETATM    6  C8  UNL     1      77.910 -18.537 -52.921  1.00  0.00     0.243 C 
HETATM    7  O9  UNL     1      78.580 -19.186 -53.716  1.00  0.00    -0.285 OA
HETATM    8  C9  UNL     1      77.830 -17.093 -53.087  1.00  0.00     0.230 C 
HETATM    9  O10 UNL     1      78.266 -16.642 -54.175  1.00  0.00    -0.286 OA
HETATM   10  C10 UNL     1      77.288 -16.111 -52.103  1.00  0.00     0.241 C 
HETATM   11  C11 UNL     1      77.814 -16.271 -50.727  1.00  0.00     0.185 C 
HETATM   12  C12 UNL     1      77.565 -17.561 -50.043  1.00  0.00     0.003 C 
HETATM   13  C13 UNL     1      77.014 -17.269 -48.878  1.00  0.00     0.146 C 
HETATM   14  O13 UNL     1      76.859 -15.904 -48.691  1.00  0.00    -0.314 OA
HETATM   15  C14 UNL     1      77.058 -15.236 -49.886  1.00  0.00     0.297 C 
HETATM   16  C16 UNL     1      77.899 -18.887 -50.533  1.00  0.00     0.087 C 
ENDROOT
BRANCH   1  17
HETATM   17  C4  UNL     1      76.554 -20.628 -49.141  1.00  0.00     0.180 C 
BRANCH  17  18
HETATM   18  C3  UNL     1      76.774 -20.612 -47.594  1.00  0.00     0.188 C 
BRANCH  18  19
HETATM   19  C2  UNL     1      77.515 -21.830 -47.162  1.00  0.00     0.250 C 
BRANCH  19  20
HETATM   20  C1  UNL     1      78.364 -21.529 -45.982  1.00  0.00     0.205 C 
HETATM   21  O1  UNL     1      79.351 -22.276 -45.684  1.00  0.00    -0.646 OA
HETATM   22  O2  UNL     1      78.146 -20.441 -45.147  1.00  0.00    -0.646 OA
ENDBRANCH  19  20
BRANCH  19  23
HETATM   23  O3  UNL     1      76.663 -22.874 -46.784  1.00  0.00    -0.382 OA
ATOM     24  H3  UNL     1      75.776 -22.559 -46.909  1.00  0.00     0.210 HD
ENDBRANCH  19  23
ENDBRANCH  18  19
BRANCH  18  25
HETATM   25  O4  UNL     1      75.582 -20.547 -46.921  1.00  0.00    -0.390 OA
ATOM     26  H4  UNL     1      74.890 -20.881 -47.480  1.00  0.00     0.210 HD
ENDBRANCH  18  25
ENDBRANCH  17  18
BRANCH  17  27
HETATM   27  O5  UNL     1      76.339 -21.981 -49.382  1.00  0.00    -0.390 OA
ATOM     28  H5  UNL     1      75.934 -21.962 -50.241  1.00  0.00     0.210 HD
ENDBRANCH  17  27
ENDBRANCH   1  17
BRANCH  16  29
HETATM   29  C17 UNL     1      79.428 -18.870 -50.893  1.00  0.00     0.185 C 
BRANCH  29  30
HETATM   30  O17 UNL     1      80.160 -19.269 -49.788  1.00  0.00    -0.400 OA
ATOM     31  H17 UNL     1      80.392 -18.504 -49.275  1.00  0.00     0.209 HD
ENDBRANCH  29  30
ENDBRANCH  16  29
BRANCH   5  32
HETATM   32  O8  UNL     1      75.892 -18.889 -51.905  1.00  0.00    -0.371 OA
ATOM     33  H8  UNL     1      75.642 -18.217 -51.283  1.00  0.00     0.211 HD
ENDBRANCH   5  32
BRANCH  11  34
HETATM   34  O12 UNL     1      79.164 -15.903 -50.639  1.00  0.00    -0.376 OA
ATOM     35  H12 UNL     1      79.488 -15.554 -51.461  1.00  0.00     0.211 HD
ENDBRANCH  11  34
BRANCH  10  36
HETATM   36  O11 UNL     1      77.705 -14.832 -52.537  1.00  0.00    -0.384 OA
ATOM     37  H11 UNL     1      77.117 -14.579 -53.239  1.00  0.00     0.210 HD
ENDBRANCH  10  36
BRANCH  15  38
HETATM   38  O14 UNL     1      75.851 -14.888 -50.508  1.00  0.00    -0.354 OA
ATOM     39  H14 UNL     1      75.114 -15.214 -50.007  1.00  0.00     0.213 HD
ENDBRANCH  15  38
BRANCH  15  40
HETATM   40  C15 UNL     1      77.859 -14.006 -49.768  1.00  0.00     0.243 C 
HETATM   41  O15 UNL     1      77.589 -13.030 -50.509  1.00  0.00    -0.644 OA
HETATM   42  O16 UNL     1      78.910 -13.874 -48.867  1.00  0.00    -0.644 OA
ENDBRANCH  15  40
TORSDOF 14
ENDMDL
MODEL 5
REMARK VINA RESULT: -7.317164356      2.935      6.581
REMARK  14 active torsions:
REMARK  status: ('A' for Active; 'I' for Inactive)
REMARK    1  A    between atoms: C1_2  and  C2_4 
REMARK    2  A    between atoms: C2_4  and  O3_5 
REMARK    3  A    between atoms: C2_4  and  C3_7 
REMARK    4  A    between atoms: C3_7  and  O4_8 
REMARK    5  A    between atoms: C3_7  and  C4_10 
REMARK    6  A    between atoms: C4_10  and  O5_11 
REMARK    7  A    between atoms: C4_10  and  C5_13 
REMARK    8  A    between atoms: C7_17  and  O8_18 
REMARK    9  A    between atoms: C10_24  and  O11_25 
REMARK   10  A    between atoms: C11_27  and  O12_28 
REMARK   11  A    between atoms: C14_33  and  O14_34 
REMARK   12  A    between atoms: C14_33  and  C15_36 
REMARK   13  A    between atoms: C16_39  and  C17_40 
REMARK   14  A    between atoms: C17_40  and  O17_41 
ROOT
HETATM    1  C5  UNL     1      77.736 -18.450 -47.775  1.00  0.00     0.182 C 
HETATM    2  O6  UNL     1      76.663 -17.804 -47.000  1.00  0.00    -0.309 OA
HETATM    3  C6  UNL     1      76.832 -16.417 -47.253  1.00  0.00     0.303 C 
HETATM    4  O7  UNL     1      76.507 -15.551 -46.405  1.00  0.00    -0.261 OA
HETATM    5  C7  UNL     1      77.413 -16.286 -48.595  1.00  0.00     0.230 C 
HETATM    6  C8  UNL     1      76.524 -15.625 -49.571  1.00  0.00     0.243 C 
HETATM    7  O9  UNL     1      75.420 -15.266 -49.179  1.00  0.00    -0.285 OA
HETATM    8  C9  UNL     1      76.887 -15.382 -50.959  1.00  0.00     0.230 C 
HETATM    9  O10 UNL     1      76.127 -14.610 -51.596  1.00  0.00    -0.286 OA
HETATM   10  C10 UNL     1      78.057 -15.953 -51.689  1.00  0.00     0.241 C 
HETATM   11  C11 UNL     1      78.209 -17.420 -51.545  1.00  0.00     0.185 C 
HETATM   12  C12 UNL     1      78.406 -17.958 -50.179  1.00  0.00     0.003 C 
HETATM   13  C13 UNL     1      79.489 -18.713 -50.224  1.00  0.00     0.146 C 
HETATM   14  O13 UNL     1      80.059 -18.749 -51.487  1.00  0.00    -0.314 OA
HETATM   15  C14 UNL     1      79.508 -17.762 -52.285  1.00  0.00     0.297 C 
HETATM   16  C16 UNL     1      77.554 -17.737 -49.023  1.00  0.00     0.087 C 
ENDROOT
BRANCH   1  17
HETATM   17  C4  UNL     1      78.891 -18.402 -46.890  1.00  0.00     0.180 C 
BRANCH  17  18
HETATM   18  C3  UNL     1      79.219 -19.891 -46.552  1.00  0.00     0.188 C 
BRANCH  18  19
HETATM   19  C2  UNL     1      80.662 -20.041 -46.211  1.00  0.00     0.250 C 
BRANCH  19  20
HETATM   20  C1  UNL     1      81.351 -20.873 -47.230  1.00  0.00     0.205 C 
HETATM   21  O1  UNL     1      81.887 -20.336 -48.252  1.00  0.00    -0.646 OA
HETATM   22  O2  UNL     1      81.456 -22.255 -47.137  1.00  0.00    -0.646 OA
ENDBRANCH  19  20
BRANCH  19  23
HETATM   23  O3  UNL     1      81.338 -18.817 -46.172  1.00  0.00    -0.382 OA
ATOM     24  H3  UNL     1      82.176 -18.983 -45.756  1.00  0.00     0.210 HD
ENDBRANCH  19  23
ENDBRANCH  18  19
BRANCH  18  25
HETATM   25  O4  UNL     1      78.916 -20.719 -47.601  1.00  0.00    -0.390 OA
ATOM     26  H4  UNL     1      77.999 -20.961 -47.553  1.00  0.00     0.210 HD
ENDBRANCH  18  25
ENDBRANCH  17  18
BRANCH  17  27
HETATM   27  O5  UNL     1      78.658 -17.869 -45.627  1.00  0.00    -0.390 OA
ATOM     28  H5  UNL     1      79.283 -17.154 -45.601  1.00  0.00     0.210 HD
ENDBRANCH  17  27
ENDBRANCH   1  17
BRANCH  16  29
HETATM   29  C17 UNL     1      76.095 -18.140 -49.447  1.00  0.00     0.185 C 
BRANCH  29  30
HETATM   30  O17 UNL     1      76.033 -19.513 -49.613  1.00  0.00    -0.400 OA
ATOM     31  H17 UNL     1      76.310 -19.733 -50.495  1.00  0.00     0.209 HD
ENDBRANCH  29  30
ENDBRANCH  16  29
BRANCH   5  32
HETATM   32  O8  UNL     1      78.614 -15.583 -48.646  1.00  0.00    -0.371 OA
ATOM     33  H8  UNL     1      79.124 -15.722 -49.436  1.00  0.00     0.211 HD
ENDBRANCH   5  32
BRANCH  11  34
HETATM   34  O12 UNL     1      77.202 -18.118 -52.224  1.00  0.00    -0.376 OA
ATOM     35  H12 UNL     1      77.311 -18.067 -53.166  1.00  0.00     0.211 HD
ENDBRANCH  11  34
BRANCH  10  36
HETATM   36  O11 UNL     1      77.831 -15.715 -53.063  1.00  0.00    -0.384 OA
ATOM     37  H11 UNL     1      77.732 -16.565 -53.474  1.00  0.00     0.210 HD
ENDBRANCH  10  36
BRANCH  15  38
HETATM   38  O14 UNL     1      80.330 -16.631 -52.378  1.00  0.00    -0.354 OA
ATOM     39  H14 UNL     1      80.027 -15.951 -51.787  1.00  0.00     0.213 HD
ENDBRANCH  15  38
BRANCH  15  40
HETATM   40  C15 UNL     1      79.201 -18.193 -53.658  1.00  0.00     0.243 C 
HETATM   41  O15 UNL     1      79.320 -17.368 -54.597  1.00  0.00    -0.644 OA
HETATM   42  O16 UNL     1      78.782 -19.482 -53.969  1.00  0.00    -0.644 OA
ENDBRANCH  15  40
TORSDOF 14
ENDMDL
