MODEL 1
REMARK VINA RESULT: -7.369051433      0.000      0.000
REMARK  13 active torsions:
REMARK  status: ('A' for Active; 'I' for Inactive)
REMARK    1  A    between atoms: N1_1  and  C1_5 
REMARK    2  A    between atoms: C1_5  and  C2_6 
REMARK    3  A    between atoms: C2_6  and  O1_7 
REMARK    4  A    between atoms: C3_10  and  C4_11 
REMARK    5  A    between atoms: C4_11  and  O3_12 
REMARK    6  A    between atoms: C5_14  and  O4_15 
REMARK    7  A    between atoms: C6_17  and  N2_18 
REMARK    8  A    between atoms: C8_20  and  C9_21 
REMARK    9  A    between atoms: C10_22  and  O5_23 
REMARK   10  A    between atoms: N3_25  and  N4_26 
REMARK   11  A    between atoms: N4_26  and  S1_28 
REMARK   12  A    between atoms: C15_40  and  N7_41 
REMARK   13  A    between atoms: N7_41  and  N8_43 
ROOT
HETATM    1  N2  UNL     1      77.892 -18.009 -49.132  1.00  0.00    -0.178 N 
HETATM    2  C7  UNL     1      77.392 -17.032 -49.906  1.00  0.00     0.128 A 
HETATM    3  C8  UNL     1      77.461 -15.726 -49.499  1.00  0.00     0.063 A 
HETATM    4  C14 UNL     1      78.048 -15.437 -48.290  1.00  0.00     0.272 A 
HETATM    5  O9  UNL     1      78.169 -14.289 -47.812  1.00  0.00    -0.267 OA
HETATM    6  N6  UNL     1      78.541 -16.459 -47.540  1.00  0.00    -0.154 N 
ATOM      7  H6  UNL     1      78.979 -16.250 -46.642  1.00  0.00     0.187 HD
HETATM    8  C15 UNL     1      78.467 -17.733 -47.949  1.00  0.00     0.702 A 
ENDROOT
BRANCH   1   9
HETATM    9  C6  UNL     1      77.828 -19.395 -49.559  1.00  0.00     0.202 C 
HETATM   10  C2  UNL     1      76.638 -20.142 -49.086  1.00  0.00     0.210 C 
HETATM   11  O2  UNL     1      75.804 -20.364 -50.172  1.00  0.00    -0.342 OA
HETATM   12  C3  UNL     1      76.500 -20.189 -51.331  1.00  0.00     0.179 C 
HETATM   13  C5  UNL     1      77.803 -19.520 -51.062  1.00  0.00     0.178 C 
BRANCH  10  14
HETATM   14  C1  UNL     1      77.017 -21.523 -48.535  1.00  0.00     0.299 C 
BRANCH  14  15
HETATM   15  N1  UNL     1      75.801 -22.291 -48.347  1.00  0.00    -0.074 N 
ATOM     16  H13 UNL     1      75.845 -22.900 -47.530  1.00  0.00     0.274 HD
ATOM     17  H12 UNL     1      75.015 -21.714 -48.050  1.00  0.00     0.274 HD
ATOM     18  H11 UNL     1      75.607 -22.803 -49.207  1.00  0.00     0.274 HD
ENDBRANCH  14  15
ENDBRANCH  10  14
BRANCH  10  19
HETATM   19  O1  UNL     1      75.899 -19.535 -48.092  1.00  0.00    -0.362 OA
ATOM     20  H1  UNL     1      75.665 -18.680 -48.433  1.00  0.00     0.213 HD
ENDBRANCH  10  19
BRANCH  12  21
HETATM   21  C4  UNL     1      76.647 -21.451 -52.156  1.00  0.00     0.198 C 
BRANCH  21  22
HETATM   22  O3  UNL     1      75.882 -22.461 -51.573  1.00  0.00    -0.398 OA
ATOM     23  H3  UNL     1      76.206 -23.302 -51.871  1.00  0.00     0.209 HD
ENDBRANCH  21  22
ENDBRANCH  12  21
BRANCH  13  24
HETATM   24  O4  UNL     1      78.851 -20.293 -51.534  1.00  0.00    -0.391 OA
ATOM     25  H4  UNL     1      79.270 -19.868 -52.273  1.00  0.00     0.210 HD
ENDBRANCH  13  24
ENDBRANCH   1   9
BRANCH   8  26
HETATM   26  N7  UNL     1      78.950 -18.706 -47.208  1.00  0.00    -0.138 N 
ATOM     27  H7  UNL     1      79.792 -19.209 -47.488  1.00  0.00     0.205 HD
BRANCH  26  28
HETATM   28  N8  UNL     1      78.277 -19.034 -46.027  1.00  0.00    -0.331 N 
ATOM     29  H82 UNL     1      78.067 -18.309 -45.342  1.00  0.00     0.177 HD
ATOM     30  H81 UNL     1      78.009 -20.008 -45.879  1.00  0.00     0.177 HD
ENDBRANCH  26  28
ENDBRANCH   8  26
BRANCH   3  31
HETATM   31  C9  UNL     1      76.926 -14.634 -50.294  1.00  0.00     0.035 A 
HETATM   32  C10 UNL     1      77.725 -13.915 -51.039  1.00  0.00     0.169 A 
HETATM   33  N3  UNL     1      77.214 -12.852 -51.816  1.00  0.00    -0.254 N 
HETATM   34  C11 UNL     1      75.818 -12.492 -51.814  1.00  0.00     0.206 A 
HETATM   35  C12 UNL     1      75.016 -13.355 -50.950  1.00  0.00     0.045 A 
HETATM   36  N5  UNL     1      73.615 -13.113 -50.868  1.00  0.00    -0.105 NA
HETATM   37  C13 UNL     1      75.510 -14.355 -50.236  1.00  0.00     0.040 A 
BRANCH  32  38
HETATM   38  O5  UNL     1      79.102 -14.136 -51.124  1.00  0.00    -0.344 OA
ATOM     39  H5  UNL     1      79.742 -13.435 -51.165  1.00  0.00     0.219 HD
ENDBRANCH  32  38
BRANCH  33  40
HETATM   40  N4  UNL     1      78.100 -12.096 -52.637  1.00  0.00    -0.203 N 
ATOM     41  H4  UNL     1      78.416 -12.352 -53.572  1.00  0.00     0.203 HD
BRANCH  40  42
HETATM   42  S1  UNL     1      78.548 -10.656 -51.764  1.00  0.00     0.223 S 
HETATM   43  O6  UNL     1      79.892 -10.157 -52.203  1.00  0.00    -0.577 OA
HETATM   44  O7  UNL     1      78.566 -10.993 -50.297  1.00  0.00    -0.577 OA
HETATM   45  O8  UNL     1      77.446  -9.425 -52.034  1.00  0.00    -0.577 OA
ENDBRANCH  40  42
ENDBRANCH  33  40
ENDBRANCH   3  31
TORSDOF 13
ENDMDL
MODEL 2
REMARK VINA RESULT: -7.225941500      7.886     10.475
REMARK  13 active torsions:
REMARK  status: ('A' for Active; 'I' for Inactive)
REMARK    1  A    between atoms: N1_1  and  C1_5 
REMARK    2  A    between atoms: C1_5  and  C2_6 
REMARK    3  A    between atoms: C2_6  and  O1_7 
REMARK    4  A    between atoms: C3_10  and  C4_11 
REMARK    5  A    between atoms: C4_11  and  O3_12 
REMARK    6  A    between atoms: C5_14  and  O4_15 
REMARK    7  A    between atoms: C6_17  and  N2_18 
REMARK    8  A    between atoms: C8_20  and  C9_21 
REMARK    9  A    between atoms: C10_22  and  O5_23 
REMARK   10  A    between atoms: N3_25  and  N4_26 
REMARK   11  A    between atoms: N4_26  and  S1_28 
REMARK   12  A    between atoms: C15_40  and  N7_41 
REMARK   13  A    between atoms: N7_41  and  N8_43 
ROOT
HETATM    1  N2  UNL     1      81.564 -23.767 -43.548  1.00  0.00    -0.178 N 
HETATM    2  C7  UNL     1      80.951 -22.636 -43.165  1.00  0.00     0.128 A 
HETATM    3  C8  UNL     1      80.602 -21.692 -44.094  1.00  0.00     0.063 A 
HETATM    4  C14 UNL     1      80.890 -21.924 -45.418  1.00  0.00     0.272 A 
HETATM    5  O9  UNL     1      80.622 -21.142 -46.355  1.00  0.00    -0.267 OA
HETATM    6  N6  UNL     1      81.511 -23.085 -45.759  1.00  0.00    -0.154 N 
ATOM      7  H6  UNL     1      81.725 -23.264 -46.741  1.00  0.00     0.187 HD
HETATM    8  C15 UNL     1      81.848 -24.001 -44.841  1.00  0.00     0.702 A 
ENDROOT
BRANCH   1   9
HETATM    9  C6  UNL     1      81.933 -24.776 -42.570  1.00  0.00     0.202 C 
HETATM   10  C2  UNL     1      83.288 -24.621 -41.992  1.00  0.00     0.210 C 
HETATM   11  O2  UNL     1      83.155 -24.209 -40.674  1.00  0.00    -0.342 OA
HETATM   12  C3  UNL     1      81.887 -24.458 -40.240  1.00  0.00     0.179 C 
HETATM   13  C5  UNL     1      80.997 -24.781 -41.388  1.00  0.00     0.178 C 
BRANCH  10  14
HETATM   14  C1  UNL     1      84.047 -25.954 -41.960  1.00  0.00     0.299 C 
BRANCH  14  15
HETATM   15  N1  UNL     1      83.169 -26.995 -42.457  1.00  0.00    -0.074 N 
ATOM     16  H13 UNL     1      82.365 -27.153 -41.849  1.00  0.00     0.274 HD
ATOM     17  H12 UNL     1      82.657 -26.709 -43.293  1.00  0.00     0.274 HD
ATOM     18  H11 UNL     1      83.720 -27.839 -42.606  1.00  0.00     0.274 HD
ENDBRANCH  14  15
ENDBRANCH  10  14
BRANCH  10  19
HETATM   19  O1  UNL     1      84.124 -23.733 -42.638  1.00  0.00    -0.362 OA
ATOM     20  H1  UNL     1      85.007 -24.026 -42.443  1.00  0.00     0.213 HD
ENDBRANCH  10  19
BRANCH  12  21
HETATM   21  C4  UNL     1      81.808 -25.484 -39.128  1.00  0.00     0.198 C 
BRANCH  21  22
HETATM   22  O3  UNL     1      81.997 -24.838 -37.906  1.00  0.00    -0.398 OA
ATOM     23  H3  UNL     1      82.918 -24.875 -37.679  1.00  0.00     0.209 HD
ENDBRANCH  21  22
ENDBRANCH  12  21
BRANCH  13  24
HETATM   24  O4  UNL     1      80.401 -26.018 -41.206  1.00  0.00    -0.391 OA
ATOM     25  H4  UNL     1      80.836 -26.678 -41.734  1.00  0.00     0.210 HD
ENDBRANCH  13  24
ENDBRANCH   1   9
BRANCH   8  26
HETATM   26  N7  UNL     1      82.449 -25.117 -45.192  1.00  0.00    -0.138 N 
ATOM     27  H7  UNL     1      81.950 -26.006 -45.180  1.00  0.00     0.205 HD
BRANCH  26  28
HETATM   28  N8  UNL     1      83.789 -25.051 -45.583  1.00  0.00    -0.331 N 
ATOM     29  H82 UNL     1      84.488 -25.622 -45.107  1.00  0.00     0.177 HD
ATOM     30  H81 UNL     1      84.039 -24.423 -46.348  1.00  0.00     0.177 HD
ENDBRANCH  26  28
ENDBRANCH   8  26
BRANCH   3  31
HETATM   31  C9  UNL     1      79.948 -20.447 -43.730  1.00  0.00     0.035 A 
HETATM   32  C10 UNL     1      80.477 -19.303 -44.078  1.00  0.00     0.169 A 
HETATM   33  N3  UNL     1      79.848 -18.088 -43.730  1.00  0.00    -0.254 N 
HETATM   34  C11 UNL     1      78.625 -18.040 -42.967  1.00  0.00     0.206 A 
HETATM   35  C12 UNL     1      78.120 -19.367 -42.630  1.00  0.00     0.045 A 
HETATM   36  N5  UNL     1      76.908 -19.461 -41.887  1.00  0.00    -0.105 NA
HETATM   37  C13 UNL     1      78.718 -20.499 -42.974  1.00  0.00     0.040 A 
BRANCH  32  38
HETATM   38  O5  UNL     1      81.669 -19.197 -44.801  1.00  0.00    -0.344 OA
ATOM     39  H5  UNL     1      82.425 -18.713 -44.492  1.00  0.00     0.219 HD
ENDBRANCH  32  38
BRANCH  33  40
HETATM   40  N4  UNL     1      80.432 -16.854 -44.139  1.00  0.00    -0.203 N 
ATOM     41  H4  UNL     1      80.179 -16.316 -44.967  1.00  0.00     0.203 HD
BRANCH  40  42
HETATM   42  S1  UNL     1      81.657 -16.426 -42.975  1.00  0.00     0.223 S 
HETATM   43  O6  UNL     1      81.395 -17.082 -41.653  1.00  0.00    -0.577 OA
HETATM   44  O7  UNL     1      81.651 -14.928 -42.830  1.00  0.00    -0.577 OA
HETATM   45  O8  UNL     1      83.170 -16.924 -43.489  1.00  0.00    -0.577 OA
ENDBRANCH  40  42
ENDBRANCH  33  40
ENDBRANCH   3  31
TORSDOF 13
ENDMDL
MODEL 3
REMARK VINA RESULT: -7.194765811      6.693     10.605
REMARK  13 active torsions:
REMARK  status: ('A' for Active; 'I' for Inactive)
REMARK    1  A    between atoms: N1_1  and  C1_5 
REMARK    2  A    between atoms: C1_5  and  C2_6 
REMARK    3  A    between atoms: C2_6  and  O1_7 
REMARK    4  A    between atoms: C3_10  and  C4_11 
REMARK    5  A    between atoms: C4_11  and  O3_12 
REMARK    6  A    between atoms: C5_14  and  O4_15 
REMARK    7  A    between atoms: C6_17  and  N2_18 
REMARK    8  A    between atoms: C8_20  and  C9_21 
REMARK    9  A    between atoms: C10_22  and  O5_23 
REMARK   10  A    between atoms: N3_25  and  N4_26 
REMARK   11  A    between atoms: N4_26  and  S1_28 
REMARK   12  A    between atoms: C15_40  and  N7_41 
REMARK   13  A    between atoms: N7_41  and  N8_43 
ROOT
HETATM    1  N2  UNL     1      80.442 -12.806 -43.554  1.00  0.00    -0.178 N 
HETATM    2  C7  UNL     1      80.890 -13.881 -44.223  1.00  0.00     0.128 A 
HETATM    3  C8  UNL     1      81.034 -15.082 -43.580  1.00  0.00     0.063 A 
HETATM    4  C14 UNL     1      80.714 -15.165 -42.247  1.00  0.00     0.272 A 
HETATM    5  O9  UNL     1      80.803 -16.202 -41.554  1.00  0.00    -0.267 OA
HETATM    6  N6  UNL     1      80.263 -14.051 -41.610  1.00  0.00    -0.154 N 
ATOM      7  H6  UNL     1      80.022 -14.107 -40.620  1.00  0.00     0.187 HD
HETATM    8  C15 UNL     1      80.127 -12.881 -42.250  1.00  0.00     0.702 A 
ENDROOT
BRANCH   1   9
HETATM    9  C6  UNL     1      80.282 -11.530 -44.228  1.00  0.00     0.202 C 
HETATM   10  C2  UNL     1      81.517 -10.718 -44.335  1.00  0.00     0.210 C 
HETATM   11  O2  UNL     1      81.927 -10.721 -45.660  1.00  0.00    -0.342 OA
HETATM   12  C3  UNL     1      80.894 -11.111 -46.461  1.00  0.00     0.179 C 
HETATM   13  C5  UNL     1      79.797 -11.701 -45.646  1.00  0.00     0.178 C 
BRANCH  10  14
HETATM   14  C1  UNL     1      81.266  -9.252 -43.956  1.00  0.00     0.299 C 
BRANCH  14  15
HETATM   15  N1  UNL     1      79.841  -9.063 -43.768  1.00  0.00    -0.074 N 
ATOM     16  H13 UNL     1      79.334  -9.001 -44.652  1.00  0.00     0.274 HD
ATOM     17  H12 UNL     1      79.381  -9.896 -43.401  1.00  0.00     0.274 HD
ATOM     18  H11 UNL     1      79.699  -8.245 -43.177  1.00  0.00     0.274 HD
ENDBRANCH  14  15
ENDBRANCH  10  14
BRANCH  10  19
HETATM   19  O1  UNL     1      82.579 -11.127 -43.554  1.00  0.00    -0.362 OA
ATOM     20  H1  UNL     1      82.841 -11.971 -43.902  1.00  0.00     0.213 HD
ENDBRANCH  10  19
BRANCH  12  21
HETATM   21  C4  UNL     1      80.409 -10.033 -47.407  1.00  0.00     0.198 C 
BRANCH  21  22
HETATM   22  O3  UNL     1      79.632 -10.625 -48.403  1.00  0.00    -0.398 OA
ATOM     23  H3  UNL     1      78.725 -10.628 -48.123  1.00  0.00     0.209 HD
ENDBRANCH  21  22
ENDBRANCH  12  21
BRANCH  13  24
HETATM   24  O4  UNL     1      78.609 -11.025 -45.871  1.00  0.00    -0.391 OA
ATOM     25  H4  UNL     1      78.518 -10.301 -45.262  1.00  0.00     0.210 HD
ENDBRANCH  13  24
ENDBRANCH   1   9
BRANCH   8  26
HETATM   26  N7  UNL     1      79.690 -11.815 -41.615  1.00  0.00    -0.138 N 
ATOM     27  H7  UNL     1      79.943 -10.878 -41.930  1.00  0.00     0.205 HD
BRANCH  26  28
HETATM   28  N8  UNL     1      78.871 -12.000 -40.498  1.00  0.00    -0.331 N 
ATOM     29  H82 UNL     1      78.702 -12.940 -40.140  1.00  0.00     0.177 HD
ATOM     30  H81 UNL     1      78.456 -11.176 -40.061  1.00  0.00     0.177 HD
ENDBRANCH  26  28
ENDBRANCH   8  26
BRANCH   3  31
HETATM   31  C9  UNL     1      81.524 -16.271 -44.256  1.00  0.00     0.035 A 
HETATM   32  C10 UNL     1      80.721 -17.280 -44.470  1.00  0.00     0.169 A 
HETATM   33  N3  UNL     1      81.188 -18.440 -45.126  1.00  0.00    -0.254 N 
HETATM   34  C11 UNL     1      82.554 -18.584 -45.567  1.00  0.00     0.206 A 
HETATM   35  C12 UNL     1      83.364 -17.404 -45.279  1.00  0.00     0.045 A 
HETATM   36  N5  UNL     1      84.732 -17.412 -45.676  1.00  0.00    -0.105 NA
HETATM   37  C13 UNL     1      82.907 -16.319 -44.672  1.00  0.00     0.040 A 
BRANCH  32  38
HETATM   38  O5  UNL     1      79.378 -17.290 -44.080  1.00  0.00    -0.344 OA
ATOM     39  H5  UNL     1      78.901 -18.084 -43.873  1.00  0.00     0.219 HD
ENDBRANCH  32  38
BRANCH  33  40
HETATM   40  N4  UNL     1      80.288 -19.519 -45.368  1.00  0.00    -0.203 N 
ATOM     41  H4  UNL     1      79.701 -19.636 -46.194  1.00  0.00     0.203 HD
BRANCH  40  42
HETATM   42  S1  UNL     1      80.367 -20.602 -44.006  1.00  0.00     0.223 S 
HETATM   43  O6  UNL     1      81.680 -21.324 -43.969  1.00  0.00    -0.577 OA
HETATM   44  O7  UNL     1      79.231 -21.583 -44.130  1.00  0.00    -0.577 OA
HETATM   45  O8  UNL     1      80.217 -19.764 -42.565  1.00  0.00    -0.577 OA
ENDBRANCH  40  42
ENDBRANCH  33  40
ENDBRANCH   3  31
TORSDOF 13
ENDMDL
MODEL 4
REMARK VINA RESULT: -7.137360468      2.561      5.283
REMARK  13 active torsions:
REMARK  status: ('A' for Active; 'I' for Inactive)
REMARK    1  A    between atoms: N1_1  and  C1_5 
REMARK    2  A    between atoms: C1_5  and  C2_6 
REMARK    3  A    between atoms: C2_6  and  O1_7 
REMARK    4  A    between atoms: C3_10  and  C4_11 
REMARK    5  A    between atoms: C4_11  and  O3_12 
REMARK    6  A    between atoms: C5_14  and  O4_15 
REMARK    7  A    between atoms: C6_17  and  N2_18 
REMARK    8  A    between atoms: C8_20  and  C9_21 
REMARK    9  A    between atoms: C10_22  and  O5_23 
REMARK   10  A    between atoms: N3_25  and  N4_26 
REMARK   11  A    between atoms: N4_26  and  S1_28 
REMARK   12  A    between atoms: C15_40  and  N7_41 
REMARK   13  A    between atoms: N7_41  and  N8_43 
ROOT
HETATM    1  N2  UNL     1      78.325 -16.137 -47.059  1.00  0.00    -0.178 N 
HETATM    2  C7  UNL     1      77.781 -15.202 -47.855  1.00  0.00     0.128 A 
HETATM    3  C8  UNL     1      77.565 -15.466 -49.181  1.00  0.00     0.063 A 
HETATM    4  C14 UNL     1      77.914 -16.698 -49.679  1.00  0.00     0.272 A 
HETATM    5  O9  UNL     1      77.767 -17.057 -50.868  1.00  0.00    -0.267 OA
HETATM    6  N6  UNL     1      78.461 -17.615 -48.836  1.00  0.00    -0.154 N 
ATOM      7  H6  UNL     1      78.721 -18.532 -49.200  1.00  0.00     0.187 HD
HETATM    8  C15 UNL     1      78.669 -17.344 -47.540  1.00  0.00     0.702 A 
ENDROOT
BRANCH   1   9
HETATM    9  C6  UNL     1      78.553 -15.867 -45.651  1.00  0.00     0.202 C 
HETATM   10  C2  UNL     1      79.231 -14.582 -45.361  1.00  0.00     0.210 C 
HETATM   11  O2  UNL     1      78.306 -13.720 -44.791  1.00  0.00    -0.342 OA
HETATM   12  C3  UNL     1      77.235 -14.430 -44.335  1.00  0.00     0.179 C 
HETATM   13  C5  UNL     1      77.262 -15.818 -44.872  1.00  0.00     0.178 C 
BRANCH  10  14
HETATM   14  C1  UNL     1      80.359 -14.755 -44.335  1.00  0.00     0.299 C 
BRANCH  14  15
HETATM   15  N1  UNL     1      81.131 -15.929 -44.694  1.00  0.00    -0.074 N 
ATOM     16  H13 UNL     1      80.693 -16.472 -45.439  1.00  0.00     0.274 HD
ATOM     17  H12 UNL     1      81.996 -15.695 -45.181  1.00  0.00     0.274 HD
ATOM     18  H11 UNL     1      81.292 -16.479 -43.851  1.00  0.00     0.274 HD
ENDBRANCH  14  15
ENDBRANCH  10  14
BRANCH  10  19
HETATM   19  O1  UNL     1      79.806 -13.944 -46.441  1.00  0.00    -0.362 OA
ATOM     20  H1  UNL     1      79.174 -14.017 -47.147  1.00  0.00     0.213 HD
ENDBRANCH  10  19
BRANCH  12  21
HETATM   21  C4  UNL     1      77.064 -14.386 -42.830  1.00  0.00     0.198 C 
BRANCH  21  22
HETATM   22  O3  UNL     1      75.719 -14.592 -42.524  1.00  0.00    -0.398 OA
ATOM     23  H3  UNL     1      75.222 -13.831 -42.801  1.00  0.00     0.209 HD
ENDBRANCH  21  22
ENDBRANCH  12  21
BRANCH  13  24
HETATM   24  O4  UNL     1      77.247 -16.739 -43.838  1.00  0.00    -0.391 OA
ATOM     25  H4  UNL     1      77.046 -17.607 -44.168  1.00  0.00     0.210 HD
ENDBRANCH  13  24
ENDBRANCH   1   9
BRANCH   8  26
HETATM   26  N7  UNL     1      79.200 -18.244 -46.741  1.00  0.00    -0.138 N 
ATOM     27  H7  UNL     1      78.736 -18.515 -45.874  1.00  0.00     0.205 HD
BRANCH  26  28
HETATM   28  N8  UNL     1      80.418 -18.820 -47.113  1.00  0.00    -0.331 N 
ATOM     29  H82 UNL     1      80.949 -18.432 -47.893  1.00  0.00     0.177 HD
ATOM     30  H81 UNL     1      80.752 -19.628 -46.586  1.00  0.00     0.177 HD
ENDBRANCH  26  28
ENDBRANCH   8  26
BRANCH   3  31
HETATM   31  C9  UNL     1      76.989 -14.486 -50.086  1.00  0.00     0.035 A 
HETATM   32  C10 UNL     1      77.766 -13.772 -50.857  1.00  0.00     0.169 A 
HETATM   33  N3  UNL     1      77.215 -12.817 -51.740  1.00  0.00    -0.254 N 
HETATM   34  C11 UNL     1      75.798 -12.564 -51.823  1.00  0.00     0.206 A 
HETATM   35  C12 UNL     1      75.023 -13.412 -50.921  1.00  0.00     0.045 A 
HETATM   36  N5  UNL     1      73.605 -13.271 -50.914  1.00  0.00    -0.105 NA
HETATM   37  C13 UNL     1      75.555 -14.311 -50.106  1.00  0.00     0.040 A 
BRANCH  32  38
HETATM   38  O5  UNL     1      79.158 -13.894 -50.870  1.00  0.00    -0.344 OA
ATOM     39  H5  UNL     1      79.612 -14.660 -51.201  1.00  0.00     0.219 HD
ENDBRANCH  32  38
BRANCH  33  40
HETATM   40  N4  UNL     1      78.081 -12.065 -52.588  1.00  0.00    -0.203 N 
ATOM     41  H4  UNL     1      78.414 -12.350 -53.508  1.00  0.00     0.203 HD
BRANCH  40  42
HETATM   42  S1  UNL     1      78.469 -10.574 -51.775  1.00  0.00     0.223 S 
HETATM   43  O6  UNL     1      78.563 -10.778 -50.293  1.00  0.00    -0.577 OA
HETATM   44  O7  UNL     1      77.391  -9.576 -52.102  1.00  0.00    -0.577 OA
HETATM   45  O8  UNL     1      79.947  -9.979 -52.291  1.00  0.00    -0.577 OA
ENDBRANCH  40  42
ENDBRANCH  33  40
ENDBRANCH   3  31
TORSDOF 13
ENDMDL
MODEL 5
REMARK VINA RESULT: -7.083854915      4.399      7.064
REMARK  13 active torsions:
REMARK  status: ('A' for Active; 'I' for Inactive)
REMARK    1  A    between atoms: N1_1  and  C1_5 
REMARK    2  A    between atoms: C1_5  and  C2_6 
REMARK    3  A    between atoms: C2_6  and  O1_7 
REMARK    4  A    between atoms: C3_10  and  C4_11 
REMARK    5  A    between atoms: C4_11  and  O3_12 
REMARK    6  A    between atoms: C5_14  and  O4_15 
REMARK    7  A    between atoms: C6_17  and  N2_18 
REMARK    8  A    between atoms: C8_20  and  C9_21 
REMARK    9  A    between atoms: C10_22  and  O5_23 
REMARK   10  A    between atoms: N3_25  and  N4_26 
REMARK   11  A    between atoms: N4_26  and  S1_28 
REMARK   12  A    between atoms: C15_40  and  N7_41 
REMARK   13  A    between atoms: N7_41  and  N8_43 
ROOT
HETATM    1  N2  UNL     1      78.937 -19.845 -48.949  1.00  0.00    -0.178 N 
HETATM    2  C7  UNL     1      79.748 -18.990 -48.305  1.00  0.00     0.128 A 
HETATM    3  C8  UNL     1      80.063 -19.197 -46.989  1.00  0.00     0.063 A 
HETATM    4  C14 UNL     1      79.537 -20.290 -46.343  1.00  0.00     0.272 A 
HETATM    5  O9  UNL     1      79.750 -20.585 -45.147  1.00  0.00    -0.267 OA
HETATM    6  N6  UNL     1      78.722 -21.130 -47.036  1.00  0.00    -0.154 N 
ATOM      7  H6  UNL     1      78.329 -21.944 -46.562  1.00  0.00     0.187 HD
HETATM    8  C15 UNL     1      78.420 -20.916 -48.324  1.00  0.00     0.702 A 
ENDROOT
BRANCH   1   9
HETATM    9  C6  UNL     1      78.602 -19.636 -50.346  1.00  0.00     0.202 C 
HETATM   10  C2  UNL     1      77.298 -18.975 -50.585  1.00  0.00     0.210 C 
HETATM   11  O2  UNL     1      77.539 -17.687 -51.040  1.00  0.00    -0.342 OA
HETATM   12  C3  UNL     1      78.825 -17.588 -51.483  1.00  0.00     0.179 C 
HETATM   13  C5  UNL     1      79.619 -18.769 -51.044  1.00  0.00     0.178 C 
BRANCH  10  14
HETATM   14  C1  UNL     1      76.495 -19.684 -51.683  1.00  0.00     0.299 C 
BRANCH  14  15
HETATM   15  N1  UNL     1      75.634 -18.709 -52.325  1.00  0.00    -0.074 N 
ATOM     16  H13 UNL     1      74.644 -18.937 -52.228  1.00  0.00     0.274 HD
ATOM     17  H12 UNL     1      75.621 -17.815 -51.834  1.00  0.00     0.274 HD
ATOM     18  H11 UNL     1      75.921 -18.617 -53.299  1.00  0.00     0.274 HD
ENDBRANCH  14  15
ENDBRANCH  10  14
BRANCH  10  19
HETATM   19  O1  UNL     1      76.451 -18.896 -49.498  1.00  0.00    -0.362 OA
ATOM     20  H1  UNL     1      76.981 -19.128 -48.745  1.00  0.00     0.213 HD
ENDBRANCH  10  19
BRANCH  12  21
HETATM   21  C4  UNL     1      78.945 -17.318 -52.968  1.00  0.00     0.198 C 
BRANCH  21  22
HETATM   22  O3  UNL     1      77.765 -16.722 -53.414  1.00  0.00    -0.398 OA
ATOM     23  H3  UNL     1      77.672 -15.876 -52.992  1.00  0.00     0.209 HD
ENDBRANCH  21  22
ENDBRANCH  12  21
BRANCH  13  24
HETATM   24  O4  UNL     1      80.180 -19.408 -52.138  1.00  0.00    -0.391 OA
ATOM     25  H4  UNL     1      79.502 -19.772 -52.694  1.00  0.00     0.210 HD
ENDBRANCH  13  24
ENDBRANCH   1   9
BRANCH   8  26
HETATM   26  N7  UNL     1      77.628 -21.741 -48.975  1.00  0.00    -0.138 N 
ATOM     27  H7  UNL     1      77.969 -22.269 -49.778  1.00  0.00     0.205 HD
BRANCH  26  28
HETATM   28  N8  UNL     1      76.307 -21.873 -48.537  1.00  0.00    -0.331 N 
ATOM     29  H82 UNL     1      75.771 -21.045 -48.277  1.00  0.00     0.177 HD
ATOM     30  H81 UNL     1      75.906 -22.810 -48.489  1.00  0.00     0.177 HD
ENDBRANCH  26  28
ENDBRANCH   8  26
BRANCH   3  31
HETATM   31  C9  UNL     1      80.926 -18.296 -46.244  1.00  0.00     0.035 A 
HETATM   32  C10 UNL     1      80.406 -17.330 -45.533  1.00  0.00     0.169 A 
HETATM   33  N3  UNL     1      81.237 -16.449 -44.806  1.00  0.00    -0.254 N 
HETATM   34  C11 UNL     1      82.675 -16.549 -44.824  1.00  0.00     0.206 A 
HETATM   35  C12 UNL     1      83.151 -17.657 -45.647  1.00  0.00     0.045 A 
HETATM   36  N5  UNL     1      84.556 -17.874 -45.740  1.00  0.00    -0.105 NA
HETATM   37  C13 UNL     1      82.357 -18.481 -46.315  1.00  0.00     0.040 A 
BRANCH  32  38
HETATM   38  O5  UNL     1      79.030 -17.100 -45.439  1.00  0.00    -0.344 OA
ATOM     39  H5  UNL     1      78.654 -16.379 -44.950  1.00  0.00     0.219 HD
ENDBRANCH  32  38
BRANCH  33  40
HETATM   40  N4  UNL     1      80.646 -15.417 -44.021  1.00  0.00    -0.203 N 
ATOM     41  H4  UNL     1      80.227 -14.558 -44.377  1.00  0.00     0.203 HD
BRANCH  40  42
HETATM   42  S1  UNL     1      80.766 -15.879 -42.345  1.00  0.00     0.223 S 
HETATM   43  O6  UNL     1      79.501 -15.557 -41.607  1.00  0.00    -0.577 OA
HETATM   44  O7  UNL     1      81.929 -15.137 -41.744  1.00  0.00    -0.577 OA
HETATM   45  O8  UNL     1      81.025 -17.526 -42.196  1.00  0.00    -0.577 OA
ENDBRANCH  40  42
ENDBRANCH  33  40
ENDBRANCH   3  31
TORSDOF 13
ENDMDL
