MODEL 1
REMARK VINA RESULT: -7.561248131      0.000      0.000
REMARK  14 active torsions:
REMARK  status: ('A' for Active; 'I' for Inactive)
REMARK    1  A    between atoms: C2_2  and  O1_3 
REMARK    2  A    between atoms: C2_2  and  C3_5 
REMARK    3  A    between atoms: C4_7  and  O3_8 
REMARK    4  A    between atoms: C6_11  and  C7_12 
REMARK       I    between atoms: C7_12  and  N1_14 
REMARK    5  A    between atoms: C8_16  and  C9_17 
REMARK    6  A    between atoms: C9_17  and  N2_18 
REMARK    7  A    between atoms: C9_17  and  N3_22 
REMARK    8  A    between atoms: N3_22  and  O5_23 
REMARK    9  A    between atoms: C10_25  and  O6_26 
REMARK   10  A    between atoms: C10_25  and  C11_28 
REMARK   11  A    between atoms: C11_28  and  O7_29 
REMARK   12  A    between atoms: C12_31  and  O8_32 
REMARK   13  A    between atoms: C12_31  and  C13_34 
REMARK   14  A    between atoms: C16_42  and  C17_43 
ROOT
HETATM    1  C3  UNL     1      77.771 -18.559 -47.133  1.00  0.00     0.186 C 
HETATM    2  O2  UNL     1      77.908 -19.698 -47.874  1.00  0.00    -0.349 OA
HETATM    3  C4  UNL     1      78.697 -19.428 -48.975  1.00  0.00     0.280 C 
HETATM    4  C5  UNL     1      77.881 -18.518 -49.864  1.00  0.00     0.154 C 
HETATM    5  C6  UNL     1      78.865 -18.103 -50.991  1.00  0.00     0.147 C 
HETATM    6  C10 UNL     1      78.385 -16.747 -51.307  1.00  0.00     0.149 C 
HETATM    7  C12 UNL     1      77.888 -16.209 -49.947  1.00  0.00     0.212 C 
HETATM    8  N5  UNL     1      77.464 -17.325 -49.232  1.00  0.00    -0.348 N 
HETATM    9  C16 UNL     1      77.267 -17.325 -47.864  1.00  0.00     0.216 C 
ENDROOT
BRANCH   5  10
HETATM   10  C7  UNL     1      78.829 -19.150 -52.015  1.00  0.00     0.231 C 
HETATM   11  O4  UNL     1      79.927 -19.547 -52.513  1.00  0.00    -0.273 OA
HETATM   12  N1  UNL     1      77.678 -19.727 -52.472  1.00  0.00    -0.337 N 
HETATM   13  C8  UNL     1      76.666 -20.276 -51.989  1.00  0.00     0.115 C 
ATOM     14  H1  UNL     1      77.632 -19.701 -53.491  1.00  0.00     0.168 HD
BRANCH  13  15
HETATM   15  C9  UNL     1      75.645 -20.754 -53.005  1.00  0.00     0.340 C 
BRANCH  15  16
HETATM   16  N2  UNL     1      76.168 -21.769 -53.860  1.00  0.00    -0.054 N 
ATOM     17  H23 UNL     1      76.753 -22.424 -53.340  1.00  0.00     0.276 HD
ATOM     18  H22 UNL     1      75.435 -22.411 -54.162  1.00  0.00     0.276 HD
ATOM     19  H21 UNL     1      76.671 -21.381 -54.658  1.00  0.00     0.276 HD
ENDBRANCH  15  16
BRANCH  15  20
HETATM   20  N3  UNL     1      75.156 -19.635 -53.769  1.00  0.00    -0.065 NA
BRANCH  20  21
HETATM   21  O5  UNL     1      73.862 -19.801 -54.170  1.00  0.00    -0.294 OA
ATOM     22  H5  UNL     1      73.773 -19.823 -55.115  1.00  0.00     0.238 HD
ENDBRANCH  20  21
ENDBRANCH  15  20
ENDBRANCH  13  15
ENDBRANCH   5  10
BRANCH   6  23
HETATM   23  O6  UNL     1      79.440 -15.956 -51.773  1.00  0.00    -0.381 OA
ATOM     24  H6  UNL     1      80.016 -15.719 -51.056  1.00  0.00     0.211 HD
ENDBRANCH   6  23
BRANCH   6  25
HETATM   25  C11 UNL     1      77.310 -16.685 -52.334  1.00  0.00     0.208 C 
BRANCH  25  26
HETATM   26  O7  UNL     1      77.877 -16.053 -53.476  1.00  0.00    -0.398 OA
ATOM     27  H7  UNL     1      77.161 -15.623 -53.929  1.00  0.00     0.209 HD
ENDBRANCH  25  26
ENDBRANCH   6  25
BRANCH   3  28
HETATM   28  O3  UNL     1      79.011 -20.586 -49.647  1.00  0.00    -0.369 OA
ATOM     29  H3  UNL     1      78.238 -20.961 -50.054  1.00  0.00     0.212 HD
ENDBRANCH   3  28
BRANCH   7  30
HETATM   30  O8  UNL     1      79.004 -15.558 -49.409  1.00  0.00    -0.363 OA
ATOM     31  H8  UNL     1      78.672 -15.142 -48.622  1.00  0.00     0.213 HD
ENDBRANCH   7  30
BRANCH   7  32
HETATM   32  C13 UNL     1      76.871 -15.162 -50.160  1.00  0.00     0.095 A 
HETATM   33  C14 UNL     1      77.139 -13.845 -50.437  1.00  0.00     0.177 A 
HETATM   34  O9  UNL     1      75.975 -13.206 -50.537  1.00  0.00    -0.271 OA
HETATM   35  C15 UNL     1      74.990 -14.030 -50.340  1.00  0.00     0.369 A 
HETATM   36  O10 UNL     1      73.727 -13.795 -50.348  1.00  0.00    -0.238 OA
HETATM   37  N4  UNL     1      75.524 -15.245 -50.105  1.00  0.00    -0.300 N 
ATOM     38  H4  UNL     1      74.994 -16.096 -49.917  1.00  0.00     0.171 HD
ENDBRANCH   7  32
BRANCH   9  39
HETATM   39  C17 UNL     1      77.802 -16.184 -47.085  1.00  0.00     0.199 C 
HETATM   40  O11 UNL     1      77.155 -15.179 -46.736  1.00  0.00    -0.646 OA
HETATM   41  O12 UNL     1      79.155 -16.181 -46.680  1.00  0.00    -0.646 OA
ENDBRANCH   9  39
BRANCH   1  42
HETATM   42  C2  UNL     1      76.876 -18.882 -45.952  1.00  0.00     0.145 C 
HETATM   43  C1  UNL     1      75.458 -19.072 -46.464  1.00  0.00     0.042 C 
BRANCH  42  44
HETATM   44  O1  UNL     1      77.313 -19.998 -45.259  1.00  0.00    -0.393 OA
ATOM     45  H1  UNL     1      78.201 -19.880 -44.942  1.00  0.00     0.210 HD
ENDBRANCH  42  44
ENDBRANCH   1  42
TORSDOF 14
ENDMDL
MODEL 2
REMARK VINA RESULT: -7.523867923      2.375      6.318
REMARK  14 active torsions:
REMARK  status: ('A' for Active; 'I' for Inactive)
REMARK    1  A    between atoms: C2_2  and  O1_3 
REMARK    2  A    between atoms: C2_2  and  C3_5 
REMARK    3  A    between atoms: C4_7  and  O3_8 
REMARK    4  A    between atoms: C6_11  and  C7_12 
REMARK       I    between atoms: C7_12  and  N1_14 
REMARK    5  A    between atoms: C8_16  and  C9_17 
REMARK    6  A    between atoms: C9_17  and  N2_18 
REMARK    7  A    between atoms: C9_17  and  N3_22 
REMARK    8  A    between atoms: N3_22  and  O5_23 
REMARK    9  A    between atoms: C10_25  and  O6_26 
REMARK   10  A    between atoms: C10_25  and  C11_28 
REMARK   11  A    between atoms: C11_28  and  O7_29 
REMARK   12  A    between atoms: C12_31  and  O8_32 
REMARK   13  A    between atoms: C12_31  and  C13_34 
REMARK   14  A    between atoms: C16_42  and  C17_43 
ROOT
HETATM    1  C3  UNL     1      77.767 -15.493 -51.012  1.00  0.00     0.186 C 
HETATM    2  O2  UNL     1      77.434 -15.458 -49.689  1.00  0.00    -0.349 OA
HETATM    3  C4  UNL     1      77.855 -16.628 -49.086  1.00  0.00     0.280 C 
HETATM    4  C5  UNL     1      76.982 -17.726 -49.646  1.00  0.00     0.154 C 
HETATM    5  C6  UNL     1      77.603 -19.033 -49.079  1.00  0.00     0.147 C 
HETATM    6  C10 UNL     1      77.313 -19.984 -50.167  1.00  0.00     0.149 C 
HETATM    7  C12 UNL     1      77.401 -19.118 -51.443  1.00  0.00     0.212 C 
HETATM    8  N5  UNL     1      77.030 -17.834 -51.054  1.00  0.00    -0.348 N 
HETATM    9  C16 UNL     1      77.296 -16.703 -51.803  1.00  0.00     0.216 C 
ENDROOT
BRANCH   5  10
HETATM   10  C7  UNL     1      77.035 -19.248 -47.747  1.00  0.00     0.231 C 
HETATM   11  O4  UNL     1      75.868 -18.809 -47.508  1.00  0.00    -0.273 OA
HETATM   12  N1  UNL     1      77.690 -19.894 -46.736  1.00  0.00    -0.337 N 
HETATM   13  C8  UNL     1      78.288 -20.978 -46.569  1.00  0.00     0.115 C 
ATOM     14  H1  UNL     1      77.691 -19.338 -45.882  1.00  0.00     0.168 HD
BRANCH  13  15
HETATM   15  C9  UNL     1      78.855 -21.193 -45.179  1.00  0.00     0.340 C 
BRANCH  15  16
HETATM   16  N2  UNL     1      79.845 -22.220 -45.152  1.00  0.00    -0.054 N 
ATOM     17  H23 UNL     1      79.989 -22.618 -46.081  1.00  0.00     0.276 HD
ATOM     18  H22 UNL     1      80.776 -21.831 -44.996  1.00  0.00     0.276 HD
ATOM     19  H21 UNL     1      79.630 -22.947 -44.469  1.00  0.00     0.276 HD
ENDBRANCH  15  16
BRANCH  15  20
HETATM   20  N3  UNL     1      77.788 -21.479 -44.255  1.00  0.00    -0.065 NA
BRANCH  20  21
HETATM   21  O5  UNL     1      76.880 -22.364 -44.762  1.00  0.00    -0.294 OA
ATOM     22  H5  UNL     1      76.610 -22.142 -45.645  1.00  0.00     0.238 HD
ENDBRANCH  20  21
ENDBRANCH  15  20
ENDBRANCH  13  15
ENDBRANCH   5  10
BRANCH   6  23
HETATM   23  O6  UNL     1      78.287 -20.986 -50.206  1.00  0.00    -0.381 OA
ATOM     24  H6  UNL     1      78.989 -20.741 -50.797  1.00  0.00     0.211 HD
ENDBRANCH   6  23
BRANCH   6  25
HETATM   25  C11 UNL     1      75.993 -20.665 -50.069  1.00  0.00     0.208 C 
BRANCH  25  26
HETATM   26  O7  UNL     1      76.265 -22.043 -49.845  1.00  0.00    -0.398 OA
ATOM     27  H7  UNL     1      75.835 -22.273 -49.030  1.00  0.00     0.209 HD
ENDBRANCH  25  26
ENDBRANCH   6  25
BRANCH   3  28
HETATM   28  O3  UNL     1      77.705 -16.556 -47.721  1.00  0.00    -0.369 OA
ATOM     29  H3  UNL     1      78.550 -16.543 -47.288  1.00  0.00     0.212 HD
ENDBRANCH   3  28
BRANCH   7  30
HETATM   30  O8  UNL     1      78.734 -19.244 -51.851  1.00  0.00    -0.363 OA
ATOM     31  H8  UNL     1      78.681 -19.727 -52.667  1.00  0.00     0.213 HD
ENDBRANCH   7  30
BRANCH   7  32
HETATM   32  C13 UNL     1      76.589 -19.720 -52.518  1.00  0.00     0.095 A 
HETATM   33  C14 UNL     1      77.061 -20.580 -53.477  1.00  0.00     0.177 A 
HETATM   34  O9  UNL     1      76.046 -20.887 -54.282  1.00  0.00    -0.271 OA
HETATM   35  C15 UNL     1      74.965 -20.277 -53.897  1.00  0.00     0.369 A 
HETATM   36  O10 UNL     1      73.790 -20.313 -54.415  1.00  0.00    -0.238 OA
HETATM   37  N4  UNL     1      75.281 -19.550 -52.807  1.00  0.00    -0.300 N 
ATOM     38  H4  UNL     1      74.632 -18.963 -52.282  1.00  0.00     0.171 HD
ENDBRANCH   7  32
BRANCH   9  39
HETATM   39  C17 UNL     1      78.264 -16.821 -52.919  1.00  0.00     0.199 C 
HETATM   40  O11 UNL     1      77.969 -16.918 -54.125  1.00  0.00    -0.646 OA
HETATM   41  O12 UNL     1      79.650 -16.833 -52.650  1.00  0.00    -0.646 OA
ENDBRANCH   9  39
BRANCH   1  42
HETATM   42  C2  UNL     1      77.264 -14.212 -51.649  1.00  0.00     0.145 C 
HETATM   43  C1  UNL     1      76.134 -13.664 -50.794  1.00  0.00     0.042 C 
BRANCH  42  44
HETATM   44  O1  UNL     1      78.274 -13.278 -51.803  1.00  0.00    -0.393 OA
ATOM     45  H1  UNL     1      78.938 -13.586 -52.409  1.00  0.00     0.210 HD
ENDBRANCH  42  44
ENDBRANCH   1  42
TORSDOF 14
ENDMDL
MODEL 3
REMARK VINA RESULT: -7.519752207      2.342      5.839
REMARK  14 active torsions:
REMARK  status: ('A' for Active; 'I' for Inactive)
REMARK    1  A    between atoms: C2_2  and  O1_3 
REMARK    2  A    between atoms: C2_2  and  C3_5 
REMARK    3  A    between atoms: C4_7  and  O3_8 
REMARK    4  A    between atoms: C6_11  and  C7_12 
REMARK       I    between atoms: C7_12  and  N1_14 
REMARK    5  A    between atoms: C8_16  and  C9_17 
REMARK    6  A    between atoms: C9_17  and  N2_18 
REMARK    7  A    between atoms: C9_17  and  N3_22 
REMARK    8  A    between atoms: N3_22  and  O5_23 
REMARK    9  A    between atoms: C10_25  and  O6_26 
REMARK   10  A    between atoms: C10_25  and  C11_28 
REMARK   11  A    between atoms: C11_28  and  O7_29 
REMARK   12  A    between atoms: C12_31  and  O8_32 
REMARK   13  A    between atoms: C12_31  and  C13_34 
REMARK   14  A    between atoms: C16_42  and  C17_43 
ROOT
HETATM    1  C3  UNL     1      77.709 -15.401 -51.017  1.00  0.00     0.186 C 
HETATM    2  O2  UNL     1      77.286 -15.377 -49.720  1.00  0.00    -0.349 OA
HETATM    3  C4  UNL     1      77.618 -16.573 -49.114  1.00  0.00     0.280 C 
HETATM    4  C5  UNL     1      76.744 -17.625 -49.757  1.00  0.00     0.154 C 
HETATM    5  C6  UNL     1      77.273 -18.966 -49.177  1.00  0.00     0.147 C 
HETATM    6  C10 UNL     1      77.023 -19.884 -50.302  1.00  0.00     0.149 C 
HETATM    7  C12 UNL     1      77.233 -18.999 -51.550  1.00  0.00     0.212 C 
HETATM    8  N5  UNL     1      76.887 -17.709 -51.160  1.00  0.00    -0.348 N 
HETATM    9  C16 UNL     1      77.248 -16.576 -51.865  1.00  0.00     0.216 C 
ENDROOT
BRANCH   5  10
HETATM   10  C7  UNL     1      76.605 -19.183 -47.891  1.00  0.00     0.231 C 
HETATM   11  O4  UNL     1      77.322 -19.369 -46.861  1.00  0.00    -0.273 OA
HETATM   12  N1  UNL     1      75.248 -19.203 -47.734  1.00  0.00    -0.337 N 
HETATM   13  C8  UNL     1      74.274 -18.477 -48.026  1.00  0.00     0.115 C 
ATOM     14  H1  UNL     1      74.946 -20.043 -47.241  1.00  0.00     0.168 HD
BRANCH  13  15
HETATM   15  C9  UNL     1      72.921 -19.008 -47.592  1.00  0.00     0.340 C 
BRANCH  15  16
HETATM   16  N2  UNL     1      72.959 -19.579 -46.284  1.00  0.00    -0.054 N 
ATOM     17  H23 UNL     1      72.292 -19.122 -45.663  1.00  0.00     0.276 HD
ATOM     18  H22 UNL     1      72.565 -20.520 -46.281  1.00  0.00     0.276 HD
ATOM     19  H21 UNL     1      73.899 -19.571 -45.886  1.00  0.00     0.276 HD
ENDBRANCH  15  16
BRANCH  15  20
HETATM   20  N3  UNL     1      72.438 -19.961 -48.558  1.00  0.00    -0.065 NA
BRANCH  20  21
HETATM   21  O5  UNL     1      72.987 -21.200 -48.390  1.00  0.00    -0.294 OA
ATOM     22  H5  UNL     1      73.133 -21.648 -49.215  1.00  0.00     0.238 HD
ENDBRANCH  20  21
ENDBRANCH  15  20
ENDBRANCH  13  15
ENDBRANCH   5  10
BRANCH   6  23
HETATM   23  O6  UNL     1      77.958 -20.924 -50.295  1.00  0.00    -0.381 OA
ATOM     24  H6  UNL     1      77.518 -21.763 -50.362  1.00  0.00     0.211 HD
ENDBRANCH   6  23
BRANCH   6  25
HETATM   25  C11 UNL     1      75.674 -20.513 -50.310  1.00  0.00     0.208 C 
BRANCH  25  26
HETATM   26  O7  UNL     1      75.800 -21.749 -49.616  1.00  0.00    -0.398 OA
ATOM     27  H7  UNL     1      74.940 -21.949 -49.264  1.00  0.00     0.209 HD
ENDBRANCH  25  26
ENDBRANCH   6  25
BRANCH   3  28
HETATM   28  O3  UNL     1      77.376 -16.521 -47.762  1.00  0.00    -0.369 OA
ATOM     29  H3  UNL     1      76.505 -16.843 -47.562  1.00  0.00     0.212 HD
ENDBRANCH   3  28
BRANCH   7  30
HETATM   30  O8  UNL     1      78.585 -19.171 -51.867  1.00  0.00    -0.363 OA
ATOM     31  H8  UNL     1      78.668 -18.801 -52.738  1.00  0.00     0.213 HD
ENDBRANCH   7  30
BRANCH   7  32
HETATM   32  C13 UNL     1      76.475 -19.547 -52.691  1.00  0.00     0.095 A 
HETATM   33  C14 UNL     1      77.030 -20.159 -53.786  1.00  0.00     0.177 A 
HETATM   34  O9  UNL     1      76.040 -20.496 -54.609  1.00  0.00    -0.271 OA
HETATM   35  C15 UNL     1      74.896 -20.136 -54.108  1.00  0.00     0.369 A 
HETATM   36  O10 UNL     1      73.718 -20.279 -54.600  1.00  0.00    -0.238 OA
HETATM   37  N4  UNL     1      75.145 -19.547 -52.921  1.00  0.00    -0.300 N 
ATOM     38  H4  UNL     1      74.438 -19.163 -52.294  1.00  0.00     0.171 HD
ENDBRANCH   7  32
BRANCH   9  39
HETATM   39  C17 UNL     1      78.285 -16.712 -52.913  1.00  0.00     0.199 C 
HETATM   40  O11 UNL     1      78.072 -16.776 -54.139  1.00  0.00    -0.646 OA
HETATM   41  O12 UNL     1      79.648 -16.782 -52.550  1.00  0.00    -0.646 OA
ENDBRANCH   9  39
BRANCH   1  42
HETATM   42  C2  UNL     1      77.302 -14.088 -51.660  1.00  0.00     0.145 C 
HETATM   43  C1  UNL     1      76.122 -13.523 -50.887  1.00  0.00     0.042 C 
BRANCH  42  44
HETATM   44  O1  UNL     1      78.350 -13.186 -51.706  1.00  0.00    -0.393 OA
ATOM     45  H1  UNL     1      78.055 -12.329 -51.992  1.00  0.00     0.210 HD
ENDBRANCH  42  44
ENDBRANCH   1  42
TORSDOF 14
ENDMDL
MODEL 4
REMARK VINA RESULT: -7.442958829      6.815     10.352
REMARK  14 active torsions:
REMARK  status: ('A' for Active; 'I' for Inactive)
REMARK    1  A    between atoms: C2_2  and  O1_3 
REMARK    2  A    between atoms: C2_2  and  C3_5 
REMARK    3  A    between atoms: C4_7  and  O3_8 
REMARK    4  A    between atoms: C6_11  and  C7_12 
REMARK       I    between atoms: C7_12  and  N1_14 
REMARK    5  A    between atoms: C8_16  and  C9_17 
REMARK    6  A    between atoms: C9_17  and  N2_18 
REMARK    7  A    between atoms: C9_17  and  N3_22 
REMARK    8  A    between atoms: N3_22  and  O5_23 
REMARK    9  A    between atoms: C10_25  and  O6_26 
REMARK   10  A    between atoms: C10_25  and  C11_28 
REMARK   11  A    between atoms: C11_28  and  O7_29 
REMARK   12  A    between atoms: C12_31  and  O8_32 
REMARK   13  A    between atoms: C12_31  and  C13_34 
REMARK   14  A    between atoms: C16_42  and  C17_43 
ROOT
HETATM    1  C3  UNL     1      81.049 -17.226 -44.239  1.00  0.00     0.186 C 
HETATM    2  O2  UNL     1      81.712 -17.293 -43.048  1.00  0.00    -0.349 OA
HETATM    3  C4  UNL     1      81.038 -16.532 -42.112  1.00  0.00     0.280 C 
HETATM    4  C5  UNL     1      81.211 -15.093 -42.539  1.00  0.00     0.154 C 
HETATM    5  C6  UNL     1      80.297 -14.295 -41.568  1.00  0.00     0.147 C 
HETATM    6  C10 UNL     1      79.875 -13.174 -42.426  1.00  0.00     0.149 C 
HETATM    7  C12 UNL     1      79.801 -13.800 -43.836  1.00  0.00     0.212 C 
HETATM    8  N5  UNL     1      80.745 -14.823 -43.845  1.00  0.00    -0.348 N 
HETATM    9  C16 UNL     1      80.763 -15.836 -44.785  1.00  0.00     0.216 C 
ENDROOT
BRANCH   5  10
HETATM   10  C7  UNL     1      81.067 -14.037 -40.350  1.00  0.00     0.231 C 
HETATM   11  O4  UNL     1      82.334 -14.038 -40.424  1.00  0.00    -0.273 OA
HETATM   12  N1  UNL     1      80.502 -13.796 -39.129  1.00  0.00    -0.337 N 
HETATM   13  C8  UNL     1      79.636 -13.035 -38.648  1.00  0.00     0.115 C 
ATOM     14  H1  UNL     1      80.896 -14.406 -38.413  1.00  0.00     0.168 HD
BRANCH  13  15
HETATM   15  C9  UNL     1      79.388 -13.203 -37.160  1.00  0.00     0.340 C 
BRANCH  15  16
HETATM   16  N2  UNL     1      80.515 -12.812 -36.377  1.00  0.00    -0.054 N 
ATOM     17  H23 UNL     1      80.883 -13.599 -35.843  1.00  0.00     0.276 HD
ATOM     18  H22 UNL     1      81.325 -12.622 -36.967  1.00  0.00     0.276 HD
ATOM     19  H21 UNL     1      80.307 -12.019 -35.770  1.00  0.00     0.276 HD
ENDBRANCH  15  16
BRANCH  15  20
HETATM   20  N3  UNL     1      79.010 -14.564 -36.879  1.00  0.00    -0.065 NA
BRANCH  20  21
HETATM   21  O5  UNL     1      78.273 -15.121 -37.884  1.00  0.00    -0.294 OA
ATOM     22  H5  UNL     1      77.561 -15.659 -37.558  1.00  0.00     0.238 HD
ENDBRANCH  20  21
ENDBRANCH  15  20
ENDBRANCH  13  15
ENDBRANCH   5  10
BRANCH   6  23
HETATM   23  O6  UNL     1      78.610 -12.719 -42.042  1.00  0.00    -0.381 OA
ATOM     24  H6  UNL     1      78.688 -11.916 -41.540  1.00  0.00     0.211 HD
ENDBRANCH   6  23
BRANCH   6  25
HETATM   25  C11 UNL     1      80.785 -11.995 -42.409  1.00  0.00     0.208 C 
BRANCH  25  26
HETATM   26  O7  UNL     1      79.969 -10.852 -42.637  1.00  0.00    -0.398 OA
ATOM     27  H7  UNL     1      79.531 -10.666 -41.815  1.00  0.00     0.209 HD
ENDBRANCH  25  26
ENDBRANCH   6  25
BRANCH   3  28
HETATM   28  O3  UNL     1      81.566 -16.719 -40.857  1.00  0.00    -0.369 OA
ATOM     29  H3  UNL     1      81.933 -15.909 -40.521  1.00  0.00     0.212 HD
ENDBRANCH   3  28
BRANCH   7  30
HETATM   30  O8  UNL     1      78.473 -14.228 -43.951  1.00  0.00    -0.363 OA
ATOM     31  H8  UNL     1      78.371 -14.421 -44.875  1.00  0.00     0.213 HD
ENDBRANCH   7  30
BRANCH   7  32
HETATM   32  C13 UNL     1      79.981 -12.755 -44.862  1.00  0.00     0.095 A 
HETATM   33  C14 UNL     1      78.974 -12.209 -45.618  1.00  0.00     0.177 A 
HETATM   34  O9  UNL     1      79.523 -11.323 -46.446  1.00  0.00    -0.271 OA
HETATM   35  C15 UNL     1      80.809 -11.275 -46.267  1.00  0.00     0.369 A 
HETATM   36  O10 UNL     1      81.683 -10.554 -46.874  1.00  0.00    -0.238 OA
HETATM   37  N4  UNL     1      81.112 -12.154 -45.290  1.00  0.00    -0.300 N 
ATOM     38  H4  UNL     1      82.048 -12.336 -44.931  1.00  0.00     0.171 HD
ENDBRANCH   7  32
BRANCH   9  39
HETATM   39  C17 UNL     1      79.568 -16.009 -45.643  1.00  0.00     0.199 C 
HETATM   40  O11 UNL     1      79.381 -15.457 -46.744  1.00  0.00    -0.646 OA
HETATM   41  O12 UNL     1      78.518 -16.857 -45.225  1.00  0.00    -0.646 OA
ENDBRANCH   9  39
BRANCH   1  42
HETATM   42  C2  UNL     1      81.831 -18.044 -45.249  1.00  0.00     0.145 C 
HETATM   43  C1  UNL     1      83.164 -17.357 -45.493  1.00  0.00     0.042 C 
BRANCH  42  44
HETATM   44  O1  UNL     1      82.011 -19.352 -44.830  1.00  0.00    -0.393 OA
ATOM     45  H1  UNL     1      82.160 -19.932 -45.568  1.00  0.00     0.210 HD
ENDBRANCH  42  44
ENDBRANCH   1  42
TORSDOF 14
ENDMDL
MODEL 5
REMARK VINA RESULT: -7.414404540      3.887      7.153
REMARK  14 active torsions:
REMARK  status: ('A' for Active; 'I' for Inactive)
REMARK    1  A    between atoms: C2_2  and  O1_3 
REMARK    2  A    between atoms: C2_2  and  C3_5 
REMARK    3  A    between atoms: C4_7  and  O3_8 
REMARK    4  A    between atoms: C6_11  and  C7_12 
REMARK       I    between atoms: C7_12  and  N1_14 
REMARK    5  A    between atoms: C8_16  and  C9_17 
REMARK    6  A    between atoms: C9_17  and  N2_18 
REMARK    7  A    between atoms: C9_17  and  N3_22 
REMARK    8  A    between atoms: N3_22  and  O5_23 
REMARK    9  A    between atoms: C10_25  and  O6_26 
REMARK   10  A    between atoms: C10_25  and  C11_28 
REMARK   11  A    between atoms: C11_28  and  O7_29 
REMARK   12  A    between atoms: C12_31  and  O8_32 
REMARK   13  A    between atoms: C12_31  and  C13_34 
REMARK   14  A    between atoms: C16_42  and  C17_43 
ROOT
HETATM    1  C3  UNL     1      77.416 -18.585 -50.685  1.00  0.00     0.186 C 
HETATM    2  O2  UNL     1      78.734 -18.368 -50.407  1.00  0.00    -0.349 OA
HETATM    3  C4  UNL     1      79.258 -19.492 -49.798  1.00  0.00     0.280 C 
HETATM    4  C5  UNL     1      78.611 -19.571 -48.434  1.00  0.00     0.154 C 
HETATM    5  C6  UNL     1      79.091 -20.933 -47.863  1.00  0.00     0.147 C 
HETATM    6  C10 UNL     1      77.936 -21.321 -47.034  1.00  0.00     0.149 C 
HETATM    7  C12 UNL     1      76.726 -20.749 -47.805  1.00  0.00     0.212 C 
HETATM    8  N5  UNL     1      77.200 -19.624 -48.472  1.00  0.00    -0.348 N 
HETATM    9  C16 UNL     1      76.536 -19.026 -49.527  1.00  0.00     0.216 C 
ENDROOT
BRANCH   5  10
HETATM   10  C7  UNL     1      80.399 -20.713 -47.241  1.00  0.00     0.231 C 
HETATM   11  O4  UNL     1      80.714 -19.533 -46.896  1.00  0.00    -0.273 OA
HETATM   12  N1  UNL     1      81.308 -21.707 -47.010  1.00  0.00    -0.337 N 
HETATM   13  C8  UNL     1      81.328 -22.831 -46.467  1.00  0.00     0.115 C 
ATOM     14  H1  UNL     1      82.225 -21.463 -47.385  1.00  0.00     0.168 HD
BRANCH  13  15
HETATM   15  C9  UNL     1      82.669 -23.539 -46.501  1.00  0.00     0.340 C 
BRANCH  15  16
HETATM   16  N2  UNL     1      82.720 -24.552 -47.505  1.00  0.00    -0.054 N 
ATOM     17  H23 UNL     1      82.146 -25.355 -47.249  1.00  0.00     0.276 HD
ATOM     18  H22 UNL     1      82.225 -24.260 -48.348  1.00  0.00     0.276 HD
ATOM     19  H21 UNL     1      83.677 -24.836 -47.719  1.00  0.00     0.276 HD
ENDBRANCH  15  16
BRANCH  15  20
HETATM   20  N3  UNL     1      82.966 -24.085 -45.201  1.00  0.00    -0.065 NA
BRANCH  20  21
HETATM   21  O5  UNL     1      83.967 -25.013 -45.240  1.00  0.00    -0.294 OA
ATOM     22  H5  UNL     1      83.648 -25.898 -45.105  1.00  0.00     0.238 HD
ENDBRANCH  20  21
ENDBRANCH  15  20
ENDBRANCH  13  15
ENDBRANCH   5  10
BRANCH   6  23
HETATM   23  O6  UNL     1      77.838 -22.714 -46.961  1.00  0.00    -0.381 OA
ATOM     24  H6  UNL     1      76.930 -22.984 -47.028  1.00  0.00     0.211 HD
ENDBRANCH   6  23
BRANCH   6  25
HETATM   25  C11 UNL     1      77.970 -20.813 -45.635  1.00  0.00     0.208 C 
BRANCH  25  26
HETATM   26  O7  UNL     1      78.135 -21.951 -44.797  1.00  0.00    -0.398 OA
ATOM     27  H7  UNL     1      77.269 -22.179 -44.479  1.00  0.00     0.209 HD
ENDBRANCH  25  26
ENDBRANCH   6  25
BRANCH   3  28
HETATM   28  O3  UNL     1      80.622 -19.387 -49.668  1.00  0.00    -0.369 OA
ATOM     29  H3  UNL     1      81.065 -20.024 -50.216  1.00  0.00     0.212 HD
ENDBRANCH   3  28
BRANCH   7  30
HETATM   30  O8  UNL     1      76.326 -21.800 -48.639  1.00  0.00    -0.363 OA
ATOM     31  H8  UNL     1      75.823 -22.369 -48.070  1.00  0.00     0.213 HD
ENDBRANCH   7  30
BRANCH   7  32
HETATM   32  C13 UNL     1      75.602 -20.517 -46.878  1.00  0.00     0.095 A 
HETATM   33  C14 UNL     1      74.793 -21.495 -46.356  1.00  0.00     0.177 A 
HETATM   34  O9  UNL     1      73.882 -20.902 -45.588  1.00  0.00    -0.271 OA
HETATM   35  C15 UNL     1      74.060 -19.614 -45.590  1.00  0.00     0.369 A 
HETATM   36  O10 UNL     1      73.388 -18.705 -44.980  1.00  0.00    -0.238 OA
HETATM   37  N4  UNL     1      75.120 -19.357 -46.383  1.00  0.00    -0.300 N 
ATOM     38  H4  UNL     1      75.499 -18.430 -46.577  1.00  0.00     0.171 HD
ENDBRANCH   7  32
BRANCH   9  39
HETATM   39  C17 UNL     1      75.426 -19.773 -50.162  1.00  0.00     0.199 C 
HETATM   40  O11 UNL     1      75.504 -20.425 -51.220  1.00  0.00    -0.646 OA
HETATM   41  O12 UNL     1      74.147 -19.780 -49.561  1.00  0.00    -0.646 OA
ENDBRANCH   9  39
BRANCH   1  42
HETATM   42  C2  UNL     1      76.864 -17.323 -51.323  1.00  0.00     0.145 C 
HETATM   43  C1  UNL     1      77.999 -16.322 -51.460  1.00  0.00     0.042 C 
BRANCH  42  44
HETATM   44  O1  UNL     1      76.269 -17.578 -52.546  1.00  0.00    -0.393 OA
ATOM     45  H1  UNL     1      76.773 -17.202 -53.259  1.00  0.00     0.210 HD
ENDBRANCH  42  44
ENDBRANCH   1  42
TORSDOF 14
ENDMDL
