MODEL 1
REMARK VINA RESULT: -8.337331182      0.000      0.000
REMARK  6 active torsions:
REMARK  status: ('A' for Active; 'I' for Inactive)
REMARK    1  A    between atoms: C2_2  and  N1_3 
REMARK    2  A    between atoms: C2_2  and  C3_7 
REMARK       I    between atoms: C3_7  and  N2_9 
REMARK    3  A    between atoms: N2_9  and  N3_11 
REMARK    4  A    between atoms: C4_13  and  C5_14 
REMARK    5  A    between atoms: C7_18  and  N5_19 
REMARK    6  A    between atoms: C9_25  and  N8_26 
REMARK       I    between atoms: N8_26  and  C10_28 
ROOT
HETATM    1  C5  UNL     1     -32.918  15.458  16.837  1.00  0.00     0.013 A 
HETATM    2  C6  UNL     1     -33.649  14.426  16.309  1.00  0.00     0.120 A 
HETATM    3  N4  UNL     1     -33.042  13.343  15.800  1.00  0.00    -0.200 N 
ATOM      4  H4  UNL     1     -33.606  12.586  15.413  1.00  0.00     0.183 HD
HETATM    5  C7  UNL     1     -31.713  13.243  15.795  1.00  0.00     0.704 A 
HETATM    6  N11 UNL     1     -30.988  14.249  16.309  1.00  0.00    -0.200 N 
ATOM      7  H11 UNL     1     -29.971  14.172  16.306  1.00  0.00     0.183 HD
HETATM    8  C11 UNL     1     -31.547  15.353  16.829  1.00  0.00     0.120 A 
ENDROOT
BRANCH   5   9
HETATM    9  N5  UNL     1     -31.061  12.083  15.249  1.00  0.00     0.029 N 
HETATM   10  C8  UNL     1     -29.948  11.503  15.752  1.00  0.00     0.242 A 
HETATM   11  N6  UNL     1     -29.653  10.458  14.973  1.00  0.00    -0.280 N 
HETATM   12  N7  UNL     1     -30.580  10.410  14.012  1.00  0.00    -0.130 N 
ATOM     13  H6  UNL     1     -28.868   9.818  15.090  1.00  0.00     0.188 HD
HETATM   14  C9  UNL     1     -31.454  11.405  14.171  1.00  0.00     0.721 A 
ATOM     15  H7  UNL     1     -30.614   9.714  13.266  1.00  0.00     0.205 HD
BRANCH  14  16
HETATM   16  N8  UNL     1     -32.464  11.665  13.442  1.00  0.00    -0.161 N 
HETATM   17  C10 UNL     1     -32.438  12.357  12.223  1.00  0.00     0.200 C 
HETATM   18  N9  UNL     1     -31.968  13.558  12.206  1.00  0.00    -0.373 N 
HETATM   19  N10 UNL     1     -32.900  11.815  10.990  1.00  0.00    -0.063 NA
ATOM     20  H92 UNL     1     -31.637  13.946  13.090  1.00  0.00     0.158 HD
ATOM     21  H91 UNL     1     -31.949  14.062  11.319  1.00  0.00     0.158 HD
ATOM     22  H8  UNL     1     -33.373  11.341  13.773  1.00  0.00     0.187 HD
ENDBRANCH  14  16
ENDBRANCH   5   9
BRANCH   1  23
HETATM   23  C4  UNL     1     -33.562  16.628  17.386  1.00  0.00     0.121 C 
HETATM   24  N3  UNL     1     -34.847  16.737  17.330  1.00  0.00    -0.308 N 
ATOM     25  H3  UNL     1     -35.366  15.977  16.890  1.00  0.00     0.186 HD
BRANCH  24  26
HETATM   26  N2  UNL     1     -35.571  17.805  17.819  1.00  0.00    -0.269 N 
HETATM   27  C3  UNL     1     -36.981  17.773  17.945  1.00  0.00     0.266 C 
HETATM   28  O1  UNL     1     -37.586  16.733  17.600  1.00  0.00    -0.269 OA
ATOM     29  H2  UNL     1     -35.072  18.649  18.100  1.00  0.00     0.190 HD
BRANCH  27  30
HETATM   30  C2  UNL     1     -37.717  18.949  18.477  1.00  0.00     0.272 C 
HETATM   31  C1  UNL     1     -36.984  19.628  19.607  1.00  0.00     0.050 C 
BRANCH  30  32
HETATM   32  N1  UNL     1     -38.004  19.868  17.389  1.00  0.00    -0.067 N 
ATOM     33  H13 UNL     1     -38.993  19.848  17.137  1.00  0.00     0.275 HD
ATOM     34  H12 UNL     1     -37.935  20.839  17.695  1.00  0.00     0.275 HD
ATOM     35  H11 UNL     1     -37.412  19.693  16.577  1.00  0.00     0.275 HD
ENDBRANCH  30  32
ENDBRANCH  27  30
ENDBRANCH  24  26
ENDBRANCH   1  23
TORSDOF 6
ENDMDL
MODEL 2
REMARK VINA RESULT: -8.201036690      1.250      1.644
REMARK  6 active torsions:
REMARK  status: ('A' for Active; 'I' for Inactive)
REMARK    1  A    between atoms: C2_2  and  N1_3 
REMARK    2  A    between atoms: C2_2  and  C3_7 
REMARK       I    between atoms: C3_7  and  N2_9 
REMARK    3  A    between atoms: N2_9  and  N3_11 
REMARK    4  A    between atoms: C4_13  and  C5_14 
REMARK    5  A    between atoms: C7_18  and  N5_19 
REMARK    6  A    between atoms: C9_25  and  N8_26 
REMARK       I    between atoms: N8_26  and  C10_28 
ROOT
HETATM    1  C5  UNL     1     -33.192  15.206  15.864  1.00  0.00     0.013 A 
HETATM    2  C6  UNL     1     -31.889  15.368  15.470  1.00  0.00     0.120 A 
HETATM    3  N4  UNL     1     -31.123  14.307  15.175  1.00  0.00    -0.200 N 
ATOM      4  H4  UNL     1     -30.156  14.451  14.884  1.00  0.00     0.183 HD
HETATM    5  C7  UNL     1     -31.608  13.068  15.258  1.00  0.00     0.704 A 
HETATM    6  N11 UNL     1     -32.883  12.900  15.643  1.00  0.00    -0.200 N 
ATOM      7  H11 UNL     1     -33.255  11.952  15.706  1.00  0.00     0.183 HD
HETATM    8  C11 UNL     1     -33.689  13.928  15.949  1.00  0.00     0.120 A 
ENDROOT
BRANCH   5   9
HETATM    9  N5  UNL     1     -30.787  11.931  14.943  1.00  0.00     0.029 N 
HETATM   10  C8  UNL     1     -30.194  11.121  15.849  1.00  0.00     0.242 A 
HETATM   11  N6  UNL     1     -29.523  10.185  15.171  1.00  0.00    -0.280 N 
HETATM   12  N7  UNL     1     -29.711  10.429  13.871  1.00  0.00    -0.130 N 
ATOM     13  H6  UNL     1     -28.970   9.427  15.570  1.00  0.00     0.188 HD
HETATM   14  C9  UNL     1     -30.489  11.502  13.717  1.00  0.00     0.721 A 
ATOM     15  H7  UNL     1     -29.317   9.877  13.108  1.00  0.00     0.205 HD
BRANCH  14  16
HETATM   16  N8  UNL     1     -30.874  12.021  12.621  1.00  0.00    -0.161 N 
HETATM   17  C10 UNL     1     -31.610  11.371  11.621  1.00  0.00     0.200 C 
HETATM   18  N9  UNL     1     -31.114  10.310  11.081  1.00  0.00    -0.373 N 
HETATM   19  N10 UNL     1     -32.883  11.809  11.158  1.00  0.00    -0.063 NA
ATOM     20  H92 UNL     1     -30.201   9.996  11.412  1.00  0.00     0.158 HD
ATOM     21  H91 UNL     1     -31.650   9.836  10.353  1.00  0.00     0.158 HD
ATOM     22  H8  UNL     1     -30.625  12.996  12.455  1.00  0.00     0.187 HD
ENDBRANCH  14  16
ENDBRANCH   5   9
BRANCH   1  23
HETATM   23  C4  UNL     1     -34.024  16.342  16.183  1.00  0.00     0.121 C 
HETATM   24  N3  UNL     1     -35.169  16.157  16.751  1.00  0.00    -0.308 N 
ATOM     25  H3  UNL     1     -35.445  15.197  16.955  1.00  0.00     0.186 HD
BRANCH  24  26
HETATM   26  N2  UNL     1     -36.047  17.162  17.102  1.00  0.00    -0.269 N 
HETATM   27  C3  UNL     1     -35.904  17.913  18.294  1.00  0.00     0.266 C 
HETATM   28  O1  UNL     1     -34.943  17.652  19.052  1.00  0.00    -0.269 OA
ATOM     29  H2  UNL     1     -36.828  17.372  16.480  1.00  0.00     0.190 HD
BRANCH  27  30
HETATM   30  C2  UNL     1     -36.876  18.986  18.630  1.00  0.00     0.272 C 
HETATM   31  C1  UNL     1     -36.202  20.251  19.100  1.00  0.00     0.050 C 
BRANCH  30  32
HETATM   32  N1  UNL     1     -37.740  19.225  17.487  1.00  0.00    -0.067 N 
ATOM     33  H13 UNL     1     -38.722  19.259  17.764  1.00  0.00     0.275 HD
ATOM     34  H12 UNL     1     -37.639  20.179  17.139  1.00  0.00     0.275 HD
ATOM     35  H11 UNL     1     -37.588  18.542  16.745  1.00  0.00     0.275 HD
ENDBRANCH  30  32
ENDBRANCH  27  30
ENDBRANCH  24  26
ENDBRANCH   1  23
TORSDOF 6
ENDMDL
MODEL 3
REMARK VINA RESULT: -8.138437459      6.073      9.101
REMARK  6 active torsions:
REMARK  status: ('A' for Active; 'I' for Inactive)
REMARK    1  A    between atoms: C2_2  and  N1_3 
REMARK    2  A    between atoms: C2_2  and  C3_7 
REMARK       I    between atoms: C3_7  and  N2_9 
REMARK    3  A    between atoms: N2_9  and  N3_11 
REMARK    4  A    between atoms: C4_13  and  C5_14 
REMARK    5  A    between atoms: C7_18  and  N5_19 
REMARK    6  A    between atoms: C9_25  and  N8_26 
REMARK       I    between atoms: N8_26  and  C10_28 
ROOT
HETATM    1  C5  UNL     1     -29.105  14.658   9.580  1.00  0.00     0.013 A 
HETATM    2  C6  UNL     1     -28.604  14.517  10.848  1.00  0.00     0.120 A 
HETATM    3  N4  UNL     1     -29.288  13.847  11.787  1.00  0.00    -0.200 N 
ATOM      4  H4  UNL     1     -28.896  13.753  12.725  1.00  0.00     0.183 HD
HETATM    5  C7  UNL     1     -30.472  13.300  11.512  1.00  0.00     0.704 A 
HETATM    6  N11 UNL     1     -30.972  13.433  10.273  1.00  0.00    -0.200 N 
ATOM      7  H11 UNL     1     -31.877  13.014  10.063  1.00  0.00     0.183 HD
HETATM    8  C11 UNL     1     -30.327  14.094   9.299  1.00  0.00     0.120 A 
ENDROOT
BRANCH   5   9
HETATM    9  N5  UNL     1     -31.206  12.582  12.518  1.00  0.00     0.029 N 
HETATM   10  C8  UNL     1     -32.226  13.085  13.251  1.00  0.00     0.242 A 
HETATM   11  N6  UNL     1     -32.645  12.118  14.072  1.00  0.00    -0.280 N 
HETATM   12  N7  UNL     1     -31.886  11.044  13.836  1.00  0.00    -0.130 N 
ATOM     13  H6  UNL     1     -33.402  12.186  14.752  1.00  0.00     0.188 HD
HETATM   14  C9  UNL     1     -30.996  11.317  12.881  1.00  0.00     0.721 A 
ATOM     15  H7  UNL     1     -31.973  10.148  14.316  1.00  0.00     0.205 HD
BRANCH  14  16
HETATM   16  N8  UNL     1     -30.115  10.531  12.404  1.00  0.00    -0.161 N 
HETATM   17  C10 UNL     1     -30.077  10.046  11.090  1.00  0.00     0.200 C 
HETATM   18  N9  UNL     1     -31.086   9.371  10.651  1.00  0.00    -0.373 N 
HETATM   19  N10 UNL     1     -28.986  10.250  10.197  1.00  0.00    -0.063 NA
ATOM     20  H92 UNL     1     -31.867   9.225  11.291  1.00  0.00     0.158 HD
ATOM     21  H91 UNL     1     -31.058   9.018   9.695  1.00  0.00     0.158 HD
ATOM     22  H8  UNL     1     -29.372  10.228  13.033  1.00  0.00     0.187 HD
ENDBRANCH  14  16
ENDBRANCH   5   9
BRANCH   1  23
HETATM   23  C4  UNL     1     -28.377  15.378   8.563  1.00  0.00     0.121 C 
HETATM   24  N3  UNL     1     -28.845  16.492   8.108  1.00  0.00    -0.308 N 
ATOM     25  H3  UNL     1     -29.728  16.825   8.493  1.00  0.00     0.186 HD
BRANCH  24  26
HETATM   26  N2  UNL     1     -28.239  17.266   7.139  1.00  0.00    -0.269 N 
HETATM   27  C3  UNL     1     -28.569  18.628   6.938  1.00  0.00     0.266 C 
HETATM   28  O1  UNL     1     -29.443  19.144   7.672  1.00  0.00    -0.269 OA
ATOM     29  H2  UNL     1     -27.528  16.841   6.544  1.00  0.00     0.190 HD
BRANCH  27  30
HETATM   30  C2  UNL     1     -27.890  19.421   5.881  1.00  0.00     0.272 C 
HETATM   31  C1  UNL     1     -28.696  20.620   5.449  1.00  0.00     0.050 C 
BRANCH  30  32
HETATM   32  N1  UNL     1     -26.564  19.796   6.341  1.00  0.00    -0.067 N 
ATOM     33  H13 UNL     1     -26.501  20.800   6.513  1.00  0.00     0.275 HD
ATOM     34  H12 UNL     1     -26.391  19.459   7.288  1.00  0.00     0.275 HD
ATOM     35  H11 UNL     1     -25.836  19.485   5.698  1.00  0.00     0.275 HD
ENDBRANCH  30  32
ENDBRANCH  27  30
ENDBRANCH  24  26
ENDBRANCH   1  23
TORSDOF 6
ENDMDL
MODEL 4
REMARK VINA RESULT: -8.130584495      1.372      3.003
REMARK  6 active torsions:
REMARK  status: ('A' for Active; 'I' for Inactive)
REMARK    1  A    between atoms: C2_2  and  N1_3 
REMARK    2  A    between atoms: C2_2  and  C3_7 
REMARK       I    between atoms: C3_7  and  N2_9 
REMARK    3  A    between atoms: N2_9  and  N3_11 
REMARK    4  A    between atoms: C4_13  and  C5_14 
REMARK    5  A    between atoms: C7_18  and  N5_19 
REMARK    6  A    between atoms: C9_25  and  N8_26 
REMARK       I    between atoms: N8_26  and  C10_28 
ROOT
HETATM    1  C5  UNL     1     -32.774  15.319  16.880  1.00  0.00     0.013 A 
HETATM    2  C6  UNL     1     -33.516  14.336  16.278  1.00  0.00     0.120 A 
HETATM    3  N4  UNL     1     -32.924  13.248  15.761  1.00  0.00    -0.200 N 
ATOM      4  H4  UNL     1     -33.495  12.528  15.318  1.00  0.00     0.183 HD
HETATM    5  C7  UNL     1     -31.601  13.097  15.818  1.00  0.00     0.704 A 
HETATM    6  N11 UNL     1     -30.866  14.055  16.406  1.00  0.00    -0.200 N 
ATOM      7  H11 UNL     1     -29.854  13.938  16.450  1.00  0.00     0.183 HD
HETATM    8  C11 UNL     1     -31.410  15.160  16.937  1.00  0.00     0.120 A 
ENDROOT
BRANCH   5   9
HETATM    9  N5  UNL     1     -30.966  11.932  15.263  1.00  0.00     0.029 N 
HETATM   10  C8  UNL     1     -30.907  11.627  13.947  1.00  0.00     0.242 A 
HETATM   11  N6  UNL     1     -30.239  10.475  13.832  1.00  0.00    -0.280 N 
HETATM   12  N7  UNL     1     -29.900  10.091  15.066  1.00  0.00    -0.130 N 
ATOM     13  H6  UNL     1     -30.028   9.981  12.965  1.00  0.00     0.188 HD
HETATM   14  C9  UNL     1     -30.341  10.981  15.956  1.00  0.00     0.721 A 
ATOM     15  H7  UNL     1     -29.380   9.243  15.293  1.00  0.00     0.205 HD
BRANCH  14  16
HETATM   16  N8  UNL     1     -30.200  10.937  17.221  1.00  0.00    -0.161 N 
HETATM   17  C10 UNL     1     -29.111  11.447  17.941  1.00  0.00     0.200 C 
HETATM   18  N9  UNL     1     -27.931  10.997  17.675  1.00  0.00    -0.373 N 
HETATM   19  N10 UNL     1     -29.222  12.438  18.956  1.00  0.00    -0.063 NA
ATOM     20  H92 UNL     1     -27.852  10.286  16.947  1.00  0.00     0.158 HD
ATOM     21  H91 UNL     1     -27.138  11.368  18.199  1.00  0.00     0.158 HD
ATOM     22  H8  UNL     1     -30.945  10.493  17.757  1.00  0.00     0.187 HD
ENDBRANCH  14  16
ENDBRANCH   5   9
BRANCH   1  23
HETATM   23  C4  UNL     1     -33.402  16.492  17.440  1.00  0.00     0.121 C 
HETATM   24  N3  UNL     1     -34.677  16.659  17.315  1.00  0.00    -0.308 N 
ATOM     25  H3  UNL     1     -35.199  15.939  16.816  1.00  0.00     0.186 HD
BRANCH  24  26
HETATM   26  N2  UNL     1     -35.384  17.737  17.806  1.00  0.00    -0.269 N 
HETATM   27  C3  UNL     1     -36.791  17.712  17.967  1.00  0.00     0.266 C 
HETATM   28  O1  UNL     1     -37.408  16.671  17.651  1.00  0.00    -0.269 OA
ATOM     29  H2  UNL     1     -34.875  18.583  18.062  1.00  0.00     0.190 HD
BRANCH  27  30
HETATM   30  C2  UNL     1     -37.509  18.900  18.499  1.00  0.00     0.272 C 
HETATM   31  C1  UNL     1     -36.724  19.621  19.565  1.00  0.00     0.050 C 
BRANCH  30  32
HETATM   32  N1  UNL     1     -37.864  19.779  17.398  1.00  0.00    -0.067 N 
ATOM     33  H13 UNL     1     -37.881  20.755  17.694  1.00  0.00     0.275 HD
ATOM     34  H12 UNL     1     -37.113  19.832  16.710  1.00  0.00     0.275 HD
ATOM     35  H11 UNL     1     -38.746  19.507  16.964  1.00  0.00     0.275 HD
ENDBRANCH  30  32
ENDBRANCH  27  30
ENDBRANCH  24  26
ENDBRANCH   1  23
TORSDOF 6
ENDMDL
MODEL 5
REMARK VINA RESULT: -8.113206807      1.968      2.493
REMARK  6 active torsions:
REMARK  status: ('A' for Active; 'I' for Inactive)
REMARK    1  A    between atoms: C2_2  and  N1_3 
REMARK    2  A    between atoms: C2_2  and  C3_7 
REMARK       I    between atoms: C3_7  and  N2_9 
REMARK    3  A    between atoms: N2_9  and  N3_11 
REMARK    4  A    between atoms: C4_13  and  C5_14 
REMARK    5  A    between atoms: C7_18  and  N5_19 
REMARK    6  A    between atoms: C9_25  and  N8_26 
REMARK       I    between atoms: N8_26  and  C10_28 
ROOT
HETATM    1  C5  UNL     1     -32.601  14.020  15.425  1.00  0.00     0.013 A 
HETATM    2  C6  UNL     1     -32.749  12.725  15.002  1.00  0.00     0.120 A 
HETATM    3  N4  UNL     1     -31.715  12.051  14.475  1.00  0.00    -0.200 N 
ATOM      4  H4  UNL     1     -31.848  11.088  14.167  1.00  0.00     0.183 HD
HETATM    5  C7  UNL     1     -30.517  12.623  14.351  1.00  0.00     0.704 A 
HETATM    6  N11 UNL     1     -30.362  13.892  14.763  1.00  0.00    -0.200 N 
ATOM      7  H11 UNL     1     -29.446  14.328  14.669  1.00  0.00     0.183 HD
HETATM    8  C11 UNL     1     -31.365  14.608  15.295  1.00  0.00     0.120 A 
ENDROOT
BRANCH   5   9
HETATM    9  N5  UNL     1     -29.409  11.901  13.787  1.00  0.00     0.029 N 
HETATM   10  C8  UNL     1     -28.320  11.483  14.471  1.00  0.00     0.242 A 
HETATM   11  N6  UNL     1     -27.520  10.854  13.605  1.00  0.00    -0.280 N 
HETATM   12  N7  UNL     1     -28.122  10.894  12.413  1.00  0.00    -0.130 N 
ATOM     13  H6  UNL     1     -26.619  10.425  13.814  1.00  0.00     0.188 HD
HETATM   14  C9  UNL     1     -29.287  11.535  12.512  1.00  0.00     0.721 A 
ATOM     15  H7  UNL     1     -27.746  10.492  11.553  1.00  0.00     0.205 HD
BRANCH  14  16
HETATM   16  N8  UNL     1     -30.122  11.760  11.578  1.00  0.00    -0.161 N 
HETATM   17  C10 UNL     1     -31.246  10.977  11.279  1.00  0.00     0.200 C 
HETATM   18  N9  UNL     1     -31.070   9.734  10.983  1.00  0.00    -0.373 N 
HETATM   19  N10 UNL     1     -32.582  11.469  11.281  1.00  0.00    -0.063 NA
ATOM     20  H92 UNL     1     -30.113   9.381  10.982  1.00  0.00     0.158 HD
ATOM     21  H91 UNL     1     -31.888   9.164  10.766  1.00  0.00     0.158 HD
ATOM     22  H8  UNL     1     -29.960  12.582  10.996  1.00  0.00     0.187 HD
ENDBRANCH  14  16
ENDBRANCH   5   9
BRANCH   1  23
HETATM   23  C4  UNL     1     -33.707  14.754  15.992  1.00  0.00     0.121 C 
HETATM   24  N3  UNL     1     -33.793  16.029  15.805  1.00  0.00    -0.308 N 
ATOM     25  H3  UNL     1     -33.060  16.475  15.254  1.00  0.00     0.186 HD
BRANCH  24  26
HETATM   26  N2  UNL     1     -34.801  16.833  16.297  1.00  0.00    -0.269 N 
HETATM   27  C3  UNL     1     -34.785  17.352  17.614  1.00  0.00     0.266 C 
HETATM   28  O1  UNL     1     -33.816  17.069  18.354  1.00  0.00    -0.269 OA
ATOM     29  H2  UNL     1     -35.588  17.061  15.689  1.00  0.00     0.190 HD
BRANCH  27  30
HETATM   30  C2  UNL     1     -35.895  18.213  18.099  1.00  0.00     0.272 C 
HETATM   31  C1  UNL     1     -37.243  17.552  17.960  1.00  0.00     0.050 C 
BRANCH  30  32
HETATM   32  N1  UNL     1     -35.627  18.614  19.470  1.00  0.00    -0.067 N 
ATOM     33  H13 UNL     1     -36.467  18.552  20.046  1.00  0.00     0.275 HD
ATOM     34  H12 UNL     1     -35.051  17.923  19.952  1.00  0.00     0.275 HD
ATOM     35  H11 UNL     1     -35.211  19.543  19.520  1.00  0.00     0.275 HD
ENDBRANCH  30  32
ENDBRANCH  27  30
ENDBRANCH  24  26
ENDBRANCH   1  23
TORSDOF 6
ENDMDL
