MODEL 1
REMARK VINA RESULT: -9.240461010      0.000      0.000
REMARK  8 active torsions:
REMARK  status: ('A' for Active; 'I' for Inactive)
REMARK    1  A    between atoms: N1_4  and  N2_6 
REMARK    2  A    between atoms: N2_6  and  C4_8 
REMARK    3  A    between atoms: C7_11  and  N3_12 
REMARK    4  A    between atoms: N3_12  and  N4_14 
REMARK    5  A    between atoms: N4_14  and  C8_16 
REMARK    6  A    between atoms: C8_16  and  O1_17 
REMARK    7  A    between atoms: C9_21  and  N6_22 
REMARK       I    between atoms: N6_22  and  C10_24 
REMARK    8  A    between atoms: C10_24  and  C11_26 
ROOT
HETATM    1  C4  UNL     1     -32.149  14.910  15.806  1.00  0.00     0.135 C 
HETATM    2  C5  UNL     1     -31.410  14.721  16.954  1.00  0.00     0.054 C 
HETATM    3  C6  UNL     1     -30.862  13.508  17.345  1.00  0.00     0.054 C 
HETATM    4  C7  UNL     1     -30.999  12.265  16.768  1.00  0.00     0.135 C 
HETATM    5  N5  UNL     1     -31.727  11.951  15.682  1.00  0.00    -0.175 N 
ATOM      6  H5  UNL     1     -31.897  10.952  15.559  1.00  0.00     0.186 HD
HETATM    7  C9  UNL     1     -32.268  12.730  14.732  1.00  0.00     0.688 C 
HETATM    8  N11 UNL     1     -32.406  14.067  14.791  1.00  0.00    -0.175 N 
ATOM      9  H11 UNL     1     -32.759  14.505  13.940  1.00  0.00     0.186 HD
ENDROOT
BRANCH   7  10
HETATM   10  N6  UNL     1     -32.706  12.163  13.649  1.00  0.00    -0.153 N 
HETATM   11  C10 UNL     1     -32.079  12.300  12.405  1.00  0.00     0.306 C 
HETATM   12  O2  UNL     1     -32.098  13.382  11.770  1.00  0.00    -0.263 OA
ATOM     13  H6  UNL     1     -33.548  11.590  13.708  1.00  0.00     0.187 HD
BRANCH  11  14
HETATM   14  C11 UNL     1     -31.379  11.132  11.831  1.00  0.00     0.207 A 
HETATM   15  N7  UNL     1     -30.202  10.647  12.243  1.00  0.00    -0.264 N 
HETATM   16  N8  UNL     1     -29.926   9.606  11.478  1.00  0.00    -0.226 N 
ATOM     17  H7  UNL     1     -29.627  11.013  13.002  1.00  0.00     0.190 HD
HETATM   18  N9  UNL     1     -30.889   9.428  10.607  1.00  0.00    -0.226 N 
ATOM     19  H8  UNL     1     -29.089   9.027  11.555  1.00  0.00     0.210 HD
HETATM   20  N10 UNL     1     -31.792  10.361  10.812  1.00  0.00    -0.264 N 
ATOM     21  H9  UNL     1     -30.930   8.697   9.896  1.00  0.00     0.210 HD
ATOM     22  H10 UNL     1     -32.659  10.478  10.287  1.00  0.00     0.190 HD
ENDBRANCH  11  14
ENDBRANCH   7  10
BRANCH   4  23
HETATM   23  N3  UNL     1     -30.359  11.302  17.334  1.00  0.00    -0.288 N 
ATOM     24  H3  UNL     1     -30.825  10.717  18.028  1.00  0.00     0.188 HD
BRANCH  23  25
HETATM   25  N4  UNL     1     -29.029  11.059  16.996  1.00  0.00    -0.312 N 
ATOM     26  H4  UNL     1     -28.301  11.663  17.378  1.00  0.00     0.182 HD
BRANCH  25  27
HETATM   27  C8  UNL     1     -28.653   9.963  16.109  1.00  0.00     0.304 C 
BRANCH  27  28
HETATM   28  O1  UNL     1     -29.557   9.830  15.070  1.00  0.00    -0.381 OA
ATOM     29  H1  UNL     1     -30.046   9.020  15.143  1.00  0.00     0.211 HD
ENDBRANCH  27  28
ENDBRANCH  25  27
ENDBRANCH  23  25
ENDBRANCH   4  23
BRANCH   1  30
HETATM   30  N2  UNL     1     -32.668  16.062  15.686  1.00  0.00    -0.285 N 
ATOM     31  H2  UNL     1     -32.731  16.459  14.749  1.00  0.00     0.188 HD
BRANCH  30  32
HETATM   32  N1  UNL     1     -33.158  16.823  16.748  1.00  0.00    -0.308 N 
HETATM   33  C2  UNL     1     -34.393  16.759  17.030  1.00  0.00    -0.004 C 
HETATM   34  C1  UNL     1     -35.295  15.898  16.252  1.00  0.00     0.064 C 
HETATM   35  C3  UNL     1     -34.933  17.553  18.146  1.00  0.00     0.064 C 
ATOM     36  H1  UNL     1     -32.534  17.422  17.288  1.00  0.00     0.186 HD
ENDBRANCH  30  32
ENDBRANCH   1  30
TORSDOF 8
ENDMDL
MODEL 2
REMARK VINA RESULT: -9.161059822      1.703      5.255
REMARK  8 active torsions:
REMARK  status: ('A' for Active; 'I' for Inactive)
REMARK    1  A    between atoms: N1_4  and  N2_6 
REMARK    2  A    between atoms: N2_6  and  C4_8 
REMARK    3  A    between atoms: C7_11  and  N3_12 
REMARK    4  A    between atoms: N3_12  and  N4_14 
REMARK    5  A    between atoms: N4_14  and  C8_16 
REMARK    6  A    between atoms: C8_16  and  O1_17 
REMARK    7  A    between atoms: C9_21  and  N6_22 
REMARK       I    between atoms: N6_22  and  C10_24 
REMARK    8  A    between atoms: C10_24  and  C11_26 
ROOT
HETATM    1  C4  UNL     1     -31.091  12.308  16.728  1.00  0.00     0.135 C 
HETATM    2  C5  UNL     1     -31.132  13.540  17.345  1.00  0.00     0.054 C 
HETATM    3  C6  UNL     1     -31.767  14.659  16.824  1.00  0.00     0.054 C 
HETATM    4  C7  UNL     1     -32.381  14.821  15.602  1.00  0.00     0.135 C 
HETATM    5  N5  UNL     1     -32.485  13.909  14.619  1.00  0.00    -0.175 N 
ATOM      6  H5  UNL     1     -32.753  14.291  13.712  1.00  0.00     0.186 HD
HETATM    7  C9  UNL     1     -32.294  12.580  14.631  1.00  0.00     0.688 C 
HETATM    8  N11 UNL     1     -31.704  11.875  15.613  1.00  0.00    -0.175 N 
ATOM      9  H11 UNL     1     -31.725  10.862  15.494  1.00  0.00     0.186 HD
ENDROOT
BRANCH   7  10
HETATM   10  N6  UNL     1     -32.710  11.892  13.611  1.00  0.00    -0.153 N 
HETATM   11  C10 UNL     1     -32.186  12.043  12.321  1.00  0.00     0.306 C 
HETATM   12  O2  UNL     1     -32.402  13.072  11.635  1.00  0.00    -0.263 OA
ATOM     13  H6  UNL     1     -33.453  11.209  13.756  1.00  0.00     0.187 HD
BRANCH  11  14
HETATM   14  C11 UNL     1     -31.359  10.955  11.760  1.00  0.00     0.207 A 
HETATM   15  N7  UNL     1     -30.102  10.666  12.116  1.00  0.00    -0.264 N 
HETATM   16  N8  UNL     1     -29.723   9.632  11.387  1.00  0.00    -0.226 N 
ATOM     17  H7  UNL     1     -29.543  11.152  12.818  1.00  0.00     0.190 HD
HETATM   18  N9  UNL     1     -30.699   9.270  10.590  1.00  0.00    -0.226 N 
ATOM     19  H8  UNL     1     -28.808   9.183  11.436  1.00  0.00     0.210 HD
HETATM   20  N10 UNL     1     -31.715  10.076  10.809  1.00  0.00    -0.264 N 
ATOM     21  H9  UNL     1     -30.674   8.501   9.920  1.00  0.00     0.210 HD
ATOM     22  H10 UNL     1     -32.618  10.039  10.337  1.00  0.00     0.190 HD
ENDBRANCH  11  14
ENDBRANCH   7  10
BRANCH   4  23
HETATM   23  N3  UNL     1     -32.910  15.973  15.381  1.00  0.00    -0.288 N 
ATOM     24  H3  UNL     1     -32.327  16.754  15.081  1.00  0.00     0.188 HD
BRANCH  23  25
HETATM   25  N4  UNL     1     -34.282  16.150  15.551  1.00  0.00    -0.312 N 
ATOM     26  H4  UNL     1     -34.918  15.846  14.815  1.00  0.00     0.182 HD
BRANCH  25  27
HETATM   27  C8  UNL     1     -34.829  16.762  16.759  1.00  0.00     0.304 C 
BRANCH  27  28
HETATM   28  O1  UNL     1     -34.176  17.945  17.058  1.00  0.00    -0.381 OA
ATOM     29  H1  UNL     1     -34.553  18.359  17.825  1.00  0.00     0.211 HD
ENDBRANCH  27  28
ENDBRANCH  25  27
ENDBRANCH  23  25
ENDBRANCH   4  23
BRANCH   1  30
HETATM   30  N2  UNL     1     -30.358  11.446  17.302  1.00  0.00    -0.285 N 
ATOM     31  H2  UNL     1     -30.508  11.283  18.298  1.00  0.00     0.188 HD
BRANCH  30  32
HETATM   32  N1  UNL     1     -29.361  10.704  16.666  1.00  0.00    -0.308 N 
HETATM   33  C2  UNL     1     -28.288  10.455  17.295  1.00  0.00    -0.004 C 
HETATM   34  C1  UNL     1     -28.095  10.938  18.668  1.00  0.00     0.064 C 
HETATM   35  C3  UNL     1     -27.223   9.674  16.644  1.00  0.00     0.064 C 
ATOM     36  H1  UNL     1     -29.494  10.368  15.713  1.00  0.00     0.186 HD
ENDBRANCH  30  32
ENDBRANCH   1  30
TORSDOF 8
ENDMDL
MODEL 3
REMARK VINA RESULT: -8.840251236      1.085      1.093
REMARK  8 active torsions:
REMARK  status: ('A' for Active; 'I' for Inactive)
REMARK    1  A    between atoms: N1_4  and  N2_6 
REMARK    2  A    between atoms: N2_6  and  C4_8 
REMARK    3  A    between atoms: C7_11  and  N3_12 
REMARK    4  A    between atoms: N3_12  and  N4_14 
REMARK    5  A    between atoms: N4_14  and  C8_16 
REMARK    6  A    between atoms: C8_16  and  O1_17 
REMARK    7  A    between atoms: C9_21  and  N6_22 
REMARK       I    between atoms: N6_22  and  C10_24 
REMARK    8  A    between atoms: C10_24  and  C11_26 
ROOT
HETATM    1  C4  UNL     1     -32.054  14.854  15.852  1.00  0.00     0.135 C 
HETATM    2  C5  UNL     1     -31.319  14.630  16.997  1.00  0.00     0.054 C 
HETATM    3  C6  UNL     1     -30.796  13.399  17.367  1.00  0.00     0.054 C 
HETATM    4  C7  UNL     1     -30.959  12.170  16.769  1.00  0.00     0.135 C 
HETATM    5  N5  UNL     1     -31.693  11.889  15.678  1.00  0.00    -0.175 N 
ATOM      6  H5  UNL     1     -31.883  10.897  15.538  1.00  0.00     0.186 HD
HETATM    7  C9  UNL     1     -32.217  12.696  14.742  1.00  0.00     0.688 C 
HETATM    8  N11 UNL     1     -32.328  14.034  14.823  1.00  0.00    -0.175 N 
ATOM      9  H11 UNL     1     -32.671  14.494  13.980  1.00  0.00     0.186 HD
ENDROOT
BRANCH   7  10
HETATM   10  N6  UNL     1     -32.666  12.156  13.649  1.00  0.00    -0.153 N 
HETATM   11  C10 UNL     1     -32.032  12.296  12.409  1.00  0.00     0.306 C 
HETATM   12  O2  UNL     1     -32.022  13.388  11.790  1.00  0.00    -0.263 OA
ATOM     13  H6  UNL     1     -33.522  11.603  13.697  1.00  0.00     0.187 HD
BRANCH  11  14
HETATM   14  C11 UNL     1     -31.361  11.119  11.819  1.00  0.00     0.207 A 
HETATM   15  N7  UNL     1     -30.193  10.604  12.221  1.00  0.00    -0.264 N 
HETATM   16  N8  UNL     1     -29.942   9.565  11.443  1.00  0.00    -0.226 N 
ATOM     17  H7  UNL     1     -29.608  10.947  12.983  1.00  0.00     0.190 HD
HETATM   18  N9  UNL     1     -30.912   9.419  10.573  1.00  0.00    -0.226 N 
ATOM     19  H8  UNL     1     -29.119   8.968  11.510  1.00  0.00     0.210 HD
HETATM   20  N10 UNL     1     -31.794  10.369  10.793  1.00  0.00    -0.264 N 
ATOM     21  H9  UNL     1     -30.971   8.698   9.854  1.00  0.00     0.210 HD
ATOM     22  H10 UNL     1     -32.660  10.512  10.272  1.00  0.00     0.190 HD
ENDBRANCH  11  14
ENDBRANCH   7  10
BRANCH   4  23
HETATM   23  N3  UNL     1     -30.339  11.184  17.319  1.00  0.00    -0.288 N 
ATOM     24  H3  UNL     1     -30.466  10.238  16.961  1.00  0.00     0.188 HD
BRANCH  23  25
HETATM   25  N4  UNL     1     -29.495  11.413  18.403  1.00  0.00    -0.312 N 
ATOM     26  H4  UNL     1     -29.851  11.923  19.211  1.00  0.00     0.182 HD
BRANCH  25  27
HETATM   27  C8  UNL     1     -28.114  10.940  18.410  1.00  0.00     0.304 C 
BRANCH  27  28
HETATM   28  O1  UNL     1     -27.976   9.817  19.206  1.00  0.00    -0.381 OA
ATOM     29  H1  UNL     1     -28.792   9.606  19.644  1.00  0.00     0.211 HD
ENDBRANCH  27  28
ENDBRANCH  25  27
ENDBRANCH  23  25
ENDBRANCH   4  23
BRANCH   1  30
HETATM   30  N2  UNL     1     -32.549  16.018  15.752  1.00  0.00    -0.285 N 
ATOM     31  H2  UNL     1     -32.593  16.437  14.823  1.00  0.00     0.188 HD
BRANCH  30  32
HETATM   32  N1  UNL     1     -33.038  16.765  16.825  1.00  0.00    -0.308 N 
HETATM   33  C2  UNL     1     -34.282  16.746  17.069  1.00  0.00    -0.004 C 
HETATM   34  C1  UNL     1     -35.196  15.952  16.236  1.00  0.00     0.064 C 
HETATM   35  C3  UNL     1     -34.820  17.526  18.195  1.00  0.00     0.064 C 
ATOM     36  H1  UNL     1     -32.405  17.317  17.403  1.00  0.00     0.186 HD
ENDBRANCH  30  32
ENDBRANCH   1  30
TORSDOF 8
ENDMDL
MODEL 4
REMARK VINA RESULT: -8.796531910      1.940      5.332
REMARK  8 active torsions:
REMARK  status: ('A' for Active; 'I' for Inactive)
REMARK    1  A    between atoms: N1_4  and  N2_6 
REMARK    2  A    between atoms: N2_6  and  C4_8 
REMARK    3  A    between atoms: C7_11  and  N3_12 
REMARK    4  A    between atoms: N3_12  and  N4_14 
REMARK    5  A    between atoms: N4_14  and  C8_16 
REMARK    6  A    between atoms: C8_16  and  O1_17 
REMARK    7  A    between atoms: C9_21  and  N6_22 
REMARK       I    between atoms: N6_22  and  C10_24 
REMARK    8  A    between atoms: C10_24  and  C11_26 
ROOT
HETATM    1  C4  UNL     1     -30.508  11.463  16.852  1.00  0.00     0.135 C 
HETATM    2  C5  UNL     1     -30.836  12.642  17.486  1.00  0.00     0.054 C 
HETATM    3  C6  UNL     1     -31.660  13.620  16.949  1.00  0.00     0.054 C 
HETATM    4  C7  UNL     1     -32.229  13.687  15.696  1.00  0.00     0.135 C 
HETATM    5  N5  UNL     1     -32.090  12.801  14.694  1.00  0.00    -0.175 N 
ATOM      6  H5  UNL     1     -32.384  13.145  13.780  1.00  0.00     0.186 HD
HETATM    7  C9  UNL     1     -31.630  11.540  14.694  1.00  0.00     0.688 C 
HETATM    8  N11 UNL     1     -30.959  10.944  15.696  1.00  0.00    -0.175 N 
ATOM      9  H11 UNL     1     -30.763   9.953  15.559  1.00  0.00     0.186 HD
ENDROOT
BRANCH   7  10
HETATM   10  N6  UNL     1     -31.839  10.811  13.640  1.00  0.00    -0.153 N 
HETATM   11  C10 UNL     1     -31.953  11.343  12.350  1.00  0.00     0.306 C 
HETATM   12  O2  UNL     1     -32.948  12.023  12.000  1.00  0.00    -0.263 OA
ATOM     13  H6  UNL     1     -31.925   9.802  13.758  1.00  0.00     0.187 HD
BRANCH  11  14
HETATM   14  C11 UNL     1     -30.867  11.092  11.381  1.00  0.00     0.207 A 
HETATM   15  N7  UNL     1     -30.253  12.020  10.638  1.00  0.00    -0.264 N 
HETATM   16  N8  UNL     1     -29.348  11.392   9.908  1.00  0.00    -0.226 N 
ATOM     17  H7  UNL     1     -30.447  13.022  10.635  1.00  0.00     0.190 HD
HETATM   18  N9  UNL     1     -29.379  10.108  10.171  1.00  0.00    -0.226 N 
ATOM     19  H8  UNL     1     -28.719  11.839   9.241  1.00  0.00     0.210 HD
HETATM   20  N10 UNL     1     -30.310   9.908  11.078  1.00  0.00    -0.264 N 
ATOM     21  H9  UNL     1     -28.788   9.393   9.748  1.00  0.00     0.210 HD
ATOM     22  H10 UNL     1     -30.566   9.006  11.482  1.00  0.00     0.190 HD
ENDBRANCH  11  14
ENDBRANCH   7  10
BRANCH   4  23
HETATM   23  N3  UNL     1     -32.974  14.711  15.465  1.00  0.00    -0.288 N 
ATOM     24  H3  UNL     1     -32.597  15.513  14.960  1.00  0.00     0.188 HD
BRANCH  23  25
HETATM   25  N4  UNL     1     -34.296  14.721  15.904  1.00  0.00    -0.312 N 
ATOM     26  H4  UNL     1     -34.805  13.840  15.971  1.00  0.00     0.182 HD
BRANCH  25  27
HETATM   27  C8  UNL     1     -34.970  15.963  16.272  1.00  0.00     0.304 C 
BRANCH  27  28
HETATM   28  O1  UNL     1     -34.634  16.987  15.404  1.00  0.00    -0.381 OA
ATOM     29  H1  UNL     1     -35.302  17.663  15.398  1.00  0.00     0.211 HD
ENDBRANCH  27  28
ENDBRANCH  25  27
ENDBRANCH  23  25
ENDBRANCH   4  23
BRANCH   1  30
HETATM   30  N2  UNL     1     -29.643  10.754  17.452  1.00  0.00    -0.285 N 
ATOM     31  H2  UNL     1     -29.785   9.744  17.467  1.00  0.00     0.188 HD
BRANCH  30  32
HETATM   32  N1  UNL     1     -28.512  11.260  18.094  1.00  0.00    -0.308 N 
HETATM   33  C2  UNL     1     -27.376  10.773  17.809  1.00  0.00    -0.004 C 
HETATM   34  C1  UNL     1     -27.251   9.693  16.820  1.00  0.00     0.064 C 
HETATM   35  C3  UNL     1     -26.169  11.291  18.473  1.00  0.00     0.064 C 
ATOM     36  H1  UNL     1     -28.597  12.009  18.781  1.00  0.00     0.186 HD
ENDBRANCH  30  32
ENDBRANCH   1  30
TORSDOF 8
ENDMDL
MODEL 5
REMARK VINA RESULT: -8.723179856      1.921      2.148
REMARK  8 active torsions:
REMARK  status: ('A' for Active; 'I' for Inactive)
REMARK    1  A    between atoms: N1_4  and  N2_6 
REMARK    2  A    between atoms: N2_6  and  C4_8 
REMARK    3  A    between atoms: C7_11  and  N3_12 
REMARK    4  A    between atoms: N3_12  and  N4_14 
REMARK    5  A    between atoms: N4_14  and  C8_16 
REMARK    6  A    between atoms: C8_16  and  O1_17 
REMARK    7  A    between atoms: C9_21  and  N6_22 
REMARK       I    between atoms: N6_22  and  C10_24 
REMARK    8  A    between atoms: C10_24  and  C11_26 
ROOT
HETATM    1  C4  UNL     1     -31.796  13.324  16.556  1.00  0.00     0.135 C 
HETATM    2  C5  UNL     1     -30.896  13.546  17.576  1.00  0.00     0.054 C 
HETATM    3  C6  UNL     1     -29.784  12.755  17.830  1.00  0.00     0.054 C 
HETATM    4  C7  UNL     1     -29.396  11.581  17.224  1.00  0.00     0.135 C 
HETATM    5  N5  UNL     1     -30.037  10.924  16.242  1.00  0.00    -0.175 N 
ATOM      6  H5  UNL     1     -29.726   9.963  16.100  1.00  0.00     0.186 HD
HETATM    7  C9  UNL     1     -31.018  11.320  15.415  1.00  0.00     0.688 C 
HETATM    8  N11 UNL     1     -31.767  12.429  15.553  1.00  0.00    -0.175 N 
ATOM      9  H11 UNL     1     -32.408  12.620  14.782  1.00  0.00     0.186 HD
ENDROOT
BRANCH   7  10
HETATM   10  N6  UNL     1     -31.287  10.580  14.383  1.00  0.00    -0.153 N 
HETATM   11  C10 UNL     1     -31.752  11.098  13.168  1.00  0.00     0.306 C 
HETATM   12  O2  UNL     1     -32.909  11.572  13.051  1.00  0.00    -0.263 OA
ATOM     13  H6  UNL     1     -31.153   9.572  14.461  1.00  0.00     0.187 HD
BRANCH  11  14
HETATM   14  C11 UNL     1     -30.850  11.081  11.998  1.00  0.00     0.207 A 
HETATM   15  N7  UNL     1     -30.548  12.135  11.231  1.00  0.00    -0.264 N 
HETATM   16  N8  UNL     1     -29.715  11.706  10.299  1.00  0.00    -0.226 N 
ATOM     17  H7  UNL     1     -30.894  13.088  11.344  1.00  0.00     0.190 HD
HETATM   18  N9  UNL     1     -29.492  10.424  10.460  1.00  0.00    -0.226 N 
ATOM     19  H8  UNL     1     -29.307  12.285   9.565  1.00  0.00     0.210 HD
HETATM   20  N10 UNL     1     -30.184  10.025  11.505  1.00  0.00    -0.264 N 
ATOM     21  H9  UNL     1     -28.889   9.841   9.880  1.00  0.00     0.210 HD
ATOM     22  H10 UNL     1     -30.211   9.075  11.876  1.00  0.00     0.190 HD
ENDBRANCH  11  14
ENDBRANCH   7  10
BRANCH   4  23
HETATM   23  N3  UNL     1     -28.298  11.059  17.648  1.00  0.00    -0.288 N 
ATOM     24  H3  UNL     1     -27.442  11.156  17.103  1.00  0.00     0.188 HD
BRANCH  23  25
HETATM   25  N4  UNL     1     -28.282  10.361  18.854  1.00  0.00    -0.312 N 
ATOM     26  H4  UNL     1     -28.974  10.586  19.568  1.00  0.00     0.182 HD
BRANCH  25  27
HETATM   27  C8  UNL     1     -27.298   9.315  19.119  1.00  0.00     0.304 C 
BRANCH  27  28
HETATM   28  O1  UNL     1     -27.759   8.430  20.077  1.00  0.00    -0.381 OA
ATOM     29  H1  UNL     1     -28.665   8.192  19.915  1.00  0.00     0.211 HD
ENDBRANCH  27  28
ENDBRANCH  25  27
ENDBRANCH  23  25
ENDBRANCH   4  23
BRANCH   1  30
HETATM   30  N2  UNL     1     -32.813  14.083  16.564  1.00  0.00    -0.285 N 
ATOM     31  H2  UNL     1     -33.601  13.827  15.969  1.00  0.00     0.188 HD
BRANCH  30  32
HETATM   32  N1  UNL     1     -32.929  15.243  17.330  1.00  0.00    -0.308 N 
HETATM   33  C2  UNL     1     -33.919  16.011  17.133  1.00  0.00    -0.004 C 
HETATM   34  C1  UNL     1     -34.928  15.687  16.116  1.00  0.00     0.064 C 
HETATM   35  C3  UNL     1     -34.061  17.241  17.930  1.00  0.00     0.064 C 
ATOM     36  H1  UNL     1     -32.229  15.470  18.036  1.00  0.00     0.186 HD
ENDBRANCH  30  32
ENDBRANCH   1  30
TORSDOF 8
ENDMDL
