MODEL 1
REMARK VINA RESULT: -4.434259306      0.000      0.000
REMARK  5 active torsions:
REMARK  status: ('A' for Active; 'I' for Inactive)
REMARK    1  A    between atoms: N1_2  and  C2_3 
REMARK    2  A    between atoms: N2_4  and  O1_6 
REMARK    3  A    between atoms: C4_10  and  C5_11 
REMARK    4  A    between atoms: C5_11  and  C6_12 
REMARK    5  A    between atoms: C6_12  and  O2_13 
ROOT
HETATM    1  C1  UNL     1      13.056   7.141  -0.205  1.00  0.00     0.281 C 
HETATM    2  N1  UNL     1      12.449   5.995   0.459  1.00  0.00    -0.026 N 
HETATM    3  C3  UNL     1      12.905   4.762  -0.059  1.00  0.00     0.318 C 
HETATM    4  S1  UNL     1      11.575   4.267  -1.224  1.00  0.00    -0.134 SA
HETATM    5  C4  UNL     1      10.363   5.516  -0.651  1.00  0.00     0.077 C 
HETATM    6  C7  UNL     1      11.060   6.135   0.468  1.00  0.00     0.260 C 
ENDROOT
BRANCH   2   7
HETATM    7  C2  UNL     1      12.901   6.066   1.830  1.00  0.00     0.316 C 
HETATM    8  N2  UNL     1      14.159   5.971   2.075  1.00  0.00    -0.258 N 
ATOM      9  H2  UNL     1      14.455   6.024   3.050  1.00  0.00     0.194 HD
BRANCH   8  10
HETATM   10  O1  UNL     1      15.131   5.803   1.127  1.00  0.00    -0.289 OA
ATOM     11  H1  UNL     1      16.012   5.493   1.301  1.00  0.00     0.244 HD
ENDBRANCH   8  10
ENDBRANCH   2   7
BRANCH   5  12
HETATM   12  C5  UNL     1       9.988   6.372  -1.802  1.00  0.00     0.043 C 
BRANCH  12  13
HETATM   13  C6  UNL     1       8.494   6.698  -1.662  1.00  0.00     0.165 C 
BRANCH  13  14
HETATM   14  O2  UNL     1       7.819   6.278  -2.824  1.00  0.00    -0.401 OA
ATOM     15  H2  UNL     1       6.933   6.024  -2.595  1.00  0.00     0.209 HD
ENDBRANCH  13  14
ENDBRANCH  12  13
ENDBRANCH   5  12
TORSDOF 5
ENDMDL
MODEL 2
REMARK VINA RESULT: -4.057621860      6.274      8.176
REMARK  5 active torsions:
REMARK  status: ('A' for Active; 'I' for Inactive)
REMARK    1  A    between atoms: N1_2  and  C2_3 
REMARK    2  A    between atoms: N2_4  and  O1_6 
REMARK    3  A    between atoms: C4_10  and  C5_11 
REMARK    4  A    between atoms: C5_11  and  C6_12 
REMARK    5  A    between atoms: C6_12  and  O2_13 
ROOT
HETATM    1  C1  UNL     1       5.881  10.234  -1.084  1.00  0.00     0.281 C 
HETATM    2  N1  UNL     1       5.901  10.514  -2.514  1.00  0.00    -0.026 N 
HETATM    3  C3  UNL     1       4.723  10.088  -3.167  1.00  0.00     0.318 C 
HETATM    4  S1  UNL     1       5.198   8.472  -3.898  1.00  0.00    -0.134 SA
HETATM    5  C4  UNL     1       6.997   8.671  -3.614  1.00  0.00     0.077 C 
HETATM    6  C7  UNL     1       7.079  10.021  -3.075  1.00  0.00     0.260 C 
ENDROOT
BRANCH   2   7
HETATM    7  C2  UNL     1       5.939  11.955  -2.619  1.00  0.00     0.316 C 
HETATM    8  N2  UNL     1       5.870  12.495  -3.783  1.00  0.00    -0.258 N 
ATOM      9  H2  UNL     1       5.898  13.514  -3.833  1.00  0.00     0.194 HD
BRANCH   8  10
HETATM   10  O1  UNL     1       5.761  11.807  -4.961  1.00  0.00    -0.289 OA
ATOM     11  H1  UNL     1       5.969  10.887  -5.074  1.00  0.00     0.244 HD
ENDBRANCH   8  10
ENDBRANCH   2   7
BRANCH   5  12
HETATM   12  C5  UNL     1       7.468   7.549  -2.765  1.00  0.00     0.043 C 
BRANCH  12  13
HETATM   13  C6  UNL     1       8.781   7.035  -3.373  1.00  0.00     0.165 C 
BRANCH  13  14
HETATM   14  O2  UNL     1       8.486   6.144  -4.422  1.00  0.00    -0.401 OA
ATOM     15  H2  UNL     1       9.132   6.248  -5.110  1.00  0.00     0.209 HD
ENDBRANCH  13  14
ENDBRANCH  12  13
ENDBRANCH   5  12
TORSDOF 5
ENDMDL
MODEL 3
REMARK VINA RESULT: -4.007837950      6.367      8.131
REMARK  5 active torsions:
REMARK  status: ('A' for Active; 'I' for Inactive)
REMARK    1  A    between atoms: N1_2  and  C2_3 
REMARK    2  A    between atoms: N2_4  and  O1_6 
REMARK    3  A    between atoms: C4_10  and  C5_11 
REMARK    4  A    between atoms: C5_11  and  C6_12 
REMARK    5  A    between atoms: C6_12  and  O2_13 
ROOT
HETATM    1  C1  UNL     1       4.534   8.477  -4.341  1.00  0.00     0.281 C 
HETATM    2  N1  UNL     1       4.779   8.731  -2.927  1.00  0.00    -0.026 N 
HETATM    3  C3  UNL     1       4.918  10.107  -2.639  1.00  0.00     0.318 C 
HETATM    4  S1  UNL     1       6.737  10.351  -2.574  1.00  0.00    -0.134 SA
HETATM    5  C4  UNL     1       7.155   8.567  -2.548  1.00  0.00     0.077 C 
HETATM    6  C7  UNL     1       5.841   7.942  -2.484  1.00  0.00     0.260 C 
ENDROOT
BRANCH   2   7
HETATM    7  C2  UNL     1       3.588   8.279  -2.247  1.00  0.00     0.316 C 
HETATM    8  N2  UNL     1       3.322   7.021  -2.228  1.00  0.00    -0.258 N 
ATOM      9  H2  UNL     1       2.476   6.725  -1.741  1.00  0.00     0.194 HD
BRANCH   8  10
HETATM   10  O1  UNL     1       4.089   6.050  -2.813  1.00  0.00    -0.289 OA
ATOM     11  H1  UNL     1       4.118   5.869  -3.745  1.00  0.00     0.244 HD
ENDBRANCH   8  10
ENDBRANCH   2   7
BRANCH   5  12
HETATM   12  C5  UNL     1       8.015   8.267  -3.719  1.00  0.00     0.043 C 
BRANCH  12  13
HETATM   13  C6  UNL     1       8.768   6.965  -3.410  1.00  0.00     0.165 C 
BRANCH  13  14
HETATM   14  O2  UNL     1       8.550   6.048  -4.456  1.00  0.00    -0.401 OA
ATOM     15  H2  UNL     1       7.821   5.482  -4.227  1.00  0.00     0.209 HD
ENDBRANCH  13  14
ENDBRANCH  12  13
ENDBRANCH   5  12
TORSDOF 5
ENDMDL
MODEL 4
REMARK VINA RESULT: -3.985374105      5.276      6.907
REMARK  5 active torsions:
REMARK  status: ('A' for Active; 'I' for Inactive)
REMARK    1  A    between atoms: N1_2  and  C2_3 
REMARK    2  A    between atoms: N2_4  and  O1_6 
REMARK    3  A    between atoms: C4_10  and  C5_11 
REMARK    4  A    between atoms: C5_11  and  C6_12 
REMARK    5  A    between atoms: C6_12  and  O2_13 
ROOT
HETATM    1  C1  UNL     1       6.633   9.535  -2.082  1.00  0.00     0.281 C 
HETATM    2  N1  UNL     1       6.126   8.387  -1.342  1.00  0.00    -0.026 N 
HETATM    3  C3  UNL     1       6.472   8.426   0.027  1.00  0.00     0.318 C 
HETATM    4  S1  UNL     1       7.936   7.323   0.131  1.00  0.00    -0.134 SA
HETATM    5  C4  UNL     1       7.738   6.606  -1.543  1.00  0.00     0.077 C 
HETATM    6  C7  UNL     1       6.491   7.208  -1.993  1.00  0.00     0.260 C 
ENDROOT
BRANCH   2   7
HETATM    7  C2  UNL     1       4.687   8.494  -1.413  1.00  0.00     0.316 C 
HETATM    8  N2  UNL     1       4.099   8.248  -2.529  1.00  0.00    -0.258 N 
ATOM      9  H2  UNL     1       3.082   8.330  -2.555  1.00  0.00     0.194 HD
BRANCH   8  10
HETATM   10  O1  UNL     1       4.734   7.885  -3.686  1.00  0.00    -0.289 OA
ATOM     11  H1  UNL     1       5.159   7.048  -3.833  1.00  0.00     0.244 HD
ENDBRANCH   8  10
ENDBRANCH   2   7
BRANCH   5  12
HETATM   12  C5  UNL     1       8.969   6.882  -2.324  1.00  0.00     0.043 C 
BRANCH  12  13
HETATM   13  C6  UNL     1       8.546   7.100  -3.783  1.00  0.00     0.165 C 
BRANCH  13  14
HETATM   14  O2  UNL     1       8.611   5.873  -4.471  1.00  0.00    -0.401 OA
ATOM     15  H2  UNL     1       9.519   5.604  -4.543  1.00  0.00     0.209 HD
ENDBRANCH  13  14
ENDBRANCH  12  13
ENDBRANCH   5  12
TORSDOF 5
ENDMDL
MODEL 5
REMARK VINA RESULT: -3.961387288      4.275      5.931
REMARK  5 active torsions:
REMARK  status: ('A' for Active; 'I' for Inactive)
REMARK    1  A    between atoms: N1_2  and  C2_3 
REMARK    2  A    between atoms: N2_4  and  O1_6 
REMARK    3  A    between atoms: C4_10  and  C5_11 
REMARK    4  A    between atoms: C5_11  and  C6_12 
REMARK    5  A    between atoms: C6_12  and  O2_13 
ROOT
HETATM    1  C1  UNL     1      14.061   3.458  -4.109  1.00  0.00     0.281 C 
HETATM    2  N1  UNL     1      13.541   2.436  -3.210  1.00  0.00    -0.026 N 
HETATM    3  C3  UNL     1      12.144   2.536  -3.025  1.00  0.00     0.318 C 
HETATM    4  S1  UNL     1      11.984   3.431  -1.430  1.00  0.00    -0.134 SA
HETATM    5  C4  UNL     1      13.745   3.260  -0.954  1.00  0.00     0.077 C 
HETATM    6  C7  UNL     1      14.277   2.430  -2.025  1.00  0.00     0.260 C 
ENDROOT
BRANCH   2   7
HETATM    7  C2  UNL     1      13.786   1.180  -3.880  1.00  0.00     0.316 C 
HETATM    8  N2  UNL     1      14.769   1.096  -4.704  1.00  0.00    -0.258 N 
ATOM      9  H2  UNL     1      14.924   0.199  -5.165  1.00  0.00     0.194 HD
BRANCH   8  10
HETATM   10  O1  UNL     1      15.625   2.120  -5.009  1.00  0.00    -0.289 OA
ATOM     11  H1  UNL     1      16.521   2.190  -4.701  1.00  0.00     0.244 HD
ENDBRANCH   8  10
ENDBRANCH   2   7
BRANCH   5  12
HETATM   12  C5  UNL     1      14.317   4.617  -0.770  1.00  0.00     0.043 C 
BRANCH  12  13
HETATM   13  C6  UNL     1      13.741   5.183   0.536  1.00  0.00     0.165 C 
BRANCH  13  14
HETATM   14  O2  UNL     1      14.797   5.650   1.342  1.00  0.00    -0.401 OA
ATOM     15  H2  UNL     1      14.440   6.166   2.055  1.00  0.00     0.209 HD
ENDBRANCH  13  14
ENDBRANCH  12  13
ENDBRANCH   5  12
TORSDOF 5
ENDMDL
