MODEL 1
REMARK VINA RESULT: -6.306408492      0.000      0.000
REMARK  3 active torsions:
REMARK  status: ('A' for Active; 'I' for Inactive)
REMARK    1  A    between atoms: C2_2  and  C3_3 
REMARK    2  A    between atoms: C3_3  and  C4_4 
REMARK    3  A    between atoms: C4_4  and  C6_7 
ROOT
HETATM    1  C4  UNL     1      13.339   4.621  -0.271  1.00  0.00     0.151 C 
HETATM    2  C5  UNL     1      12.325   5.609  -0.559  1.00  0.00     0.070 C 
HETATM    3  N1  UNL     1      11.502   6.391  -0.773  1.00  0.00    -0.197 NA
ENDROOT
BRANCH   1   4
HETATM    4  C3  UNL     1      14.609   5.320   0.226  1.00  0.00     0.052 C 
BRANCH   4   5
HETATM    5  C2  UNL     1      14.313   6.418   1.149  1.00  0.00    -0.035 C 
HETATM    6  C1  UNL     1      13.790   6.166   2.330  1.00  0.00     0.007 C 
ENDBRANCH   4   5
ENDBRANCH   1   4
BRANCH   1   7
HETATM    7  C6  UNL     1      13.558   3.620  -1.288  1.00  0.00     0.093 C 
HETATM    8  N2  UNL     1      14.817   3.253  -1.441  1.00  0.00    -0.266 N 
HETATM    9  O1  UNL     1      15.359   2.320  -2.328  1.00  0.00    -0.279 OA
ATOM     10  H2  UNL     1      15.487   3.715  -0.827  1.00  0.00     0.194 HD
HETATM   11  C7  UNL     1      14.972   2.128  -3.679  1.00  0.00     0.220 C 
HETATM   12  C8  UNL     1      13.609   1.535  -3.816  1.00  0.00     0.150 C 
HETATM   13  N3  UNL     1      12.543   2.383  -3.352  1.00  0.00    -0.373 N 
HETATM   14  C9  UNL     1      12.477   3.064  -2.077  1.00  0.00     0.121 C 
ATOM     15  H3  UNL     1      11.755   2.518  -3.985  1.00  0.00     0.161 HD
HETATM   16  N4  UNL     1      11.342   3.190  -1.586  1.00  0.00    -0.384 N 
ATOM     17  H42 UNL     1      11.295   3.669  -0.687  1.00  0.00     0.157 HD
ATOM     18  H41 UNL     1      10.581   2.798  -2.141  1.00  0.00     0.157 HD
ENDBRANCH   1   7
TORSDOF 3
ENDMDL
MODEL 2
REMARK VINA RESULT: -6.039423854      2.618      3.683
REMARK  3 active torsions:
REMARK  status: ('A' for Active; 'I' for Inactive)
REMARK    1  A    between atoms: C2_2  and  C3_3 
REMARK    2  A    between atoms: C3_3  and  C4_4 
REMARK    3  A    between atoms: C4_4  and  C6_7 
ROOT
HETATM    1  C4  UNL     1      10.432   5.598  -0.407  1.00  0.00     0.151 C 
HETATM    2  C5  UNL     1      10.086   6.260  -1.644  1.00  0.00     0.070 C 
HETATM    3  N1  UNL     1       9.796   6.773  -2.638  1.00  0.00    -0.197 NA
ENDROOT
BRANCH   1   4
HETATM    4  C3  UNL     1      10.059   6.497   0.776  1.00  0.00     0.052 C 
BRANCH   4   5
HETATM    5  C2  UNL     1       8.672   6.302   1.206  1.00  0.00    -0.035 C 
HETATM    6  C1  UNL     1       8.413   5.814   2.400  1.00  0.00     0.007 C 
ENDBRANCH   4   5
ENDBRANCH   1   4
BRANCH   1   7
HETATM    7  C6  UNL     1      11.757   5.029  -0.340  1.00  0.00     0.093 C 
HETATM    8  N2  UNL     1      12.583   5.646   0.486  1.00  0.00    -0.266 N 
HETATM    9  O1  UNL     1      13.917   5.351   0.777  1.00  0.00    -0.279 OA
ATOM     10  H2  UNL     1      12.193   6.448   0.979  1.00  0.00     0.194 HD
HETATM   11  C7  UNL     1      14.904   4.935  -0.153  1.00  0.00     0.220 C 
HETATM   12  C8  UNL     1      14.666   3.557  -0.676  1.00  0.00     0.150 C 
HETATM   13  N3  UNL     1      13.475   3.422  -1.473  1.00  0.00    -0.373 N 
HETATM   14  C9  UNL     1      12.146   3.870  -1.119  1.00  0.00     0.121 C 
ATOM     15  H3  UNL     1      13.578   2.963  -2.378  1.00  0.00     0.161 HD
HETATM   16  N4  UNL     1      11.207   3.170  -1.534  1.00  0.00    -0.384 N 
ATOM     17  H42 UNL     1      10.270   3.486  -1.285  1.00  0.00     0.157 HD
ATOM     18  H41 UNL     1      11.480   2.355  -2.083  1.00  0.00     0.157 HD
ENDBRANCH   1   7
TORSDOF 3
ENDMDL
MODEL 3
REMARK VINA RESULT: -5.985290292      3.742      5.717
REMARK  3 active torsions:
REMARK  status: ('A' for Active; 'I' for Inactive)
REMARK    1  A    between atoms: C2_2  and  C3_3 
REMARK    2  A    between atoms: C3_3  and  C4_4 
REMARK    3  A    between atoms: C4_4  and  C6_7 
ROOT
HETATM    1  C4  UNL     1      10.853   5.585  -0.617  1.00  0.00     0.151 C 
HETATM    2  C5  UNL     1      11.998   6.432  -0.372  1.00  0.00     0.070 C 
HETATM    3  N1  UNL     1      12.908   7.109  -0.155  1.00  0.00    -0.197 NA
ENDROOT
BRANCH   1   4
HETATM    4  C3  UNL     1      11.318   4.260  -1.229  1.00  0.00     0.052 C 
BRANCH   4   5
HETATM    5  C2  UNL     1      12.691   3.923  -0.845  1.00  0.00    -0.035 C 
HETATM    6  C1  UNL     1      13.320   2.933  -1.441  1.00  0.00     0.007 C 
ENDBRANCH   4   5
ENDBRANCH   1   4
BRANCH   1   7
HETATM    7  C6  UNL     1       9.737   6.205  -1.291  1.00  0.00     0.093 C 
HETATM    8  N2  UNL     1       9.825   6.218  -2.609  1.00  0.00    -0.266 N 
HETATM    9  O1  UNL     1       8.926   6.736  -3.544  1.00  0.00    -0.279 OA
ATOM     10  H2  UNL     1      10.666   5.792  -2.997  1.00  0.00     0.194 HD
HETATM   11  C7  UNL     1       8.195   7.946  -3.422  1.00  0.00     0.220 C 
HETATM   12  C8  UNL     1       7.137   7.883  -2.371  1.00  0.00     0.150 C 
HETATM   13  N3  UNL     1       7.638   7.736  -1.030  1.00  0.00    -0.373 N 
HETATM   14  C9  UNL     1       8.609   6.766  -0.574  1.00  0.00     0.121 C 
ATOM     15  H3  UNL     1       7.272   8.382  -0.331  1.00  0.00     0.161 HD
HETATM   16  N4  UNL     1       8.460   6.352   0.588  1.00  0.00    -0.384 N 
ATOM     17  H42 UNL     1       9.144   5.668   0.910  1.00  0.00     0.157 HD
ATOM     18  H41 UNL     1       7.667   6.747   1.093  1.00  0.00     0.157 HD
ENDBRANCH   1   7
TORSDOF 3
ENDMDL
MODEL 4
REMARK VINA RESULT: -5.965851354      1.813      5.022
REMARK  3 active torsions:
REMARK  status: ('A' for Active; 'I' for Inactive)
REMARK    1  A    between atoms: C2_2  and  C3_3 
REMARK    2  A    between atoms: C3_3  and  C4_4 
REMARK    3  A    between atoms: C4_4  and  C6_7 
ROOT
HETATM    1  C4  UNL     1      13.132   2.930  -1.570  1.00  0.00     0.151 C 
HETATM    2  C5  UNL     1      14.389   2.479  -2.123  1.00  0.00     0.070 C 
HETATM    3  N1  UNL     1      15.393   2.101  -2.551  1.00  0.00    -0.197 NA
ENDROOT
BRANCH   1   4
HETATM    4  C3  UNL     1      12.074   2.976  -2.677  1.00  0.00     0.052 C 
BRANCH   4   5
HETATM    5  C2  UNL     1      12.510   2.280  -3.891  1.00  0.00    -0.035 C 
HETATM    6  C1  UNL     1      11.682   2.138  -4.904  1.00  0.00     0.007 C 
ENDBRANCH   4   5
ENDBRANCH   1   4
BRANCH   1   7
HETATM    7  C6  UNL     1      13.190   4.109  -0.739  1.00  0.00     0.093 C 
HETATM    8  N2  UNL     1      14.398   4.421  -0.305  1.00  0.00    -0.266 N 
HETATM    9  O1  UNL     1      14.791   5.487   0.508  1.00  0.00    -0.279 OA
ATOM     10  H2  UNL     1      15.147   3.799  -0.606  1.00  0.00     0.194 HD
HETATM   11  C7  UNL     1      14.085   5.985   1.633  1.00  0.00     0.220 C 
HETATM   12  C8  UNL     1      12.815   6.676   1.263  1.00  0.00     0.150 C 
HETATM   13  N3  UNL     1      11.818   5.817   0.682  1.00  0.00    -0.373 N 
HETATM   14  C9  UNL     1      12.012   4.886  -0.408  1.00  0.00     0.121 C 
ATOM     15  H3  UNL     1      10.880   5.869   1.078  1.00  0.00     0.161 HD
HETATM   16  N4  UNL     1      11.042   4.729  -1.169  1.00  0.00    -0.384 N 
ATOM     17  H42 UNL     1      11.179   4.074  -1.938  1.00  0.00     0.157 HD
ATOM     18  H41 UNL     1      10.213   5.276  -0.937  1.00  0.00     0.157 HD
ENDBRANCH   1   7
TORSDOF 3
ENDMDL
MODEL 5
REMARK VINA RESULT: -5.954729884      2.989      4.603
REMARK  3 active torsions:
REMARK  status: ('A' for Active; 'I' for Inactive)
REMARK    1  A    between atoms: C2_2  and  C3_3 
REMARK    2  A    between atoms: C3_3  and  C4_4 
REMARK    3  A    between atoms: C4_4  and  C6_7 
ROOT
HETATM    1  C4  UNL     1      10.163   6.310  -0.165  1.00  0.00     0.151 C 
HETATM    2  C5  UNL     1       9.597   6.025   1.133  1.00  0.00     0.070 C 
HETATM    3  N1  UNL     1       9.152   5.816   2.178  1.00  0.00    -0.197 NA
ENDROOT
BRANCH   1   4
HETATM    4  C3  UNL     1       9.044   6.370  -1.210  1.00  0.00     0.052 C 
BRANCH   4   5
HETATM    5  C2  UNL     1       7.893   7.151  -0.747  1.00  0.00    -0.035 C 
HETATM    6  C1  UNL     1       6.759   7.115  -1.413  1.00  0.00     0.007 C 
ENDBRANCH   4   5
ENDBRANCH   1   4
BRANCH   1   7
HETATM    7  C6  UNL     1      11.307   5.517  -0.548  1.00  0.00     0.093 C 
HETATM    8  N2  UNL     1      11.015   4.402  -1.194  1.00  0.00    -0.266 N 
HETATM    9  O1  UNL     1      11.879   3.426  -1.696  1.00  0.00    -0.279 OA
ATOM     10  H2  UNL     1      10.022   4.231  -1.348  1.00  0.00     0.194 HD
HETATM   11  C7  UNL     1      13.051   2.939  -1.060  1.00  0.00     0.220 C 
HETATM   12  C8  UNL     1      14.148   3.950  -1.010  1.00  0.00     0.150 C 
HETATM   13  N3  UNL     1      13.860   5.101  -0.195  1.00  0.00    -0.373 N 
HETATM   14  C9  UNL     1      12.667   5.917  -0.247  1.00  0.00     0.121 C 
ATOM     15  H3  UNL     1      14.569   5.367   0.488  1.00  0.00     0.161 HD
HETATM   16  N4  UNL     1      12.823   7.125  -0.002  1.00  0.00    -0.384 N 
ATOM     17  H42 UNL     1      11.982   7.701  -0.039  1.00  0.00     0.157 HD
ATOM     18  H41 UNL     1      13.780   7.406   0.211  1.00  0.00     0.157 HD
ENDBRANCH   1   7
TORSDOF 3
ENDMDL
