MODEL 1
REMARK VINA RESULT: -5.513889992      0.000      0.000
REMARK  4 active torsions:
REMARK  status: ('A' for Active; 'I' for Inactive)
REMARK    1  A    between atoms: O1_1  and  C1_3 
REMARK    2  A    between atoms: C1_3  and  C2_4 
REMARK    3  A    between atoms: C5_10  and  C6_11 
REMARK    4  A    between atoms: C6_11  and  N2_12 
ROOT
HETATM    1  C2  UNL     1      12.576   6.545  -0.202  1.00  0.00     0.035 C 
HETATM    2  C3  UNL     1      14.050   6.752  -0.042  1.00  0.00     0.239 C 
HETATM    3  N1  UNL     1      14.734   5.665   0.591  1.00  0.00    -0.074 N 
ATOM      4  H11 UNL     1      14.378   5.500   1.532  1.00  0.00     0.277 HD
ATOM      5  H12 UNL     1      15.694   5.917   0.826  1.00  0.00     0.277 HD
HETATM    6  C4  UNL     1      14.684   4.449  -0.218  1.00  0.00     0.238 C 
HETATM    7  C5  UNL     1      13.428   4.352  -1.012  1.00  0.00     0.030 C 
HETATM    8  C10 UNL     1      12.318   5.047  -0.227  1.00  0.00     0.016 C 
ENDROOT
BRANCH   7   9
HETATM    9  C6  UNL     1      12.975   2.956  -1.279  1.00  0.00     0.135 C 
BRANCH   9  10
HETATM   10  N2  UNL     1      13.388   2.444  -2.557  1.00  0.00    -0.351 N 
HETATM   11  C7  UNL     1      14.576   1.854  -2.775  1.00  0.00     0.108 A 
HETATM   12  C8  UNL     1      14.588   1.507  -4.110  1.00  0.00     0.106 A 
HETATM   13  N3  UNL     1      13.411   1.896  -4.661  1.00  0.00    -0.361 N 
HETATM   14  C9  UNL     1      12.677   2.474  -3.693  1.00  0.00     0.182 A 
ATOM     15  H3  UNL     1      13.132   1.773  -5.634  1.00  0.00     0.166 HD
ENDBRANCH   9  10
ENDBRANCH   7   9
BRANCH   1  16
HETATM   16  C1  UNL     1      11.878   7.093   1.026  1.00  0.00     0.170 C 
BRANCH  16  17
HETATM   17  O1  UNL     1      12.071   6.202   2.097  1.00  0.00    -0.400 OA
ATOM     18  H1  UNL     1      11.363   6.312   2.721  1.00  0.00     0.209 HD
ENDBRANCH  16  17
ENDBRANCH   1  16
TORSDOF 4
ENDMDL
MODEL 2
REMARK VINA RESULT: -5.485255754      1.088      1.169
REMARK  4 active torsions:
REMARK  status: ('A' for Active; 'I' for Inactive)
REMARK    1  A    between atoms: O1_1  and  C1_3 
REMARK    2  A    between atoms: C1_3  and  C2_4 
REMARK    3  A    between atoms: C5_10  and  C6_11 
REMARK    4  A    between atoms: C6_11  and  N2_12 
ROOT
HETATM    1  C2  UNL     1      11.345   5.982  -0.852  1.00  0.00     0.035 C 
HETATM    2  C3  UNL     1      12.457   6.757  -0.218  1.00  0.00     0.239 C 
HETATM    3  N1  UNL     1      13.163   6.048   0.805  1.00  0.00    -0.074 N 
ATOM      4  H11 UNL     1      12.544   5.784   1.570  1.00  0.00     0.277 HD
ATOM      5  H12 UNL     1      13.795   6.664   1.317  1.00  0.00     0.277 HD
HETATM    6  C4  UNL     1      13.871   4.887   0.269  1.00  0.00     0.238 C 
HETATM    7  C5  UNL     1      13.159   4.279  -0.890  1.00  0.00     0.030 C 
HETATM    8  C10 UNL     1      11.662   4.503  -0.694  1.00  0.00     0.016 C 
ENDROOT
BRANCH   7   9
HETATM    9  C6  UNL     1      13.371   2.811  -1.041  1.00  0.00     0.135 C 
BRANCH   9  10
HETATM   10  N2  UNL     1      13.671   2.401  -2.386  1.00  0.00    -0.351 N 
HETATM   11  C7  UNL     1      14.848   1.870  -2.758  1.00  0.00     0.108 A 
HETATM   12  C8  UNL     1      14.738   1.615  -4.110  1.00  0.00     0.106 A 
HETATM   13  N3  UNL     1      13.501   1.997  -4.516  1.00  0.00    -0.361 N 
HETATM   14  C9  UNL     1      12.851   2.482  -3.443  1.00  0.00     0.182 A 
ATOM     15  H3  UNL     1      13.132   1.930  -5.464  1.00  0.00     0.166 HD
ENDBRANCH   9  10
ENDBRANCH   7   9
BRANCH   1  16
HETATM   16  C1  UNL     1      10.070   6.246  -0.077  1.00  0.00     0.170 C 
BRANCH  16  17
HETATM   17  O1  UNL     1      10.321   6.054   1.294  1.00  0.00    -0.400 OA
ATOM     18  H1  UNL     1       9.896   6.747   1.785  1.00  0.00     0.209 HD
ENDBRANCH  16  17
ENDBRANCH   1  16
TORSDOF 4
ENDMDL
MODEL 3
REMARK VINA RESULT: -5.330475672      3.640      4.884
REMARK  4 active torsions:
REMARK  status: ('A' for Active; 'I' for Inactive)
REMARK    1  A    between atoms: O1_1  and  C1_3 
REMARK    2  A    between atoms: C1_3  and  C2_4 
REMARK    3  A    between atoms: C5_10  and  C6_11 
REMARK    4  A    between atoms: C6_11  and  N2_12 
ROOT
HETATM    1  C2  UNL     1      13.683   6.374  -0.255  1.00  0.00     0.035 C 
HETATM    2  C3  UNL     1      13.922   5.097  -0.997  1.00  0.00     0.239 C 
HETATM    3  N1  UNL     1      13.071   4.016  -0.603  1.00  0.00    -0.074 N 
ATOM      4  H11 UNL     1      13.194   3.786   0.383  1.00  0.00     0.277 HD
ATOM      5  H12 UNL     1      13.377   3.133  -1.012  1.00  0.00     0.277 HD
HETATM    6  C4  UNL     1      11.669   4.290  -0.913  1.00  0.00     0.238 C 
HETATM    7  C5  UNL     1      11.345   5.741  -0.823  1.00  0.00     0.030 C 
HETATM    8  C10 UNL     1      12.246   6.360   0.242  1.00  0.00     0.016 C 
ENDROOT
BRANCH   7   9
HETATM    9  C6  UNL     1       9.935   6.033  -0.435  1.00  0.00     0.135 C 
BRANCH   9  10
HETATM   10  N2  UNL     1       9.127   6.534  -1.514  1.00  0.00    -0.351 N 
HETATM   11  C7  UNL     1       9.604   6.805  -2.740  1.00  0.00     0.108 A 
HETATM   12  C8  UNL     1       8.528   7.259  -3.474  1.00  0.00     0.106 A 
HETATM   13  N3  UNL     1       7.433   7.249  -2.675  1.00  0.00    -0.361 N 
HETATM   14  C9  UNL     1       7.814   6.800  -1.465  1.00  0.00     0.182 A 
ATOM     15  H3  UNL     1       6.490   7.531  -2.942  1.00  0.00     0.166 HD
ENDBRANCH   9  10
ENDBRANCH   7   9
BRANCH   1  16
HETATM   16  C1  UNL     1      14.574   6.393   0.971  1.00  0.00     0.170 C 
BRANCH  16  17
HETATM   17  O1  UNL     1      14.295   5.260   1.755  1.00  0.00    -0.400 OA
ATOM     18  H1  UNL     1      14.863   5.265   2.517  1.00  0.00     0.209 HD
ENDBRANCH  16  17
ENDBRANCH   1  16
TORSDOF 4
ENDMDL
MODEL 4
REMARK VINA RESULT: -5.022462519      3.190      5.686
REMARK  4 active torsions:
REMARK  status: ('A' for Active; 'I' for Inactive)
REMARK    1  A    between atoms: O1_1  and  C1_3 
REMARK    2  A    between atoms: C1_3  and  C2_4 
REMARK    3  A    between atoms: C5_10  and  C6_11 
REMARK    4  A    between atoms: C6_11  and  N2_12 
ROOT
HETATM    1  C2  UNL     1      13.333   2.946  -0.878  1.00  0.00     0.035 C 
HETATM    2  C3  UNL     1      14.280   3.836  -0.134  1.00  0.00     0.239 C 
HETATM    3  N1  UNL     1      14.324   5.184  -0.614  1.00  0.00    -0.074 N 
ATOM      4  H11 UNL     1      14.622   5.222  -1.588  1.00  0.00     0.277 HD
ATOM      5  H12 UNL     1      15.093   5.703  -0.191  1.00  0.00     0.277 HD
HETATM    6  C4  UNL     1      13.048   5.870  -0.421  1.00  0.00     0.238 C 
HETATM    7  C5  UNL     1      11.888   4.940  -0.520  1.00  0.00     0.030 C 
HETATM    8  C10 UNL     1      12.258   3.826  -1.496  1.00  0.00     0.016 C 
ENDROOT
BRANCH   7   9
HETATM    9  C6  UNL     1      10.635   5.572  -1.023  1.00  0.00     0.135 C 
BRANCH   9  10
HETATM   10  N2  UNL     1       9.777   6.073   0.016  1.00  0.00    -0.351 N 
HETATM   11  C7  UNL     1       8.587   6.653  -0.214  1.00  0.00     0.108 A 
HETATM   12  C8  UNL     1       8.084   6.991   1.025  1.00  0.00     0.106 A 
HETATM   13  N3  UNL     1       8.981   6.608   1.968  1.00  0.00    -0.361 N 
HETATM   14  C9  UNL     1      10.023   6.042   1.334  1.00  0.00     0.182 A 
ATOM     15  H3  UNL     1       8.882   6.727   2.975  1.00  0.00     0.166 HD
ENDBRANCH   9  10
ENDBRANCH   7   9
BRANCH   1  16
HETATM   16  C1  UNL     1      14.083   2.295  -2.022  1.00  0.00     0.170 C 
BRANCH  16  17
HETATM   17  O1  UNL     1      15.428   2.703  -1.978  1.00  0.00    -0.400 OA
ATOM     18  H1  UNL     1      15.883   2.194  -1.319  1.00  0.00     0.209 HD
ENDBRANCH  16  17
ENDBRANCH   1  16
TORSDOF 4
ENDMDL
MODEL 5
REMARK VINA RESULT: -4.994498901      2.673      5.946
REMARK  4 active torsions:
REMARK  status: ('A' for Active; 'I' for Inactive)
REMARK    1  A    between atoms: O1_1  and  C1_3 
REMARK    2  A    between atoms: C1_3  and  C2_4 
REMARK    3  A    between atoms: C5_10  and  C6_11 
REMARK    4  A    between atoms: C6_11  and  N2_12 
ROOT
HETATM    1  C2  UNL     1      12.380   3.146  -1.234  1.00  0.00     0.035 C 
HETATM    2  C3  UNL     1      13.820   2.762  -1.089  1.00  0.00     0.239 C 
HETATM    3  N1  UNL     1      14.741   3.840  -1.286  1.00  0.00    -0.074 N 
ATOM      4  H11 UNL     1      14.657   4.234  -2.222  1.00  0.00     0.277 HD
ATOM      5  H12 UNL     1      15.702   3.502  -1.340  1.00  0.00     0.277 HD
HETATM    6  C4  UNL     1      14.597   4.871  -0.259  1.00  0.00     0.238 C 
HETATM    7  C5  UNL     1      13.193   4.993   0.222  1.00  0.00     0.030 C 
HETATM    8  C10 UNL     1      12.264   4.632  -0.934  1.00  0.00     0.016 C 
ENDROOT
BRANCH   7   9
HETATM    9  C6  UNL     1      12.817   6.361   0.682  1.00  0.00     0.135 C 
BRANCH   9  10
HETATM   10  N2  UNL     1      13.047   6.588   2.083  1.00  0.00    -0.351 N 
HETATM   11  C7  UNL     1      12.162   6.273   3.044  1.00  0.00     0.108 A 
HETATM   12  C8  UNL     1      12.750   6.643   4.236  1.00  0.00     0.106 A 
HETATM   13  N3  UNL     1      13.970   7.170   3.964  1.00  0.00    -0.361 N 
HETATM   14  C9  UNL     1      14.143   7.131   2.631  1.00  0.00     0.182 A 
ATOM     15  H3  UNL     1      14.636   7.530   4.647  1.00  0.00     0.166 HD
ENDBRANCH   9  10
ENDBRANCH   7   9
BRANCH   1  16
HETATM   16  C1  UNL     1      11.975   2.954  -2.681  1.00  0.00     0.170 C 
BRANCH  16  17
HETATM   17  O1  UNL     1      13.064   2.421  -3.394  1.00  0.00    -0.400 OA
ATOM     18  H1  UNL     1      13.796   3.023  -3.334  1.00  0.00     0.209 HD
ENDBRANCH  16  17
ENDBRANCH   1  16
TORSDOF 4
ENDMDL
