MODEL 1
REMARK VINA RESULT: -5.585678234      0.000      0.000
REMARK  5 active torsions:
REMARK  status: ('A' for Active; 'I' for Inactive)
REMARK    1  A    between atoms: C2_2  and  C3_3 
REMARK    2  A    between atoms: C3_3  and  C4_4 
REMARK    3  A    between atoms: C8_9  and  O1_10 
REMARK    4  A    between atoms: C9_12  and  C10_13 
REMARK    5  A    between atoms: C10_13  and  O2_14 
ROOT
HETATM    1  C4  UNL     1      11.822   3.620  -1.318  1.00  0.00     0.123 C 
HETATM    2  C5  UNL     1      13.226   4.001  -0.842  1.00  0.00     0.053 C 
HETATM    3  C6  UNL     1      14.245   2.972  -1.243  1.00  0.00     0.126 C 
HETATM    4  C7  UNL     1      15.549   3.425  -0.837  1.00  0.00     0.066 C 
HETATM    5  N1  UNL     1      16.591   3.776  -0.504  1.00  0.00    -0.197 NA
HETATM    6  C8  UNL     1      14.125   2.838  -2.768  1.00  0.00     0.166 C 
HETATM    7  C9  UNL     1      12.683   2.380  -2.992  1.00  0.00     0.175 C 
HETATM    8  O3  UNL     1      11.805   3.388  -2.688  1.00  0.00    -0.376 OA
ENDROOT
BRANCH   6   9
HETATM    9  O1  UNL     1      15.020   1.884  -3.199  1.00  0.00    -0.392 OA
ATOM     10  H1  UNL     1      14.924   1.779  -4.139  1.00  0.00     0.210 HD
ENDBRANCH   6   9
BRANCH   1  11
HETATM   11  C3  UNL     1      10.961   4.814  -0.959  1.00  0.00     0.032 C 
BRANCH  11  12
HETATM   12  C2  UNL     1      11.729   5.844  -0.162  1.00  0.00    -0.002 C 
HETATM   13  C1  UNL     1      10.827   6.252   0.998  1.00  0.00     0.005 C 
ENDBRANCH  11  12
ENDBRANCH   1  11
BRANCH   7  14
HETATM   14  C10 UNL     1      12.588   1.926  -4.428  1.00  0.00     0.198 C 
BRANCH  14  15
HETATM   15  O2  UNL     1      13.369   2.777  -5.196  1.00  0.00    -0.398 OA
ATOM     16  H2  UNL     1      14.183   2.327  -5.393  1.00  0.00     0.209 HD
ENDBRANCH  14  15
ENDBRANCH   7  14
TORSDOF 5
ENDMDL
MODEL 2
REMARK VINA RESULT: -5.542935044      3.385      5.508
REMARK  5 active torsions:
REMARK  status: ('A' for Active; 'I' for Inactive)
REMARK    1  A    between atoms: C2_2  and  C3_3 
REMARK    2  A    between atoms: C3_3  and  C4_4 
REMARK    3  A    between atoms: C8_9  and  O1_10 
REMARK    4  A    between atoms: C9_12  and  C10_13 
REMARK    5  A    between atoms: C10_13  and  O2_14 
ROOT
HETATM    1  C4  UNL     1      13.158   3.589  -0.830  1.00  0.00     0.123 C 
HETATM    2  C5  UNL     1      11.828   4.220  -1.248  1.00  0.00     0.053 C 
HETATM    3  C6  UNL     1      11.382   5.271  -0.272  1.00  0.00     0.126 C 
HETATM    4  C7  UNL     1      10.172   5.878  -0.761  1.00  0.00     0.066 C 
HETATM    5  N1  UNL     1       9.199   6.356  -1.140  1.00  0.00    -0.197 NA
HETATM    6  C8  UNL     1      12.540   6.276  -0.183  1.00  0.00     0.166 C 
HETATM    7  C9  UNL     1      13.720   5.443   0.322  1.00  0.00     0.175 C 
HETATM    8  O3  UNL     1      14.133   4.560  -0.642  1.00  0.00    -0.376 OA
ENDROOT
BRANCH   6   9
HETATM    9  O1  UNL     1      12.204   7.258   0.722  1.00  0.00    -0.392 OA
ATOM     10  H1  UNL     1      12.037   6.852   1.564  1.00  0.00     0.210 HD
ENDBRANCH   6   9
BRANCH   1  11
HETATM   11  C3  UNL     1      13.521   2.670  -1.978  1.00  0.00     0.032 C 
BRANCH  11  12
HETATM   12  C2  UNL     1      12.474   2.687  -3.068  1.00  0.00    -0.002 C 
HETATM   13  C1  UNL     1      13.080   1.951  -4.259  1.00  0.00     0.005 C 
ENDBRANCH  11  12
ENDBRANCH   1  11
BRANCH   7  14
HETATM   14  C10 UNL     1      14.797   6.417   0.733  1.00  0.00     0.198 C 
BRANCH  14  15
HETATM   15  O2  UNL     1      14.678   6.633   2.098  1.00  0.00    -0.398 OA
ATOM     16  H2  UNL     1      15.080   7.470   2.297  1.00  0.00     0.209 HD
ENDBRANCH  14  15
ENDBRANCH   7  14
TORSDOF 5
ENDMDL
MODEL 3
REMARK VINA RESULT: -5.503232070      3.572      5.085
REMARK  5 active torsions:
REMARK  status: ('A' for Active; 'I' for Inactive)
REMARK    1  A    between atoms: C2_2  and  C3_3 
REMARK    2  A    between atoms: C3_3  and  C4_4 
REMARK    3  A    between atoms: C8_9  and  O1_10 
REMARK    4  A    between atoms: C9_12  and  C10_13 
REMARK    5  A    between atoms: C10_13  and  O2_14 
ROOT
HETATM    1  C4  UNL     1      11.280   6.418   0.246  1.00  0.00     0.123 C 
HETATM    2  C5  UNL     1      12.080   5.267  -0.370  1.00  0.00     0.053 C 
HETATM    3  C6  UNL     1      13.560   5.516  -0.290  1.00  0.00     0.126 C 
HETATM    4  C7  UNL     1      14.255   4.368  -0.811  1.00  0.00     0.066 C 
HETATM    5  N1  UNL     1      14.814   3.460  -1.238  1.00  0.00    -0.197 NA
HETATM    6  C8  UNL     1      13.863   5.753   1.197  1.00  0.00     0.166 C 
HETATM    7  C9  UNL     1      13.023   6.979   1.559  1.00  0.00     0.175 C 
HETATM    8  O3  UNL     1      11.688   6.667   1.550  1.00  0.00    -0.376 OA
ENDROOT
BRANCH   6   9
HETATM    9  O1  UNL     1      15.208   6.015   1.336  1.00  0.00    -0.392 OA
ATOM     10  H1  UNL     1      15.509   5.639   2.155  1.00  0.00     0.210 HD
ENDBRANCH   6   9
BRANCH   1  11
HETATM   11  C3  UNL     1       9.842   5.943   0.208  1.00  0.00     0.032 C 
BRANCH  11  12
HETATM   12  C2  UNL     1       9.125   6.411  -1.038  1.00  0.00    -0.002 C 
HETATM   13  C1  UNL     1       7.710   6.782  -0.608  1.00  0.00     0.005 C 
ENDBRANCH  11  12
ENDBRANCH   1  11
BRANCH   7  14
HETATM   14  C10 UNL     1      13.509   7.457   2.906  1.00  0.00     0.198 C 
BRANCH  14  15
HETATM   15  O2  UNL     1      13.742   6.340   3.695  1.00  0.00    -0.398 OA
ATOM     16  H2  UNL     1      13.153   6.382   4.440  1.00  0.00     0.209 HD
ENDBRANCH  14  15
ENDBRANCH   7  14
TORSDOF 5
ENDMDL
MODEL 4
REMARK VINA RESULT: -5.459979206      2.996      4.170
REMARK  5 active torsions:
REMARK  status: ('A' for Active; 'I' for Inactive)
REMARK    1  A    between atoms: C2_2  and  C3_3 
REMARK    2  A    between atoms: C3_3  and  C4_4 
REMARK    3  A    between atoms: C8_9  and  O1_10 
REMARK    4  A    between atoms: C9_12  and  C10_13 
REMARK    5  A    between atoms: C10_13  and  O2_14 
ROOT
HETATM    1  C4  UNL     1      14.063   5.926   0.144  1.00  0.00     0.123 C 
HETATM    2  C5  UNL     1      12.567   6.225   0.270  1.00  0.00     0.053 C 
HETATM    3  C6  UNL     1      11.786   5.638  -0.871  1.00  0.00     0.126 C 
HETATM    4  C7  UNL     1      10.385   5.885  -0.654  1.00  0.00     0.066 C 
HETATM    5  N1  UNL     1       9.267   6.090  -0.492  1.00  0.00    -0.197 NA
HETATM    6  C8  UNL     1      12.118   4.138  -0.875  1.00  0.00     0.166 C 
HETATM    7  C9  UNL     1      13.632   4.090  -1.089  1.00  0.00     0.175 C 
HETATM    8  O3  UNL     1      14.289   4.562   0.017  1.00  0.00    -0.376 OA
ENDROOT
BRANCH   6   9
HETATM    9  O1  UNL     1      11.450   3.541  -1.921  1.00  0.00    -0.392 OA
ATOM     10  H1  UNL     1      11.751   2.643  -2.002  1.00  0.00     0.210 HD
ENDBRANCH   6   9
BRANCH   1  11
HETATM   11  C3  UNL     1      14.667   6.460   1.426  1.00  0.00     0.032 C 
BRANCH  11  12
HETATM   12  C2  UNL     1      13.626   6.641   2.509  1.00  0.00    -0.002 C 
HETATM   13  C1  UNL     1      14.079   7.832   3.347  1.00  0.00     0.005 C 
ENDBRANCH  11  12
ENDBRANCH   1  11
BRANCH   7  14
HETATM   14  C10 UNL     1      13.980   2.659  -1.419  1.00  0.00     0.198 C 
BRANCH  14  15
HETATM   15  O2  UNL     1      14.365   2.610  -2.751  1.00  0.00    -0.398 OA
ATOM     16  H2  UNL     1      13.671   2.183  -3.239  1.00  0.00     0.209 HD
ENDBRANCH  14  15
ENDBRANCH   7  14
TORSDOF 5
ENDMDL
MODEL 5
REMARK VINA RESULT: -5.330203663      2.883      5.113
REMARK  5 active torsions:
REMARK  status: ('A' for Active; 'I' for Inactive)
REMARK    1  A    between atoms: C2_2  and  C3_3 
REMARK    2  A    between atoms: C3_3  and  C4_4 
REMARK    3  A    between atoms: C8_9  and  O1_10 
REMARK    4  A    between atoms: C9_12  and  C10_13 
REMARK    5  A    between atoms: C10_13  and  O2_14 
ROOT
HETATM    1  C4  UNL     1      13.741   4.962  -0.430  1.00  0.00     0.123 C 
HETATM    2  C5  UNL     1      14.035   5.397   1.008  1.00  0.00     0.053 C 
HETATM    3  C6  UNL     1      13.202   6.580   1.410  1.00  0.00     0.126 C 
HETATM    4  C7  UNL     1      13.466   6.890   2.791  1.00  0.00     0.066 C 
HETATM    5  N1  UNL     1      13.683   7.148   3.888  1.00  0.00    -0.197 NA
HETATM    6  C8  UNL     1      11.742   6.161   1.178  1.00  0.00     0.166 C 
HETATM    7  C9  UNL     1      11.675   5.854  -0.319  1.00  0.00     0.175 C 
HETATM    8  O3  UNL     1      12.385   4.718  -0.609  1.00  0.00    -0.376 OA
ENDROOT
BRANCH   6   9
HETATM    9  O1  UNL     1      10.922   7.218   1.505  1.00  0.00    -0.392 OA
ATOM     10  H1  UNL     1      11.447   8.009   1.548  1.00  0.00     0.210 HD
ENDBRANCH   6   9
BRANCH   1  11
HETATM   11  C3  UNL     1      14.550   3.694  -0.616  1.00  0.00     0.032 C 
BRANCH  11  12
HETATM   12  C2  UNL     1      13.723   2.580  -1.217  1.00  0.00    -0.002 C 
HETATM   13  C1  UNL     1      14.471   2.109  -2.459  1.00  0.00     0.005 C 
ENDBRANCH  11  12
ENDBRANCH   1  11
BRANCH   7  14
HETATM   14  C10 UNL     1      10.212   5.744  -0.675  1.00  0.00     0.198 C 
BRANCH  14  15
HETATM   15  O2  UNL     1      10.088   5.967  -2.039  1.00  0.00    -0.398 OA
ATOM     16  H2  UNL     1      10.954   6.145  -2.385  1.00  0.00     0.209 HD
ENDBRANCH  14  15
ENDBRANCH   7  14
TORSDOF 5
ENDMDL
