MODEL 1
REMARK VINA RESULT: -7.511903263      0.000      0.000
REMARK  5 active torsions:
REMARK  status: ('A' for Active; 'I' for Inactive)
REMARK    1  A    between atoms: C7_7  and  C9_9 
REMARK       I    between atoms: C9_9  and  N1_11 
REMARK    2  A    between atoms: N1_11  and  C10_13 
REMARK    3  A    between atoms: N2_16  and  C13_17 
REMARK    4  A    between atoms: C13_17  and  C14_18 
REMARK    5  A    between atoms: C13_17  and  C15_21 
ROOT
HETATM    1  C10 UNL     1     -43.955  -2.241   3.786  1.00  0.00     0.087 C 
HETATM    2  C11 UNL     1     -44.324  -0.843   4.239  1.00  0.00     0.044 C 
HETATM    3  C12 UNL     1     -45.272  -0.836   5.399  1.00  0.00     0.120 C 
HETATM    4  N2  UNL     1     -46.335  -1.773   5.314  1.00  0.00    -0.396 N 
HETATM    5  C16 UNL     1     -46.088  -2.977   4.663  1.00  0.00     0.120 C 
HETATM    6  C17 UNL     1     -44.573  -3.246   4.735  1.00  0.00     0.044 C 
ENDROOT
BRANCH   1   7
HETATM    7  N1  UNL     1     -42.523  -2.445   3.830  1.00  0.00    -0.356 N 
HETATM    8  C9  UNL     1     -41.679  -2.129   2.761  1.00  0.00     0.226 C 
HETATM    9  O1  UNL     1     -42.169  -1.647   1.700  1.00  0.00    -0.273 OA
ATOM     10  H1  UNL     1     -42.111  -2.835   4.677  1.00  0.00     0.162 HD
BRANCH   8  11
HETATM   11  C7  UNL     1     -40.187  -2.352   2.832  1.00  0.00     0.038 C 
HETATM   12  C6  UNL     1     -39.999  -3.661   3.533  1.00  0.00     0.019 C 
HETATM   13  C5  UNL     1     -38.575  -4.100   3.612  1.00  0.00     0.002 C 
HETATM   14  C4  UNL     1     -37.694  -3.639   2.510  1.00  0.00     0.009 C 
HETATM   15  C2  UNL     1     -38.365  -3.139   1.282  1.00  0.00    -0.047 C 
HETATM   16  C1  UNL     1     -38.535  -4.293   0.296  1.00  0.00     0.015 C 
HETATM   17  C3  UNL     1     -37.381  -2.179   0.608  1.00  0.00     0.015 C 
HETATM   18  C18 UNL     1     -39.650  -2.402   1.460  1.00  0.00     0.027 C 
HETATM   19  C8  UNL     1     -39.653  -1.192   3.646  1.00  0.00     0.025 C 
ENDBRANCH   8  11
ENDBRANCH   1   7
BRANCH   4  20
HETATM   20  C13 UNL     1     -47.546  -1.487   5.951  1.00  0.00     0.235 C 
BRANCH  20  21
HETATM   21  C14 UNL     1     -47.502  -1.798   7.398  1.00  0.00     0.201 C 
HETATM   22  O2  UNL     1     -48.623  -2.021   7.987  1.00  0.00    -0.646 OA
HETATM   23  O3  UNL     1     -46.354  -1.866   8.166  1.00  0.00    -0.646 OA
ENDBRANCH  20  21
BRANCH  20  24
HETATM   24  C15 UNL     1     -48.015  -0.032   5.774  1.00  0.00     0.218 C 
HETATM   25 CL1  UNL     1     -49.790   0.093   5.907  1.00  0.00    -0.081 Cl
HETATM   26 CL2  UNL     1     -47.598   0.567   4.143  1.00  0.00    -0.081 Cl
HETATM   27 CL3  UNL     1     -47.282   1.040   6.972  1.00  0.00    -0.081 Cl
ENDBRANCH  20  24
ENDBRANCH   4  20
TORSDOF 5
ENDMDL
MODEL 2
REMARK VINA RESULT: -7.472769384      1.685      2.103
REMARK  5 active torsions:
REMARK  status: ('A' for Active; 'I' for Inactive)
REMARK    1  A    between atoms: C7_7  and  C9_9 
REMARK       I    between atoms: C9_9  and  N1_11 
REMARK    2  A    between atoms: N1_11  and  C10_13 
REMARK    3  A    between atoms: N2_16  and  C13_17 
REMARK    4  A    between atoms: C13_17  and  C14_18 
REMARK    5  A    between atoms: C13_17  and  C15_21 
ROOT
HETATM    1  C10 UNL     1     -43.047  -2.782   4.232  1.00  0.00     0.087 C 
HETATM    2  C11 UNL     1     -44.369  -2.446   3.573  1.00  0.00     0.044 C 
HETATM    3  C12 UNL     1     -45.228  -1.547   4.410  1.00  0.00     0.120 C 
HETATM    4  N2  UNL     1     -45.276  -1.876   5.791  1.00  0.00    -0.396 N 
HETATM    5  C16 UNL     1     -44.139  -2.436   6.364  1.00  0.00     0.120 C 
HETATM    6  C17 UNL     1     -42.926  -1.999   5.522  1.00  0.00     0.044 C 
ENDROOT
BRANCH   1   7
HETATM    7  N1  UNL     1     -41.932  -2.393   3.395  1.00  0.00    -0.356 N 
HETATM    8  C9  UNL     1     -40.743  -3.126   3.326  1.00  0.00     0.226 C 
HETATM    9  O1  UNL     1     -40.617  -4.177   4.019  1.00  0.00    -0.273 OA
ATOM     10  H1  UNL     1     -42.016  -1.548   2.832  1.00  0.00     0.162 HD
BRANCH   8  11
HETATM   11  C7  UNL     1     -39.594  -2.699   2.446  1.00  0.00     0.038 C 
HETATM   12  C6  UNL     1     -38.575  -3.792   2.539  1.00  0.00     0.019 C 
HETATM   13  C5  UNL     1     -37.395  -3.589   1.649  1.00  0.00     0.002 C 
HETATM   14  C4  UNL     1     -37.648  -2.823   0.403  1.00  0.00     0.009 C 
HETATM   15  C2  UNL     1     -39.067  -2.679  -0.016  1.00  0.00    -0.047 C 
HETATM   16  C1  UNL     1     -39.429  -3.817  -0.967  1.00  0.00     0.015 C 
HETATM   17  C3  UNL     1     -39.142  -1.408  -0.867  1.00  0.00     0.015 C 
HETATM   18  C18 UNL     1     -40.086  -2.547   1.065  1.00  0.00     0.027 C 
HETATM   19  C8  UNL     1     -39.091  -1.405   3.052  1.00  0.00     0.025 C 
ENDBRANCH   8  11
ENDBRANCH   1   7
BRANCH   4  20
HETATM   20  C13 UNL     1     -46.419  -1.551   6.527  1.00  0.00     0.235 C 
BRANCH  20  21
HETATM   21  C14 UNL     1     -47.035  -2.741   7.157  1.00  0.00     0.201 C 
HETATM   22  O2  UNL     1     -48.245  -2.626   7.576  1.00  0.00    -0.646 OA
HETATM   23  O3  UNL     1     -46.414  -3.965   7.330  1.00  0.00    -0.646 OA
ENDBRANCH  20  21
BRANCH  20  24
HETATM   24  C15 UNL     1     -46.178  -0.488   7.614  1.00  0.00     0.218 C 
HETATM   25 CL1  UNL     1     -47.623   0.532   7.848  1.00  0.00    -0.081 Cl
HETATM   26 CL2  UNL     1     -44.864   0.620   7.127  1.00  0.00    -0.081 Cl
HETATM   27 CL3  UNL     1     -45.749  -1.225   9.162  1.00  0.00    -0.081 Cl
ENDBRANCH  20  24
ENDBRANCH   4  20
TORSDOF 5
ENDMDL
MODEL 3
REMARK VINA RESULT: -7.042067916      4.991      6.265
REMARK  5 active torsions:
REMARK  status: ('A' for Active; 'I' for Inactive)
REMARK    1  A    between atoms: C7_7  and  C9_9 
REMARK       I    between atoms: C9_9  and  N1_11 
REMARK    2  A    between atoms: N1_11  and  C10_13 
REMARK    3  A    between atoms: N2_16  and  C13_17 
REMARK    4  A    between atoms: C13_17  and  C14_18 
REMARK    5  A    between atoms: C13_17  and  C15_21 
ROOT
HETATM    1  C10 UNL     1     -39.460  -2.478   3.308  1.00  0.00     0.087 C 
HETATM    2  C11 UNL     1     -39.475  -3.908   3.809  1.00  0.00     0.044 C 
HETATM    3  C12 UNL     1     -40.246  -4.073   5.083  1.00  0.00     0.120 C 
HETATM    4  N2  UNL     1     -40.021  -3.065   6.058  1.00  0.00    -0.396 N 
HETATM    5  C16 UNL     1     -39.744  -1.778   5.608  1.00  0.00     0.120 C 
HETATM    6  C17 UNL     1     -40.348  -1.636   4.199  1.00  0.00     0.044 C 
ENDROOT
BRANCH   1   7
HETATM    7  N1  UNL     1     -39.998  -2.388   1.968  1.00  0.00    -0.356 N 
HETATM    8  C9  UNL     1     -39.200  -2.467   0.823  1.00  0.00     0.226 C 
HETATM    9  O1  UNL     1     -37.950  -2.622   0.943  1.00  0.00    -0.273 OA
ATOM     10  H1  UNL     1     -41.003  -2.262   1.853  1.00  0.00     0.162 HD
BRANCH   8  11
HETATM   11  C7  UNL     1     -39.786  -2.370  -0.565  1.00  0.00     0.038 C 
HETATM   12  C6  UNL     1     -39.495  -3.680  -1.228  1.00  0.00     0.019 C 
HETATM   13  C5  UNL     1     -40.089  -3.808  -2.591  1.00  0.00     0.002 C 
HETATM   14  C4  UNL     1     -41.339  -3.043  -2.825  1.00  0.00     0.009 C 
HETATM   15  C2  UNL     1     -42.064  -2.561  -1.621  1.00  0.00    -0.047 C 
HETATM   16  C1  UNL     1     -43.102  -3.601  -1.208  1.00  0.00     0.015 C 
HETATM   17  C3  UNL     1     -42.876  -1.339  -2.062  1.00  0.00     0.015 C 
HETATM   18  C18 UNL     1     -41.238  -2.143  -0.452  1.00  0.00     0.027 C 
HETATM   19  C8  UNL     1     -39.047  -1.225  -1.227  1.00  0.00     0.025 C 
ENDBRANCH   8  11
ENDBRANCH   1   7
BRANCH   4  20
HETATM   20  C13 UNL     1     -40.167  -3.383   7.411  1.00  0.00     0.235 C 
BRANCH  20  21
HETATM   21  C14 UNL     1     -38.881  -3.317   8.143  1.00  0.00     0.201 C 
HETATM   22  O2  UNL     1     -38.733  -4.108   9.146  1.00  0.00    -0.646 OA
HETATM   23  O3  UNL     1     -37.830  -2.474   7.835  1.00  0.00    -0.646 OA
ENDBRANCH  20  21
BRANCH  20  24
HETATM   24  C15 UNL     1     -41.199  -2.511   8.149  1.00  0.00     0.218 C 
HETATM   25 CL1  UNL     1     -41.897  -3.378   9.543  1.00  0.00    -0.081 Cl
HETATM   26 CL2  UNL     1     -42.571  -2.118   7.073  1.00  0.00    -0.081 Cl
HETATM   27 CL3  UNL     1     -40.483  -1.000   8.723  1.00  0.00    -0.081 Cl
ENDBRANCH  20  24
ENDBRANCH   4  20
TORSDOF 5
ENDMDL
MODEL 4
REMARK VINA RESULT: -7.015459494      5.329      6.695
REMARK  5 active torsions:
REMARK  status: ('A' for Active; 'I' for Inactive)
REMARK    1  A    between atoms: C7_7  and  C9_9 
REMARK       I    between atoms: C9_9  and  N1_11 
REMARK    2  A    between atoms: N1_11  and  C10_13 
REMARK    3  A    between atoms: N2_16  and  C13_17 
REMARK    4  A    between atoms: C13_17  and  C14_18 
REMARK    5  A    between atoms: C13_17  and  C15_21 
ROOT
HETATM    1  C10 UNL     1     -39.352  -2.419   3.303  1.00  0.00     0.087 C 
HETATM    2  C11 UNL     1     -39.232  -3.849   3.787  1.00  0.00     0.044 C 
HETATM    3  C12 UNL     1     -39.980  -4.101   5.060  1.00  0.00     0.120 C 
HETATM    4  N2  UNL     1     -39.847  -3.088   6.047  1.00  0.00    -0.396 N 
HETATM    5  C16 UNL     1     -39.693  -1.775   5.611  1.00  0.00     0.120 C 
HETATM    6  C17 UNL     1     -40.312  -1.673   4.205  1.00  0.00     0.044 C 
ENDROOT
BRANCH   1   7
HETATM    7  N1  UNL     1     -39.901  -2.363   1.965  1.00  0.00    -0.356 N 
HETATM    8  C9  UNL     1     -39.108  -2.441   0.816  1.00  0.00     0.226 C 
HETATM    9  O1  UNL     1     -37.855  -2.564   0.930  1.00  0.00    -0.273 OA
ATOM     10  H1  UNL     1     -40.910  -2.263   1.855  1.00  0.00     0.162 HD
BRANCH   8  11
HETATM   11  C7  UNL     1     -39.705  -2.380  -0.569  1.00  0.00     0.038 C 
HETATM   12  C6  UNL     1     -39.452  -3.721  -1.186  1.00  0.00     0.019 C 
HETATM   13  C5  UNL     1     -40.063  -3.885  -2.538  1.00  0.00     0.002 C 
HETATM   14  C4  UNL     1     -41.296  -3.098  -2.789  1.00  0.00     0.009 C 
HETATM   15  C2  UNL     1     -41.997  -2.554  -1.598  1.00  0.00    -0.047 C 
HETATM   16  C1  UNL     1     -43.056  -3.553  -1.137  1.00  0.00     0.015 C 
HETATM   17  C3  UNL     1     -42.784  -1.330  -2.076  1.00  0.00     0.015 C 
HETATM   18  C18 UNL     1     -41.150  -2.114  -0.452  1.00  0.00     0.027 C 
HETATM   19  C8  UNL     1     -38.946  -1.279  -1.280  1.00  0.00     0.025 C 
ENDBRANCH   8  11
ENDBRANCH   1   7
BRANCH   4  20
HETATM   20  C13 UNL     1     -39.958  -3.434   7.396  1.00  0.00     0.235 C 
BRANCH  20  21
HETATM   21  C14 UNL     1     -39.181  -4.650   7.727  1.00  0.00     0.201 C 
HETATM   22  O2  UNL     1     -39.827  -5.648   8.215  1.00  0.00    -0.646 OA
HETATM   23  O3  UNL     1     -37.817  -4.798   7.553  1.00  0.00    -0.646 OA
ENDBRANCH  20  21
BRANCH  20  24
HETATM   24  C15 UNL     1     -39.549  -2.310   8.364  1.00  0.00     0.218 C 
HETATM   25 CL1  UNL     1     -39.360  -2.929  10.027  1.00  0.00    -0.081 Cl
HETATM   26 CL2  UNL     1     -40.822  -1.058   8.445  1.00  0.00    -0.081 Cl
HETATM   27 CL3  UNL     1     -38.035  -1.543   7.870  1.00  0.00    -0.081 Cl
ENDBRANCH  20  24
ENDBRANCH   4  20
TORSDOF 5
ENDMDL
MODEL 5
REMARK VINA RESULT: -6.947873947      3.075      4.324
REMARK  5 active torsions:
REMARK  status: ('A' for Active; 'I' for Inactive)
REMARK    1  A    between atoms: C7_7  and  C9_9 
REMARK       I    between atoms: C9_9  and  N1_11 
REMARK    2  A    between atoms: N1_11  and  C10_13 
REMARK    3  A    between atoms: N2_16  and  C13_17 
REMARK    4  A    between atoms: C13_17  and  C14_18 
REMARK    5  A    between atoms: C13_17  and  C15_21 
ROOT
HETATM    1  C10 UNL     1     -46.258  -0.961   3.893  1.00  0.00     0.087 C 
HETATM    2  C11 UNL     1     -46.803  -0.078   2.790  1.00  0.00     0.044 C 
HETATM    3  C12 UNL     1     -47.443   1.175   3.305  1.00  0.00     0.120 C 
HETATM    4  N2  UNL     1     -48.275   1.001   4.443  1.00  0.00    -0.396 N 
HETATM    5  C16 UNL     1     -47.932   0.004   5.352  1.00  0.00     0.120 C 
HETATM    6  C17 UNL     1     -46.419  -0.248   5.219  1.00  0.00     0.044 C 
ENDROOT
BRANCH   1   7
HETATM    7  N1  UNL     1     -44.843  -1.209   3.715  1.00  0.00    -0.356 N 
HETATM    8  C9  UNL     1     -44.226  -2.399   4.110  1.00  0.00     0.226 C 
HETATM    9  O1  UNL     1     -44.916  -3.310   4.651  1.00  0.00    -0.273 OA
ATOM     10  H1  UNL     1     -44.272  -0.484   3.282  1.00  0.00     0.162 HD
BRANCH   8  11
HETATM   11  C7  UNL     1     -42.747  -2.632   3.914  1.00  0.00     0.038 C 
HETATM   12  C6  UNL     1     -42.456  -2.255   2.494  1.00  0.00     0.019 C 
HETATM   13  C5  UNL     1     -41.009  -2.329   2.138  1.00  0.00     0.002 C 
HETATM   14  C4  UNL     1     -40.057  -2.088   3.250  1.00  0.00     0.009 C 
HETATM   15  C2  UNL     1     -40.602  -1.435   4.468  1.00  0.00    -0.047 C 
HETATM   16  C1  UNL     1     -40.425   0.078   4.351  1.00  0.00     0.015 C 
HETATM   17  C3  UNL     1     -39.698  -1.855   5.630  1.00  0.00     0.015 C 
HETATM   18  C18 UNL     1     -42.002  -1.775   4.853  1.00  0.00     0.027 C 
HETATM   19  C8  UNL     1     -42.544  -4.113   4.158  1.00  0.00     0.025 C 
ENDBRANCH   8  11
ENDBRANCH   1   7
BRANCH   4  20
HETATM   20  C13 UNL     1     -49.343   1.880   4.646  1.00  0.00     0.235 C 
BRANCH  20  21
HETATM   21  C14 UNL     1     -49.029   3.253   4.191  1.00  0.00     0.201 C 
HETATM   22  O2  UNL     1     -48.772   4.129   5.097  1.00  0.00    -0.646 OA
HETATM   23  O3  UNL     1     -48.990   3.670   2.873  1.00  0.00    -0.646 OA
ENDBRANCH  20  21
BRANCH  20  24
HETATM   24  C15 UNL     1     -50.656   1.429   3.980  1.00  0.00     0.218 C 
HETATM   25 CL1  UNL     1     -51.383   0.056   4.856  1.00  0.00    -0.081 Cl
HETATM   26 CL2  UNL     1     -50.349   0.849   2.318  1.00  0.00    -0.081 Cl
HETATM   27 CL3  UNL     1     -51.835   2.744   3.910  1.00  0.00    -0.081 Cl
ENDBRANCH  20  24
ENDBRANCH   4  20
TORSDOF 5
ENDMDL
