MODEL 1
REMARK VINA RESULT: -9.251708954      0.000      0.000
REMARK  5 active torsions:
REMARK  status: ('A' for Active; 'I' for Inactive)
REMARK    1  A    between atoms: C3_7  and  C4_8 
REMARK    2  A    between atoms: C3_7  and  C9_18 
REMARK    3  A    between atoms: C6_10  and  C7_11 
REMARK    4  A    between atoms: N3_26  and  C16_27 
REMARK    5  A    between atoms: C16_27  and  C17_28 
ROOT
HETATM    1  O1  UNL     1     -43.076  -0.853   6.520  1.00  0.00    -0.246 OA
HETATM    2  C1  UNL     1     -42.264  -1.195   5.596  1.00  0.00     0.331 C 
HETATM    3  N1  UNL     1     -40.930  -0.629   5.616  1.00  0.00    -0.277 N 
ATOM      4  H1  UNL     1     -40.662   0.022   6.355  1.00  0.00     0.173 HD
HETATM    5  C2  UNL     1     -40.022  -0.971   4.633  1.00  0.00     0.250 C 
HETATM    6  O2  UNL     1     -39.085  -0.213   4.295  1.00  0.00    -0.271 OA
HETATM    7  C3  UNL     1     -40.172  -2.301   3.941  1.00  0.00     0.168 C 
HETATM    8  C15 UNL     1     -41.592  -2.493   3.593  1.00  0.00     0.252 C 
HETATM    9  O3  UNL     1     -41.957  -2.982   2.510  1.00  0.00    -0.271 OA
HETATM   10  N3  UNL     1     -42.571  -2.111   4.553  1.00  0.00    -0.268 N 
ENDROOT
BRANCH   7  11
HETATM   11  C4  UNL     1     -39.997  -3.246   5.140  1.00  0.00     0.037 A 
HETATM   12  C5  UNL     1     -39.148  -3.127   6.193  1.00  0.00     0.044 A 
HETATM   13  C6  UNL     1     -39.278  -4.276   6.970  1.00  0.00     0.065 A 
HETATM   14  C8  UNL     1     -40.208  -5.062   6.367  1.00  0.00     0.104 A 
HETATM   15  N2  UNL     1     -40.640  -4.419   5.238  1.00  0.00    -0.367 N 
ATOM     16  H2  UNL     1     -41.335  -4.773   4.581  1.00  0.00     0.165 HD
BRANCH  13  17
HETATM   17  C7  UNL     1     -38.484  -4.641   8.180  1.00  0.00     0.418 C 
HETATM   18  F1  UNL     1     -37.379  -5.362   7.806  1.00  0.00    -0.166 F 
HETATM   19  F2  UNL     1     -39.283  -5.367   9.041  1.00  0.00    -0.166 F 
HETATM   20  F3  UNL     1     -38.059  -3.515   8.853  1.00  0.00    -0.166 F 
ENDBRANCH  13  17
ENDBRANCH   7  11
BRANCH   7  21
HETATM   21  C9  UNL     1     -39.170  -2.439   2.886  1.00  0.00     0.019 C 
HETATM   22  C10 UNL     1     -39.664  -2.523   1.449  1.00  0.00     0.007 C 
HETATM   23  C11 UNL     1     -38.450  -2.174   0.564  1.00  0.00     0.000 C 
HETATM   24  C12 UNL     1     -37.301  -3.078   0.780  1.00  0.00     0.000 C 
HETATM   25  C13 UNL     1     -37.548  -4.099   1.853  1.00  0.00     0.000 C 
HETATM   26  C14 UNL     1     -38.185  -3.563   3.098  1.00  0.00     0.007 C 
ENDBRANCH   7  21
BRANCH  10  27
HETATM   27  C16 UNL     1     -43.951  -2.588   4.446  1.00  0.00     0.141 C 
BRANCH  27  28
HETATM   28  C17 UNL     1     -44.877  -1.713   3.652  1.00  0.00     0.004 C 
HETATM   29  C18 UNL     1     -46.021  -1.090   4.363  1.00  0.00     0.006 C 
HETATM   30  C19 UNL     1     -46.705  -0.041   3.464  1.00  0.00     0.000 C 
HETATM   31  C20 UNL     1     -46.176  -0.028   2.072  1.00  0.00     0.000 C 
HETATM   32  C21 UNL     1     -46.118  -1.428   1.514  1.00  0.00     0.000 C 
HETATM   33  C22 UNL     1     -45.347  -2.382   2.367  1.00  0.00     0.006 C 
ENDBRANCH  27  28
ENDBRANCH  10  27
TORSDOF 5
ENDMDL
MODEL 2
REMARK VINA RESULT: -9.216178627      3.052      5.147
REMARK  5 active torsions:
REMARK  status: ('A' for Active; 'I' for Inactive)
REMARK    1  A    between atoms: C3_7  and  C4_8 
REMARK    2  A    between atoms: C3_7  and  C9_18 
REMARK    3  A    between atoms: C6_10  and  C7_11 
REMARK    4  A    between atoms: N3_26  and  C16_27 
REMARK    5  A    between atoms: C16_27  and  C17_28 
ROOT
HETATM    1  O1  UNL     1     -43.129  -3.723   3.415  1.00  0.00    -0.246 OA
HETATM    2  C1  UNL     1     -42.333  -3.140   4.225  1.00  0.00     0.331 C 
HETATM    3  N1  UNL     1     -41.879  -3.879   5.386  1.00  0.00    -0.277 N 
ATOM      4  H1  UNL     1     -42.195  -4.838   5.537  1.00  0.00     0.173 HD
HETATM    5  C2  UNL     1     -41.019  -3.284   6.288  1.00  0.00     0.250 C 
HETATM    6  O2  UNL     1     -40.970  -3.626   7.491  1.00  0.00    -0.271 OA
HETATM    7  C3  UNL     1     -40.116  -2.179   5.805  1.00  0.00     0.168 C 
HETATM    8  C15 UNL     1     -40.906  -1.255   4.971  1.00  0.00     0.252 C 
HETATM    9  O3  UNL     1     -40.775  -0.020   5.030  1.00  0.00    -0.271 OA
HETATM   10  N3  UNL     1     -41.842  -1.816   4.058  1.00  0.00    -0.268 N 
ENDROOT
BRANCH   7  11
HETATM   11  C4  UNL     1     -39.294  -2.946   4.756  1.00  0.00     0.037 A 
HETATM   12  C5  UNL     1     -38.848  -2.511   3.549  1.00  0.00     0.044 A 
HETATM   13  C6  UNL     1     -38.239  -3.590   2.913  1.00  0.00     0.065 A 
HETATM   14  C8  UNL     1     -38.330  -4.653   3.755  1.00  0.00     0.104 A 
HETATM   15  N2  UNL     1     -38.986  -4.244   4.885  1.00  0.00    -0.367 N 
ATOM     16  H2  UNL     1     -39.203  -4.830   5.691  1.00  0.00     0.165 HD
BRANCH  13  17
HETATM   17  C7  UNL     1     -37.681  -3.622   1.530  1.00  0.00     0.418 C 
HETATM   18  F1  UNL     1     -38.472  -4.408   0.731  1.00  0.00    -0.166 F 
HETATM   19  F2  UNL     1     -36.388  -4.106   1.577  1.00  0.00    -0.166 F 
HETATM   20  F3  UNL     1     -37.634  -2.357   0.984  1.00  0.00    -0.166 F 
ENDBRANCH  13  17
ENDBRANCH   7  11
BRANCH   7  21
HETATM   21  C9  UNL     1     -39.347  -1.630   6.920  1.00  0.00     0.019 C 
HETATM   22  C10 UNL     1     -38.302  -2.528   7.567  1.00  0.00     0.007 C 
HETATM   23  C11 UNL     1     -37.350  -1.585   8.332  1.00  0.00     0.000 C 
HETATM   24  C12 UNL     1     -38.045  -0.767   9.349  1.00  0.00     0.000 C 
HETATM   25  C13 UNL     1     -39.529  -0.992   9.373  1.00  0.00     0.000 C 
HETATM   26  C14 UNL     1     -40.182  -1.030   8.025  1.00  0.00     0.007 C 
ENDBRANCH   7  21
BRANCH  10  27
HETATM   27  C16 UNL     1     -42.394  -1.015   2.963  1.00  0.00     0.141 C 
BRANCH  27  28
HETATM   28  C17 UNL     1     -42.330  -1.650   1.605  1.00  0.00     0.004 C 
HETATM   29  C18 UNL     1     -41.020  -1.665   0.908  1.00  0.00     0.006 C 
HETATM   30  C19 UNL     1     -41.087  -2.566  -0.342  1.00  0.00     0.000 C 
HETATM   31  C20 UNL     1     -42.462  -3.054  -0.639  1.00  0.00     0.000 C 
HETATM   32  C21 UNL     1     -43.448  -1.913  -0.604  1.00  0.00     0.000 C 
HETATM   33  C22 UNL     1     -43.423  -1.140   0.675  1.00  0.00     0.006 C 
ENDBRANCH  27  28
ENDBRANCH  10  27
TORSDOF 5
ENDMDL
MODEL 3
REMARK VINA RESULT: -9.202755526      2.873      4.925
REMARK  5 active torsions:
REMARK  status: ('A' for Active; 'I' for Inactive)
REMARK    1  A    between atoms: C3_7  and  C4_8 
REMARK    2  A    between atoms: C3_7  and  C9_18 
REMARK    3  A    between atoms: C6_10  and  C7_11 
REMARK    4  A    between atoms: N3_26  and  C16_27 
REMARK    5  A    between atoms: C16_27  and  C17_28 
ROOT
HETATM    1  O1  UNL     1     -43.283  -4.261   3.897  1.00  0.00    -0.246 OA
HETATM    2  C1  UNL     1     -42.349  -3.902   4.691  1.00  0.00     0.331 C 
HETATM    3  N1  UNL     1     -41.341  -4.880   5.045  1.00  0.00    -0.277 N 
ATOM      4  H1  UNL     1     -41.388  -5.825   4.662  1.00  0.00     0.173 HD
HETATM    5  C2  UNL     1     -40.315  -4.532   5.902  1.00  0.00     0.250 C 
HETATM    6  O2  UNL     1     -39.725  -5.375   6.615  1.00  0.00    -0.271 OA
HETATM    7  C3  UNL     1     -39.900  -3.086   5.984  1.00  0.00     0.168 C 
HETATM    8  C15 UNL     1     -41.112  -2.252   6.068  1.00  0.00     0.252 C 
HETATM    9  O3  UNL     1     -41.196  -1.265   6.818  1.00  0.00    -0.271 OA
HETATM   10  N3  UNL     1     -42.217  -2.597   5.240  1.00  0.00    -0.268 N 
ENDROOT
BRANCH   7  11
HETATM   11  C4  UNL     1     -39.444  -2.858   4.534  1.00  0.00     0.037 A 
HETATM   12  C5  UNL     1     -38.688  -3.667   3.748  1.00  0.00     0.044 A 
HETATM   13  C6  UNL     1     -38.452  -2.993   2.553  1.00  0.00     0.065 A 
HETATM   14  C8  UNL     1     -39.076  -1.788   2.645  1.00  0.00     0.104 A 
HETATM   15  N2  UNL     1     -39.679  -1.716   3.872  1.00  0.00    -0.367 N 
ATOM     16  H2  UNL     1     -40.218  -0.925   4.224  1.00  0.00     0.165 HD
BRANCH  13  17
HETATM   17  C7  UNL     1     -37.596  -3.443   1.417  1.00  0.00     0.418 C 
HETATM   18  F1  UNL     1     -38.346  -4.178   0.535  1.00  0.00    -0.166 F 
HETATM   19  F2  UNL     1     -36.544  -4.187   1.914  1.00  0.00    -0.166 F 
HETATM   20  F3  UNL     1     -37.063  -2.366   0.741  1.00  0.00    -0.166 F 
ENDBRANCH  13  17
ENDBRANCH   7  11
BRANCH   7  21
HETATM   21  C9  UNL     1     -38.862  -2.915   6.999  1.00  0.00     0.019 C 
HETATM   22  C10 UNL     1     -39.153  -3.429   8.401  1.00  0.00     0.007 C 
HETATM   23  C11 UNL     1     -37.782  -3.567   9.094  1.00  0.00     0.000 C 
HETATM   24  C12 UNL     1     -37.032  -2.294   9.145  1.00  0.00     0.000 C 
HETATM   25  C13 UNL     1     -37.744  -1.163   8.461  1.00  0.00     0.000 C 
HETATM   26  C14 UNL     1     -38.336  -1.505   7.128  1.00  0.00     0.007 C 
ENDBRANCH   7  21
BRANCH  10  27
HETATM   27  C16 UNL     1     -43.298  -1.639   4.995  1.00  0.00     0.141 C 
BRANCH  27  28
HETATM   28  C17 UNL     1     -43.695  -1.469   3.557  1.00  0.00     0.004 C 
HETATM   29  C18 UNL     1     -42.785  -0.701   2.673  1.00  0.00     0.006 C 
HETATM   30  C19 UNL     1     -43.220  -0.842   1.201  1.00  0.00     0.000 C 
HETATM   31  C20 UNL     1     -44.518  -1.554   1.040  1.00  0.00     0.000 C 
HETATM   32  C21 UNL     1     -45.555  -0.985   1.975  1.00  0.00     0.000 C 
HETATM   33  C22 UNL     1     -45.128  -0.974   3.407  1.00  0.00     0.006 C 
ENDBRANCH  27  28
ENDBRANCH  10  27
TORSDOF 5
ENDMDL
MODEL 4
REMARK VINA RESULT: -9.161259291      0.803      1.116
REMARK  5 active torsions:
REMARK  status: ('A' for Active; 'I' for Inactive)
REMARK    1  A    between atoms: C3_7  and  C4_8 
REMARK    2  A    between atoms: C3_7  and  C9_18 
REMARK    3  A    between atoms: C6_10  and  C7_11 
REMARK    4  A    between atoms: N3_26  and  C16_27 
REMARK    5  A    between atoms: C16_27  and  C17_28 
ROOT
HETATM    1  O1  UNL     1     -43.045  -1.295   7.118  1.00  0.00    -0.246 OA
HETATM    2  C1  UNL     1     -42.295  -1.555   6.119  1.00  0.00     0.331 C 
HETATM    3  N1  UNL     1     -41.037  -0.843   6.007  1.00  0.00    -0.277 N 
ATOM      4  H1  UNL     1     -40.772  -0.158   6.715  1.00  0.00     0.173 HD
HETATM    5  C2  UNL     1     -40.197  -1.095   4.940  1.00  0.00     0.250 C 
HETATM    6  O2  UNL     1     -39.389  -0.241   4.510  1.00  0.00    -0.271 OA
HETATM    7  C3  UNL     1     -40.265  -2.440   4.267  1.00  0.00     0.168 C 
HETATM    8  C15 UNL     1     -41.681  -2.794   4.061  1.00  0.00     0.252 C 
HETATM    9  O3  UNL     1     -42.093  -3.333   3.020  1.00  0.00    -0.271 OA
HETATM   10  N3  UNL     1     -42.598  -2.512   5.112  1.00  0.00    -0.268 N 
ENDROOT
BRANCH   7  11
HETATM   11  C4  UNL     1     -39.868  -3.347   5.443  1.00  0.00     0.037 A 
HETATM   12  C5  UNL     1     -38.923  -3.132   6.394  1.00  0.00     0.044 A 
HETATM   13  C6  UNL     1     -38.856  -4.275   7.187  1.00  0.00     0.065 A 
HETATM   14  C8  UNL     1     -39.768  -5.155   6.695  1.00  0.00     0.104 A 
HETATM   15  N2  UNL     1     -40.382  -4.572   5.619  1.00  0.00    -0.367 N 
ATOM     16  H2  UNL     1     -41.109  -5.000   5.046  1.00  0.00     0.165 HD
BRANCH  13  17
HETATM   17  C7  UNL     1     -37.901  -4.545   8.301  1.00  0.00     0.418 C 
HETATM   18  F1  UNL     1     -36.978  -5.477   7.902  1.00  0.00    -0.166 F 
HETATM   19  F2  UNL     1     -38.607  -4.985   9.403  1.00  0.00    -0.166 F 
HETATM   20  F3  UNL     1     -37.228  -3.398   8.666  1.00  0.00    -0.166 F 
ENDBRANCH  13  17
ENDBRANCH   7  11
BRANCH   7  21
HETATM   21  C9  UNL     1     -39.362  -2.478   3.118  1.00  0.00     0.019 C 
HETATM   22  C10 UNL     1     -39.985  -2.544   1.731  1.00  0.00     0.007 C 
HETATM   23  C11 UNL     1     -38.885  -2.088   0.751  1.00  0.00     0.000 C 
HETATM   24  C12 UNL     1     -37.668  -2.926   0.822  1.00  0.00     0.000 C 
HETATM   25  C13 UNL     1     -37.751  -3.996   1.871  1.00  0.00     0.000 C 
HETATM   26  C14 UNL     1     -38.296  -3.545   3.191  1.00  0.00     0.007 C 
ENDBRANCH   7  21
BRANCH  10  27
HETATM   27  C16 UNL     1     -43.920  -3.141   5.143  1.00  0.00     0.141 C 
BRANCH  27  28
HETATM   28  C17 UNL     1     -45.085  -2.198   5.060  1.00  0.00     0.004 C 
HETATM   29  C18 UNL     1     -46.417  -2.705   5.471  1.00  0.00     0.006 C 
HETATM   30  C19 UNL     1     -47.430  -1.546   5.559  1.00  0.00     0.000 C 
HETATM   31  C20 UNL     1     -46.886  -0.254   5.057  1.00  0.00     0.000 C 
HETATM   32  C21 UNL     1     -46.227  -0.443   3.714  1.00  0.00     0.000 C 
HETATM   33  C22 UNL     1     -45.172  -1.502   3.708  1.00  0.00     0.006 C 
ENDBRANCH  27  28
ENDBRANCH  10  27
TORSDOF 5
ENDMDL
MODEL 5
REMARK VINA RESULT: -9.146242548      3.177      5.303
REMARK  5 active torsions:
REMARK  status: ('A' for Active; 'I' for Inactive)
REMARK    1  A    between atoms: C3_7  and  C4_8 
REMARK    2  A    between atoms: C3_7  and  C9_18 
REMARK    3  A    between atoms: C6_10  and  C7_11 
REMARK    4  A    between atoms: N3_26  and  C16_27 
REMARK    5  A    between atoms: C16_27  and  C17_28 
ROOT
HETATM    1  O1  UNL     1     -42.663  -4.164   3.858  1.00  0.00    -0.246 OA
HETATM    2  C1  UNL     1     -41.658  -3.985   4.625  1.00  0.00     0.331 C 
HETATM    3  N1  UNL     1     -41.083  -5.143   5.278  1.00  0.00    -0.277 N 
ATOM      4  H1  UNL     1     -41.481  -6.070   5.120  1.00  0.00     0.173 HD
HETATM    5  C2  UNL     1     -39.996  -4.991   6.118  1.00  0.00     0.250 C 
HETATM    6  O2  UNL     1     -39.758  -5.788   7.053  1.00  0.00    -0.271 OA
HETATM    7  C3  UNL     1     -39.074  -3.821   5.901  1.00  0.00     0.168 C 
HETATM    8  C15 UNL     1     -39.889  -2.611   5.688  1.00  0.00     0.252 C 
HETATM    9  O3  UNL     1     -39.595  -1.509   6.182  1.00  0.00    -0.271 OA
HETATM   10  N3  UNL     1     -41.048  -2.724   4.869  1.00  0.00    -0.268 N 
ENDROOT
BRANCH   7  11
HETATM   11  C4  UNL     1     -38.574  -4.134   4.482  1.00  0.00     0.037 A 
HETATM   12  C5  UNL     1     -38.237  -3.266   3.493  1.00  0.00     0.044 A 
HETATM   13  C6  UNL     1     -37.942  -4.015   2.357  1.00  0.00     0.065 A 
HETATM   14  C8  UNL     1     -38.105  -5.323   2.690  1.00  0.00     0.104 A 
HETATM   15  N2  UNL     1     -38.498  -5.382   3.999  1.00  0.00    -0.367 N 
ATOM     16  H2  UNL     1     -38.701  -6.235   4.521  1.00  0.00     0.165 HD
BRANCH  13  17
HETATM   17  C7  UNL     1     -37.610  -3.499   0.998  1.00  0.00     0.418 C 
HETATM   18  F1  UNL     1     -38.347  -4.170   0.056  1.00  0.00    -0.166 F 
HETATM   19  F2  UNL     1     -36.256  -3.657   0.774  1.00  0.00    -0.166 F 
HETATM   20  F3  UNL     1     -37.896  -2.154   0.895  1.00  0.00    -0.166 F 
ENDBRANCH  13  17
ENDBRANCH   7  11
BRANCH   7  21
HETATM   21  C9  UNL     1     -38.040  -3.793   6.934  1.00  0.00     0.019 C 
HETATM   22  C10 UNL     1     -37.158  -5.024   7.084  1.00  0.00     0.007 C 
HETATM   23  C11 UNL     1     -35.906  -4.557   7.854  1.00  0.00     0.000 C 
HETATM   24  C12 UNL     1     -36.227  -3.975   9.175  1.00  0.00     0.000 C 
HETATM   25  C13 UNL     1     -37.701  -3.915   9.449  1.00  0.00     0.000 C 
HETATM   26  C14 UNL     1     -38.536  -3.415   8.310  1.00  0.00     0.007 C 
ENDBRANCH   7  21
BRANCH  10  27
HETATM   27  C16 UNL     1     -41.697  -1.532   4.320  1.00  0.00     0.141 C 
BRANCH  27  28
HETATM   28  C17 UNL     1     -42.050  -1.603   2.863  1.00  0.00     0.004 C 
HETATM   29  C18 UNL     1     -40.937  -1.653   1.883  1.00  0.00     0.006 C 
HETATM   30  C19 UNL     1     -41.477  -1.974   0.474  1.00  0.00     0.000 C 
HETATM   31  C20 UNL     1     -42.964  -1.985   0.405  1.00  0.00     0.000 C 
HETATM   32  C21 UNL     1     -43.534  -0.750   1.056  1.00  0.00     0.000 C 
HETATM   33  C22 UNL     1     -43.068  -0.544   2.461  1.00  0.00     0.006 C 
ENDBRANCH  27  28
ENDBRANCH  10  27
TORSDOF 5
ENDMDL
