MODEL 1
REMARK VINA RESULT: -8.539545364      0.000      0.000
REMARK  5 active torsions:
REMARK  status: ('A' for Active; 'I' for Inactive)
REMARK    1  A    between atoms: C2_3  and  C3_4 
REMARK       I    between atoms: C3_4  and  N2_6 
REMARK    2  A    between atoms: N2_6  and  C4_8 
REMARK    3  A    between atoms: C7_11  and  C8_12 
REMARK    4  A    between atoms: C8_12  and  C9_13 
REMARK    5  A    between atoms: C9_13  and  N3_14 
ROOT
HETATM    1  N1  UNL     1     -12.106  14.888  -1.692  1.00  0.00    -0.196 NA
HETATM    2  C1  UNL     1     -12.098  14.018  -2.458  1.00  0.00     0.079 C 
HETATM    3  C2  UNL     1     -12.104  12.915  -3.430  1.00  0.00     0.129 C 
HETATM    4  C19 UNL     1     -13.151  11.903  -3.063  1.00  0.00     0.034 C 
HETATM    5  C20 UNL     1     -14.497  12.543  -2.894  1.00  0.00     0.002 C 
HETATM    6  C21 UNL     1     -14.896  13.150  -4.222  1.00  0.00     0.000 C 
HETATM    7  C22 UNL     1     -13.841  14.083  -4.743  1.00  0.00     0.002 C 
HETATM    8  C23 UNL     1     -12.479  13.471  -4.797  1.00  0.00     0.034 C 
ENDROOT
BRANCH   3   9
HETATM    9  C3  UNL     1     -10.787  12.253  -3.502  1.00  0.00     0.240 C 
HETATM   10  O1  UNL     1     -10.529  11.517  -4.477  1.00  0.00    -0.272 OA
HETATM   11  N2  UNL     1      -9.795  12.436  -2.472  1.00  0.00    -0.355 N 
ATOM     12  H2  UNL     1     -10.022  13.039  -1.681  1.00  0.00     0.162 HD
BRANCH  11  13
HETATM   13  C4  UNL     1      -8.505  11.811  -2.505  1.00  0.00     0.084 C 
HETATM   14  C5  UNL     1      -7.534  12.495  -1.545  1.00  0.00     0.025 C 
HETATM   15  C6  UNL     1      -6.707  11.450  -0.819  1.00  0.00     0.007 C 
HETATM   16  C7  UNL     1      -7.623  10.681   0.071  1.00  0.00    -0.013 C 
HETATM   17  C17 UNL     1      -8.723  10.056  -0.723  1.00  0.00     0.007 C 
HETATM   18  C18 UNL     1      -8.605  10.333  -2.204  1.00  0.00     0.025 C 
BRANCH  16  19
HETATM   19  C8  UNL     1      -6.913   9.691   0.962  1.00  0.00     0.020 C 
BRANCH  19  20
HETATM   20  C9  UNL     1      -7.466   9.661   2.357  1.00  0.00     0.108 C 
BRANCH  20  21
HETATM   21  N3  UNL     1      -7.937   8.325   2.627  1.00  0.00    -0.202 NA
HETATM   22  C10 UNL     1      -7.763   7.962   4.017  1.00  0.00     0.147 C 
HETATM   23  C11 UNL     1      -8.738   6.949   4.398  1.00  0.00    -0.020 A 
HETATM   24  C12 UNL     1      -8.638   5.974   5.386  1.00  0.00     0.033 A 
HETATM   25  C16 UNL     1      -9.908   6.976   3.688  1.00  0.00     0.082 A 
HETATM   26  C13 UNL     1      -9.640   5.097   5.637  1.00  0.00     0.034 A 
HETATM   27 CL1  UNL     1      -9.533   3.854   6.886  1.00  0.00    -0.084 Cl
HETATM   28  C14 UNL     1     -10.804   5.163   4.895  1.00  0.00     0.025 A 
HETATM   29  C15 UNL     1     -10.939   6.117   3.907  1.00  0.00     0.027 A 
HETATM   30  S1  UNL     1      -9.693   8.281   2.547  1.00  0.00     0.244 S 
HETATM   31  O2  UNL     1     -10.157   7.940   1.186  1.00  0.00    -0.206 OA
HETATM   32  O3  UNL     1     -10.279   9.525   3.106  1.00  0.00    -0.206 OA
ENDBRANCH  20  21
ENDBRANCH  19  20
ENDBRANCH  16  19
ENDBRANCH  11  13
ENDBRANCH   3   9
TORSDOF 5
ENDMDL
MODEL 2
REMARK VINA RESULT: -8.514471387      1.920      2.566
REMARK  5 active torsions:
REMARK  status: ('A' for Active; 'I' for Inactive)
REMARK    1  A    between atoms: C2_3  and  C3_4 
REMARK       I    between atoms: C3_4  and  N2_6 
REMARK    2  A    between atoms: N2_6  and  C4_8 
REMARK    3  A    between atoms: C7_11  and  C8_12 
REMARK    4  A    between atoms: C8_12  and  C9_13 
REMARK    5  A    between atoms: C9_13  and  N3_14 
ROOT
HETATM    1  N1  UNL     1      -8.108  16.247  -1.947  1.00  0.00    -0.196 NA
HETATM    2  C1  UNL     1      -9.200  15.874  -2.060  1.00  0.00     0.079 C 
HETATM    3  C2  UNL     1     -10.591  15.417  -2.201  1.00  0.00     0.129 C 
HETATM    4  C19 UNL     1     -11.477  16.134  -1.225  1.00  0.00     0.034 C 
HETATM    5  C20 UNL     1     -11.334  17.622  -1.345  1.00  0.00     0.002 C 
HETATM    6  C21 UNL     1     -11.774  18.023  -2.737  1.00  0.00     0.000 C 
HETATM    7  C22 UNL     1     -11.032  17.254  -3.794  1.00  0.00     0.002 C 
HETATM    8  C23 UNL     1     -11.082  15.774  -3.598  1.00  0.00     0.034 C 
ENDROOT
BRANCH   3   9
HETATM    9  C3  UNL     1     -10.703  13.961  -1.988  1.00  0.00     0.240 C 
HETATM   10  O1  UNL     1     -11.837  13.439  -1.938  1.00  0.00    -0.272 OA
HETATM   11  N2  UNL     1      -9.535  13.130  -1.834  1.00  0.00    -0.355 N 
ATOM     12  H2  UNL     1      -8.616  13.571  -1.876  1.00  0.00     0.162 HD
BRANCH  11  13
HETATM   13  C4  UNL     1      -9.603  11.713  -1.624  1.00  0.00     0.084 C 
HETATM   14  C5  UNL     1      -8.409  11.003  -2.261  1.00  0.00     0.025 C 
HETATM   15  C6  UNL     1      -7.899   9.919  -1.329  1.00  0.00     0.007 C 
HETATM   16  C7  UNL     1      -7.329  10.586  -0.123  1.00  0.00    -0.013 C 
HETATM   17  C17 UNL     1      -8.360  11.439   0.540  1.00  0.00     0.007 C 
HETATM   18  C18 UNL     1      -9.701  11.381  -0.154  1.00  0.00     0.025 C 
BRANCH  16  19
HETATM   19  C8  UNL     1      -6.657   9.633   0.836  1.00  0.00     0.020 C 
BRANCH  19  20
HETATM   20  C9  UNL     1      -7.280   9.645   2.201  1.00  0.00     0.108 C 
BRANCH  20  21
HETATM   21  N3  UNL     1      -7.814   8.332   2.464  1.00  0.00    -0.202 NA
HETATM   22  C10 UNL     1      -7.681   7.964   3.857  1.00  0.00     0.147 C 
HETATM   23  C11 UNL     1      -8.705   6.996   4.223  1.00  0.00    -0.020 A 
HETATM   24  C12 UNL     1      -8.665   6.020   5.213  1.00  0.00     0.033 A 
HETATM   25  C16 UNL     1      -9.861   7.073   3.493  1.00  0.00     0.082 A 
HETATM   26  C13 UNL     1      -9.709   5.188   5.449  1.00  0.00     0.034 A 
HETATM   27 CL1  UNL     1      -9.679   3.944   6.701  1.00  0.00    -0.084 Cl
HETATM   28  C14 UNL     1     -10.857   5.304   4.686  1.00  0.00     0.025 A 
HETATM   29  C15 UNL     1     -10.932   6.260   3.694  1.00  0.00     0.027 A 
HETATM   30  S1  UNL     1      -9.569   8.365   2.353  1.00  0.00     0.244 S 
HETATM   31  O2  UNL     1     -10.024   8.042   0.985  1.00  0.00    -0.206 OA
HETATM   32  O3  UNL     1     -10.108   9.635   2.901  1.00  0.00    -0.206 OA
ENDBRANCH  20  21
ENDBRANCH  19  20
ENDBRANCH  16  19
ENDBRANCH  11  13
ENDBRANCH   3   9
TORSDOF 5
ENDMDL
MODEL 3
REMARK VINA RESULT: -8.421485548      1.955      2.850
REMARK  5 active torsions:
REMARK  status: ('A' for Active; 'I' for Inactive)
REMARK    1  A    between atoms: C2_3  and  C3_4 
REMARK       I    between atoms: C3_4  and  N2_6 
REMARK    2  A    between atoms: N2_6  and  C4_8 
REMARK    3  A    between atoms: C7_11  and  C8_12 
REMARK    4  A    between atoms: C8_12  and  C9_13 
REMARK    5  A    between atoms: C9_13  and  N3_14 
ROOT
HETATM    1  N1  UNL     1     -11.051  15.729  -4.928  1.00  0.00    -0.196 NA
HETATM    2  C1  UNL     1     -10.781  15.506  -3.823  1.00  0.00     0.079 C 
HETATM    3  C2  UNL     1     -10.433  15.238  -2.420  1.00  0.00     0.129 C 
HETATM    4  C19 UNL     1      -9.032  15.695  -2.134  1.00  0.00     0.034 C 
HETATM    5  C20 UNL     1      -8.833  17.130  -2.525  1.00  0.00     0.002 C 
HETATM    6  C21 UNL     1      -9.767  17.975  -1.685  1.00  0.00     0.000 C 
HETATM    7  C22 UNL     1     -11.190  17.507  -1.799  1.00  0.00     0.002 C 
HETATM    8  C23 UNL     1     -11.359  16.048  -1.523  1.00  0.00     0.034 C 
ENDROOT
BRANCH   3   9
HETATM    9  C3  UNL     1     -10.554  13.803  -2.099  1.00  0.00     0.240 C 
HETATM   10  O1  UNL     1     -11.690  13.312  -1.926  1.00  0.00    -0.272 OA
HETATM   11  N2  UNL     1      -9.393  12.956  -1.981  1.00  0.00    -0.355 N 
ATOM     12  H2  UNL     1      -8.473  13.372  -2.124  1.00  0.00     0.162 HD
BRANCH  11  13
HETATM   13  C4  UNL     1      -9.470  11.559  -1.671  1.00  0.00     0.084 C 
HETATM   14  C5  UNL     1      -8.270  10.800  -2.237  1.00  0.00     0.025 C 
HETATM   15  C6  UNL     1      -7.778   9.785  -1.223  1.00  0.00     0.007 C 
HETATM   16  C7  UNL     1      -7.222  10.535  -0.060  1.00  0.00    -0.013 C 
HETATM   17  C17 UNL     1      -8.258  11.437   0.525  1.00  0.00     0.007 C 
HETATM   18  C18 UNL     1      -9.591  11.334  -0.181  1.00  0.00     0.025 C 
BRANCH  16  19
HETATM   19  C8  UNL     1      -6.568   9.652   0.975  1.00  0.00     0.020 C 
BRANCH  19  20
HETATM   20  C9  UNL     1      -7.293   9.659   2.289  1.00  0.00     0.108 C 
BRANCH  20  21
HETATM   21  N3  UNL     1      -7.832   8.341   2.514  1.00  0.00    -0.202 NA
HETATM   22  C10 UNL     1      -7.758   7.958   3.907  1.00  0.00     0.147 C 
HETATM   23  C11 UNL     1      -8.794   6.982   4.216  1.00  0.00    -0.020 A 
HETATM   24  C12 UNL     1      -8.794   5.995   5.197  1.00  0.00     0.033 A 
HETATM   25  C16 UNL     1      -9.917   7.063   3.438  1.00  0.00     0.082 A 
HETATM   26  C13 UNL     1      -9.844   5.157   5.377  1.00  0.00     0.034 A 
HETATM   27 CL1  UNL     1      -9.863   3.899   6.615  1.00  0.00    -0.084 Cl
HETATM   28  C14 UNL     1     -10.957   5.277   4.566  1.00  0.00     0.025 A 
HETATM   29  C15 UNL     1     -10.993   6.245   3.582  1.00  0.00     0.027 A 
HETATM   30  S1  UNL     1      -9.580   8.370   2.327  1.00  0.00     0.244 S 
HETATM   31  O2  UNL     1      -9.973   8.061   0.936  1.00  0.00    -0.206 OA
HETATM   32  O3  UNL     1     -10.148   9.631   2.864  1.00  0.00    -0.206 OA
ENDBRANCH  20  21
ENDBRANCH  19  20
ENDBRANCH  16  19
ENDBRANCH  11  13
ENDBRANCH   3   9
TORSDOF 5
ENDMDL
MODEL 4
REMARK VINA RESULT: -8.277105113      1.054      1.492
REMARK  5 active torsions:
REMARK  status: ('A' for Active; 'I' for Inactive)
REMARK    1  A    between atoms: C2_3  and  C3_4 
REMARK       I    between atoms: C3_4  and  N2_6 
REMARK    2  A    between atoms: N2_6  and  C4_8 
REMARK    3  A    between atoms: C7_11  and  C8_12 
REMARK    4  A    between atoms: C8_12  and  C9_13 
REMARK    5  A    between atoms: C9_13  and  N3_14 
ROOT
HETATM    1  N1  UNL     1     -12.886  12.648  -6.275  1.00  0.00    -0.196 NA
HETATM    2  C1  UNL     1     -12.451  12.811  -5.213  1.00  0.00     0.079 C 
HETATM    3  C2  UNL     1     -11.913  13.025  -3.862  1.00  0.00     0.129 C 
HETATM    4  C19 UNL     1     -12.111  14.453  -3.442  1.00  0.00     0.034 C 
HETATM    5  C20 UNL     1     -13.546  14.869  -3.575  1.00  0.00     0.002 C 
HETATM    6  C21 UNL     1     -14.371  14.004  -2.647  1.00  0.00     0.000 C 
HETATM    7  C22 UNL     1     -14.137  12.542  -2.900  1.00  0.00     0.002 C 
HETATM    8  C23 UNL     1     -12.693  12.159  -2.882  1.00  0.00     0.034 C 
ENDROOT
BRANCH   3   9
HETATM    9  C3  UNL     1     -10.478  12.689  -3.794  1.00  0.00     0.240 C 
HETATM   10  O1  UNL     1      -9.828  12.580  -4.855  1.00  0.00    -0.272 OA
HETATM   11  N2  UNL     1      -9.810  12.485  -2.532  1.00  0.00    -0.355 N 
ATOM     12  H2  UNL     1     -10.355  12.578  -1.675  1.00  0.00     0.162 HD
BRANCH  11  13
HETATM   13  C4  UNL     1      -8.419  12.158  -2.425  1.00  0.00     0.084 C 
HETATM   14  C5  UNL     1      -7.793  12.800  -1.188  1.00  0.00     0.025 C 
HETATM   15  C6  UNL     1      -6.859  11.813  -0.513  1.00  0.00     0.007 C 
HETATM   16  C7  UNL     1      -7.688  10.698   0.031  1.00  0.00    -0.013 C 
HETATM   17  C17 UNL     1      -8.475  10.051  -1.061  1.00  0.00     0.007 C 
HETATM   18  C18 UNL     1      -8.207  10.661  -2.417  1.00  0.00     0.025 C 
BRANCH  16  19
HETATM   19  C8  UNL     1      -6.904   9.705   0.852  1.00  0.00     0.020 C 
BRANCH  19  20
HETATM   20  C9  UNL     1      -7.357   9.644   2.282  1.00  0.00     0.108 C 
BRANCH  20  21
HETATM   21  N3  UNL     1      -7.884   8.325   2.532  1.00  0.00    -0.202 NA
HETATM   22  C10 UNL     1      -7.733   7.937   3.918  1.00  0.00     0.147 C 
HETATM   23  C11 UNL     1      -8.750   6.961   4.281  1.00  0.00    -0.020 A 
HETATM   24  C12 UNL     1      -8.696   5.971   5.257  1.00  0.00     0.033 A 
HETATM   25  C16 UNL     1      -9.915   7.045   3.567  1.00  0.00     0.082 A 
HETATM   26  C13 UNL     1      -9.735   5.133   5.492  1.00  0.00     0.034 A 
HETATM   27 CL1  UNL     1      -9.686   3.870   6.725  1.00  0.00    -0.084 Cl
HETATM   28  C14 UNL     1     -10.892   5.256   4.746  1.00  0.00     0.025 A 
HETATM   29  C15 UNL     1     -10.981   6.227   3.769  1.00  0.00     0.027 A 
HETATM   30  S1  UNL     1      -9.640   8.355   2.443  1.00  0.00     0.244 S 
HETATM   31  O2  UNL     1     -10.110   8.051   1.076  1.00  0.00    -0.206 OA
HETATM   32  O3  UNL     1     -10.176   9.615   3.016  1.00  0.00    -0.206 OA
ENDBRANCH  20  21
ENDBRANCH  19  20
ENDBRANCH  16  19
ENDBRANCH  11  13
ENDBRANCH   3   9
TORSDOF 5
ENDMDL
MODEL 5
REMARK VINA RESULT: -8.098720589      3.104      3.920
REMARK  5 active torsions:
REMARK  status: ('A' for Active; 'I' for Inactive)
REMARK    1  A    between atoms: C2_3  and  C3_4 
REMARK       I    between atoms: C3_4  and  N2_6 
REMARK    2  A    between atoms: N2_6  and  C4_8 
REMARK    3  A    between atoms: C7_11  and  C8_12 
REMARK    4  A    between atoms: C8_12  and  C9_13 
REMARK    5  A    between atoms: C9_13  and  N3_14 
ROOT
HETATM    1  N1  UNL     1      -7.300   9.175  -7.306  1.00  0.00    -0.196 NA
HETATM    2  C1  UNL     1      -7.392   9.698  -6.276  1.00  0.00     0.079 C 
HETATM    3  C2  UNL     1      -7.516  10.374  -4.975  1.00  0.00     0.129 C 
HETATM    4  C19 UNL     1      -7.271  11.847  -5.128  1.00  0.00     0.034 C 
HETATM    5  C20 UNL     1      -8.152  12.443  -6.185  1.00  0.00     0.002 C 
HETATM    6  C21 UNL     1      -9.590  12.265  -5.749  1.00  0.00     0.000 C 
HETATM    7  C22 UNL     1      -9.900  10.827  -5.441  1.00  0.00     0.002 C 
HETATM    8  C23 UNL     1      -8.944  10.208  -4.474  1.00  0.00     0.034 C 
ENDROOT
BRANCH   3   9
HETATM    9  C3  UNL     1      -6.571   9.819  -3.987  1.00  0.00     0.240 C 
HETATM   10  O1  UNL     1      -6.424   8.581  -3.914  1.00  0.00    -0.272 OA
HETATM   11  N2  UNL     1      -5.815  10.674  -3.106  1.00  0.00    -0.355 N 
ATOM     12  H2  UNL     1      -5.946  11.683  -3.178  1.00  0.00     0.162 HD
BRANCH  11  13
HETATM   13  C4  UNL     1      -4.887  10.174  -2.134  1.00  0.00     0.084 C 
HETATM   14  C5  UNL     1      -4.473  11.268  -1.151  1.00  0.00     0.025 C 
HETATM   15  C6  UNL     1      -4.425  10.704   0.256  1.00  0.00     0.007 C 
HETATM   16  C7  UNL     1      -5.819  10.359   0.658  1.00  0.00    -0.013 C 
HETATM   17  C17 UNL     1      -6.414   9.384  -0.304  1.00  0.00     0.007 C 
HETATM   18  C18 UNL     1      -5.454   8.981  -1.400  1.00  0.00     0.025 C 
BRANCH  16  19
HETATM   19  C8  UNL     1      -5.943   9.910   2.093  1.00  0.00     0.020 C 
BRANCH  19  20
HETATM   20  C9  UNL     1      -7.352   9.981   2.606  1.00  0.00     0.108 C 
BRANCH  20  21
HETATM   21  N3  UNL     1      -7.878   8.640   2.667  1.00  0.00    -0.202 NA
HETATM   22  C10 UNL     1      -7.979   8.160   4.029  1.00  0.00     0.147 C 
HETATM   23  C11 UNL     1      -9.018   7.145   4.129  1.00  0.00    -0.020 A 
HETATM   24  C12 UNL     1      -9.119   6.091   5.032  1.00  0.00     0.033 A 
HETATM   25  C16 UNL     1     -10.029   7.258   3.213  1.00  0.00     0.082 A 
HETATM   26  C13 UNL     1     -10.158   5.222   5.012  1.00  0.00     0.034 A 
HETATM   27 CL1  UNL     1     -10.306   3.879   6.148  1.00  0.00    -0.084 Cl
HETATM   28  C14 UNL     1     -11.157   5.376   4.068  1.00  0.00     0.025 A 
HETATM   29  C15 UNL     1     -11.090   6.410   3.156  1.00  0.00     0.027 A 
HETATM   30  S1  UNL     1      -9.586   8.646   2.248  1.00  0.00     0.244 S 
HETATM   31  O2  UNL     1      -9.781   8.428   0.800  1.00  0.00    -0.206 OA
HETATM   32  O3  UNL     1     -10.257   9.855   2.788  1.00  0.00    -0.206 OA
ENDBRANCH  20  21
ENDBRANCH  19  20
ENDBRANCH  16  19
ENDBRANCH  11  13
ENDBRANCH   3   9
TORSDOF 5
ENDMDL
