MODEL 1
REMARK VINA RESULT: -7.452995482      0.000      0.000
REMARK  8 active torsions:
REMARK  status: ('A' for Active; 'I' for Inactive)
REMARK    1  A    between atoms: C7_7  and  N1_8 
REMARK       I    between atoms: N1_8  and  C8_10 
REMARK    2  A    between atoms: C8_10  and  C9_12 
REMARK    3  A    between atoms: C9_12  and  O2_13 
REMARK    4  A    between atoms: O2_13  and  C10_14 
REMARK    5  A    between atoms: C11_15  and  S1_16 
REMARK    6  A    between atoms: C14_23  and  C15_24 
REMARK    7  A    between atoms: C16_25  and  C17_26 
REMARK    8  A    between atoms: C20_29  and  C21_30 
ROOT
HETATM    1  C10 UNL     1      -7.340   9.033   2.194  1.00  0.00     0.101 A 
HETATM    2  C11 UNL     1      -8.206   8.161   2.841  1.00  0.00     0.103 A 
HETATM    3  C13 UNL     1      -7.865   7.737   4.097  1.00  0.00     0.126 A 
HETATM    4 CL1  UNL     1      -8.973   6.630   4.907  1.00  0.00    -0.063 Cl
HETATM    5  N2  UNL     1      -6.738   8.154   4.664  1.00  0.00    -0.338 N 
ATOM      6  H2  UNL     1      -6.515   7.815   5.600  1.00  0.00     0.167 HD
HETATM    7  C14 UNL     1      -5.850   9.023   4.053  1.00  0.00     0.097 A 
HETATM    8  C20 UNL     1      -6.133   9.482   2.807  1.00  0.00     0.020 A 
ENDROOT
BRANCH   1   9
HETATM    9  O2  UNL     1      -7.737   9.420   0.961  1.00  0.00    -0.340 OA
BRANCH   9  10
HETATM   10  C9  UNL     1      -8.762  10.301   0.630  1.00  0.00     0.278 C 
BRANCH  10  11
HETATM   11  C8  UNL     1      -8.510  10.972  -0.695  1.00  0.00     0.242 C 
HETATM   12  N1  UNL     1      -9.013  10.411  -1.873  1.00  0.00    -0.354 N 
ATOM     13  H1  UNL     1      -9.546   9.545  -1.794  1.00  0.00     0.162 HD
HETATM   14  O1  UNL     1      -7.845  12.026  -0.680  1.00  0.00    -0.271 OA
BRANCH  12  15
HETATM   15  C7  UNL     1      -8.831  10.969  -3.193  1.00  0.00     0.088 C 
HETATM   16  C2  UNL     1      -8.910   9.904  -4.267  1.00  0.00     0.004 C 
HETATM   17  C1  UNL     1      -7.676   9.018  -4.272  1.00  0.00     0.012 C 
HETATM   18  C3  UNL     1      -8.980  10.573  -5.621  1.00  0.00     0.006 C 
HETATM   19  C4  UNL     1     -10.347  11.206  -5.778  1.00  0.00     0.001 C 
HETATM   20  C5  UNL     1     -10.886  11.674  -4.447  1.00  0.00     0.002 C 
HETATM   21  C6  UNL     1      -9.765  12.085  -3.507  1.00  0.00     0.025 C 
ENDBRANCH  12  15
ENDBRANCH  10  11
ENDBRANCH   9  10
ENDBRANCH   1   9
BRANCH   2  22
HETATM   22  S1  UNL     1      -9.713   7.629   2.087  1.00  0.00     0.051 S 
HETATM   23  C12 UNL     1     -11.085   8.529   2.777  1.00  0.00     0.133 C 
HETATM   24  O3  UNL     1      -9.888   5.988   2.472  1.00  0.00    -0.253 OA
ENDBRANCH   2  22
BRANCH   8  25
HETATM   25  C21 UNL     1      -5.306  10.442   2.116  1.00  0.00    -0.018 C 
HETATM   26  C22 UNL     1      -3.878  10.538   2.537  1.00  0.00     0.019 C 
HETATM   27  C23 UNL     1      -5.932  11.871   2.236  1.00  0.00     0.019 C 
HETATM   28  C24 UNL     1      -5.204  10.228   0.589  1.00  0.00     0.019 C 
ENDBRANCH   8  25
BRANCH   7  29
HETATM   29  C15 UNL     1      -4.702   9.302   4.873  1.00  0.00    -0.048 C 
HETATM   30  C16 UNL     1      -3.761   9.476   5.570  1.00  0.00    -0.095 C 
BRANCH  30  31
HETATM   31  C17 UNL     1      -2.599   9.714   6.421  1.00  0.00     0.065 A 
HETATM   32  C18 UNL     1      -2.763  10.794   7.435  1.00  0.00     0.018 A 
HETATM   33  C19 UNL     1      -1.833  11.019   6.259  1.00  0.00     0.018 A 
ENDBRANCH  30  31
ENDBRANCH   7  29
TORSDOF 8
ENDMDL
MODEL 2
REMARK VINA RESULT: -7.431534706      2.455      4.490
REMARK  8 active torsions:
REMARK  status: ('A' for Active; 'I' for Inactive)
REMARK    1  A    between atoms: C7_7  and  N1_8 
REMARK       I    between atoms: N1_8  and  C8_10 
REMARK    2  A    between atoms: C8_10  and  C9_12 
REMARK    3  A    between atoms: C9_12  and  O2_13 
REMARK    4  A    between atoms: O2_13  and  C10_14 
REMARK    5  A    between atoms: C11_15  and  S1_16 
REMARK    6  A    between atoms: C14_23  and  C15_24 
REMARK    7  A    between atoms: C16_25  and  C17_26 
REMARK    8  A    between atoms: C20_29  and  C21_30 
ROOT
HETATM    1  C10 UNL     1      -7.206   9.503   2.084  1.00  0.00     0.101 A 
HETATM    2  C11 UNL     1      -5.945   9.739   2.616  1.00  0.00     0.103 A 
HETATM    3  C13 UNL     1      -5.613   9.099   3.779  1.00  0.00     0.126 A 
HETATM    4 CL1  UNL     1      -4.009   9.407   4.444  1.00  0.00    -0.063 Cl
HETATM    5  N2  UNL     1      -6.479   8.282   4.368  1.00  0.00    -0.338 N 
ATOM      6  H2  UNL     1      -6.198   7.824   5.235  1.00  0.00     0.167 HD
HETATM    7  C14 UNL     1      -7.744   8.019   3.869  1.00  0.00     0.097 A 
HETATM    8  C20 UNL     1      -8.132   8.622   2.717  1.00  0.00     0.020 A 
ENDROOT
BRANCH   1   9
HETATM    9  O2  UNL     1      -7.471  10.159   0.932  1.00  0.00    -0.340 OA
BRANCH   9  10
HETATM   10  C9  UNL     1      -8.158  11.358   0.770  1.00  0.00     0.278 C 
BRANCH  10  11
HETATM   11  C8  UNL     1      -8.129  11.824  -0.662  1.00  0.00     0.242 C 
HETATM   12  N1  UNL     1      -8.910  11.179  -1.626  1.00  0.00    -0.354 N 
ATOM     13  H1  UNL     1      -9.486  10.396  -1.320  1.00  0.00     0.162 HD
HETATM   14  O1  UNL     1      -7.388  12.789  -0.930  1.00  0.00    -0.271 OA
BRANCH  12  15
HETATM   15  C7  UNL     1      -8.958  11.542  -3.024  1.00  0.00     0.088 C 
HETATM   16  C2  UNL     1      -9.010  10.320  -3.918  1.00  0.00     0.004 C 
HETATM   17  C1  UNL     1      -7.673   9.599  -3.963  1.00  0.00     0.012 C 
HETATM   18  C3  UNL     1      -9.325  10.757  -5.331  1.00  0.00     0.006 C 
HETATM   19  C4  UNL     1     -10.775  11.189  -5.392  1.00  0.00     0.001 C 
HETATM   20  C5  UNL     1     -11.220  11.791  -4.080  1.00  0.00     0.002 C 
HETATM   21  C6  UNL     1     -10.066  12.475  -3.364  1.00  0.00     0.025 C 
ENDBRANCH  12  15
ENDBRANCH  10  11
ENDBRANCH   9  10
ENDBRANCH   1   9
BRANCH   2  22
HETATM   22  S1  UNL     1      -4.791  10.811   1.815  1.00  0.00     0.051 S 
HETATM   23  C12 UNL     1      -5.290  12.505   2.029  1.00  0.00     0.133 C 
HETATM   24  O3  UNL     1      -4.847  10.428   0.165  1.00  0.00    -0.253 OA
ENDBRANCH   2  22
BRANCH   8  25
HETATM   25  C21 UNL     1      -9.403   8.361   2.082  1.00  0.00    -0.018 C 
HETATM   26  C22 UNL     1      -9.482   8.572   0.607  1.00  0.00     0.019 C 
HETATM   27  C23 UNL     1     -10.520   9.232   2.745  1.00  0.00     0.019 C 
HETATM   28  C24 UNL     1      -9.929   6.919   2.256  1.00  0.00     0.019 C 
ENDBRANCH   8  25
BRANCH   7  29
HETATM   29  C15 UNL     1      -8.488   7.114   4.704  1.00  0.00    -0.048 C 
HETATM   30  C16 UNL     1      -9.091   6.327   5.349  1.00  0.00    -0.095 C 
BRANCH  30  31
HETATM   31  C17 UNL     1      -9.840   5.374   6.162  1.00  0.00     0.065 A 
HETATM   32  C18 UNL     1      -9.745   5.581   7.635  1.00  0.00     0.018 A 
HETATM   33  C19 UNL     1      -9.067   4.376   7.013  1.00  0.00     0.018 A 
ENDBRANCH  30  31
ENDBRANCH   7  29
TORSDOF 8
ENDMDL
MODEL 3
REMARK VINA RESULT: -7.227472710      2.620      4.741
REMARK  8 active torsions:
REMARK  status: ('A' for Active; 'I' for Inactive)
REMARK    1  A    between atoms: C7_7  and  N1_8 
REMARK       I    between atoms: N1_8  and  C8_10 
REMARK    2  A    between atoms: C8_10  and  C9_12 
REMARK    3  A    between atoms: C9_12  and  O2_13 
REMARK    4  A    between atoms: O2_13  and  C10_14 
REMARK    5  A    between atoms: C11_15  and  S1_16 
REMARK    6  A    between atoms: C14_23  and  C15_24 
REMARK    7  A    between atoms: C16_25  and  C17_26 
REMARK    8  A    between atoms: C20_29  and  C21_30 
ROOT
HETATM    1  C10 UNL     1      -7.302   9.487   2.074  1.00  0.00     0.101 A 
HETATM    2  C11 UNL     1      -6.061   9.775   2.626  1.00  0.00     0.103 A 
HETATM    3  C13 UNL     1      -5.737   9.181   3.816  1.00  0.00     0.126 A 
HETATM    4 CL1  UNL     1      -4.158   9.555   4.505  1.00  0.00    -0.063 Cl
HETATM    5  N2  UNL     1      -6.594   8.358   4.410  1.00  0.00    -0.338 N 
ATOM      6  H2  UNL     1      -6.320   7.935   5.297  1.00  0.00     0.167 HD
HETATM    7  C14 UNL     1      -7.839   8.045   3.892  1.00  0.00     0.097 A 
HETATM    8  C20 UNL     1      -8.218   8.601   2.713  1.00  0.00     0.020 A 
ENDROOT
BRANCH   1   9
HETATM    9  O2  UNL     1      -7.559  10.100   0.896  1.00  0.00    -0.340 OA
BRANCH   9  10
HETATM   10  C9  UNL     1      -8.280  11.271   0.681  1.00  0.00     0.278 C 
BRANCH  10  11
HETATM   11  C8  UNL     1      -8.443  11.558  -0.788  1.00  0.00     0.242 C 
HETATM   12  N1  UNL     1      -7.741  10.804  -1.733  1.00  0.00    -0.354 N 
ATOM     13  H1  UNL     1      -7.126  10.068  -1.388  1.00  0.00     0.162 HD
HETATM   14  O1  UNL     1      -9.219  12.481  -1.104  1.00  0.00    -0.271 OA
BRANCH  12  15
HETATM   15  C7  UNL     1      -7.823  10.993  -3.164  1.00  0.00     0.088 C 
HETATM   16  C2  UNL     1      -6.451  11.148  -3.788  1.00  0.00     0.004 C 
HETATM   17  C1  UNL     1      -5.834  12.497  -3.460  1.00  0.00     0.012 C 
HETATM   18  C3  UNL     1      -6.584  11.075  -5.292  1.00  0.00     0.006 C 
HETATM   19  C4  UNL     1      -6.890   9.644  -5.682  1.00  0.00     0.001 C 
HETATM   20  C5  UNL     1      -7.699   8.949  -4.613  1.00  0.00     0.002 C 
HETATM   21  C6  UNL     1      -8.590   9.929  -3.866  1.00  0.00     0.025 C 
ENDBRANCH  12  15
ENDBRANCH  10  11
ENDBRANCH   9  10
ENDBRANCH   1   9
BRANCH   2  22
HETATM   22  S1  UNL     1      -4.918  10.854   1.816  1.00  0.00     0.051 S 
HETATM   23  C12 UNL     1      -5.414  12.547   2.053  1.00  0.00     0.133 C 
HETATM   24  O3  UNL     1      -4.999  10.486   0.165  1.00  0.00    -0.253 OA
ENDBRANCH   2  22
BRANCH   8  25
HETATM   25  C21 UNL     1      -9.466   8.285   2.059  1.00  0.00    -0.018 C 
HETATM   26  C22 UNL     1      -9.517   8.444   0.577  1.00  0.00     0.019 C 
HETATM   27  C23 UNL     1     -10.621   9.148   2.667  1.00  0.00     0.019 C 
HETATM   28  C24 UNL     1      -9.959   6.836   2.271  1.00  0.00     0.019 C 
ENDBRANCH   8  25
BRANCH   7  29
HETATM   29  C15 UNL     1      -8.577   7.146   4.739  1.00  0.00    -0.048 C 
HETATM   30  C16 UNL     1      -9.171   6.361   5.396  1.00  0.00    -0.095 C 
BRANCH  30  31
HETATM   31  C17 UNL     1      -9.910   5.412   6.223  1.00  0.00     0.065 A 
HETATM   32  C18 UNL     1      -9.660   5.516   7.689  1.00  0.00     0.018 A 
HETATM   33  C19 UNL     1      -9.138   4.310   6.934  1.00  0.00     0.018 A 
ENDBRANCH  30  31
ENDBRANCH   7  29
TORSDOF 8
ENDMDL
MODEL 4
REMARK VINA RESULT: -7.214606278      1.051      1.580
REMARK  8 active torsions:
REMARK  status: ('A' for Active; 'I' for Inactive)
REMARK    1  A    between atoms: C7_7  and  N1_8 
REMARK       I    between atoms: N1_8  and  C8_10 
REMARK    2  A    between atoms: C8_10  and  C9_12 
REMARK    3  A    between atoms: C9_12  and  O2_13 
REMARK    4  A    between atoms: O2_13  and  C10_14 
REMARK    5  A    between atoms: C11_15  and  S1_16 
REMARK    6  A    between atoms: C14_23  and  C15_24 
REMARK    7  A    between atoms: C16_25  and  C17_26 
REMARK    8  A    between atoms: C20_29  and  C21_30 
ROOT
HETATM    1  C10 UNL     1      -7.263   9.287   2.136  1.00  0.00     0.101 A 
HETATM    2  C11 UNL     1      -8.092   8.365   2.761  1.00  0.00     0.103 A 
HETATM    3  C13 UNL     1      -7.688   7.859   3.967  1.00  0.00     0.126 A 
HETATM    4 CL1  UNL     1      -8.749   6.689   4.750  1.00  0.00    -0.063 Cl
HETATM    5  N2  UNL     1      -6.538   8.247   4.507  1.00  0.00    -0.338 N 
ATOM      6  H2  UNL     1      -6.268   7.846   5.406  1.00  0.00     0.167 HD
HETATM    7  C14 UNL     1      -5.686   9.164   3.917  1.00  0.00     0.097 A 
HETATM    8  C20 UNL     1      -6.031   9.704   2.720  1.00  0.00     0.020 A 
ENDROOT
BRANCH   1   9
HETATM    9  O2  UNL     1      -7.721   9.755   0.952  1.00  0.00    -0.340 OA
BRANCH   9  10
HETATM   10  C9  UNL     1      -8.731  10.687   0.735  1.00  0.00     0.278 C 
BRANCH  10  11
HETATM   11  C8  UNL     1      -8.790  11.112  -0.710  1.00  0.00     0.242 C 
HETATM   12  N1  UNL     1      -8.075  10.403  -1.680  1.00  0.00    -0.354 N 
ATOM     13  H1  UNL     1      -7.523   9.604  -1.369  1.00  0.00     0.162 HD
HETATM   14  O1  UNL     1      -9.494  12.103  -0.981  1.00  0.00    -0.271 OA
BRANCH  12  15
HETATM   15  C7  UNL     1      -8.061  10.721  -3.089  1.00  0.00     0.088 C 
HETATM   16  C2  UNL     1      -6.682  11.143  -3.554  1.00  0.00     0.004 C 
HETATM   17  C1  UNL     1      -6.319  12.529  -3.050  1.00  0.00     0.012 C 
HETATM   18  C3  UNL     1      -6.669  11.204  -5.064  1.00  0.00     0.006 C 
HETATM   19  C4  UNL     1      -6.708   9.790  -5.606  1.00  0.00     0.001 C 
HETATM   20  C5  UNL     1      -7.487   8.877  -4.689  1.00  0.00     0.002 C 
HETATM   21  C6  UNL     1      -8.584   9.631  -3.956  1.00  0.00     0.025 C 
ENDBRANCH  12  15
ENDBRANCH  10  11
ENDBRANCH   9  10
ENDBRANCH   1   9
BRANCH   2  22
HETATM   22  S1  UNL     1      -9.630   7.871   2.045  1.00  0.00     0.051 S 
HETATM   23  C12 UNL     1     -10.971   8.729   2.842  1.00  0.00     0.133 C 
HETATM   24  O3  UNL     1      -9.788   6.211   2.346  1.00  0.00    -0.253 OA
ENDBRANCH   2  22
BRANCH   8  25
HETATM   25  C21 UNL     1      -5.244  10.717   2.058  1.00  0.00    -0.018 C 
HETATM   26  C22 UNL     1      -3.798  10.798   2.417  1.00  0.00     0.019 C 
HETATM   27  C23 UNL     1      -5.872  12.129   2.306  1.00  0.00     0.019 C 
HETATM   28  C24 UNL     1      -5.214  10.610   0.517  1.00  0.00     0.019 C 
ENDBRANCH   8  25
BRANCH   7  29
HETATM   29  C15 UNL     1      -4.501   9.397   4.698  1.00  0.00    -0.048 C 
HETATM   30  C16 UNL     1      -3.542   9.542   5.376  1.00  0.00    -0.095 C 
BRANCH  30  31
HETATM   31  C17 UNL     1      -2.352   9.741   6.198  1.00  0.00     0.065 A 
HETATM   32  C18 UNL     1      -2.465  10.806   7.235  1.00  0.00     0.018 A 
HETATM   33  C19 UNL     1      -1.563  11.033   6.038  1.00  0.00     0.018 A 
ENDBRANCH  30  31
ENDBRANCH   7  29
TORSDOF 8
ENDMDL
MODEL 5
REMARK VINA RESULT: -7.214524799      2.797      4.787
REMARK  8 active torsions:
REMARK  status: ('A' for Active; 'I' for Inactive)
REMARK    1  A    between atoms: C7_7  and  N1_8 
REMARK       I    between atoms: N1_8  and  C8_10 
REMARK    2  A    between atoms: C8_10  and  C9_12 
REMARK    3  A    between atoms: C9_12  and  O2_13 
REMARK    4  A    between atoms: O2_13  and  C10_14 
REMARK    5  A    between atoms: C11_15  and  S1_16 
REMARK    6  A    between atoms: C14_23  and  C15_24 
REMARK    7  A    between atoms: C16_25  and  C17_26 
REMARK    8  A    between atoms: C20_29  and  C21_30 
ROOT
HETATM    1  C10 UNL     1      -7.262   9.994   2.239  1.00  0.00     0.101 A 
HETATM    2  C11 UNL     1      -5.998  10.159   2.787  1.00  0.00     0.103 A 
HETATM    3  C13 UNL     1      -5.615   9.300   3.782  1.00  0.00     0.126 A 
HETATM    4 CL1  UNL     1      -4.007   9.521   4.470  1.00  0.00    -0.063 Cl
HETATM    5  N2  UNL     1      -6.439   8.344   4.197  1.00  0.00    -0.338 N 
ATOM      6  H2  UNL     1      -6.121   7.723   4.942  1.00  0.00     0.167 HD
HETATM    7  C14 UNL     1      -7.706   8.145   3.675  1.00  0.00     0.097 A 
HETATM    8  C20 UNL     1      -8.143   8.964   2.685  1.00  0.00     0.020 A 
ENDROOT
BRANCH   1   9
HETATM    9  O2  UNL     1      -7.578  10.869   1.257  1.00  0.00    -0.340 OA
BRANCH   9  10
HETATM   10  C9  UNL     1      -7.357  10.735  -0.111  1.00  0.00     0.278 C 
BRANCH  10  11
HETATM   11  C8  UNL     1      -7.846  11.940  -0.870  1.00  0.00     0.242 C 
HETATM   12  N1  UNL     1      -9.092  11.913  -1.504  1.00  0.00    -0.354 N 
ATOM     13  H1  UNL     1      -9.641  11.057  -1.430  1.00  0.00     0.162 HD
HETATM   14  O1  UNL     1      -7.096  12.935  -0.900  1.00  0.00    -0.271 OA
BRANCH  12  15
HETATM   15  C7  UNL     1      -9.657  13.010  -2.256  1.00  0.00     0.088 C 
HETATM   16  C2  UNL     1      -9.762  12.682  -3.732  1.00  0.00     0.004 C 
HETATM   17  C1  UNL     1      -8.400  12.681  -4.405  1.00  0.00     0.012 C 
HETATM   18  C3  UNL     1     -10.593  13.744  -4.415  1.00  0.00     0.006 C 
HETATM   19  C4  UNL     1     -12.040  13.566  -4.002  1.00  0.00     0.001 C 
HETATM   20  C5  UNL     1     -12.142  13.024  -2.597  1.00  0.00     0.002 C 
HETATM   21  C6  UNL     1     -10.972  13.477  -1.739  1.00  0.00     0.025 C 
ENDBRANCH  12  15
ENDBRANCH  10  11
ENDBRANCH   9  10
ENDBRANCH   1   9
BRANCH   2  22
HETATM   22  S1  UNL     1      -4.900  11.420   2.213  1.00  0.00     0.051 S 
HETATM   23  C12 UNL     1      -5.759  12.976   2.128  1.00  0.00     0.133 C 
HETATM   24  O3  UNL     1      -4.428  10.969   0.650  1.00  0.00    -0.253 OA
ENDBRANCH   2  22
BRANCH   8  25
HETATM   25  C21 UNL     1      -9.419   8.796   2.030  1.00  0.00    -0.018 C 
HETATM   26  C22 UNL     1      -9.454   8.980   0.550  1.00  0.00     0.019 C 
HETATM   27  C23 UNL     1     -10.471   9.771   2.654  1.00  0.00     0.019 C 
HETATM   28  C24 UNL     1     -10.067   7.407   2.223  1.00  0.00     0.019 C 
ENDBRANCH   8  25
BRANCH   7  29
HETATM   29  C15 UNL     1      -8.398   7.056   4.310  1.00  0.00    -0.048 C 
HETATM   30  C16 UNL     1      -8.914   6.141   4.854  1.00  0.00    -0.095 C 
BRANCH  30  31
HETATM   31  C17 UNL     1      -9.574   5.019   5.517  1.00  0.00     0.065 A 
HETATM   32  C18 UNL     1     -10.466   5.386   6.653  1.00  0.00     0.018 A 
HETATM   33  C19 UNL     1      -9.162   4.669   6.939  1.00  0.00     0.018 A 
ENDBRANCH  30  31
ENDBRANCH   7  29
TORSDOF 8
ENDMDL
