MODEL 1
REMARK VINA RESULT: -8.815041203      0.000      0.000
REMARK  5 active torsions:
REMARK  status: ('A' for Active; 'I' for Inactive)
REMARK    1  A    between atoms: C1_2  and  C2_3 
REMARK       I    between atoms: C1_2  and  N3_22 
REMARK    2  A    between atoms: C2_3  and  C3_4 
REMARK    3  A    between atoms: C3_4  and  C4_5 
REMARK       I    between atoms: N1_8  and  C7_9 
REMARK       I    between atoms: C7_9  and  N2_11 
REMARK    4  A    between atoms: N2_11  and  C8_13 
REMARK    5  A    between atoms: C17_24  and  N4_25 
ROOT
HETATM    1  C3  UNL     1      -5.757  11.921   0.944  1.00  0.00     0.014 C 
ENDROOT
BRANCH   1   2
HETATM    2  C2  UNL     1      -6.057  11.670   2.381  1.00  0.00     0.103 C 
BRANCH   2   3
HETATM    3  C1  UNL     1      -5.809  10.222   2.633  1.00  0.00     0.219 C 
HETATM    4  O1  UNL     1      -4.645   9.710   2.517  1.00  0.00    -0.273 OA
HETATM    5  N3  UNL     1      -6.832   9.322   3.017  1.00  0.00    -0.348 N 
HETATM    6  C16 UNL     1      -7.019   7.935   3.344  1.00  0.00     0.153 C 
HETATM    7  C25 UNL     1      -8.272   9.496   3.250  1.00  0.00     0.153 C 
HETATM    8  C17 UNL     1      -8.295   8.267   4.112  1.00  0.00     0.127 C 
BRANCH   8   9
HETATM    9  N4  UNL     1      -9.400   7.376   3.820  1.00  0.00    -0.333 N 
HETATM   10  C18 UNL     1     -10.250   7.453   2.791  1.00  0.00     0.184 A 
HETATM   11  N5  UNL     1     -11.141   6.461   2.848  1.00  0.00    -0.350 N 
HETATM   12  C19 UNL     1     -10.851   5.738   3.939  1.00  0.00     0.060 A 
ATOM     13  H5  UNL     1     -11.899   6.286   2.187  1.00  0.00     0.166 HD
HETATM   14  C20 UNL     1     -11.416   4.610   4.503  1.00  0.00     0.032 A 
HETATM   15  C24 UNL     1      -9.762   6.309   4.550  1.00  0.00     0.062 A 
HETATM   16  C21 UNL     1     -10.912   4.054   5.655  1.00  0.00     0.002 A 
HETATM   17  C22 UNL     1      -9.819   4.635   6.259  1.00  0.00     0.002 A 
HETATM   18  C23 UNL     1      -9.250   5.749   5.713  1.00  0.00     0.032 A 
ENDBRANCH   8   9
ENDBRANCH   2   3
ENDBRANCH   1   2
BRANCH   1  19
HETATM   19  C4  UNL     1      -6.739  11.457  -0.051  1.00  0.00    -0.008 C 
HETATM   20  C5  UNL     1      -6.462  11.820  -1.482  1.00  0.00     0.025 C 
HETATM   21  C6  UNL     1      -7.274  10.864  -2.331  1.00  0.00     0.131 C 
HETATM   22  N1  UNL     1      -8.672  11.104  -2.033  1.00  0.00    -0.303 N 
HETATM   23  C7  UNL     1      -9.534  11.482  -3.081  1.00  0.00     0.320 C 
HETATM   24  C14 UNL     1      -9.099  10.937  -0.665  1.00  0.00     0.275 C 
HETATM   25  O2  UNL     1      -9.042  11.617  -4.258  1.00  0.00    -0.247 OA
HETATM   26  N2  UNL     1     -10.925  11.731  -2.954  1.00  0.00    -0.338 N 
ATOM     27  H2  UNL     1     -11.351  11.633  -2.032  1.00  0.00     0.164 HD
HETATM   28  F1  UNL     1      -8.901   9.613  -0.242  1.00  0.00    -0.227 F 
HETATM   29  C15 UNL     1      -8.185  11.758   0.248  1.00  0.00     0.064 C 
BRANCH  26  30
HETATM   30  C8  UNL     1     -11.765  12.114  -4.053  1.00  0.00     0.086 C 
HETATM   31  C9  UNL     1     -13.122  11.417  -3.983  1.00  0.00     0.025 C 
HETATM   32  C10 UNL     1     -13.884  12.036  -2.843  1.00  0.00     0.002 C 
HETATM   33  C11 UNL     1     -14.281  13.440  -3.200  1.00  0.00     0.000 C 
HETATM   34  C12 UNL     1     -13.359  14.033  -4.204  1.00  0.00     0.002 C 
HETATM   35  C13 UNL     1     -11.920  13.595  -4.071  1.00  0.00     0.025 C 
ENDBRANCH  26  30
ENDBRANCH   1  19
TORSDOF 5
ENDMDL
MODEL 2
REMARK VINA RESULT: -8.361812032      2.965      7.338
REMARK  5 active torsions:
REMARK  status: ('A' for Active; 'I' for Inactive)
REMARK    1  A    between atoms: C1_2  and  C2_3 
REMARK       I    between atoms: C1_2  and  N3_22 
REMARK    2  A    between atoms: C2_3  and  C3_4 
REMARK    3  A    between atoms: C3_4  and  C4_5 
REMARK       I    between atoms: N1_8  and  C7_9 
REMARK       I    between atoms: C7_9  and  N2_11 
REMARK    4  A    between atoms: N2_11  and  C8_13 
REMARK    5  A    between atoms: C17_24  and  N4_25 
ROOT
HETATM    1  C3  UNL     1      -7.130  12.461  -1.305  1.00  0.00     0.014 C 
ENDROOT
BRANCH   1   2
HETATM    2  C2  UNL     1      -8.140  11.444  -1.709  1.00  0.00     0.103 C 
BRANCH   2   3
HETATM    3  C1  UNL     1      -9.145  11.366  -0.612  1.00  0.00     0.219 C 
HETATM    4  O1  UNL     1     -10.077  12.230  -0.492  1.00  0.00    -0.273 OA
HETATM    5  N3  UNL     1      -9.141  10.340   0.365  1.00  0.00    -0.348 N 
HETATM    6  C16 UNL     1      -9.879   9.911   1.520  1.00  0.00     0.153 C 
HETATM    7  C25 UNL     1      -8.261   9.185   0.587  1.00  0.00     0.153 C 
HETATM    8  C17 UNL     1      -9.345   8.491   1.358  1.00  0.00     0.127 C 
BRANCH   8   9
HETATM    9  N4  UNL     1      -8.884   7.896   2.597  1.00  0.00    -0.333 N 
HETATM   10  C18 UNL     1      -7.742   8.155   3.242  1.00  0.00     0.184 A 
HETATM   11  N5  UNL     1      -7.655   7.416   4.349  1.00  0.00    -0.350 N 
HETATM   12  C19 UNL     1      -8.768   6.668   4.408  1.00  0.00     0.060 A 
ATOM     13  H5  UNL     1      -6.889   7.418   5.023  1.00  0.00     0.166 HD
HETATM   14  C20 UNL     1      -9.227   5.729   5.312  1.00  0.00     0.032 A 
HETATM   15  C24 UNL     1      -9.539   6.966   3.312  1.00  0.00     0.062 A 
HETATM   16  C21 UNL     1     -10.434   5.093   5.134  1.00  0.00     0.002 A 
HETATM   17  C22 UNL     1     -11.200   5.400   4.031  1.00  0.00     0.002 A 
HETATM   18  C23 UNL     1     -10.757   6.326   3.130  1.00  0.00     0.032 A 
ENDBRANCH   8   9
ENDBRANCH   2   3
ENDBRANCH   1   2
BRANCH   1  19
HETATM   19  C4  UNL     1      -6.132  12.070  -0.294  1.00  0.00    -0.008 C 
HETATM   20  C5  UNL     1      -5.644  10.650  -0.352  1.00  0.00     0.025 C 
HETATM   21  C6  UNL     1      -4.332  10.618   0.404  1.00  0.00     0.131 C 
HETATM   22  N1  UNL     1      -4.618  10.975   1.779  1.00  0.00    -0.303 N 
HETATM   23  C7  UNL     1      -4.293  10.060   2.799  1.00  0.00     0.320 C 
HETATM   24  C14 UNL     1      -5.225  12.261   2.021  1.00  0.00     0.275 C 
HETATM   25  O2  UNL     1      -3.770   8.936   2.468  1.00  0.00    -0.247 OA
HETATM   26  N2  UNL     1      -4.491  10.270   4.188  1.00  0.00    -0.338 N 
ATOM     27  H2  UNL     1      -4.904  11.153   4.489  1.00  0.00     0.164 HD
HETATM   28  F1  UNL     1      -4.382  13.296   1.587  1.00  0.00    -0.227 F 
HETATM   29  C15 UNL     1      -6.467  12.402   1.137  1.00  0.00     0.064 C 
BRANCH  26  30
HETATM   30  C8  UNL     1      -4.142   9.306   5.193  1.00  0.00     0.086 C 
HETATM   31  C9  UNL     1      -2.755   9.584   5.770  1.00  0.00     0.025 C 
HETATM   32  C10 UNL     1      -2.862  10.820   6.619  1.00  0.00     0.002 C 
HETATM   33  C11 UNL     1      -3.652  10.517   7.860  1.00  0.00     0.000 C 
HETATM   34  C12 UNL     1      -4.589   9.383   7.651  1.00  0.00     0.002 C 
HETATM   35  C13 UNL     1      -5.178   9.302   6.263  1.00  0.00     0.025 C 
ENDBRANCH  26  30
ENDBRANCH   1  19
TORSDOF 5
ENDMDL
MODEL 3
REMARK VINA RESULT: -8.344286424      0.848      1.126
REMARK  5 active torsions:
REMARK  status: ('A' for Active; 'I' for Inactive)
REMARK    1  A    between atoms: C1_2  and  C2_3 
REMARK       I    between atoms: C1_2  and  N3_22 
REMARK    2  A    between atoms: C2_3  and  C3_4 
REMARK    3  A    between atoms: C3_4  and  C4_5 
REMARK       I    between atoms: N1_8  and  C7_9 
REMARK       I    between atoms: C7_9  and  N2_11 
REMARK    4  A    between atoms: N2_11  and  C8_13 
REMARK    5  A    between atoms: C17_24  and  N4_25 
ROOT
HETATM    1  C3  UNL     1      -5.728  12.072   1.034  1.00  0.00     0.014 C 
ENDROOT
BRANCH   1   2
HETATM    2  C2  UNL     1      -6.293  11.757   2.376  1.00  0.00     0.103 C 
BRANCH   2   3
HETATM    3  C1  UNL     1      -5.995  10.323   2.650  1.00  0.00     0.219 C 
HETATM    4  O1  UNL     1      -4.813   9.851   2.546  1.00  0.00    -0.273 OA
HETATM    5  N3  UNL     1      -6.987   9.392   3.044  1.00  0.00    -0.348 N 
HETATM    6  C16 UNL     1      -7.126   8.005   3.390  1.00  0.00     0.153 C 
HETATM    7  C25 UNL     1      -8.433   9.519   3.269  1.00  0.00     0.153 C 
HETATM    8  C17 UNL     1      -8.417   8.303   4.148  1.00  0.00     0.127 C 
BRANCH   8   9
HETATM    9  N4  UNL     1      -9.489   7.369   3.865  1.00  0.00    -0.333 N 
HETATM   10  C18 UNL     1     -10.358   7.420   2.851  1.00  0.00     0.184 A 
HETATM   11  N5  UNL     1     -11.205   6.391   2.912  1.00  0.00    -0.350 N 
HETATM   12  C19 UNL     1     -10.867   5.670   3.991  1.00  0.00     0.060 A 
ATOM     13  H5  UNL     1     -11.966   6.191   2.262  1.00  0.00     0.166 HD
HETATM   14  C20 UNL     1     -11.375   4.514   4.552  1.00  0.00     0.032 A 
HETATM   15  C24 UNL     1      -9.792   6.281   4.590  1.00  0.00     0.062 A 
HETATM   16  C21 UNL     1     -10.829   3.968   5.690  1.00  0.00     0.002 A 
HETATM   17  C22 UNL     1      -9.750   4.588   6.282  1.00  0.00     0.002 A 
HETATM   18  C23 UNL     1      -9.238   5.731   5.738  1.00  0.00     0.032 A 
ENDBRANCH   8   9
ENDBRANCH   2   3
ENDBRANCH   1   2
BRANCH   1  19
HETATM   19  C4  UNL     1      -6.617  11.934  -0.132  1.00  0.00    -0.008 C 
HETATM   20  C5  UNL     1      -6.629  13.081  -1.102  1.00  0.00     0.025 C 
HETATM   21  C6  UNL     1      -7.186  12.537  -2.401  1.00  0.00     0.131 C 
HETATM   22  N1  UNL     1      -8.546  12.110  -2.140  1.00  0.00    -0.303 N 
HETATM   23  C7  UNL     1      -9.594  12.693  -2.880  1.00  0.00     0.320 C 
HETATM   24  C14 UNL     1      -8.746  11.102  -1.128  1.00  0.00     0.275 C 
HETATM   25  O2  UNL     1      -9.303  13.594  -3.746  1.00  0.00    -0.247 OA
HETATM   26  N2  UNL     1     -10.970  12.369  -2.757  1.00  0.00    -0.338 N 
ATOM     27  H2  UNL     1     -11.239  11.655  -2.079  1.00  0.00     0.164 HD
HETATM   28  F1  UNL     1      -8.095   9.909  -1.482  1.00  0.00    -0.227 F 
HETATM   29  C15 UNL     1      -8.042  11.539   0.159  1.00  0.00     0.064 C 
BRANCH  26  30
HETATM   30  C8  UNL     1     -12.003  12.990  -3.535  1.00  0.00     0.086 C 
HETATM   31  C9  UNL     1     -12.043  12.427  -4.955  1.00  0.00     0.025 C 
HETATM   32  C10 UNL     1     -12.586  11.028  -4.867  1.00  0.00     0.002 C 
HETATM   33  C11 UNL     1     -14.047  11.072  -4.516  1.00  0.00     0.000 C 
HETATM   34  C12 UNL     1     -14.397  12.311  -3.776  1.00  0.00     0.002 C 
HETATM   35  C13 UNL     1     -13.315  12.817  -2.852  1.00  0.00     0.025 C 
ENDBRANCH  26  30
ENDBRANCH   1  19
TORSDOF 5
ENDMDL
MODEL 4
REMARK VINA RESULT: -8.308712557      1.343      1.580
REMARK  5 active torsions:
REMARK  status: ('A' for Active; 'I' for Inactive)
REMARK    1  A    between atoms: C1_2  and  C2_3 
REMARK       I    between atoms: C1_2  and  N3_22 
REMARK    2  A    between atoms: C2_3  and  C3_4 
REMARK    3  A    between atoms: C3_4  and  C4_5 
REMARK       I    between atoms: N1_8  and  C7_9 
REMARK       I    between atoms: C7_9  and  N2_11 
REMARK    4  A    between atoms: N2_11  and  C8_13 
REMARK    5  A    between atoms: C17_24  and  N4_25 
ROOT
HETATM    1  C3  UNL     1      -5.985  12.072   0.965  1.00  0.00     0.014 C 
ENDROOT
BRANCH   1   2
HETATM    2  C2  UNL     1      -6.141  11.754   2.411  1.00  0.00     0.103 C 
BRANCH   2   3
HETATM    3  C1  UNL     1      -5.887  10.294   2.568  1.00  0.00     0.219 C 
HETATM    4  O1  UNL     1      -4.737   9.785   2.350  1.00  0.00    -0.273 OA
HETATM    5  N3  UNL     1      -6.891   9.377   2.965  1.00  0.00    -0.348 N 
HETATM    6  C16 UNL     1      -7.066   7.975   3.226  1.00  0.00     0.153 C 
HETATM    7  C25 UNL     1      -8.311   9.542   3.298  1.00  0.00     0.153 C 
HETATM    8  C17 UNL     1      -8.289   8.268   4.091  1.00  0.00     0.127 C 
BRANCH   8   9
HETATM    9  N4  UNL     1      -9.416   7.398   3.820  1.00  0.00    -0.333 N 
HETATM   10  C18 UNL     1     -10.301   7.508   2.825  1.00  0.00     0.184 A 
HETATM   11  N5  UNL     1     -11.203   6.527   2.893  1.00  0.00    -0.350 N 
HETATM   12  C19 UNL     1     -10.883   5.776   3.959  1.00  0.00     0.060 A 
ATOM     13  H5  UNL     1     -11.987   6.376   2.257  1.00  0.00     0.166 HD
HETATM   14  C20 UNL     1     -11.444   4.644   4.518  1.00  0.00     0.032 A 
HETATM   15  C24 UNL     1      -9.765   6.320   4.541  1.00  0.00     0.062 A 
HETATM   16  C21 UNL     1     -10.906   4.057   5.640  1.00  0.00     0.002 A 
HETATM   17  C22 UNL     1      -9.783   4.610   6.216  1.00  0.00     0.002 A 
HETATM   18  C23 UNL     1      -9.220   5.729   5.672  1.00  0.00     0.032 A 
ENDBRANCH   8   9
ENDBRANCH   2   3
ENDBRANCH   1   2
BRANCH   1  19
HETATM   19  C4  UNL     1      -7.055  11.638   0.050  1.00  0.00    -0.008 C 
HETATM   20  C5  UNL     1      -6.691  10.571  -0.944  1.00  0.00     0.025 C 
HETATM   21  C6  UNL     1      -7.995   9.955  -1.407  1.00  0.00     0.131 C 
HETATM   22  N1  UNL     1      -8.752  10.997  -2.071  1.00  0.00    -0.303 N 
HETATM   23  C7  UNL     1      -9.129  10.810  -3.415  1.00  0.00     0.320 C 
HETATM   24  C14 UNL     1      -9.078  12.175  -1.305  1.00  0.00     0.275 C 
HETATM   25  O2  UNL     1      -8.770   9.729  -4.006  1.00  0.00    -0.247 OA
HETATM   26  N2  UNL     1      -9.884  11.724  -4.194  1.00  0.00    -0.338 N 
ATOM     27  H2  UNL     1     -10.188  12.595  -3.758  1.00  0.00     0.164 HD
HETATM   28  F1  UNL     1      -9.884  11.843  -0.203  1.00  0.00    -0.227 F 
HETATM   29  C15 UNL     1      -7.799  12.731  -0.672  1.00  0.00     0.064 C 
BRANCH  26  30
HETATM   30  C8  UNL     1     -10.246  11.489  -5.563  1.00  0.00     0.086 C 
HETATM   31  C9  UNL     1     -11.736  11.185  -5.699  1.00  0.00     0.025 C 
HETATM   32  C10 UNL     1     -12.480  12.468  -5.449  1.00  0.00     0.002 C 
HETATM   33  C11 UNL     1     -12.257  13.416  -6.593  1.00  0.00     0.000 C 
HETATM   34  C12 UNL     1     -10.973  13.142  -7.291  1.00  0.00     0.002 C 
HETATM   35  C13 UNL     1      -9.859  12.665  -6.391  1.00  0.00     0.025 C 
ENDBRANCH  26  30
ENDBRANCH   1  19
TORSDOF 5
ENDMDL
MODEL 5
REMARK VINA RESULT: -8.226624608      3.734      8.564
REMARK  5 active torsions:
REMARK  status: ('A' for Active; 'I' for Inactive)
REMARK    1  A    between atoms: C1_2  and  C2_3 
REMARK       I    between atoms: C1_2  and  N3_22 
REMARK    2  A    between atoms: C2_3  and  C3_4 
REMARK    3  A    between atoms: C3_4  and  C4_5 
REMARK       I    between atoms: N1_8  and  C7_9 
REMARK       I    between atoms: C7_9  and  N2_11 
REMARK    4  A    between atoms: N2_11  and  C8_13 
REMARK    5  A    between atoms: C17_24  and  N4_25 
ROOT
HETATM    1  C3  UNL     1      -6.947  11.383   1.198  1.00  0.00     0.014 C 
ENDROOT
BRANCH   1   2
HETATM    2  C2  UNL     1      -8.421  11.345   1.403  1.00  0.00     0.103 C 
BRANCH   2   3
HETATM    3  C1  UNL     1      -8.920  10.092   0.771  1.00  0.00     0.219 C 
HETATM    4  O1  UNL     1      -9.028   9.976  -0.496  1.00  0.00    -0.273 OA
HETATM    5  N3  UNL     1      -9.303   8.952   1.519  1.00  0.00    -0.348 N 
HETATM    6  C16 UNL     1      -9.804   7.620   1.325  1.00  0.00     0.153 C 
HETATM    7  C25 UNL     1      -9.337   8.677   2.961  1.00  0.00     0.153 C 
HETATM    8  C17 UNL     1      -9.280   7.201   2.695  1.00  0.00     0.127 C 
BRANCH   8   9
HETATM    9  N4  UNL     1     -10.231   6.435   3.475  1.00  0.00    -0.333 N 
HETATM   10  C18 UNL     1     -11.525   6.235   3.202  1.00  0.00     0.184 A 
HETATM   11  N5  UNL     1     -12.088   5.479   4.146  1.00  0.00    -0.350 N 
HETATM   12  C19 UNL     1     -11.130   5.192   5.040  1.00  0.00     0.060 A 
ATOM     13  H5  UNL     1     -13.062   5.176   4.181  1.00  0.00     0.166 HD
HETATM   14  C20 UNL     1     -11.120   4.458   6.211  1.00  0.00     0.032 A 
HETATM   15  C24 UNL     1      -9.966   5.790   4.623  1.00  0.00     0.062 A 
HETATM   16  C21 UNL     1      -9.975   4.317   6.959  1.00  0.00     0.002 A 
HETATM   17  C22 UNL     1      -8.813   4.920   6.531  1.00  0.00     0.002 A 
HETATM   18  C23 UNL     1      -8.809   5.649   5.375  1.00  0.00     0.032 A 
ENDBRANCH   8   9
ENDBRANCH   2   3
ENDBRANCH   1   2
BRANCH   1  19
HETATM   19  C4  UNL     1      -6.108  10.589   2.113  1.00  0.00    -0.008 C 
HETATM   20  C5  UNL     1      -6.645  10.385   3.502  1.00  0.00     0.025 C 
HETATM   21  C6  UNL     1      -5.912   9.188   4.072  1.00  0.00     0.131 C 
HETATM   22  N1  UNL     1      -4.507   9.537   4.142  1.00  0.00    -0.303 N 
HETATM   23  C7  UNL     1      -3.862   9.503   5.394  1.00  0.00     0.320 C 
HETATM   24  C14 UNL     1      -3.848   9.902   2.912  1.00  0.00     0.275 C 
HETATM   25  O2  UNL     1      -4.549   9.180   6.428  1.00  0.00    -0.247 OA
HETATM   26  N2  UNL     1      -2.492   9.796   5.623  1.00  0.00    -0.338 N 
ATOM     27  H2  UNL     1      -1.914  10.057   4.824  1.00  0.00     0.164 HD
HETATM   28  F1  UNL     1      -3.870   8.833   2.002  1.00  0.00    -0.227 F 
HETATM   29  C15 UNL     1      -4.662  10.996   2.214  1.00  0.00     0.064 C 
BRANCH  26  30
HETATM   30  C8  UNL     1      -1.878   9.747   6.919  1.00  0.00     0.086 C 
HETATM   31  C9  UNL     1      -0.569   8.960   6.882  1.00  0.00     0.025 C 
HETATM   32  C10 UNL     1       0.438   9.800   6.147  1.00  0.00     0.002 C 
HETATM   33  C11 UNL     1       0.820  10.986   6.986  1.00  0.00     0.000 C 
HETATM   34  C12 UNL     1      -0.258  11.353   7.940  1.00  0.00     0.002 C 
HETATM   35  C13 UNL     1      -1.658  11.132   7.421  1.00  0.00     0.025 C 
ENDBRANCH  26  30
ENDBRANCH   1  19
TORSDOF 5
ENDMDL
