MODEL 1
REMARK VINA RESULT: -8.358225428      0.000      0.000
REMARK  8 active torsions:
REMARK  status: ('A' for Active; 'I' for Inactive)
REMARK    1  A    between atoms: O1_1  and  C1_3 
REMARK    2  A    between atoms: C1_3  and  C2_4 
REMARK    3  A    between atoms: C1_3  and  N2_27 
REMARK    4  A    between atoms: C6_8  and  O2_9 
REMARK    5  A    between atoms: O2_9  and  C7_10 
REMARK    6  A    between atoms: C7_10  and  C8_11 
REMARK       I    between atoms: N1_14  and  C11_15 
REMARK    7  A    between atoms: C11_15  and  C12_17 
REMARK    8  A    between atoms: C23_30  and  O4_31 
ROOT
HETATM    1  C2  UNL     1      -9.037   7.693   3.067  1.00  0.00     0.017 A 
HETATM    2  C3  UNL     1     -10.329   7.981   2.752  1.00  0.00     0.016 A 
HETATM    3  C4  UNL     1     -10.687   9.104   1.989  1.00  0.00     0.004 A 
HETATM    4  C5  UNL     1      -9.717   9.965   1.529  1.00  0.00     0.037 A 
HETATM    5  C6  UNL     1      -8.400   9.704   1.830  1.00  0.00     0.069 A 
HETATM    6  C20 UNL     1      -8.089   8.609   2.569  1.00  0.00     0.052 A 
ENDROOT
BRANCH   5   7
HETATM    7  O2  UNL     1      -7.457  10.599   1.345  1.00  0.00    -0.351 OA
BRANCH   7   8
HETATM    8  C7  UNL     1      -7.216  10.599  -0.051  1.00  0.00     0.181 C 
BRANCH   8   9
HETATM    9  C8  UNL     1      -6.115   9.590  -0.304  1.00  0.00     0.031 C 
HETATM   10  C9  UNL     1      -6.000   9.331  -1.777  1.00  0.00     0.028 C 
HETATM   11  C10 UNL     1      -4.715   8.493  -1.942  1.00  0.00     0.126 C 
HETATM   12  N1  UNL     1      -3.630   9.395  -1.701  1.00  0.00    -0.350 N 
HETATM   13  C11 UNL     1      -2.435   9.334  -2.426  1.00  0.00     0.224 C 
HETATM   14  C18 UNL     1      -3.770  10.405  -0.673  1.00  0.00     0.146 C 
HETATM   15  O3  UNL     1      -1.475  10.160  -2.206  1.00  0.00    -0.273 OA
HETATM   16  C19 UNL     1      -4.849  10.078   0.324  1.00  0.00     0.106 C 
HETATM   17 CL1  UNL     1      -4.207   8.896   1.489  1.00  0.00    -0.123 Cl
BRANCH  13  18
HETATM   18  C12 UNL     1      -2.224   8.319  -3.472  1.00  0.00     0.078 C 
HETATM   19  C13 UNL     1      -1.452   7.170  -2.891  1.00  0.00     0.014 C 
HETATM   20  C14 UNL     1       0.055   7.435  -2.966  1.00  0.00     0.001 C 
HETATM   21  C15 UNL     1       0.489   7.472  -4.395  1.00  0.00     0.000 C 
HETATM   22  C16 UNL     1      -0.625   7.887  -5.331  1.00  0.00     0.001 C 
HETATM   23  C17 UNL     1      -1.513   8.936  -4.664  1.00  0.00     0.014 C 
ENDBRANCH  13  18
ENDBRANCH   8   9
ENDBRANCH   7   8
ENDBRANCH   5   7
BRANCH   1  24
HETATM   24  C1  UNL     1      -8.569   6.558   3.830  1.00  0.00     0.148 C 
BRANCH  24  25
HETATM   25  O1  UNL     1      -7.258   6.377   3.833  1.00  0.00    -0.346 OA
ATOM     26  H1  UNL     1      -6.885   6.112   4.665  1.00  0.00     0.219 HD
ENDBRANCH  24  25
BRANCH  24  27
HETATM   27  N2  UNL     1      -9.237   5.599   4.576  1.00  0.00    -0.361 N 
HETATM   28  C21 UNL     1     -10.210   4.751   3.859  1.00  0.00     0.127 C 
HETATM   29  C22 UNL     1     -11.555   4.924   4.505  1.00  0.00     0.051 C 
HETATM   30  C23 UNL     1     -11.459   4.791   5.988  1.00  0.00     0.121 C 
HETATM   31  C24 UNL     1     -10.106   4.318   6.415  1.00  0.00     0.051 C 
HETATM   32  C25 UNL     1      -9.075   5.381   5.971  1.00  0.00     0.127 C 
BRANCH  30  33
HETATM   33  O4  UNL     1     -12.418   3.857   6.449  1.00  0.00    -0.395 OA
ATOM     34  H4  UNL     1     -12.182   3.556   7.318  1.00  0.00     0.210 HD
ENDBRANCH  30  33
ENDBRANCH  24  27
ENDBRANCH   1  24
TORSDOF 8
ENDMDL
MODEL 2
REMARK VINA RESULT: -8.311373222      4.036      5.986
REMARK  8 active torsions:
REMARK  status: ('A' for Active; 'I' for Inactive)
REMARK    1  A    between atoms: O1_1  and  C1_3 
REMARK    2  A    between atoms: C1_3  and  C2_4 
REMARK    3  A    between atoms: C1_3  and  N2_27 
REMARK    4  A    between atoms: C6_8  and  O2_9 
REMARK    5  A    between atoms: O2_9  and  C7_10 
REMARK    6  A    between atoms: C7_10  and  C8_11 
REMARK       I    between atoms: N1_14  and  C11_15 
REMARK    7  A    between atoms: C11_15  and  C12_17 
REMARK    8  A    between atoms: C23_30  and  O4_31 
ROOT
HETATM    1  C2  UNL     1      -8.987   9.654   1.404  1.00  0.00     0.017 A 
HETATM    2  C3  UNL     1      -9.554  10.701   0.745  1.00  0.00     0.016 A 
HETATM    3  C4  UNL     1      -8.970  11.284  -0.391  1.00  0.00     0.004 A 
HETATM    4  C5  UNL     1      -7.778  10.801  -0.880  1.00  0.00     0.037 A 
HETATM    5  C6  UNL     1      -7.177   9.744  -0.238  1.00  0.00     0.069 A 
HETATM    6  C20 UNL     1      -7.769   9.203   0.857  1.00  0.00     0.052 A 
ENDROOT
BRANCH   5   7
HETATM    7  O2  UNL     1      -5.976   9.290  -0.767  1.00  0.00    -0.351 OA
BRANCH   7   8
HETATM    8  C7  UNL     1      -4.789   9.928  -0.328  1.00  0.00     0.181 C 
BRANCH   8   9
HETATM    9  C8  UNL     1      -4.909  10.086   1.173  1.00  0.00     0.031 C 
HETATM   10  C9  UNL     1      -4.103   9.021   1.856  1.00  0.00     0.028 C 
HETATM   11  C10 UNL     1      -4.096   9.411   3.348  1.00  0.00     0.126 C 
HETATM   12  N1  UNL     1      -3.241  10.556   3.445  1.00  0.00    -0.350 N 
HETATM   13  C11 UNL     1      -2.383  10.754   4.532  1.00  0.00     0.224 C 
HETATM   14  C18 UNL     1      -3.263  11.542   2.386  1.00  0.00     0.146 C 
HETATM   15  O3  UNL     1      -1.611  11.781   4.598  1.00  0.00    -0.273 OA
HETATM   16  C19 UNL     1      -4.515  11.477   1.554  1.00  0.00     0.106 C 
HETATM   17 CL1  UNL     1      -5.825  12.303   2.431  1.00  0.00    -0.123 Cl
BRANCH  13  18
HETATM   18  C12 UNL     1      -2.326   9.797   5.650  1.00  0.00     0.078 C 
HETATM   19  C13 UNL     1      -3.456  10.082   6.597  1.00  0.00     0.014 C 
HETATM   20  C14 UNL     1      -3.056  11.157   7.611  1.00  0.00     0.001 C 
HETATM   21  C15 UNL     1      -1.971  10.637   8.496  1.00  0.00     0.000 C 
HETATM   22  C16 UNL     1      -1.138   9.566   7.825  1.00  0.00     0.001 C 
HETATM   23  C17 UNL     1      -0.975   9.876   6.338  1.00  0.00     0.014 C 
ENDBRANCH  13  18
ENDBRANCH   8   9
ENDBRANCH   7   8
ENDBRANCH   5   7
BRANCH   1  24
HETATM   24  C1  UNL     1      -9.515   8.979   2.567  1.00  0.00     0.148 C 
BRANCH  24  25
HETATM   25  O1  UNL     1     -10.247   9.728   3.375  1.00  0.00    -0.346 OA
ATOM     26  H1  UNL     1     -10.618  10.510   2.984  1.00  0.00     0.219 HD
ENDBRANCH  24  25
BRANCH  24  27
HETATM   27  N2  UNL     1      -9.404   7.671   3.013  1.00  0.00    -0.361 N 
HETATM   28  C21 UNL     1     -10.337   6.684   2.434  1.00  0.00     0.127 C 
HETATM   29  C22 UNL     1     -11.130   6.068   3.552  1.00  0.00     0.051 C 
HETATM   30  C23 UNL     1     -10.237   5.630   4.665  1.00  0.00     0.121 C 
HETATM   31  C24 UNL     1      -8.793   5.725   4.287  1.00  0.00     0.051 C 
HETATM   32  C25 UNL     1      -8.481   7.211   3.992  1.00  0.00     0.127 C 
BRANCH  30  33
HETATM   33  O4  UNL     1     -10.517   4.284   5.001  1.00  0.00    -0.395 OA
ATOM     34  H4  UNL     1     -10.651   4.208   5.938  1.00  0.00     0.210 HD
ENDBRANCH  30  33
ENDBRANCH  24  27
ENDBRANCH   1  24
TORSDOF 8
ENDMDL
MODEL 3
REMARK VINA RESULT: -8.209255409      1.418      1.995
REMARK  8 active torsions:
REMARK  status: ('A' for Active; 'I' for Inactive)
REMARK    1  A    between atoms: O1_1  and  C1_3 
REMARK    2  A    between atoms: C1_3  and  C2_4 
REMARK    3  A    between atoms: C1_3  and  N2_27 
REMARK    4  A    between atoms: C6_8  and  O2_9 
REMARK    5  A    between atoms: O2_9  and  C7_10 
REMARK    6  A    between atoms: C7_10  and  C8_11 
REMARK       I    between atoms: N1_14  and  C11_15 
REMARK    7  A    between atoms: C11_15  and  C12_17 
REMARK    8  A    between atoms: C23_30  and  O4_31 
ROOT
HETATM    1  C2  UNL     1      -9.014   7.621   3.169  1.00  0.00     0.017 A 
HETATM    2  C3  UNL     1     -10.287   7.946   2.816  1.00  0.00     0.016 A 
HETATM    3  C4  UNL     1     -10.602   9.132   2.133  1.00  0.00     0.004 A 
HETATM    4  C5  UNL     1      -9.606  10.019   1.794  1.00  0.00     0.037 A 
HETATM    5  C6  UNL     1      -8.307   9.723   2.136  1.00  0.00     0.069 A 
HETATM    6  C20 UNL     1      -8.038   8.567   2.796  1.00  0.00     0.052 A 
ENDROOT
BRANCH   5   7
HETATM    7  O2  UNL     1      -7.337  10.646   1.774  1.00  0.00    -0.351 OA
BRANCH   7   8
HETATM    8  C7  UNL     1      -7.672  11.581   0.763  1.00  0.00     0.181 C 
BRANCH   8   9
HETATM    9  C8  UNL     1      -6.599  11.475  -0.301  1.00  0.00     0.031 C 
HETATM   10  C9  UNL     1      -5.307  11.050   0.330  1.00  0.00     0.028 C 
HETATM   11  C10 UNL     1      -4.361  10.744  -0.849  1.00  0.00     0.126 C 
HETATM   12  N1  UNL     1      -4.841   9.524  -1.424  1.00  0.00    -0.350 N 
HETATM   13  C11 UNL     1      -3.975   8.543  -1.921  1.00  0.00     0.224 C 
HETATM   14  C18 UNL     1      -6.268   9.292  -1.494  1.00  0.00     0.146 C 
HETATM   15  O3  UNL     1      -4.422   7.446  -2.422  1.00  0.00    -0.273 OA
HETATM   16  C19 UNL     1      -7.071  10.561  -1.385  1.00  0.00     0.106 C 
HETATM   17 CL1  UNL     1      -7.064  11.376  -2.967  1.00  0.00    -0.123 Cl
BRANCH  13  18
HETATM   18  C12 UNL     1      -2.514   8.725  -1.895  1.00  0.00     0.078 C 
HETATM   19  C13 UNL     1      -2.105   9.574  -3.064  1.00  0.00     0.014 C 
HETATM   20  C14 UNL     1      -1.887   8.711  -4.310  1.00  0.00     0.001 C 
HETATM   21  C15 UNL     1      -0.718   7.805  -4.099  1.00  0.00     0.000 C 
HETATM   22  C16 UNL     1      -0.486   7.488  -2.638  1.00  0.00     0.001 C 
HETATM   23  C17 UNL     1      -1.819   7.375  -1.902  1.00  0.00     0.014 C 
ENDBRANCH  13  18
ENDBRANCH   8   9
ENDBRANCH   7   8
ENDBRANCH   5   7
BRANCH   1  24
HETATM   24  C1  UNL     1      -8.589   6.424   3.857  1.00  0.00     0.148 C 
BRANCH  24  25
HETATM   25  O1  UNL     1      -7.300   6.143   3.767  1.00  0.00    -0.346 OA
ATOM     26  H1  UNL     1      -6.903   6.314   2.921  1.00  0.00     0.219 HD
ENDBRANCH  24  25
BRANCH  24  27
HETATM   27  N2  UNL     1      -9.283   5.488   4.609  1.00  0.00    -0.361 N 
HETATM   28  C21 UNL     1     -10.301   4.683   3.903  1.00  0.00     0.127 C 
HETATM   29  C22 UNL     1     -11.627   4.905   4.572  1.00  0.00     0.051 C 
HETATM   30  C23 UNL     1     -11.512   4.760   6.053  1.00  0.00     0.121 C 
HETATM   31  C24 UNL     1     -10.173   4.231   6.456  1.00  0.00     0.051 C 
HETATM   32  C25 UNL     1      -9.107   5.255   6.000  1.00  0.00     0.127 C 
BRANCH  30  33
HETATM   33  O4  UNL     1     -12.500   3.861   6.525  1.00  0.00    -0.395 OA
ATOM     34  H4  UNL     1     -12.171   3.391   7.282  1.00  0.00     0.210 HD
ENDBRANCH  30  33
ENDBRANCH  24  27
ENDBRANCH   1  24
TORSDOF 8
ENDMDL
MODEL 4
REMARK VINA RESULT: -8.208422617      4.298      6.219
REMARK  8 active torsions:
REMARK  status: ('A' for Active; 'I' for Inactive)
REMARK    1  A    between atoms: O1_1  and  C1_3 
REMARK    2  A    between atoms: C1_3  and  C2_4 
REMARK    3  A    between atoms: C1_3  and  N2_27 
REMARK    4  A    between atoms: C6_8  and  O2_9 
REMARK    5  A    between atoms: O2_9  and  C7_10 
REMARK    6  A    between atoms: C7_10  and  C8_11 
REMARK       I    between atoms: N1_14  and  C11_15 
REMARK    7  A    between atoms: C11_15  and  C12_17 
REMARK    8  A    between atoms: C23_30  and  O4_31 
ROOT
HETATM    1  C2  UNL     1      -9.011   8.222   3.210  1.00  0.00     0.017 A 
HETATM    2  C3  UNL     1     -10.136   8.983   3.294  1.00  0.00     0.016 A 
HETATM    3  C4  UNL     1     -10.532   9.861   2.273  1.00  0.00     0.004 A 
HETATM    4  C5  UNL     1      -9.774   9.979   1.131  1.00  0.00     0.037 A 
HETATM    5  C6  UNL     1      -8.629   9.225   1.012  1.00  0.00     0.069 A 
HETATM    6  C20 UNL     1      -8.276   8.385   2.019  1.00  0.00     0.052 A 
ENDROOT
BRANCH   5   7
HETATM    7  O2  UNL     1      -7.896   9.377  -0.156  1.00  0.00    -0.351 OA
BRANCH   7   8
HETATM    8  C7  UNL     1      -7.017  10.486  -0.234  1.00  0.00     0.181 C 
BRANCH   8   9
HETATM    9  C8  UNL     1      -7.333  11.202  -1.531  1.00  0.00     0.031 C 
HETATM   10  C9  UNL     1      -7.906  10.227  -2.516  1.00  0.00     0.028 C 
HETATM   11  C10 UNL     1      -8.408  11.088  -3.694  1.00  0.00     0.126 C 
HETATM   12  N1  UNL     1      -9.574  11.763  -3.211  1.00  0.00    -0.350 N 
HETATM   13  C11 UNL     1     -10.694  11.985  -4.020  1.00  0.00     0.224 C 
HETATM   14  C18 UNL     1      -9.600  12.231  -1.841  1.00  0.00     0.146 C 
HETATM   15  O3  UNL     1     -11.740  12.581  -3.567  1.00  0.00    -0.273 OA
HETATM   16  C19 UNL     1      -8.225  12.367  -1.245  1.00  0.00     0.106 C 
HETATM   17 CL1  UNL     1      -7.504  13.890  -1.817  1.00  0.00    -0.123 Cl
BRANCH  13  18
HETATM   18  C12 UNL     1     -10.724  11.548  -5.425  1.00  0.00     0.078 C 
HETATM   19  C13 UNL     1     -10.066  12.594  -6.278  1.00  0.00     0.014 C 
HETATM   20  C14 UNL     1     -11.071  13.676  -6.683  1.00  0.00     0.001 C 
HETATM   21  C15 UNL     1     -12.111  13.087  -7.580  1.00  0.00     0.000 C 
HETATM   22  C16 UNL     1     -12.310  11.605  -7.344  1.00  0.00     0.001 C 
HETATM   23  C17 UNL     1     -12.155  11.280  -5.859  1.00  0.00     0.014 C 
ENDBRANCH  13  18
ENDBRANCH   8   9
ENDBRANCH   7   8
ENDBRANCH   5   7
BRANCH   1  24
HETATM   24  C1  UNL     1      -8.530   7.283   4.197  1.00  0.00     0.148 C 
BRANCH  24  25
HETATM   25  O1  UNL     1      -7.327   7.536   4.685  1.00  0.00    -0.346 OA
ATOM     26  H1  UNL     1      -6.668   6.874   4.511  1.00  0.00     0.219 HD
ENDBRANCH  24  25
BRANCH  24  27
HETATM   27  N2  UNL     1      -9.093   6.140   4.746  1.00  0.00    -0.361 N 
HETATM   28  C21 UNL     1      -9.915   5.303   3.849  1.00  0.00     0.127 C 
HETATM   29  C22 UNL     1     -11.296   5.199   4.432  1.00  0.00     0.051 C 
HETATM   30  C23 UNL     1     -11.242   4.844   5.880  1.00  0.00     0.121 C 
HETATM   31  C24 UNL     1      -9.856   4.482   6.310  1.00  0.00     0.051 C 
HETATM   32  C25 UNL     1      -8.959   5.724   6.098  1.00  0.00     0.127 C 
BRANCH  30  33
HETATM   33  O4  UNL     1     -12.085   3.735   6.133  1.00  0.00    -0.395 OA
ATOM     34  H4  UNL     1     -11.595   3.053   6.577  1.00  0.00     0.210 HD
ENDBRANCH  30  33
ENDBRANCH  24  27
ENDBRANCH   1  24
TORSDOF 8
ENDMDL
MODEL 5
REMARK VINA RESULT: -8.130933449      1.304      1.874
REMARK  8 active torsions:
REMARK  status: ('A' for Active; 'I' for Inactive)
REMARK    1  A    between atoms: O1_1  and  C1_3 
REMARK    2  A    between atoms: C1_3  and  C2_4 
REMARK    3  A    between atoms: C1_3  and  N2_27 
REMARK    4  A    between atoms: C6_8  and  O2_9 
REMARK    5  A    between atoms: O2_9  and  C7_10 
REMARK    6  A    between atoms: C7_10  and  C8_11 
REMARK       I    between atoms: N1_14  and  C11_15 
REMARK    7  A    between atoms: C11_15  and  C12_17 
REMARK    8  A    between atoms: C23_30  and  O4_31 
ROOT
HETATM    1  C2  UNL     1      -9.079   7.457   3.187  1.00  0.00     0.017 A 
HETATM    2  C3  UNL     1     -10.287   7.733   2.626  1.00  0.00     0.016 A 
HETATM    3  C4  UNL     1     -10.558   8.947   1.975  1.00  0.00     0.004 A 
HETATM    4  C5  UNL     1      -9.585   9.915   1.885  1.00  0.00     0.037 A 
HETATM    5  C6  UNL     1      -8.350   9.670   2.441  1.00  0.00     0.069 A 
HETATM    6  C20 UNL     1      -8.122   8.485   3.063  1.00  0.00     0.052 A 
ENDROOT
BRANCH   5   7
HETATM    7  O2  UNL     1      -7.400  10.675   2.326  1.00  0.00    -0.351 OA
BRANCH   7   8
HETATM    8  C7  UNL     1      -6.062  10.346   2.659  1.00  0.00     0.181 C 
BRANCH   8   9
HETATM    9  C8  UNL     1      -5.228  10.607   1.422  1.00  0.00     0.031 C 
HETATM   10  C9  UNL     1      -3.996   9.752   1.458  1.00  0.00     0.028 C 
HETATM   11  C10 UNL     1      -3.351   9.911   0.066  1.00  0.00     0.126 C 
HETATM   12  N1  UNL     1      -4.199   9.194  -0.838  1.00  0.00    -0.350 N 
HETATM   13  C11 UNL     1      -3.688   8.455  -1.911  1.00  0.00     0.224 C 
HETATM   14  C18 UNL     1      -5.632   9.232  -0.638  1.00  0.00     0.146 C 
HETATM   15  O3  UNL     1      -4.462   7.806  -2.706  1.00  0.00    -0.273 OA
HETATM   16  C19 UNL     1      -6.073  10.396   0.207  1.00  0.00     0.106 C 
HETATM   17 CL1  UNL     1      -6.116  11.855  -0.812  1.00  0.00    -0.123 Cl
BRANCH  13  18
HETATM   18  C12 UNL     1      -2.241   8.391  -2.178  1.00  0.00     0.078 C 
HETATM   19  C13 UNL     1      -1.843   9.578  -3.007  1.00  0.00     0.014 C 
HETATM   20  C14 UNL     1      -2.043   9.290  -4.498  1.00  0.00     0.001 C 
HETATM   21  C15 UNL     1      -1.100   8.216  -4.935  1.00  0.00     0.000 C 
HETATM   22  C16 UNL     1      -0.710   7.290  -3.803  1.00  0.00     0.001 C 
HETATM   23  C17 UNL     1      -1.893   7.079  -2.860  1.00  0.00     0.014 C 
ENDBRANCH  13  18
ENDBRANCH   8   9
ENDBRANCH   7   8
ENDBRANCH   5   7
BRANCH   1  24
HETATM   24  C1  UNL     1      -8.700   6.237   3.862  1.00  0.00     0.148 C 
BRANCH  24  25
HETATM   25  O1  UNL     1      -7.439   5.869   3.705  1.00  0.00    -0.346 OA
ATOM     26  H1  UNL     1      -7.310   5.019   3.301  1.00  0.00     0.219 HD
ENDBRANCH  24  25
BRANCH  24  27
HETATM   27  N2  UNL     1      -9.413   5.356   4.660  1.00  0.00    -0.361 N 
HETATM   28  C21 UNL     1     -10.452   4.543   3.996  1.00  0.00     0.127 C 
HETATM   29  C22 UNL     1     -11.771   4.829   4.657  1.00  0.00     0.051 C 
HETATM   30  C23 UNL     1     -11.655   4.753   6.143  1.00  0.00     0.121 C 
HETATM   31  C24 UNL     1     -10.327   4.211   6.567  1.00  0.00     0.051 C 
HETATM   32  C25 UNL     1      -9.238   5.186   6.060  1.00  0.00     0.127 C 
BRANCH  30  33
HETATM   33  O4  UNL     1     -12.662   3.903   6.659  1.00  0.00    -0.395 OA
ATOM     34  H4  UNL     1     -12.400   3.574   7.511  1.00  0.00     0.210 HD
ENDBRANCH  30  33
ENDBRANCH  24  27
ENDBRANCH   1  24
TORSDOF 8
ENDMDL
