MODEL 1
REMARK VINA RESULT: -9.471450704      0.000      0.000
REMARK  5 active torsions:
REMARK  status: ('A' for Active; 'I' for Inactive)
REMARK    1  A    between atoms: C1_1  and  C9_21 
REMARK    2  A    between atoms: N1_2  and  N2_4 
REMARK    3  A    between atoms: N2_4  and  C2_6 
REMARK    4  A    between atoms: C2_6  and  C3_7 
REMARK    5  A    between atoms: N5_12  and  C4_13 
ROOT
HETATM    1  N2  UNL     1     -14.732  15.199  29.516  1.00  0.00    -0.330 N 
ATOM      2  H2  UNL     1     -14.911  16.164  29.235  1.00  0.00     0.180 HD
ENDROOT
BRANCH   1   3
HETATM    3  N1  UNL     1     -13.844  14.469  28.777  1.00  0.00    -0.315 N 
HETATM    4  C1  UNL     1     -13.977  13.482  28.013  1.00  0.00     0.113 C 
ATOM      5  H1  UNL     1     -12.880  14.790  28.865  1.00  0.00     0.185 HD
BRANCH   4   6
HETATM    6  C9  UNL     1     -15.157  12.751  27.636  1.00  0.00    -0.043 C 
HETATM    7  C10 UNL     1     -15.051  11.480  27.179  1.00  0.00     0.017 C 
HETATM    8  C11 UNL     1     -16.311  10.830  26.825  1.00  0.00     0.251 C 
HETATM    9  C12 UNL     1     -17.196  10.840  28.061  1.00  0.00     0.023 C 
HETATM   10  N7  UNL     1     -16.163   9.434  26.476  1.00  0.00     0.101 N 
HETATM   11  C13 UNL     1     -17.472  12.257  28.430  1.00  0.00     0.011 C 
HETATM   12  C15 UNL     1     -18.386   9.964  27.956  1.00  0.00     0.009 C 
HETATM   13  C14 UNL     1     -16.552  13.240  27.686  1.00  0.00     0.040 C 
HETATM   14  C16 UNL     1     -18.601   9.269  26.671  1.00  0.00     0.036 C 
HETATM   15  C17 UNL     1     -17.426   9.105  25.793  1.00  0.00     0.224 C 
HETATM   16  C18 UNL     1     -17.143   7.726  25.309  1.00  0.00     0.037 C 
HETATM   17  C19 UNL     1     -15.726   7.905  24.743  1.00  0.00     0.032 C 
HETATM   18  C20 UNL     1     -15.216   9.168  25.448  1.00  0.00     0.274 C 
ENDBRANCH   4   6
ENDBRANCH   1   3
BRANCH   1  19
HETATM   19  C2  UNL     1     -15.441  14.682  30.685  1.00  0.00     0.218 C 
BRANCH  19  20
HETATM   20  C3  UNL     1     -16.602  15.535  31.045  1.00  0.00     0.132 A 
HETATM   21  N3  UNL     1     -16.486  16.853  31.350  1.00  0.00    -0.271 N 
HETATM   22  N4  UNL     1     -17.686  17.280  31.612  1.00  0.00    -0.224 N 
ATOM     23  H3  UNL     1     -15.626  17.400  31.371  1.00  0.00     0.190 HD
HETATM   24  N5  UNL     1     -18.582  16.307  31.494  1.00  0.00    -0.213 N 
ATOM     25  H4  UNL     1     -17.910  18.240  31.875  1.00  0.00     0.210 HD
HETATM   26  N6  UNL     1     -17.902  15.231  31.143  1.00  0.00    -0.268 N 
ATOM     27  H6  UNL     1     -18.306  14.310  30.972  1.00  0.00     0.190 HD
BRANCH  24  28
HETATM   28  C4  UNL     1     -20.019  16.386  31.701  1.00  0.00     0.132 C 
HETATM   29  C5  UNL     1     -20.607  15.003  31.857  1.00  0.00     0.055 C 
HETATM   30  C6  UNL     1     -21.844  15.145  32.740  1.00  0.00     0.169 C 
HETATM   31  O1  UNL     1     -22.482  16.356  32.514  1.00  0.00    -0.391 OA
HETATM   32  C7  UNL     1     -21.777  17.439  33.037  1.00  0.00     0.169 C 
HETATM   33  C8  UNL     1     -20.285  17.138  32.989  1.00  0.00     0.055 C 
ENDBRANCH  24  28
ENDBRANCH  19  20
ENDBRANCH   1  19
TORSDOF 5
ENDMDL
MODEL 2
REMARK VINA RESULT: -9.385046969      1.347      1.714
REMARK  5 active torsions:
REMARK  status: ('A' for Active; 'I' for Inactive)
REMARK    1  A    between atoms: C1_1  and  C9_21 
REMARK    2  A    between atoms: N1_2  and  N2_4 
REMARK    3  A    between atoms: N2_4  and  C2_6 
REMARK    4  A    between atoms: C2_6  and  C3_7 
REMARK    5  A    between atoms: N5_12  and  C4_13 
ROOT
HETATM    1  N2  UNL     1     -15.264  14.586  30.536  1.00  0.00    -0.330 N 
ATOM      2  H2  UNL     1     -15.651  13.854  31.132  1.00  0.00     0.180 HD
ENDROOT
BRANCH   1   3
HETATM    3  N1  UNL     1     -14.345  14.226  29.590  1.00  0.00    -0.315 N 
HETATM    4  C1  UNL     1     -14.406  13.486  28.578  1.00  0.00     0.113 C 
ATOM      5  H1  UNL     1     -13.426  14.641  29.737  1.00  0.00     0.185 HD
BRANCH   4   6
HETATM    6  C9  UNL     1     -15.508  12.733  28.043  1.00  0.00    -0.043 C 
HETATM    7  C10 UNL     1     -15.295  11.505  27.509  1.00  0.00     0.017 C 
HETATM    8  C11 UNL     1     -16.483  10.827  26.994  1.00  0.00     0.251 C 
HETATM    9  C12 UNL     1     -17.475  10.704  28.140  1.00  0.00     0.023 C 
HETATM   10  N7  UNL     1     -16.233   9.470  26.563  1.00  0.00     0.101 N 
HETATM   11  C13 UNL     1     -17.856  12.076  28.581  1.00  0.00     0.011 C 
HETATM   12  C15 UNL     1     -18.604   9.786  27.864  1.00  0.00     0.009 C 
HETATM   13  C14 UNL     1     -16.925  13.153  27.997  1.00  0.00     0.040 C 
HETATM   14  C16 UNL     1     -18.666   9.180  26.519  1.00  0.00     0.036 C 
HETATM   15  C17 UNL     1     -17.411   9.136  25.745  1.00  0.00     0.224 C 
HETATM   16  C18 UNL     1     -17.014   7.812  25.193  1.00  0.00     0.037 C 
HETATM   17  C19 UNL     1     -15.564   8.096  24.775  1.00  0.00     0.032 C 
HETATM   18  C20 UNL     1     -15.185   9.325  25.612  1.00  0.00     0.274 C 
ENDBRANCH   4   6
ENDBRANCH   1   3
BRANCH   1  19
HETATM   19  C2  UNL     1     -15.726  15.957  30.743  1.00  0.00     0.218 C 
BRANCH  19  20
HETATM   20  C3  UNL     1     -17.190  16.012  30.989  1.00  0.00     0.132 A 
HETATM   21  N3  UNL     1     -17.805  17.079  31.560  1.00  0.00    -0.271 N 
HETATM   22  N4  UNL     1     -19.071  16.788  31.622  1.00  0.00    -0.224 N 
ATOM     23  H3  UNL     1     -17.360  17.940  31.878  1.00  0.00     0.190 HD
HETATM   24  N5  UNL     1     -19.315  15.583  31.120  1.00  0.00    -0.213 N 
ATOM     25  H4  UNL     1     -19.785  17.407  32.006  1.00  0.00     0.210 HD
HETATM   26  N6  UNL     1     -18.145  15.110  30.732  1.00  0.00    -0.268 N 
ATOM     27  H6  UNL     1     -17.993  14.198  30.302  1.00  0.00     0.190 HD
BRANCH  24  28
HETATM   28  C4  UNL     1     -20.596  14.904  31.011  1.00  0.00     0.132 C 
HETATM   29  C5  UNL     1     -20.919  14.616  29.563  1.00  0.00     0.055 C 
HETATM   30  C6  UNL     1     -21.793  13.365  29.545  1.00  0.00     0.169 C 
HETATM   31  O1  UNL     1     -22.617  13.316  30.661  1.00  0.00    -0.391 OA
HETATM   32  C7  UNL     1     -21.918  13.016  31.829  1.00  0.00     0.169 C 
HETATM   33  C8  UNL     1     -20.504  13.572  31.727  1.00  0.00     0.055 C 
ENDBRANCH  24  28
ENDBRANCH  19  20
ENDBRANCH   1  19
TORSDOF 5
ENDMDL
MODEL 3
REMARK VINA RESULT: -9.380549633      3.390      7.266
REMARK  5 active torsions:
REMARK  status: ('A' for Active; 'I' for Inactive)
REMARK    1  A    between atoms: C1_1  and  C9_21 
REMARK    2  A    between atoms: N1_2  and  N2_4 
REMARK    3  A    between atoms: N2_4  and  C2_6 
REMARK    4  A    between atoms: C2_6  and  C3_7 
REMARK    5  A    between atoms: N5_12  and  C4_13 
ROOT
HETATM    1  N2  UNL     1     -20.253  12.977  30.218  1.00  0.00    -0.330 N 
ATOM      2  H2  UNL     1     -19.692  12.185  30.532  1.00  0.00     0.180 HD
ENDROOT
BRANCH   1   3
HETATM    3  N1  UNL     1     -20.080  14.177  30.847  1.00  0.00    -0.315 N 
HETATM    4  C1  UNL     1     -19.083  14.923  31.006  1.00  0.00     0.113 C 
ATOM      5  H1  UNL     1     -20.932  14.541  31.272  1.00  0.00     0.185 HD
BRANCH   4   6
HETATM    6  C9  UNL     1     -17.723  14.762  30.564  1.00  0.00    -0.043 C 
HETATM    7  C10 UNL     1     -17.452  14.029  29.456  1.00  0.00     0.017 C 
HETATM    8  C11 UNL     1     -16.039  13.931  29.097  1.00  0.00     0.251 C 
HETATM    9  C12 UNL     1     -15.516  15.344  28.895  1.00  0.00     0.023 C 
HETATM   10  N7  UNL     1     -15.809  13.260  27.836  1.00  0.00     0.101 N 
HETATM   11  C13 UNL     1     -15.634  16.077  30.188  1.00  0.00     0.011 C 
HETATM   12  C15 UNL     1     -14.187  15.408  28.244  1.00  0.00     0.009 C 
HETATM   13  C14 UNL     1     -16.514  15.327  31.202  1.00  0.00     0.040 C 
HETATM   14  C16 UNL     1     -13.519  14.125  27.950  1.00  0.00     0.036 C 
HETATM   15  C17 UNL     1     -14.375  12.926  27.870  1.00  0.00     0.224 C 
HETATM   16  C18 UNL     1     -14.243  12.092  26.644  1.00  0.00     0.037 C 
HETATM   17  C19 UNL     1     -15.476  11.187  26.777  1.00  0.00     0.032 C 
HETATM   18  C20 UNL     1     -16.392  11.966  27.729  1.00  0.00     0.274 C 
ENDBRANCH   4   6
ENDBRANCH   1   3
BRANCH   1  19
HETATM   19  C2  UNL     1     -21.195  12.759  29.121  1.00  0.00     0.218 C 
BRANCH  19  20
HETATM   20  C3  UNL     1     -20.778  11.624  28.258  1.00  0.00     0.132 A 
HETATM   21  N3  UNL     1     -21.633  10.971  27.430  1.00  0.00    -0.271 N 
HETATM   22  N4  UNL     1     -20.939  10.046  26.834  1.00  0.00    -0.224 N 
ATOM     23  H3  UNL     1     -22.625  11.168  27.301  1.00  0.00     0.190 HD
HETATM   24  N5  UNL     1     -19.672  10.061  27.231  1.00  0.00    -0.213 N 
ATOM     25  H4  UNL     1     -21.320   9.393  26.148  1.00  0.00     0.210 HD
HETATM   26  N6  UNL     1     -19.582  11.040  28.113  1.00  0.00    -0.268 N 
ATOM     27  H6  UNL     1     -18.731  11.310  28.607  1.00  0.00     0.190 HD
BRANCH  24  28
HETATM   28  C4  UNL     1     -18.591   9.191  26.800  1.00  0.00     0.132 C 
HETATM   29  C5  UNL     1     -18.048   8.403  27.970  1.00  0.00     0.055 C 
HETATM   30  C6  UNL     1     -17.503   7.093  27.407  1.00  0.00     0.169 C 
HETATM   31  O1  UNL     1     -16.966   7.279  26.141  1.00  0.00    -0.391 OA
HETATM   32  C7  UNL     1     -17.943   7.487  25.170  1.00  0.00     0.169 C 
HETATM   33  C8  UNL     1     -19.136   8.194  25.798  1.00  0.00     0.055 C 
ENDBRANCH  24  28
ENDBRANCH  19  20
ENDBRANCH   1  19
TORSDOF 5
ENDMDL
MODEL 4
REMARK VINA RESULT: -9.340364990      2.828      4.059
REMARK  5 active torsions:
REMARK  status: ('A' for Active; 'I' for Inactive)
REMARK    1  A    between atoms: C1_1  and  C9_21 
REMARK    2  A    between atoms: N1_2  and  N2_4 
REMARK    3  A    between atoms: N2_4  and  C2_6 
REMARK    4  A    between atoms: C2_6  and  C3_7 
REMARK    5  A    between atoms: N5_12  and  C4_13 
ROOT
HETATM    1  N2  UNL     1     -15.904  16.475  30.878  1.00  0.00    -0.330 N 
ATOM      2  H2  UNL     1     -15.272  16.547  31.676  1.00  0.00     0.180 HD
ENDROOT
BRANCH   1   3
HETATM    3  N1  UNL     1     -15.404  16.748  29.636  1.00  0.00    -0.315 N 
HETATM    4  C1  UNL     1     -15.085  16.021  28.664  1.00  0.00     0.113 C 
ATOM      5  H1  UNL     1     -15.262  17.743  29.464  1.00  0.00     0.185 HD
BRANCH   4   6
HETATM    6  C9  UNL     1     -15.137  14.591  28.518  1.00  0.00    -0.043 C 
HETATM    7  C10 UNL     1     -16.313  13.980  28.231  1.00  0.00     0.017 C 
HETATM    8  C11 UNL     1     -16.253  12.525  28.105  1.00  0.00     0.251 C 
HETATM    9  C12 UNL     1     -15.246  12.199  27.013  1.00  0.00     0.023 C 
HETATM   10  N7  UNL     1     -17.495  11.932  27.663  1.00  0.00     0.101 N 
HETATM   11  C13 UNL     1     -13.910  12.701  27.442  1.00  0.00     0.011 C 
HETATM   12  C15 UNL     1     -15.284  10.790  26.561  1.00  0.00     0.009 C 
HETATM   13  C14 UNL     1     -14.005  13.648  28.651  1.00  0.00     0.040 C 
HETATM   14  C16 UNL     1     -16.214   9.882  27.259  1.00  0.00     0.036 C 
HETATM   15  C17 UNL     1     -17.339  10.503  27.985  1.00  0.00     0.224 C 
HETATM   16  C18 UNL     1     -18.700   9.986  27.675  1.00  0.00     0.037 C 
HETATM   17  C19 UNL     1     -19.574  11.062  28.335  1.00  0.00     0.032 C 
HETATM   18  C20 UNL     1     -18.634  12.269  28.446  1.00  0.00     0.274 C 
ENDBRANCH   4   6
ENDBRANCH   1   3
BRANCH   1  19
HETATM   19  C2  UNL     1     -17.290  16.085  31.132  1.00  0.00     0.218 C 
BRANCH  19  20
HETATM   20  C3  UNL     1     -17.918  16.937  32.174  1.00  0.00     0.132 A 
HETATM   21  N3  UNL     1     -19.256  17.149  32.249  1.00  0.00    -0.271 N 
HETATM   22  N4  UNL     1     -19.451  17.934  33.268  1.00  0.00    -0.224 N 
ATOM     23  H3  UNL     1     -19.969  16.768  31.628  1.00  0.00     0.190 HD
HETATM   24  N5  UNL     1     -18.306  18.247  33.863  1.00  0.00    -0.213 N 
ATOM     25  H4  UNL     1     -20.367  18.267  33.571  1.00  0.00     0.210 HD
HETATM   26  N6  UNL     1     -17.363  17.625  33.179  1.00  0.00    -0.268 N 
ATOM     27  H6  UNL     1     -16.364  17.664  33.386  1.00  0.00     0.190 HD
BRANCH  24  28
HETATM   28  C4  UNL     1     -18.106  19.094  35.027  1.00  0.00     0.132 C 
HETATM   29  C5  UNL     1     -19.286  18.992  35.965  1.00  0.00     0.055 C 
HETATM   30  C6  UNL     1     -18.760  19.261  37.372  1.00  0.00     0.169 C 
HETATM   31  O1  UNL     1     -17.728  20.189  37.349  1.00  0.00    -0.391 OA
HETATM   32  C7  UNL     1     -16.548  19.664  36.824  1.00  0.00     0.169 C 
HETATM   33  C8  UNL     1     -16.886  18.607  35.782  1.00  0.00     0.055 C 
ENDBRANCH  24  28
ENDBRANCH  19  20
ENDBRANCH   1  19
TORSDOF 5
ENDMDL
MODEL 5
REMARK VINA RESULT: -9.284314681      3.190      6.616
REMARK  5 active torsions:
REMARK  status: ('A' for Active; 'I' for Inactive)
REMARK    1  A    between atoms: C1_1  and  C9_21 
REMARK    2  A    between atoms: N1_2  and  N2_4 
REMARK    3  A    between atoms: N2_4  and  C2_6 
REMARK    4  A    between atoms: C2_6  and  C3_7 
REMARK    5  A    between atoms: N5_12  and  C4_13 
ROOT
HETATM    1  N2  UNL     1     -17.905   7.942  25.900  1.00  0.00    -0.330 N 
ATOM      2  H2  UNL     1     -17.825   7.505  26.818  1.00  0.00     0.180 HD
ENDROOT
BRANCH   1   3
HETATM    3  N1  UNL     1     -16.790   8.524  25.365  1.00  0.00    -0.315 N 
HETATM    4  C1  UNL     1     -16.078   9.495  25.722  1.00  0.00     0.113 C 
ATOM      5  H1  UNL     1     -16.472   8.081  24.504  1.00  0.00     0.185 HD
BRANCH   4   6
HETATM    6  C9  UNL     1     -16.197  10.364  26.862  1.00  0.00    -0.043 C 
HETATM    7  C10 UNL     1     -15.615  11.588  26.846  1.00  0.00     0.017 C 
HETATM    8  C11 UNL     1     -15.798  12.389  28.054  1.00  0.00     0.251 C 
HETATM    9  C12 UNL     1     -17.294  12.555  28.274  1.00  0.00     0.023 C 
HETATM   10  N7  UNL     1     -15.282  13.735  27.939  1.00  0.00     0.101 N 
HETATM   11  C13 UNL     1     -17.888  11.206  28.495  1.00  0.00     0.011 C 
HETATM   12  C15 UNL     1     -17.644  13.580  29.284  1.00  0.00     0.009 C 
HETATM   13  C14 UNL     1     -16.915  10.074  28.122  1.00  0.00     0.040 C 
HETATM   14  C16 UNL     1     -16.528  14.242  29.988  1.00  0.00     0.036 C 
HETATM   15  C17 UNL     1     -15.206  14.205  29.333  1.00  0.00     0.224 C 
HETATM   16  C18 UNL     1     -14.510  15.509  29.162  1.00  0.00     0.037 C 
HETATM   17  C19 UNL     1     -13.392  15.113  28.186  1.00  0.00     0.032 C 
HETATM   18  C20 UNL     1     -13.918  13.824  27.544  1.00  0.00     0.274 C 
ENDBRANCH   4   6
ENDBRANCH   1   3
BRANCH   1  19
HETATM   19  C2  UNL     1     -19.205   7.907  25.233  1.00  0.00     0.218 C 
BRANCH  19  20
HETATM   20  C3  UNL     1     -19.887   9.226  25.291  1.00  0.00     0.132 A 
HETATM   21  N3  UNL     1     -20.179   9.957  24.185  1.00  0.00    -0.271 N 
HETATM   22  N4  UNL     1     -20.767  11.041  24.601  1.00  0.00    -0.224 N 
ATOM     23  H3  UNL     1     -19.978   9.705  23.217  1.00  0.00     0.190 HD
HETATM   24  N5  UNL     1     -20.872  11.055  25.924  1.00  0.00    -0.213 N 
ATOM     25  H4  UNL     1     -21.103  11.784  23.988  1.00  0.00     0.210 HD
HETATM   26  N6  UNL     1     -20.324   9.929  26.343  1.00  0.00    -0.268 N 
ATOM     27  H6  UNL     1     -20.247   9.639  27.318  1.00  0.00     0.190 HD
BRANCH  24  28
HETATM   28  C4  UNL     1     -21.463  12.086  26.762  1.00  0.00     0.132 C 
HETATM   29  C5  UNL     1     -22.916  12.290  26.403  1.00  0.00     0.055 C 
HETATM   30  C6  UNL     1     -23.622  12.769  27.668  1.00  0.00     0.169 C 
HETATM   31  O1  UNL     1     -22.783  13.563  28.438  1.00  0.00    -0.391 OA
HETATM   32  C7  UNL     1     -21.783  12.826  29.071  1.00  0.00     0.169 C 
HETATM   33  C8  UNL     1     -21.413  11.629  28.205  1.00  0.00     0.055 C 
ENDBRANCH  24  28
ENDBRANCH  19  20
ENDBRANCH   1  19
TORSDOF 5
ENDMDL
