MODEL 1
REMARK VINA RESULT: -7.414234878      0.000      0.000
REMARK  8 active torsions:
REMARK  status: ('A' for Active; 'I' for Inactive)
REMARK    1  A    between atoms: C4_5  and  N1_6 
REMARK       I    between atoms: N1_6  and  C5_8 
REMARK    2  A    between atoms: C5_8  and  C6_10 
REMARK    3  A    between atoms: C6_10  and  S2_11 
REMARK    4  A    between atoms: S2_11  and  C7_12 
REMARK    5  A    between atoms: C8_17  and  C9_18 
REMARK    6  A    between atoms: C9_18  and  O2_19 
REMARK    7  A    between atoms: O2_19  and  C10_20 
REMARK    8  A    between atoms: C10_20  and  C11_22 
ROOT
HETATM    1  C7  UNL     1     -19.557  17.481  33.141  1.00  0.00     0.162 A 
HETATM    2  N2  UNL     1     -18.442  18.269  33.043  1.00  0.00    -0.278 N 
ATOM      3  H2  UNL     1     -18.319  19.186  33.473  1.00  0.00     0.189 HD
HETATM    4  N3  UNL     1     -17.557  17.638  32.300  1.00  0.00    -0.285 N 
ATOM      5  H3  UNL     1     -16.628  17.978  32.050  1.00  0.00     0.188 HD
HETATM    6  C8  UNL     1     -18.103  16.455  31.928  1.00  0.00     0.124 A 
HETATM    7  N4  UNL     1     -19.350  16.360  32.453  1.00  0.00    -0.318 N 
HETATM    8  C15 UNL     1     -20.243  15.241  32.289  1.00  0.00     0.160 C 
ENDROOT
BRANCH   1   9
HETATM    9  S2  UNL     1     -21.016  17.906  34.066  1.00  0.00    -0.083 SA
BRANCH   9  10
HETATM   10  C6  UNL     1     -20.694  18.018  35.834  1.00  0.00     0.185 C 
BRANCH  10  11
HETATM   11  C5  UNL     1     -19.840  16.945  36.372  1.00  0.00     0.233 C 
HETATM   12  N1  UNL     1     -18.456  17.187  36.521  1.00  0.00    -0.306 N 
ATOM     13  H1  UNL     1     -17.775  16.848  35.842  1.00  0.00     0.171 HD
HETATM   14  O1  UNL     1     -20.291  15.829  36.706  1.00  0.00    -0.272 OA
BRANCH  12  15
HETATM   15  C4  UNL     1     -18.092  17.875  37.588  1.00  0.00     0.151 A 
HETATM   16  S1  UNL     1     -18.912  18.040  39.078  1.00  0.00    -0.064 SA
HETATM   17  C3  UNL     1     -17.788  19.060  39.863  1.00  0.00     0.077 A 
HETATM   18  C2  UNL     1     -16.824  19.217  38.906  1.00  0.00     0.014 A 
HETATM   19  C1  UNL     1     -15.612  20.082  39.213  1.00  0.00     0.068 C 
HETATM   20  N5  UNL     1     -16.994  18.612  37.765  1.00  0.00    -0.340 N 
ATOM     21  H5  UNL     1     -16.301  18.701  37.021  1.00  0.00     0.167 HD
ENDBRANCH  12  15
ENDBRANCH  10  11
ENDBRANCH   9  10
ENDBRANCH   1   9
BRANCH   6  22
HETATM   22  C9  UNL     1     -17.436  15.452  31.063  1.00  0.00     0.257 C 
BRANCH  22  23
HETATM   23  O2  UNL     1     -16.059  15.644  30.902  1.00  0.00    -0.313 OA
BRANCH  23  24
HETATM   24  C10 UNL     1     -15.359  15.815  29.747  1.00  0.00     0.266 C 
HETATM   25  O3  UNL     1     -15.192  17.000  29.334  1.00  0.00    -0.264 OA
BRANCH  24  26
HETATM   26  C11 UNL     1     -14.781  14.688  28.939  1.00  0.00     0.037 C 
HETATM   27  C12 UNL     1     -15.854  14.023  28.123  1.00  0.00     0.025 C 
HETATM   28  C13 UNL     1     -14.300  13.662  29.967  1.00  0.00     0.025 C 
HETATM   29  C14 UNL     1     -13.638  15.180  28.106  1.00  0.00     0.025 C 
ENDBRANCH  24  26
ENDBRANCH  23  24
ENDBRANCH  22  23
ENDBRANCH   6  22
TORSDOF 8
ENDMDL
MODEL 2
REMARK VINA RESULT: -7.365305248      1.876      2.059
REMARK  8 active torsions:
REMARK  status: ('A' for Active; 'I' for Inactive)
REMARK    1  A    between atoms: C4_5  and  N1_6 
REMARK       I    between atoms: N1_6  and  C5_8 
REMARK    2  A    between atoms: C5_8  and  C6_10 
REMARK    3  A    between atoms: C6_10  and  S2_11 
REMARK    4  A    between atoms: S2_11  and  C7_12 
REMARK    5  A    between atoms: C8_17  and  C9_18 
REMARK    6  A    between atoms: C9_18  and  O2_19 
REMARK    7  A    between atoms: O2_19  and  C10_20 
REMARK    8  A    between atoms: C10_20  and  C11_22 
ROOT
HETATM    1  C7  UNL     1     -19.165  17.419  32.940  1.00  0.00     0.162 A 
HETATM    2  N2  UNL     1     -18.014  18.093  32.634  1.00  0.00    -0.278 N 
ATOM      3  H2  UNL     1     -17.746  19.011  32.989  1.00  0.00     0.189 HD
HETATM    4  N3  UNL     1     -17.313  17.351  31.802  1.00  0.00    -0.285 N 
ATOM      5  H3  UNL     1     -16.408  17.590  31.397  1.00  0.00     0.188 HD
HETATM    6  C8  UNL     1     -18.011  16.211  31.580  1.00  0.00     0.124 A 
HETATM    7  N4  UNL     1     -19.166  16.257  32.290  1.00  0.00    -0.318 N 
HETATM    8  C15 UNL     1     -20.169  15.222  32.323  1.00  0.00     0.160 C 
ENDROOT
BRANCH   1   9
HETATM    9  S2  UNL     1     -20.421  18.017  34.048  1.00  0.00    -0.083 SA
BRANCH   9  10
HETATM   10  C6  UNL     1     -19.723  18.804  35.509  1.00  0.00     0.185 C 
BRANCH  10  11
HETATM   11  C5  UNL     1     -19.231  20.176  35.293  1.00  0.00     0.233 C 
HETATM   12  N1  UNL     1     -19.091  21.033  36.407  1.00  0.00    -0.306 N 
ATOM     13  H1  UNL     1     -19.789  21.741  36.632  1.00  0.00     0.171 HD
HETATM   14  O1  UNL     1     -18.929  20.612  34.162  1.00  0.00    -0.272 OA
BRANCH  12  15
HETATM   15  C4  UNL     1     -18.006  20.867  37.142  1.00  0.00     0.151 A 
HETATM   16  S1  UNL     1     -17.417  19.433  37.860  1.00  0.00    -0.064 SA
HETATM   17  C3  UNL     1     -16.021  20.087  38.600  1.00  0.00     0.077 A 
HETATM   18  C2  UNL     1     -16.096  21.404  38.242  1.00  0.00     0.014 A 
HETATM   19  C1  UNL     1     -15.011  22.360  38.713  1.00  0.00     0.068 C 
HETATM   20  N5  UNL     1     -17.103  21.780  37.507  1.00  0.00    -0.340 N 
ATOM     21  H5  UNL     1     -17.200  22.753  37.215  1.00  0.00     0.167 HD
ENDBRANCH  12  15
ENDBRANCH  10  11
ENDBRANCH   9  10
ENDBRANCH   1   9
BRANCH   6  22
HETATM   22  C9  UNL     1     -17.576  15.115  30.681  1.00  0.00     0.257 C 
BRANCH  22  23
HETATM   23  O2  UNL     1     -16.190  14.931  30.614  1.00  0.00    -0.313 OA
BRANCH  23  24
HETATM   24  C10 UNL     1     -15.322  15.387  29.671  1.00  0.00     0.266 C 
HETATM   25  O3  UNL     1     -15.136  16.638  29.603  1.00  0.00    -0.264 OA
BRANCH  24  26
HETATM   26  C11 UNL     1     -14.580  14.500  28.712  1.00  0.00     0.037 C 
HETATM   27  C12 UNL     1     -15.538  13.826  27.771  1.00  0.00     0.025 C 
HETATM   28  C13 UNL     1     -13.956  13.404  29.578  1.00  0.00     0.025 C 
HETATM   29  C14 UNL     1     -13.518  15.281  28.000  1.00  0.00     0.025 C 
ENDBRANCH  24  26
ENDBRANCH  23  24
ENDBRANCH  22  23
ENDBRANCH   6  22
TORSDOF 8
ENDMDL
MODEL 3
REMARK VINA RESULT: -7.342915465      1.849      2.228
REMARK  8 active torsions:
REMARK  status: ('A' for Active; 'I' for Inactive)
REMARK    1  A    between atoms: C4_5  and  N1_6 
REMARK       I    between atoms: N1_6  and  C5_8 
REMARK    2  A    between atoms: C5_8  and  C6_10 
REMARK    3  A    between atoms: C6_10  and  S2_11 
REMARK    4  A    between atoms: S2_11  and  C7_12 
REMARK    5  A    between atoms: C8_17  and  C9_18 
REMARK    6  A    between atoms: C9_18  and  O2_19 
REMARK    7  A    between atoms: O2_19  and  C10_20 
REMARK    8  A    between atoms: C10_20  and  C11_22 
ROOT
HETATM    1  C7  UNL     1     -18.991  17.866  33.314  1.00  0.00     0.162 A 
HETATM    2  N2  UNL     1     -17.829  18.456  32.895  1.00  0.00    -0.278 N 
ATOM      3  H2  UNL     1     -17.475  19.362  33.200  1.00  0.00     0.189 HD
HETATM    4  N3  UNL     1     -17.249  17.650  32.030  1.00  0.00    -0.285 N 
ATOM      5  H3  UNL     1     -16.368  17.821  31.545  1.00  0.00     0.188 HD
HETATM    6  C8  UNL     1     -18.034  16.554  31.900  1.00  0.00     0.124 A 
HETATM    7  N4  UNL     1     -19.120  16.692  32.701  1.00  0.00    -0.318 N 
HETATM    8  C15 UNL     1     -20.180  15.725  32.845  1.00  0.00     0.160 C 
ENDROOT
BRANCH   1   9
HETATM    9  S2  UNL     1     -20.109  18.571  34.504  1.00  0.00    -0.083 SA
BRANCH   9  10
HETATM   10  C6  UNL     1     -19.545  20.171  35.106  1.00  0.00     0.185 C 
BRANCH  10  11
HETATM   11  C5  UNL     1     -18.416  20.109  36.050  1.00  0.00     0.233 C 
HETATM   12  N1  UNL     1     -18.651  20.406  37.412  1.00  0.00    -0.306 N 
ATOM     13  H1  UNL     1     -18.421  21.316  37.811  1.00  0.00     0.171 HD
HETATM   14  O1  UNL     1     -17.258  19.800  35.697  1.00  0.00    -0.272 OA
BRANCH  12  15
HETATM   15  C4  UNL     1     -19.183  19.441  38.140  1.00  0.00     0.151 A 
HETATM   16  S1  UNL     1     -20.392  19.559  39.340  1.00  0.00    -0.064 SA
HETATM   17  C3  UNL     1     -20.484  17.903  39.757  1.00  0.00     0.077 A 
HETATM   18  C2  UNL     1     -19.553  17.345  38.925  1.00  0.00     0.014 A 
HETATM   19  C1  UNL     1     -19.317  15.844  38.982  1.00  0.00     0.068 C 
HETATM   20  N5  UNL     1     -18.907  18.135  38.116  1.00  0.00    -0.340 N 
ATOM     21  H5  UNL     1     -18.203  17.764  37.478  1.00  0.00     0.167 HD
ENDBRANCH  12  15
ENDBRANCH  10  11
ENDBRANCH   9  10
ENDBRANCH   1   9
BRANCH   6  22
HETATM   22  C9  UNL     1     -17.746  15.411  30.999  1.00  0.00     0.257 C 
BRANCH  22  23
HETATM   23  O2  UNL     1     -16.387  15.106  30.860  1.00  0.00    -0.313 OA
BRANCH  23  24
HETATM   24  C10 UNL     1     -15.536  15.479  29.865  1.00  0.00     0.266 C 
HETATM   25  O3  UNL     1     -15.302  16.716  29.728  1.00  0.00    -0.264 OA
BRANCH  24  26
HETATM   26  C11 UNL     1     -14.867  14.515  28.926  1.00  0.00     0.037 C 
HETATM   27  C12 UNL     1     -15.890  13.810  28.081  1.00  0.00     0.025 C 
HETATM   28  C13 UNL     1     -14.224  13.458  29.826  1.00  0.00     0.025 C 
HETATM   29  C14 UNL     1     -13.827  15.222  28.112  1.00  0.00     0.025 C 
ENDBRANCH  24  26
ENDBRANCH  23  24
ENDBRANCH  22  23
ENDBRANCH   6  22
TORSDOF 8
ENDMDL
MODEL 4
REMARK VINA RESULT: -7.245103617      1.018      1.401
REMARK  8 active torsions:
REMARK  status: ('A' for Active; 'I' for Inactive)
REMARK    1  A    between atoms: C4_5  and  N1_6 
REMARK       I    between atoms: N1_6  and  C5_8 
REMARK    2  A    between atoms: C5_8  and  C6_10 
REMARK    3  A    between atoms: C6_10  and  S2_11 
REMARK    4  A    between atoms: S2_11  and  C7_12 
REMARK    5  A    between atoms: C8_17  and  C9_18 
REMARK    6  A    between atoms: C9_18  and  O2_19 
REMARK    7  A    between atoms: O2_19  and  C10_20 
REMARK    8  A    between atoms: C10_20  and  C11_22 
ROOT
HETATM    1  C7  UNL     1     -19.485  17.486  33.345  1.00  0.00     0.162 A 
HETATM    2  N2  UNL     1     -18.412  18.307  33.126  1.00  0.00    -0.278 N 
ATOM      3  H2  UNL     1     -18.254  19.214  33.564  1.00  0.00     0.189 HD
HETATM    4  N3  UNL     1     -17.619  17.721  32.252  1.00  0.00    -0.285 N 
ATOM      5  H3  UNL     1     -16.741  18.093  31.891  1.00  0.00     0.188 HD
HETATM    6  C8  UNL     1     -18.182  16.535  31.918  1.00  0.00     0.124 A 
HETATM    7  N4  UNL     1     -19.346  16.392  32.600  1.00  0.00    -0.318 N 
HETATM    8  C15 UNL     1     -20.227  15.254  32.520  1.00  0.00     0.160 C 
ENDROOT
BRANCH   1   9
HETATM    9  S2  UNL     1     -20.817  17.845  34.468  1.00  0.00    -0.083 SA
BRANCH   9  10
HETATM   10  C6  UNL     1     -20.225  18.453  36.056  1.00  0.00     0.185 C 
BRANCH  10  11
HETATM   11  C5  UNL     1     -19.229  17.589  36.713  1.00  0.00     0.233 C 
HETATM   12  N1  UNL     1     -17.857  17.830  36.477  1.00  0.00    -0.306 N 
ATOM     13  H1  UNL     1     -17.320  17.274  35.812  1.00  0.00     0.171 HD
HETATM   14  O1  UNL     1     -19.548  16.651  37.474  1.00  0.00    -0.272 OA
BRANCH  12  15
HETATM   15  C4  UNL     1     -17.308  18.815  37.164  1.00  0.00     0.151 A 
HETATM   16  S1  UNL     1     -17.380  20.494  36.859  1.00  0.00    -0.064 SA
HETATM   17  C3  UNL     1     -16.434  21.023  38.181  1.00  0.00     0.077 A 
HETATM   18  C2  UNL     1     -16.110  19.844  38.793  1.00  0.00     0.014 A 
HETATM   19  C1  UNL     1     -15.249  19.874  40.046  1.00  0.00     0.068 C 
HETATM   20  N5  UNL     1     -16.559  18.740  38.267  1.00  0.00    -0.340 N 
ATOM     21  H5  UNL     1     -16.343  17.838  38.689  1.00  0.00     0.167 HD
ENDBRANCH  12  15
ENDBRANCH  10  11
ENDBRANCH   9  10
ENDBRANCH   1   9
BRANCH   6  22
HETATM   22  C9  UNL     1     -17.614  15.576  30.940  1.00  0.00     0.257 C 
BRANCH  22  23
HETATM   23  O2  UNL     1     -16.216  15.582  30.863  1.00  0.00    -0.313 OA
BRANCH  23  24
HETATM   24  C10 UNL     1     -15.432  15.724  29.759  1.00  0.00     0.266 C 
HETATM   25  O3  UNL     1     -15.172  16.901  29.374  1.00  0.00    -0.264 OA
BRANCH  24  26
HETATM   26  C11 UNL     1     -14.865  14.573  28.977  1.00  0.00     0.037 C 
HETATM   27  C12 UNL     1     -14.205  13.586  29.899  1.00  0.00     0.025 C 
HETATM   28  C13 UNL     1     -13.762  15.182  28.108  1.00  0.00     0.025 C 
HETATM   29  C14 UNL     1     -15.929  13.951  28.125  1.00  0.00     0.025 C 
ENDBRANCH  24  26
ENDBRANCH  23  24
ENDBRANCH  22  23
ENDBRANCH   6  22
TORSDOF 8
ENDMDL
MODEL 5
REMARK VINA RESULT: -7.172697222      2.116      2.427
REMARK  8 active torsions:
REMARK  status: ('A' for Active; 'I' for Inactive)
REMARK    1  A    between atoms: C4_5  and  N1_6 
REMARK       I    between atoms: N1_6  and  C5_8 
REMARK    2  A    between atoms: C5_8  and  C6_10 
REMARK    3  A    between atoms: C6_10  and  S2_11 
REMARK    4  A    between atoms: S2_11  and  C7_12 
REMARK    5  A    between atoms: C8_17  and  C9_18 
REMARK    6  A    between atoms: C9_18  and  O2_19 
REMARK    7  A    between atoms: O2_19  and  C10_20 
REMARK    8  A    between atoms: C10_20  and  C11_22 
ROOT
HETATM    1  C7  UNL     1     -18.856  18.007  33.401  1.00  0.00     0.162 A 
HETATM    2  N2  UNL     1     -17.682  18.498  32.896  1.00  0.00    -0.278 N 
ATOM      3  H2  UNL     1     -17.244  19.382  33.154  1.00  0.00     0.189 HD
HETATM    4  N3  UNL     1     -17.218  17.631  32.020  1.00  0.00    -0.285 N 
ATOM      5  H3  UNL     1     -16.358  17.723  31.479  1.00  0.00     0.188 HD
HETATM    6  C8  UNL     1     -18.088  16.594  31.969  1.00  0.00     0.124 A 
HETATM    7  N4  UNL     1     -19.109  16.832  32.830  1.00  0.00    -0.318 N 
HETATM    8  C15 UNL     1     -20.226  15.952  33.065  1.00  0.00     0.160 C 
ENDROOT
BRANCH   1   9
HETATM    9  S2  UNL     1     -19.843  18.822  34.636  1.00  0.00    -0.083 SA
BRANCH   9  10
HETATM   10  C6  UNL     1     -19.486  20.584  34.741  1.00  0.00     0.185 C 
BRANCH  10  11
HETATM   11  C5  UNL     1     -19.818  21.202  36.036  1.00  0.00     0.233 C 
HETATM   12  N1  UNL     1     -19.572  20.473  37.221  1.00  0.00    -0.306 N 
ATOM     13  H1  UNL     1     -20.316  19.979  37.713  1.00  0.00     0.171 HD
HETATM   14  O1  UNL     1     -20.306  22.348  36.131  1.00  0.00    -0.272 OA
BRANCH  12  15
HETATM   15  C4  UNL     1     -18.325  20.466  37.658  1.00  0.00     0.151 A 
HETATM   16  S1  UNL     1     -17.375  19.131  38.141  1.00  0.00    -0.064 SA
HETATM   17  C3  UNL     1     -15.947  19.981  38.543  1.00  0.00     0.077 A 
HETATM   18  C2  UNL     1     -16.298  21.275  38.275  1.00  0.00     0.014 A 
HETATM   19  C1  UNL     1     -15.278  22.380  38.507  1.00  0.00     0.068 C 
HETATM   20  N5  UNL     1     -17.500  21.501  37.829  1.00  0.00    -0.340 N 
ATOM     21  H5  UNL     1     -17.805  22.451  37.615  1.00  0.00     0.167 HD
ENDBRANCH  12  15
ENDBRANCH  10  11
ENDBRANCH   9  10
ENDBRANCH   1   9
BRANCH   6  22
HETATM   22  C9  UNL     1     -17.942  15.412  31.085  1.00  0.00     0.257 C 
BRANCH  22  23
HETATM   23  O2  UNL     1     -16.626  14.965  30.922  1.00  0.00    -0.313 OA
BRANCH  23  24
HETATM   24  C10 UNL     1     -15.717  15.339  29.979  1.00  0.00     0.266 C 
HETATM   25  O3  UNL     1     -15.397  16.563  29.928  1.00  0.00    -0.264 OA
BRANCH  24  26
HETATM   26  C11 UNL     1     -15.081  14.391  29.003  1.00  0.00     0.037 C 
HETATM   27  C12 UNL     1     -14.212  13.399  29.724  1.00  0.00     0.025 C 
HETATM   28  C13 UNL     1     -14.155  15.257  28.146  1.00  0.00     0.025 C 
HETATM   29  C14 UNL     1     -16.129  13.737  28.156  1.00  0.00     0.025 C 
ENDBRANCH  24  26
ENDBRANCH  23  24
ENDBRANCH  22  23
ENDBRANCH   6  22
TORSDOF 8
ENDMDL
