MODEL 1
REMARK VINA RESULT: -6.038451427      0.000      0.000
REMARK  7 active torsions:
REMARK  status: ('A' for Active; 'I' for Inactive)
REMARK    1  A    between atoms: C2_2  and  C3_3 
REMARK    2  A    between atoms: C3_3  and  C4_4 
REMARK    3  A    between atoms: C4_4  and  C5_5 
REMARK    4  A    between atoms: C7_9  and  O2_10 
REMARK    5  A    between atoms: C8_12  and  C9_13 
REMARK    6  A    between atoms: C9_13  and  C10_14 
REMARK    7  A    between atoms: C16_22  and  O4_24 
ROOT
HETATM    1  C5  UNL     1     -21.398   7.166  23.646  1.00  0.00     0.124 C 
HETATM    2  C6  UNL     1     -20.148   6.503  24.042  1.00  0.00     0.059 C 
HETATM    3  N1  UNL     1     -19.155   6.001  24.359  1.00  0.00    -0.197 NA
ENDROOT
BRANCH   1   4
HETATM    4  C4  UNL     1     -21.338   8.619  24.081  1.00  0.00     0.019 C 
BRANCH   4   5
HETATM    5  C3  UNL     1     -21.350   8.702  25.582  1.00  0.00     0.070 C 
BRANCH   5   6
HETATM    6  C2  UNL     1     -20.309   9.743  26.087  1.00  0.00     0.177 C 
HETATM    7  C1  UNL     1     -20.053  10.510  24.766  1.00  0.00     0.080 C 
HETATM    8  O1  UNL     1     -19.250   9.147  26.636  1.00  0.00    -0.292 OA
HETATM    9  C7  UNL     1     -18.083   8.563  26.701  1.00  0.00     0.183 C 
HETATM   10  C8  UNL     1     -16.708   9.139  26.706  1.00  0.00    -0.021 C 
HETATM   11  C11 UNL     1     -16.423  10.087  27.842  1.00  0.00     0.039 C 
HETATM   12  C12 UNL     1     -16.393  11.531  27.489  1.00  0.00     0.012 C 
HETATM   13  C13 UNL     1     -16.625  12.456  28.635  1.00  0.00     0.079 C 
HETATM   14  C14 UNL     1     -18.027  12.890  28.841  1.00  0.00     0.130 C 
HETATM   15  O3  UNL     1     -18.266  13.906  29.437  1.00  0.00    -0.298 OA
HETATM   16  C15 UNL     1     -19.045  12.041  28.298  1.00  0.00     0.126 C 
HETATM   17  C16 UNL     1     -20.486  12.451  28.344  1.00  0.00     0.148 C 
HETATM   18  C17 UNL     1     -20.827  13.538  27.357  1.00  0.00     0.057 C 
HETATM   19  C18 UNL     1     -21.205  11.175  28.010  1.00  0.00     0.296 C 
HETATM   20  O5  UNL     1     -21.895  10.771  29.002  1.00  0.00    -0.262 OA
HETATM   21  O6  UNL     1     -21.063  10.642  26.812  1.00  0.00    -0.281 OA
BRANCH   9  22
HETATM   22  O2  UNL     1     -18.066   7.260  26.779  1.00  0.00    -0.341 OA
ATOM     23  H2  UNL     1     -17.759   6.780  26.019  1.00  0.00     0.220 HD
ENDBRANCH   9  22
BRANCH  10  24
HETATM   24  C9  UNL     1     -16.196   9.597  25.388  1.00  0.00     0.050 C 
BRANCH  24  25
HETATM   25  C10 UNL     1     -14.845   9.108  24.970  1.00  0.00     0.090 C 
HETATM   26  S1  UNL     1     -14.701   7.436  24.411  1.00  0.00    -0.097 SA
ENDBRANCH  24  25
ENDBRANCH  10  24
BRANCH  17  27
HETATM   27  O4  UNL     1     -20.745  12.917  29.615  1.00  0.00    -0.380 OA
ATOM     28  H4  UNL     1     -21.672  13.124  29.661  1.00  0.00     0.211 HD
ENDBRANCH  17  27
ENDBRANCH   5   6
ENDBRANCH   4   5
ENDBRANCH   1   4
TORSDOF 7
ENDMDL
MODEL 2
REMARK VINA RESULT: -5.947260042      1.550      1.750
REMARK  7 active torsions:
REMARK  status: ('A' for Active; 'I' for Inactive)
REMARK    1  A    between atoms: C2_2  and  C3_3 
REMARK    2  A    between atoms: C3_3  and  C4_4 
REMARK    3  A    between atoms: C4_4  and  C5_5 
REMARK    4  A    between atoms: C7_9  and  O2_10 
REMARK    5  A    between atoms: C8_12  and  C9_13 
REMARK    6  A    between atoms: C9_13  and  C10_14 
REMARK    7  A    between atoms: C16_22  and  O4_24 
ROOT
HETATM    1  C5  UNL     1     -23.184   8.634  24.891  1.00  0.00     0.124 C 
HETATM    2  C6  UNL     1     -23.670   9.032  26.219  1.00  0.00     0.059 C 
HETATM    3  N1  UNL     1     -24.032   9.354  27.270  1.00  0.00    -0.197 NA
ENDROOT
BRANCH   1   4
HETATM    4  C4  UNL     1     -21.866   9.339  24.624  1.00  0.00     0.019 C 
BRANCH   4   5
HETATM    5  C3  UNL     1     -20.781   8.726  25.464  1.00  0.00     0.070 C 
BRANCH   5   6
HETATM    6  C2  UNL     1     -19.806   9.818  25.990  1.00  0.00     0.177 C 
HETATM    7  C1  UNL     1     -19.567  10.604  24.676  1.00  0.00     0.080 C 
HETATM    8  O1  UNL     1     -18.726   9.276  26.555  1.00  0.00    -0.292 OA
HETATM    9  C7  UNL     1     -17.532   8.755  26.639  1.00  0.00     0.183 C 
HETATM   10  C8  UNL     1     -16.188   9.402  26.669  1.00  0.00    -0.021 C 
HETATM   11  C11 UNL     1     -15.973  10.358  27.813  1.00  0.00     0.039 C 
HETATM   12  C12 UNL     1     -16.013  11.804  27.465  1.00  0.00     0.012 C 
HETATM   13  C13 UNL     1     -16.312  12.709  28.611  1.00  0.00     0.079 C 
HETATM   14  C14 UNL     1     -17.738  13.069  28.794  1.00  0.00     0.130 C 
HETATM   15  O3  UNL     1     -18.041  14.068  29.390  1.00  0.00    -0.298 OA
HETATM   16  C15 UNL     1     -18.702  12.170  28.230  1.00  0.00     0.126 C 
HETATM   17  C16 UNL     1     -20.162  12.503  28.254  1.00  0.00     0.148 C 
HETATM   18  C17 UNL     1     -20.543  13.576  27.265  1.00  0.00     0.057 C 
HETATM   19  C18 UNL     1     -20.808  11.193  27.902  1.00  0.00     0.296 C 
HETATM   20  O5  UNL     1     -21.493  10.749  28.881  1.00  0.00    -0.262 OA
HETATM   21  O6  UNL     1     -20.617  10.674  26.706  1.00  0.00    -0.281 OA
BRANCH   9  22
HETATM   22  O2  UNL     1     -17.447   7.454  26.713  1.00  0.00    -0.341 OA
ATOM     23  H2  UNL     1     -16.836   7.021  26.129  1.00  0.00     0.220 HD
ENDBRANCH   9  22
BRANCH  10  24
HETATM   24  C9  UNL     1     -15.679   9.891  25.362  1.00  0.00     0.050 C 
BRANCH  24  25
HETATM   25  C10 UNL     1     -14.498   9.183  24.777  1.00  0.00     0.090 C 
HETATM   26  S1  UNL     1     -14.692   7.488  24.308  1.00  0.00    -0.097 SA
ENDBRANCH  24  25
ENDBRANCH  10  24
BRANCH  17  27
HETATM   27  O4  UNL     1     -20.467  12.951  29.521  1.00  0.00    -0.380 OA
ATOM     28  H4  UNL     1     -20.971  13.751  29.430  1.00  0.00     0.211 HD
ENDBRANCH  17  27
ENDBRANCH   5   6
ENDBRANCH   4   5
ENDBRANCH   1   4
TORSDOF 7
ENDMDL
MODEL 3
REMARK VINA RESULT: -5.914586552      4.234      6.524
REMARK  7 active torsions:
REMARK  status: ('A' for Active; 'I' for Inactive)
REMARK    1  A    between atoms: C2_2  and  C3_3 
REMARK    2  A    between atoms: C3_3  and  C4_4 
REMARK    3  A    between atoms: C4_4  and  C5_5 
REMARK    4  A    between atoms: C7_9  and  O2_10 
REMARK    5  A    between atoms: C8_12  and  C9_13 
REMARK    6  A    between atoms: C9_13  and  C10_14 
REMARK    7  A    between atoms: C16_22  and  O4_24 
ROOT
HETATM    1  C5  UNL     1     -15.688   9.978  26.488  1.00  0.00     0.124 C 
HETATM    2  C6  UNL     1     -14.613  10.323  25.548  1.00  0.00     0.059 C 
HETATM    3  N1  UNL     1     -13.767  10.615  24.814  1.00  0.00    -0.197 NA
ENDROOT
BRANCH   1   4
HETATM    4  C4  UNL     1     -15.916  11.156  27.419  1.00  0.00     0.019 C 
BRANCH   4   5
HETATM    5  C3  UNL     1     -17.312  11.682  27.241  1.00  0.00     0.070 C 
BRANCH   5   6
HETATM    6  C2  UNL     1     -17.736  12.548  28.463  1.00  0.00     0.177 C 
HETATM    7  C1  UNL     1     -17.789  11.447  29.551  1.00  0.00     0.080 C 
HETATM    8  O1  UNL     1     -18.878  13.198  28.227  1.00  0.00    -0.292 OA
HETATM    9  C7  UNL     1     -20.165  13.403  28.158  1.00  0.00     0.183 C 
HETATM   10  C8  UNL     1     -21.148  13.779  29.214  1.00  0.00    -0.021 C 
HETATM   11  C11 UNL     1     -20.863  15.086  29.906  1.00  0.00     0.039 C 
HETATM   12  C12 UNL     1     -20.308  14.983  31.283  1.00  0.00     0.012 C 
HETATM   13  C13 UNL     1     -19.570  16.192  31.747  1.00  0.00     0.079 C 
HETATM   14  C14 UNL     1     -18.104  16.177  31.528  1.00  0.00     0.130 C 
HETATM   15  O3  UNL     1     -17.383  16.867  32.197  1.00  0.00    -0.298 OA
HETATM   16  C15 UNL     1     -17.621  15.309  30.495  1.00  0.00     0.126 C 
HETATM   17  C16 UNL     1     -16.150  15.128  30.276  1.00  0.00     0.148 C 
HETATM   18  C17 UNL     1     -15.491  14.280  31.334  1.00  0.00     0.057 C 
HETATM   19  C18 UNL     1     -16.095  14.454  28.935  1.00  0.00     0.296 C 
HETATM   20  O5  UNL     1     -15.535  15.208  28.072  1.00  0.00    -0.262 OA
HETATM   21  O6  UNL     1     -16.591  13.241  28.794  1.00  0.00    -0.281 OA
BRANCH   9  22
HETATM   22  O2  UNL     1     -20.733  13.273  26.989  1.00  0.00    -0.341 OA
ATOM     23  H2  UNL     1     -21.682  13.278  26.960  1.00  0.00     0.220 HD
ENDBRANCH   9  22
BRANCH  10  24
HETATM   24  C9  UNL     1     -21.562  12.684  30.128  1.00  0.00     0.050 C 
BRANCH  24  25
HETATM   25  C10 UNL     1     -22.613  11.740  29.635  1.00  0.00     0.090 C 
HETATM   26  S1  UNL     1     -23.926  12.397  28.650  1.00  0.00    -0.097 SA
ENDBRANCH  24  25
ENDBRANCH  10  24
BRANCH  17  27
HETATM   27  O4  UNL     1     -15.569  16.378  30.294  1.00  0.00    -0.380 OA
ATOM     28  H4  UNL     1     -14.812  16.334  30.866  1.00  0.00     0.211 HD
ENDBRANCH  17  27
ENDBRANCH   5   6
ENDBRANCH   4   5
ENDBRANCH   1   4
TORSDOF 7
ENDMDL
MODEL 4
REMARK VINA RESULT: -5.626912356      3.527      6.229
REMARK  7 active torsions:
REMARK  status: ('A' for Active; 'I' for Inactive)
REMARK    1  A    between atoms: C2_2  and  C3_3 
REMARK    2  A    between atoms: C3_3  and  C4_4 
REMARK    3  A    between atoms: C4_4  and  C5_5 
REMARK    4  A    between atoms: C7_9  and  O2_10 
REMARK    5  A    between atoms: C8_12  and  C9_13 
REMARK    6  A    between atoms: C9_13  and  C10_14 
REMARK    7  A    between atoms: C16_22  and  O4_24 
ROOT
HETATM    1  C5  UNL     1     -18.111   9.526  26.502  1.00  0.00     0.124 C 
HETATM    2  C6  UNL     1     -19.539   9.852  26.613  1.00  0.00     0.059 C 
HETATM    3  N1  UNL     1     -20.661  10.118  26.721  1.00  0.00    -0.197 NA
ENDROOT
BRANCH   1   4
HETATM    4  C4  UNL     1     -17.365  10.219  27.627  1.00  0.00     0.019 C 
BRANCH   4   5
HETATM    5  C3  UNL     1     -17.190  11.676  27.301  1.00  0.00     0.070 C 
BRANCH   5   6
HETATM    6  C2  UNL     1     -17.640  12.568  28.493  1.00  0.00     0.177 C 
HETATM    7  C1  UNL     1     -17.689  11.496  29.611  1.00  0.00     0.080 C 
HETATM    8  O1  UNL     1     -18.788  13.194  28.227  1.00  0.00    -0.292 OA
HETATM    9  C7  UNL     1     -20.077  13.379  28.138  1.00  0.00     0.183 C 
HETATM   10  C8  UNL     1     -21.077  13.769  29.173  1.00  0.00    -0.021 C 
HETATM   11  C11 UNL     1     -20.818  15.099  29.832  1.00  0.00     0.039 C 
HETATM   12  C12 UNL     1     -20.278  15.041  31.217  1.00  0.00     0.012 C 
HETATM   13  C13 UNL     1     -19.563  16.273  31.656  1.00  0.00     0.079 C 
HETATM   14  C14 UNL     1     -18.095  16.273  31.454  1.00  0.00     0.130 C 
HETATM   15  O3  UNL     1     -17.391  16.992  32.112  1.00  0.00    -0.298 OA
HETATM   16  C15 UNL     1     -17.587  15.384  30.451  1.00  0.00     0.126 C 
HETATM   17  C16 UNL     1     -16.112  15.219  30.252  1.00  0.00     0.148 C 
HETATM   18  C17 UNL     1     -15.453  14.410  31.341  1.00  0.00     0.057 C 
HETATM   19  C18 UNL     1     -16.031  14.510  28.931  1.00  0.00     0.296 C 
HETATM   20  O5  UNL     1     -15.473  15.248  28.054  1.00  0.00    -0.262 OA
HETATM   21  O6  UNL     1     -16.508  13.286  28.818  1.00  0.00    -0.281 OA
BRANCH   9  22
HETATM   22  O2  UNL     1     -20.630  13.209  26.967  1.00  0.00    -0.341 OA
ATOM     23  H2  UNL     1     -21.484  13.599  26.825  1.00  0.00     0.220 HD
ENDBRANCH   9  22
BRANCH  10  24
HETATM   24  C9  UNL     1     -21.486  12.693  30.112  1.00  0.00     0.050 C 
BRANCH  24  25
HETATM   25  C10 UNL     1     -22.462  11.677  29.608  1.00  0.00     0.090 C 
HETATM   26  S1  UNL     1     -23.786  12.235  28.577  1.00  0.00    -0.097 SA
ENDBRANCH  24  25
ENDBRANCH  10  24
BRANCH  17  27
HETATM   27  O4  UNL     1     -15.549  16.477  30.243  1.00  0.00    -0.380 OA
ATOM     28  H4  UNL     1     -15.612  16.813  29.356  1.00  0.00     0.211 HD
ENDBRANCH  17  27
ENDBRANCH   5   6
ENDBRANCH   4   5
ENDBRANCH   1   4
TORSDOF 7
ENDMDL
MODEL 5
REMARK VINA RESULT: -5.607210834      3.935      7.268
REMARK  7 active torsions:
REMARK  status: ('A' for Active; 'I' for Inactive)
REMARK    1  A    between atoms: C2_2  and  C3_3 
REMARK    2  A    between atoms: C3_3  and  C4_4 
REMARK    3  A    between atoms: C4_4  and  C5_5 
REMARK    4  A    between atoms: C7_9  and  O2_10 
REMARK    5  A    between atoms: C8_12  and  C9_13 
REMARK    6  A    between atoms: C9_13  and  C10_14 
REMARK    7  A    between atoms: C16_22  and  O4_24 
ROOT
HETATM    1  C5  UNL     1     -16.639  14.302  30.652  1.00  0.00     0.124 C 
HETATM    2  C6  UNL     1     -15.905  15.512  30.257  1.00  0.00     0.059 C 
HETATM    3  N1  UNL     1     -15.339  16.466  29.928  1.00  0.00    -0.197 NA
ENDROOT
BRANCH   1   4
HETATM    4  C4  UNL     1     -17.864  14.165  29.765  1.00  0.00     0.019 C 
BRANCH   4   5
HETATM    5  C3  UNL     1     -18.581  12.883  30.082  1.00  0.00     0.070 C 
BRANCH   5   6
HETATM    6  C2  UNL     1     -19.084  12.194  28.781  1.00  0.00     0.177 C 
HETATM    7  C1  UNL     1     -18.872  13.356  27.778  1.00  0.00     0.080 C 
HETATM    8  O1  UNL     1     -20.336  11.753  28.914  1.00  0.00    -0.292 OA
HETATM    9  C7  UNL     1     -21.641  11.786  28.910  1.00  0.00     0.183 C 
HETATM   10  C8  UNL     1     -22.613  11.670  27.785  1.00  0.00    -0.021 C 
HETATM   11  C11 UNL     1     -22.530  10.382  27.009  1.00  0.00     0.039 C 
HETATM   12  C12 UNL     1     -21.887  10.472  25.671  1.00  0.00     0.012 C 
HETATM   13  C13 UNL     1     -21.356   9.180  25.149  1.00  0.00     0.079 C 
HETATM   14  C14 UNL     1     -19.927   8.909  25.434  1.00  0.00     0.130 C 
HETATM   15  O3  UNL     1     -19.305   8.143  24.747  1.00  0.00    -0.298 OA
HETATM   16  C15 UNL     1     -19.355   9.601  26.551  1.00  0.00     0.126 C 
HETATM   17  C16 UNL     1     -17.890   9.491  26.849  1.00  0.00     0.148 C 
HETATM   18  C17 UNL     1     -17.028  10.271  25.889  1.00  0.00     0.057 C 
HETATM   19  C18 UNL     1     -17.791  10.053  28.239  1.00  0.00     0.296 C 
HETATM   20  O5  UNL     1     -17.429   9.152  29.066  1.00  0.00    -0.262 OA
HETATM   21  O6  UNL     1     -18.066  11.325  28.449  1.00  0.00    -0.281 OA
BRANCH   9  22
HETATM   22  O2  UNL     1     -22.243  11.941  30.059  1.00  0.00    -0.341 OA
ATOM     23  H2  UNL     1     -22.938  11.331  30.275  1.00  0.00     0.220 HD
ENDBRANCH   9  22
BRANCH  10  24
HETATM   24  C9  UNL     1     -22.767  12.882  26.940  1.00  0.00     0.050 C 
BRANCH  24  25
HETATM   25  C10 UNL     1     -24.149  13.228  26.482  1.00  0.00     0.090 C 
HETATM   26  S1  UNL     1     -25.436  13.288  27.694  1.00  0.00    -0.097 SA
ENDBRANCH  24  25
ENDBRANCH  10  24
BRANCH  17  27
HETATM   27  O4  UNL     1     -17.546   8.160  26.762  1.00  0.00    -0.380 OA
ATOM     28  H4  UNL     1     -17.361   7.970  25.849  1.00  0.00     0.211 HD
ENDBRANCH  17  27
ENDBRANCH   5   6
ENDBRANCH   4   5
ENDBRANCH   1   4
TORSDOF 7
ENDMDL
