MODEL 1
REMARK VINA RESULT: -5.524684943      0.000      0.000
REMARK  11 active torsions:
REMARK  status: ('A' for Active; 'I' for Inactive)
REMARK    1  A    between atoms: O1_2  and  C2_3 
REMARK    2  A    between atoms: C4_5  and  O2_6 
REMARK    3  A    between atoms: C6_8  and  C7_9 
REMARK    4  A    between atoms: C10_12  and  O3_13 
REMARK    5  A    between atoms: C12_15  and  O4_16 
REMARK    6  A    between atoms: C17_21  and  O5_22 
REMARK    7  A    between atoms: C18_24  and  O6_25 
REMARK    8  A    between atoms: C20_27  and  O7_28 
REMARK    9  A    between atoms: C22_30  and  O8_31 
REMARK   10  A    between atoms: C25_34  and  C26_35 
REMARK   11  A    between atoms: C29_39  and  O10_40 
ROOT
HETATM    1  C7  UNL     1       7.283   8.622  12.960  1.00  0.00     0.071 A 
HETATM    2  C8  UNL     1       7.102   7.247  12.432  1.00  0.00    -0.034 A 
HETATM    3  C9  UNL     1       7.434   6.228  13.310  1.00  0.00     0.048 A 
HETATM    4  C10 UNL     1       7.307   4.923  12.902  1.00  0.00     0.102 A 
HETATM    5  C12 UNL     1       6.859   4.627  11.645  1.00  0.00     0.102 A 
HETATM    6  C14 UNL     1       6.517   5.661  10.742  1.00  0.00     0.052 A 
HETATM    7  C15 UNL     1       6.652   6.952  11.172  1.00  0.00    -0.013 A 
HETATM    8  C16 UNL     1       6.301   8.064  10.271  1.00  0.00     0.021 A 
HETATM    9  C17 UNL     1       5.806   7.813   9.004  1.00  0.00     0.113 A 
HETATM   10  C18 UNL     1       5.449   8.891   8.204  1.00  0.00     0.138 A 
HETATM   11  C20 UNL     1       5.574  10.193   8.635  1.00  0.00     0.138 A 
HETATM   12  C22 UNL     1       6.072  10.397   9.901  1.00  0.00     0.112 A 
HETATM   13  C24 UNL     1       6.442   9.334  10.734  1.00  0.00     0.004 A 
HETATM   14  C25 UNL     1       6.970   9.722  12.043  1.00  0.00     0.105 A 
ENDROOT
BRANCH   1  15
HETATM   15  C6  UNL     1       8.633   8.636  13.592  1.00  0.00    -0.012 A 
HETATM   16  C4  UNL     1       8.837   9.211  14.828  1.00  0.00     0.078 A 
HETATM   17  C3  UNL     1      10.087   9.188  15.388  1.00  0.00     0.077 A 
HETATM   18  C2  UNL     1      11.171   8.606  14.770  1.00  0.00     0.104 A 
HETATM   19  C29 UNL     1      10.986   8.029  13.540  1.00  0.00     0.102 A 
HETATM   20  C28 UNL     1       9.729   8.052  12.975  1.00  0.00     0.050 A 
BRANCH  16  21
HETATM   21  O2  UNL     1       7.748   9.816  15.490  1.00  0.00    -0.355 OA
HETATM   22  C5  UNL     1       7.880  10.974  16.251  1.00  0.00     0.210 C 
ENDBRANCH  16  21
BRANCH  18  23
HETATM   23  O1  UNL     1      12.424   8.620  15.406  1.00  0.00    -0.353 OA
HETATM   24  C1  UNL     1      12.557   9.039  16.734  1.00  0.00     0.210 C 
ENDBRANCH  18  23
BRANCH  19  25
HETATM   25  O10 UNL     1      12.085   7.449  12.932  1.00  0.00    -0.353 OA
HETATM   26  C30 UNL     1      11.880   6.618  11.818  1.00  0.00     0.210 C 
ENDBRANCH  19  25
ENDBRANCH   1  15
BRANCH  14  27
HETATM   27  C26 UNL     1       8.120  10.688  11.873  1.00  0.00     0.132 C 
HETATM   28  C27 UNL     1       8.225  11.927  12.682  1.00  0.00     0.091 C 
HETATM   29  O9  UNL     1       9.019  10.511  11.062  1.00  0.00    -0.298 OA
ENDBRANCH  14  27
BRANCH   4  30
HETATM   30  O3  UNL     1       7.628   3.849  13.747  1.00  0.00    -0.353 OA
HETATM   31  C11 UNL     1       6.634   2.922  14.149  1.00  0.00     0.210 C 
ENDBRANCH   4  30
BRANCH  12  32
HETATM   32  O8  UNL     1       6.183  11.737  10.309  1.00  0.00    -0.352 OA
HETATM   33  C23 UNL     1       5.102  12.489  10.777  1.00  0.00     0.210 C 
ENDBRANCH  12  32
BRANCH   5  34
HETATM   34  O4  UNL     1       6.736   3.312  11.246  1.00  0.00    -0.353 OA
HETATM   35  C13 UNL     1       6.044   2.983  10.063  1.00  0.00     0.210 C 
ENDBRANCH   5  34
BRANCH   9  36
HETATM   36  O5  UNL     1       5.631   6.582   8.461  1.00  0.00    -0.357 OA
ATOM     37  H5  UNL     1       4.990   6.362   7.795  1.00  0.00     0.217 HD
ENDBRANCH   9  36
BRANCH  11  38
HETATM   38  O7  UNL     1       5.224  11.283   7.855  1.00  0.00    -0.351 OA
HETATM   39  C21 UNL     1       6.133  11.970   7.024  1.00  0.00     0.210 C 
ENDBRANCH  11  38
BRANCH  10  40
HETATM   40  O6  UNL     1       4.941   8.696   6.912  1.00  0.00    -0.351 OA
HETATM   41  C19 UNL     1       5.895   8.517   5.881  1.00  0.00     0.210 C 
ENDBRANCH  10  40
TORSDOF 11
ENDMDL
MODEL 2
REMARK VINA RESULT: -5.432245810      2.588      5.773
REMARK  11 active torsions:
REMARK  status: ('A' for Active; 'I' for Inactive)
REMARK    1  A    between atoms: O1_2  and  C2_3 
REMARK    2  A    between atoms: C4_5  and  O2_6 
REMARK    3  A    between atoms: C6_8  and  C7_9 
REMARK    4  A    between atoms: C10_12  and  O3_13 
REMARK    5  A    between atoms: C12_15  and  O4_16 
REMARK    6  A    between atoms: C17_21  and  O5_22 
REMARK    7  A    between atoms: C18_24  and  O6_25 
REMARK    8  A    between atoms: C20_27  and  O7_28 
REMARK    9  A    between atoms: C22_30  and  O8_31 
REMARK   10  A    between atoms: C25_34  and  C26_35 
REMARK   11  A    between atoms: C29_39  and  O10_40 
ROOT
HETATM    1  C7  UNL     1      10.159   8.024  13.316  1.00  0.00     0.071 A 
HETATM    2  C8  UNL     1      10.674   8.527  12.018  1.00  0.00    -0.034 A 
HETATM    3  C9  UNL     1      11.731   9.419  12.107  1.00  0.00     0.048 A 
HETATM    4  C10 UNL     1      12.264   9.944  10.956  1.00  0.00     0.102 A 
HETATM    5  C12 UNL     1      11.762   9.595   9.734  1.00  0.00     0.102 A 
HETATM    6  C14 UNL     1      10.684   8.685   9.633  1.00  0.00     0.052 A 
HETATM    7  C15 UNL     1      10.171   8.176  10.793  1.00  0.00    -0.013 A 
HETATM    8  C16 UNL     1       9.051   7.217  10.741  1.00  0.00     0.021 A 
HETATM    9  C17 UNL     1       8.537   6.804   9.525  1.00  0.00     0.113 A 
HETATM   10  C18 UNL     1       7.510   5.868   9.521  1.00  0.00     0.138 A 
HETATM   11  C20 UNL     1       6.996   5.345  10.687  1.00  0.00     0.138 A 
HETATM   12  C22 UNL     1       7.536   5.785  11.873  1.00  0.00     0.112 A 
HETATM   13  C24 UNL     1       8.570   6.728  11.914  1.00  0.00     0.004 A 
HETATM   14  C25 UNL     1       9.021   7.102  13.255  1.00  0.00     0.105 A 
ENDROOT
BRANCH   1  15
HETATM   15  C6  UNL     1      10.007   9.226  14.183  1.00  0.00    -0.012 A 
HETATM   16  C4  UNL     1      10.773   9.391  15.316  1.00  0.00     0.078 A 
HETATM   17  C3  UNL     1      10.621  10.518  16.079  1.00  0.00     0.077 A 
HETATM   18  C2  UNL     1       9.727  11.517  15.765  1.00  0.00     0.104 A 
HETATM   19  C29 UNL     1       8.957  11.370  14.640  1.00  0.00     0.102 A 
HETATM   20  C28 UNL     1       9.109  10.236  13.872  1.00  0.00     0.050 A 
BRANCH  16  21
HETATM   21  O2  UNL     1      11.700   8.388  15.668  1.00  0.00    -0.355 OA
HETATM   22  C5  UNL     1      13.075   8.549  15.522  1.00  0.00     0.210 C 
ENDBRANCH  16  21
BRANCH  18  23
HETATM   23  O1  UNL     1       9.626  12.646  16.595  1.00  0.00    -0.353 OA
HETATM   24  C1  UNL     1       8.903  12.603  17.792  1.00  0.00     0.210 C 
ENDBRANCH  18  23
BRANCH  19  25
HETATM   25  O10 UNL     1       8.063  12.381  14.338  1.00  0.00    -0.353 OA
HETATM   26  C30 UNL     1       7.435  12.375  13.081  1.00  0.00     0.210 C 
ENDBRANCH  19  25
ENDBRANCH   1  15
BRANCH  14  27
HETATM   27  C26 UNL     1       7.846   7.568  14.085  1.00  0.00     0.132 C 
HETATM   28  C27 UNL     1       7.752   7.277  15.536  1.00  0.00     0.091 C 
HETATM   29  O9  UNL     1       6.911   8.200  13.613  1.00  0.00    -0.298 OA
ENDBRANCH  14  27
BRANCH   4  30
HETATM   30  O3  UNL     1      13.335  10.851  10.984  1.00  0.00    -0.353 OA
HETATM   31  C11 UNL     1      13.288  12.002  11.809  1.00  0.00     0.210 C 
ENDBRANCH   4  30
BRANCH  12  32
HETATM   32  O8  UNL     1       6.989   5.228  13.041  1.00  0.00    -0.352 OA
HETATM   33  C23 UNL     1       7.487   4.071  13.646  1.00  0.00     0.210 C 
ENDBRANCH  12  32
BRANCH   5  34
HETATM   34  O4  UNL     1      12.306  10.130   8.584  1.00  0.00    -0.353 OA
HETATM   35  C13 UNL     1      11.918   9.650   7.317  1.00  0.00     0.210 C 
ENDBRANCH   5  34
BRANCH   9  36
HETATM   36  O5  UNL     1       8.955   7.238   8.309  1.00  0.00    -0.357 OA
ATOM     37  H5  UNL     1       9.496   6.742   7.706  1.00  0.00     0.217 HD
ENDBRANCH   9  36
BRANCH  11  38
HETATM   38  O7  UNL     1       5.973   4.411  10.708  1.00  0.00    -0.351 OA
HETATM   39  C21 UNL     1       6.177   3.029  10.514  1.00  0.00     0.210 C 
ENDBRANCH  11  38
BRANCH  10  40
HETATM   40  O6  UNL     1       6.951   5.413   8.319  1.00  0.00    -0.351 OA
HETATM   41  C19 UNL     1       6.013   6.271   7.697  1.00  0.00     0.210 C 
ENDBRANCH  10  40
TORSDOF 11
ENDMDL
MODEL 3
REMARK VINA RESULT: -5.199730391      0.931      2.223
REMARK  11 active torsions:
REMARK  status: ('A' for Active; 'I' for Inactive)
REMARK    1  A    between atoms: O1_2  and  C2_3 
REMARK    2  A    between atoms: C4_5  and  O2_6 
REMARK    3  A    between atoms: C6_8  and  C7_9 
REMARK    4  A    between atoms: C10_12  and  O3_13 
REMARK    5  A    between atoms: C12_15  and  O4_16 
REMARK    6  A    between atoms: C17_21  and  O5_22 
REMARK    7  A    between atoms: C18_24  and  O6_25 
REMARK    8  A    between atoms: C20_27  and  O7_28 
REMARK    9  A    between atoms: C22_30  and  O8_31 
REMARK   10  A    between atoms: C25_34  and  C26_35 
REMARK   11  A    between atoms: C29_39  and  O10_40 
ROOT
HETATM    1  C7  UNL     1       6.850   8.495  12.835  1.00  0.00     0.071 A 
HETATM    2  C8  UNL     1       6.817   7.084  12.376  1.00  0.00    -0.034 A 
HETATM    3  C9  UNL     1       7.046   6.136  13.360  1.00  0.00     0.048 A 
HETATM    4  C10 UNL     1       7.045   4.806  13.024  1.00  0.00     0.102 A 
HETATM    5  C12 UNL     1       6.819   4.414  11.734  1.00  0.00     0.102 A 
HETATM    6  C14 UNL     1       6.583   5.373  10.723  1.00  0.00     0.052 A 
HETATM    7  C15 UNL     1       6.590   6.692  11.083  1.00  0.00    -0.013 A 
HETATM    8  C16 UNL     1       6.341   7.731  10.066  1.00  0.00     0.021 A 
HETATM    9  C17 UNL     1       6.068   7.380   8.756  1.00  0.00     0.113 A 
HETATM   10  C18 UNL     1       5.799   8.389   7.840  1.00  0.00     0.138 A 
HETATM   11  C20 UNL     1       5.796   9.719   8.199  1.00  0.00     0.138 A 
HETATM   12  C22 UNL     1       6.073  10.023   9.512  1.00  0.00     0.112 A 
HETATM   13  C24 UNL     1       6.350   9.031  10.461  1.00  0.00     0.004 A 
HETATM   14  C25 UNL     1       6.641   9.521  11.809  1.00  0.00     0.105 A 
ENDROOT
BRANCH   1  15
HETATM   15  C6  UNL     1       8.078   8.618  13.671  1.00  0.00    -0.012 A 
HETATM   16  C4  UNL     1       9.313   8.250  13.184  1.00  0.00     0.078 A 
HETATM   17  C3  UNL     1      10.424   8.395  13.973  1.00  0.00     0.077 A 
HETATM   18  C2  UNL     1      10.368   8.902  15.253  1.00  0.00     0.104 A 
HETATM   19  C29 UNL     1       9.147   9.272  15.753  1.00  0.00     0.102 A 
HETATM   20  C28 UNL     1       8.029   9.127  14.960  1.00  0.00     0.050 A 
BRANCH  16  21
HETATM   21  O2  UNL     1       9.407   7.728  11.877  1.00  0.00    -0.355 OA
HETATM   22  C5  UNL     1      10.534   7.052  11.416  1.00  0.00     0.210 C 
ENDBRANCH  16  21
BRANCH  18  23
HETATM   23  O1  UNL     1      11.549   9.022  16.004  1.00  0.00    -0.353 OA
HETATM   24  C1  UNL     1      12.785   8.628  15.479  1.00  0.00     0.210 C 
ENDBRANCH  18  23
BRANCH  19  25
HETATM   25  O10 UNL     1       9.108   9.779  17.039  1.00  0.00    -0.353 OA
HETATM   26  C30 UNL     1       8.677  11.103  17.232  1.00  0.00     0.210 C 
ENDBRANCH  19  25
ENDBRANCH   1  15
BRANCH  14  27
HETATM   27  C26 UNL     1       7.761  10.537  11.761  1.00  0.00     0.132 C 
HETATM   28  C27 UNL     1       7.764  11.737  12.632  1.00  0.00     0.091 C 
HETATM   29  O9  UNL     1       8.716  10.433  11.003  1.00  0.00    -0.298 OA
ENDBRANCH  14  27
BRANCH   4  30
HETATM   30  O3  UNL     1       7.271   3.801  13.979  1.00  0.00    -0.353 OA
HETATM   31  C11 UNL     1       6.354   2.732  14.135  1.00  0.00     0.210 C 
ENDBRANCH   4  30
BRANCH  12  32
HETATM   32  O8  UNL     1       6.058  11.388   9.844  1.00  0.00    -0.352 OA
HETATM   33  C23 UNL     1       4.904  12.069  10.237  1.00  0.00     0.210 C 
ENDBRANCH  12  32
BRANCH   5  34
HETATM   34  O4  UNL     1       6.820   3.073  11.409  1.00  0.00    -0.353 OA
HETATM   35  C13 UNL     1       6.060   2.599  10.320  1.00  0.00     0.210 C 
ENDBRANCH   5  34
BRANCH   9  36
HETATM   36  O5  UNL     1       6.038   6.112   8.274  1.00  0.00    -0.357 OA
ATOM     37  H5  UNL     1       5.261   5.661   7.966  1.00  0.00     0.217 HD
ENDBRANCH   9  36
BRANCH  11  38
HETATM   38  O7  UNL     1       5.529  10.742   7.304  1.00  0.00    -0.351 OA
HETATM   39  C21 UNL     1       4.236  11.047   6.833  1.00  0.00     0.210 C 
ENDBRANCH  11  38
BRANCH  10  40
HETATM   40  O6  UNL     1       5.516   8.093   6.500  1.00  0.00    -0.351 OA
HETATM   41  C19 UNL     1       6.621   8.063   5.615  1.00  0.00     0.210 C 
ENDBRANCH  10  40
TORSDOF 11
ENDMDL
MODEL 4
REMARK VINA RESULT: -5.079117501      2.614      5.859
REMARK  11 active torsions:
REMARK  status: ('A' for Active; 'I' for Inactive)
REMARK    1  A    between atoms: O1_2  and  C2_3 
REMARK    2  A    between atoms: C4_5  and  O2_6 
REMARK    3  A    between atoms: C6_8  and  C7_9 
REMARK    4  A    between atoms: C10_12  and  O3_13 
REMARK    5  A    between atoms: C12_15  and  O4_16 
REMARK    6  A    between atoms: C17_21  and  O5_22 
REMARK    7  A    between atoms: C18_24  and  O6_25 
REMARK    8  A    between atoms: C20_27  and  O7_28 
REMARK    9  A    between atoms: C22_30  and  O8_31 
REMARK   10  A    between atoms: C25_34  and  C26_35 
REMARK   11  A    between atoms: C29_39  and  O10_40 
ROOT
HETATM    1  C7  UNL     1       6.936   6.578   9.690  1.00  0.00     0.071 A 
HETATM    2  C8  UNL     1       6.853   5.734  10.908  1.00  0.00    -0.034 A 
HETATM    3  C9  UNL     1       7.005   6.410  12.108  1.00  0.00     0.048 A 
HETATM    4  C10 UNL     1       6.953   5.708  13.285  1.00  0.00     0.102 A 
HETATM    5  C12 UNL     1       6.752   4.355  13.281  1.00  0.00     0.102 A 
HETATM    6  C14 UNL     1       6.595   3.657  12.062  1.00  0.00     0.052 A 
HETATM    7  C15 UNL     1       6.651   4.379  10.902  1.00  0.00    -0.013 A 
HETATM    8  C16 UNL     1       6.484   3.697   9.605  1.00  0.00     0.021 A 
HETATM    9  C17 UNL     1       6.240   2.337   9.553  1.00  0.00     0.113 A 
HETATM   10  C18 UNL     1       6.048   1.743   8.312  1.00  0.00     0.138 A 
HETATM   11  C20 UNL     1       6.094   2.468   7.142  1.00  0.00     0.138 A 
HETATM   12  C22 UNL     1       6.341   3.818   7.240  1.00  0.00     0.112 A 
HETATM   13  C24 UNL     1       6.541   4.448   8.474  1.00  0.00     0.004 A 
HETATM   14  C25 UNL     1       6.809   5.886   8.404  1.00  0.00     0.105 A 
ENDROOT
BRANCH   1  15
HETATM   15  C6  UNL     1       8.139   7.437   9.877  1.00  0.00    -0.012 A 
HETATM   16  C4  UNL     1       8.061   8.809   9.773  1.00  0.00     0.078 A 
HETATM   17  C3  UNL     1       9.183   9.569   9.971  1.00  0.00     0.077 A 
HETATM   18  C2  UNL     1      10.410   9.023  10.276  1.00  0.00     0.104 A 
HETATM   19  C29 UNL     1      10.506   7.660  10.383  1.00  0.00     0.102 A 
HETATM   20  C28 UNL     1       9.378   6.894  10.184  1.00  0.00     0.050 A 
BRANCH  16  21
HETATM   21  O2  UNL     1       6.819   9.402   9.462  1.00  0.00    -0.355 OA
HETATM   22  C5  UNL     1       6.647  10.265   8.383  1.00  0.00     0.210 C 
ENDBRANCH  16  21
BRANCH  18  23
HETATM   23  O1  UNL     1      11.518   9.866  10.466  1.00  0.00    -0.353 OA
HETATM   24  C1  UNL     1      11.459  11.224  10.136  1.00  0.00     0.210 C 
ENDBRANCH  18  23
BRANCH  19  25
HETATM   25  O10 UNL     1      11.745   7.127  10.690  1.00  0.00    -0.353 OA
HETATM   26  C30 UNL     1      12.377   6.299   9.746  1.00  0.00     0.210 C 
ENDBRANCH  19  25
ENDBRANCH   1  15
BRANCH  14  27
HETATM   27  C26 UNL     1       7.976   6.151   7.479  1.00  0.00     0.132 C 
HETATM   28  C27 UNL     1       7.981   7.298   6.540  1.00  0.00     0.091 C 
HETATM   29  O9  UNL     1       8.969   5.438   7.447  1.00  0.00    -0.298 OA
ENDBRANCH  14  27
BRANCH   4  30
HETATM   30  O3  UNL     1       7.100   6.339  14.531  1.00  0.00    -0.353 OA
HETATM   31  C11 UNL     1       7.788   7.573  14.640  1.00  0.00     0.210 C 
ENDBRANCH   4  30
BRANCH  12  32
HETATM   32  O8  UNL     1       6.379   4.526   6.027  1.00  0.00    -0.352 OA
HETATM   33  C23 UNL     1       5.246   5.082   5.428  1.00  0.00     0.210 C 
ENDBRANCH  12  32
BRANCH   5  34
HETATM   34  O4  UNL     1       6.702   3.660  14.472  1.00  0.00    -0.353 OA
HETATM   35  C13 UNL     1       6.732   2.251  14.480  1.00  0.00     0.210 C 
ENDBRANCH   5  34
BRANCH   9  36
HETATM   36  O5  UNL     1       6.167   1.512  10.628  1.00  0.00    -0.357 OA
ATOM     37  H5  UNL     1       5.693   1.698  11.431  1.00  0.00     0.217 HD
ENDBRANCH   9  36
BRANCH  11  38
HETATM   38  O7  UNL     1       5.906   1.898   5.893  1.00  0.00    -0.351 OA
HETATM   39  C21 UNL     1       6.633   0.784   5.428  1.00  0.00     0.210 C 
ENDBRANCH  11  38
BRANCH  10  40
HETATM   40  O6  UNL     1       5.797   0.369   8.198  1.00  0.00    -0.351 OA
HETATM   41  C19 UNL     1       6.900  -0.492   8.411  1.00  0.00     0.210 C 
ENDBRANCH  10  40
TORSDOF 11
ENDMDL
MODEL 5
REMARK VINA RESULT: -4.852495702      1.919      6.804
REMARK  11 active torsions:
REMARK  status: ('A' for Active; 'I' for Inactive)
REMARK    1  A    between atoms: O1_2  and  C2_3 
REMARK    2  A    between atoms: C4_5  and  O2_6 
REMARK    3  A    between atoms: C6_8  and  C7_9 
REMARK    4  A    between atoms: C10_12  and  O3_13 
REMARK    5  A    between atoms: C12_15  and  O4_16 
REMARK    6  A    between atoms: C17_21  and  O5_22 
REMARK    7  A    between atoms: C18_24  and  O6_25 
REMARK    8  A    between atoms: C20_27  and  O7_28 
REMARK    9  A    between atoms: C22_30  and  O8_31 
REMARK   10  A    between atoms: C25_34  and  C26_35 
REMARK   11  A    between atoms: C29_39  and  O10_40 
ROOT
HETATM    1  C7  UNL     1       8.717   8.113  10.653  1.00  0.00     0.071 A 
HETATM    2  C8  UNL     1       8.057   7.126  11.543  1.00  0.00    -0.034 A 
HETATM    3  C9  UNL     1       7.511   6.025  10.903  1.00  0.00     0.048 A 
HETATM    4  C10 UNL     1       6.872   5.065  11.647  1.00  0.00     0.102 A 
HETATM    5  C12 UNL     1       6.773   5.188  13.005  1.00  0.00     0.102 A 
HETATM    6  C14 UNL     1       7.328   6.308  13.667  1.00  0.00     0.052 A 
HETATM    7  C15 UNL     1       7.959   7.250  12.904  1.00  0.00    -0.013 A 
HETATM    8  C16 UNL     1       8.561   8.432  13.548  1.00  0.00     0.021 A 
HETATM    9  C17 UNL     1       8.520   8.580  14.923  1.00  0.00     0.113 A 
HETATM   10  C18 UNL     1       9.136   9.688  15.491  1.00  0.00     0.138 A 
HETATM   11  C20 UNL     1       9.781  10.635  14.727  1.00  0.00     0.138 A 
HETATM   12  C22 UNL     1       9.797  10.449  13.365  1.00  0.00     0.112 A 
HETATM   13  C24 UNL     1       9.185   9.345  12.759  1.00  0.00     0.004 A 
HETATM   14  C25 UNL     1       9.277   9.304  11.298  1.00  0.00     0.105 A 
ENDROOT
BRANCH   1  15
HETATM   15  C6  UNL     1       7.765   8.341   9.529  1.00  0.00    -0.012 A 
HETATM   16  C4  UNL     1       8.102   8.021   8.232  1.00  0.00     0.078 A 
HETATM   17  C3  UNL     1       7.195   8.224   7.225  1.00  0.00     0.077 A 
HETATM   18  C2  UNL     1       5.939   8.742   7.447  1.00  0.00     0.104 A 
HETATM   19  C29 UNL     1       5.587   9.066   8.732  1.00  0.00     0.102 A 
HETATM   20  C28 UNL     1       6.498   8.861   9.745  1.00  0.00     0.050 A 
BRANCH  16  21
HETATM   21  O2  UNL     1       9.382   7.489   7.968  1.00  0.00    -0.355 OA
HETATM   22  C5  UNL     1       9.581   6.168   7.574  1.00  0.00     0.210 C 
ENDBRANCH  16  21
BRANCH  18  23
HETATM   23  O1  UNL     1       5.061   8.923   6.365  1.00  0.00    -0.353 OA
HETATM   24  C1  UNL     1       5.243   9.966   5.452  1.00  0.00     0.210 C 
ENDBRANCH  18  23
BRANCH  19  25
HETATM   25  O10 UNL     1       4.321   9.584   8.938  1.00  0.00    -0.353 OA
HETATM   26  C30 UNL     1       4.087  10.358  10.088  1.00  0.00     0.210 C 
ENDBRANCH  19  25
ENDBRANCH   1  15
BRANCH  14  27
HETATM   27  C26 UNL     1       8.748  10.593  10.709  1.00  0.00     0.132 C 
HETATM   28  C27 UNL     1       9.391  11.237   9.538  1.00  0.00     0.091 C 
HETATM   29  O9  UNL     1       7.774  11.177  11.164  1.00  0.00    -0.298 OA
ENDBRANCH  14  27
BRANCH   4  30
HETATM   30  O3  UNL     1       6.300   3.928  11.054  1.00  0.00    -0.353 OA
HETATM   31  C11 UNL     1       6.371   3.729   9.653  1.00  0.00     0.210 C 
ENDBRANCH   4  30
BRANCH  12  32
HETATM   32  O8  UNL     1      10.466  11.433  12.618  1.00  0.00    -0.352 OA
HETATM   33  C23 UNL     1      11.839  11.398  12.358  1.00  0.00     0.210 C 
ENDBRANCH  12  32
BRANCH   5  34
HETATM   34  O4  UNL     1       6.127   4.217  13.742  1.00  0.00    -0.353 OA
HETATM   35  C13 UNL     1       6.809   3.050  14.143  1.00  0.00     0.210 C 
ENDBRANCH   5  34
BRANCH   9  36
HETATM   36  O5  UNL     1       7.921   7.721  15.786  1.00  0.00    -0.357 OA
ATOM     37  H5  UNL     1       8.358   7.259  16.492  1.00  0.00     0.217 HD
ENDBRANCH   9  36
BRANCH  11  38
HETATM   38  O7  UNL     1      10.403  11.747  15.271  1.00  0.00    -0.351 OA
HETATM   39  C21 UNL     1      11.647  11.698  15.934  1.00  0.00     0.210 C 
ENDBRANCH  11  38
BRANCH  10  40
HETATM   40  O6  UNL     1       9.126   9.889  16.878  1.00  0.00    -0.351 OA
HETATM   41  C19 UNL     1       8.273  10.910  17.360  1.00  0.00     0.210 C 
ENDBRANCH  10  40
TORSDOF 11
ENDMDL
