MODEL 1
REMARK VINA RESULT: -6.655511840      0.000      0.000
REMARK  14 active torsions:
REMARK  status: ('A' for Active; 'I' for Inactive)
REMARK    1  A    between atoms: O1_2  and  C2_3 
REMARK    2  A    between atoms: C2_3  and  C3_5 
REMARK    3  A    between atoms: C4_6  and  C5_7 
REMARK    4  A    between atoms: C6_8  and  C7_9 
REMARK    5  A    between atoms: C7_9  and  O4_11 
REMARK    6  A    between atoms: O4_11  and  C8_12 
REMARK    7  A    between atoms: C8_12  and  C9_13 
REMARK    8  A    between atoms: C9_13  and  O5_14 
REMARK    9  A    between atoms: C16_22  and  O6_23 
REMARK   10  A    between atoms: C18_25  and  O7_26 
REMARK   11  A    between atoms: C20_28  and  O8_29 
REMARK   12  A    between atoms: C22_31  and  O9_32 
REMARK   13  A    between atoms: C25_35  and  O10_36 
REMARK   14  A    between atoms: C27_38  and  C28_39 
ROOT
HETATM    1  C5  UNL     1       8.180   8.948  12.351  1.00  0.00     0.031 A 
HETATM    2  C6  UNL     1       7.219   7.963  12.409  1.00  0.00     0.056 A 
HETATM    3  C15 UNL     1       6.063   8.120  11.664  1.00  0.00     0.058 A 
HETATM    4  C16 UNL     1       5.866   9.250  10.870  1.00  0.00     0.105 A 
HETATM    5  C18 UNL     1       6.823  10.238  10.809  1.00  0.00     0.136 A 
HETATM    6  C20 UNL     1       7.984  10.085  11.553  1.00  0.00     0.116 A 
ENDROOT
BRANCH   1   7
HETATM    7  C4  UNL     1       9.405   8.829  13.105  1.00  0.00     0.028 A 
HETATM    8  C3  UNL     1       9.521   9.407  14.355  1.00  0.00     0.062 A 
HETATM    9  C27 UNL     1      10.722   9.280  15.051  1.00  0.00    -0.004 A 
HETATM   10  C25 UNL     1      11.764   8.589  14.498  1.00  0.00     0.078 A 
HETATM   11  C24 UNL     1      11.616   8.012  13.226  1.00  0.00     0.075 A 
HETATM   12  C22 UNL     1      10.440   8.125  12.523  1.00  0.00     0.083 A 
BRANCH   8  13
HETATM   13  C2  UNL     1       8.433  10.161  14.940  1.00  0.00     0.294 C 
HETATM   14  O2  UNL     1       7.638   9.676  15.793  1.00  0.00    -0.259 OA
BRANCH  13  15
HETATM   15  O1  UNL     1       8.188  11.485  14.601  1.00  0.00    -0.322 OA
HETATM   16  C1  UNL     1       8.313  12.567  15.503  1.00  0.00     0.213 C 
ENDBRANCH  13  15
ENDBRANCH   8  13
BRANCH   9  17
HETATM   17  C28 UNL     1      10.798   9.892  16.367  1.00  0.00     0.014 C 
HETATM   18  C29 UNL     1      11.601  11.172  16.455  1.00  0.00     0.015 C 
HETATM   19  C30 UNL     1      11.390   8.966  17.412  1.00  0.00     0.015 C 
ENDBRANCH   9  17
BRANCH  10  20
HETATM   20  O10 UNL     1      12.964   8.440  15.153  1.00  0.00    -0.355 OA
HETATM   21  C26 UNL     1      14.024   9.325  14.868  1.00  0.00     0.210 C 
ENDBRANCH  10  20
BRANCH  12  22
HETATM   22  O9  UNL     1      10.307   7.548  11.264  1.00  0.00    -0.355 OA
HETATM   23  C23 UNL     1      11.412   7.209  10.462  1.00  0.00     0.210 C 
ENDBRANCH  12  22
ENDBRANCH   1   7
BRANCH   2  24
HETATM   24  C7  UNL     1       7.341   6.761  13.220  1.00  0.00     0.294 C 
HETATM   25  O3  UNL     1       7.183   6.741  14.473  1.00  0.00    -0.259 OA
BRANCH  24  26
HETATM   26  O4  UNL     1       7.645   5.545  12.628  1.00  0.00    -0.314 OA
BRANCH  26  27
HETATM   27  C8  UNL     1       6.669   4.799  11.975  1.00  0.00     0.217 C 
BRANCH  27  28
HETATM   28  C9  UNL     1       6.619   3.396  12.546  1.00  0.00     0.080 C 
HETATM   29  C10 UNL     1       6.408   2.443  11.422  1.00  0.00     0.040 C 
HETATM   30  C11 UNL     1       6.624   1.002  11.805  1.00  0.00     0.003 C 
HETATM   31  C12 UNL     1       8.042   0.868  12.313  1.00  0.00     0.000 C 
HETATM   32  C13 UNL     1       8.161   1.702  13.560  1.00  0.00     0.003 C 
HETATM   33  C14 UNL     1       7.910   3.168  13.294  1.00  0.00     0.040 C 
BRANCH  28  34
HETATM   34  O5  UNL     1       5.580   3.356  13.478  1.00  0.00    -0.388 OA
ATOM     35  H5  UNL     1       5.968   3.397  14.345  1.00  0.00     0.210 HD
ENDBRANCH  28  34
ENDBRANCH  27  28
ENDBRANCH  26  27
ENDBRANCH  24  26
ENDBRANCH   2  24
BRANCH   6  36
HETATM   36  O8  UNL     1       8.912  11.106  11.459  1.00  0.00    -0.352 OA
HETATM   37  C21 UNL     1       9.928  11.192  10.487  1.00  0.00     0.210 C 
ENDBRANCH   6  36
BRANCH   5  38
HETATM   38  O7  UNL     1       6.606  11.330  10.027  1.00  0.00    -0.351 OA
HETATM   39  C19 UNL     1       5.998  12.533  10.359  1.00  0.00     0.210 C 
ENDBRANCH   5  38
BRANCH   4  40
HETATM   40  O6  UNL     1       4.711   9.415  10.122  1.00  0.00    -0.353 OA
HETATM   41  C17 UNL     1       4.798   9.183   8.729  1.00  0.00     0.210 C 
ENDBRANCH   4  40
TORSDOF 14
ENDMDL
MODEL 2
REMARK VINA RESULT: -6.577071256      2.169      4.100
REMARK  14 active torsions:
REMARK  status: ('A' for Active; 'I' for Inactive)
REMARK    1  A    between atoms: O1_2  and  C2_3 
REMARK    2  A    between atoms: C2_3  and  C3_5 
REMARK    3  A    between atoms: C4_6  and  C5_7 
REMARK    4  A    between atoms: C6_8  and  C7_9 
REMARK    5  A    between atoms: C7_9  and  O4_11 
REMARK    6  A    between atoms: O4_11  and  C8_12 
REMARK    7  A    between atoms: C8_12  and  C9_13 
REMARK    8  A    between atoms: C9_13  and  O5_14 
REMARK    9  A    between atoms: C16_22  and  O6_23 
REMARK   10  A    between atoms: C18_25  and  O7_26 
REMARK   11  A    between atoms: C20_28  and  O8_29 
REMARK   12  A    between atoms: C22_31  and  O9_32 
REMARK   13  A    between atoms: C25_35  and  O10_36 
REMARK   14  A    between atoms: C27_38  and  C28_39 
ROOT
HETATM    1  C5  UNL     1       8.131   7.679  10.410  1.00  0.00     0.031 A 
HETATM    2  C6  UNL     1       7.298   6.584  10.351  1.00  0.00     0.056 A 
HETATM    3  C15 UNL     1       7.356   5.764   9.238  1.00  0.00     0.058 A 
HETATM    4  C16 UNL     1       8.237   6.034   8.191  1.00  0.00     0.105 A 
HETATM    5  C18 UNL     1       9.072   7.128   8.242  1.00  0.00     0.136 A 
HETATM    6  C20 UNL     1       9.017   7.952   9.357  1.00  0.00     0.116 A 
ENDROOT
BRANCH   1   7
HETATM    7  C4  UNL     1       8.111   8.562  11.551  1.00  0.00     0.028 A 
HETATM    8  C3  UNL     1       8.908   8.307  12.652  1.00  0.00     0.062 A 
HETATM    9  C27 UNL     1       8.857   9.176  13.739  1.00  0.00    -0.004 A 
HETATM   10  C25 UNL     1       8.029  10.263  13.709  1.00  0.00     0.078 A 
HETATM   11  C24 UNL     1       7.232  10.496  12.577  1.00  0.00     0.075 A 
HETATM   12  C22 UNL     1       7.267   9.652  11.493  1.00  0.00     0.083 A 
BRANCH   8  13
HETATM   13  C2  UNL     1       9.770   7.146  12.705  1.00  0.00     0.294 C 
HETATM   14  O2  UNL     1       9.364   5.998  13.036  1.00  0.00    -0.259 OA
BRANCH  13  15
HETATM   15  O1  UNL     1      11.121   7.217  12.388  1.00  0.00    -0.322 OA
HETATM   16  C1  UNL     1      11.696   6.618  11.243  1.00  0.00     0.213 C 
ENDBRANCH  13  15
ENDBRANCH   8  13
BRANCH   9  17
HETATM   17  C28 UNL     1       9.719   8.879  14.871  1.00  0.00     0.014 C 
HETATM   18  C29 UNL     1       9.053   8.889  16.231  1.00  0.00     0.015 C 
HETATM   19  C30 UNL     1      10.891   9.835  14.984  1.00  0.00     0.015 C 
ENDBRANCH   9  17
BRANCH  10  20
HETATM   20  O10 UNL     1       7.951  11.145  14.762  1.00  0.00    -0.355 OA
HETATM   21  C26 UNL     1       8.242  12.508  14.548  1.00  0.00     0.210 C 
ENDBRANCH  10  20
BRANCH  12  22
HETATM   22  O9  UNL     1       6.472   9.895  10.377  1.00  0.00    -0.355 OA
HETATM   23  C23 UNL     1       5.121  10.275  10.473  1.00  0.00     0.210 C 
ENDBRANCH  12  22
ENDBRANCH   1   7
BRANCH   2  24
HETATM   24  C7  UNL     1       6.343   6.238  11.393  1.00  0.00     0.294 C 
HETATM   25  O3  UNL     1       5.423   7.010  11.787  1.00  0.00    -0.259 OA
BRANCH  24  26
HETATM   26  O4  UNL     1       6.405   5.003  12.019  1.00  0.00    -0.314 OA
BRANCH  26  27
HETATM   27  C8  UNL     1       5.581   3.954  11.622  1.00  0.00     0.217 C 
BRANCH  27  28
HETATM   28  C9  UNL     1       5.989   2.677  12.330  1.00  0.00     0.080 C 
HETATM   29  C10 UNL     1       6.513   1.727  11.311  1.00  0.00     0.040 C 
HETATM   30  C11 UNL     1       7.217   0.535  11.906  1.00  0.00     0.003 C 
HETATM   31  C12 UNL     1       8.364   1.048  12.746  1.00  0.00     0.000 C 
HETATM   32  C13 UNL     1       7.778   1.851  13.876  1.00  0.00     0.003 C 
HETATM   33  C14 UNL     1       7.003   3.051  13.383  1.00  0.00     0.040 C 
BRANCH  28  34
HETATM   34  O5  UNL     1       4.861   2.181  12.988  1.00  0.00    -0.388 OA
ATOM     35  H5  UNL     1       4.874   1.234  12.906  1.00  0.00     0.210 HD
ENDBRANCH  28  34
ENDBRANCH  27  28
ENDBRANCH  26  27
ENDBRANCH  24  26
ENDBRANCH   2  24
BRANCH   6  36
HETATM   36  O8  UNL     1       9.875   9.038   9.359  1.00  0.00    -0.352 OA
HETATM   37  C21 UNL     1       9.629  10.267   8.718  1.00  0.00     0.210 C 
ENDBRANCH   6  36
BRANCH   5  38
HETATM   38  O7  UNL     1       9.921   7.369   7.208  1.00  0.00    -0.351 OA
HETATM   39  C19 UNL     1      11.231   6.942   7.037  1.00  0.00     0.210 C 
ENDBRANCH   5  38
BRANCH   4  40
HETATM   40  O6  UNL     1       8.302   5.219   7.072  1.00  0.00    -0.353 OA
HETATM   41  C17 UNL     1       7.274   4.261   6.903  1.00  0.00     0.210 C 
ENDBRANCH   4  40
TORSDOF 14
ENDMDL
MODEL 3
REMARK VINA RESULT: -6.520870269      1.248      1.278
REMARK  14 active torsions:
REMARK  status: ('A' for Active; 'I' for Inactive)
REMARK    1  A    between atoms: O1_2  and  C2_3 
REMARK    2  A    between atoms: C2_3  and  C3_5 
REMARK    3  A    between atoms: C4_6  and  C5_7 
REMARK    4  A    between atoms: C6_8  and  C7_9 
REMARK    5  A    between atoms: C7_9  and  O4_11 
REMARK    6  A    between atoms: O4_11  and  C8_12 
REMARK    7  A    between atoms: C8_12  and  C9_13 
REMARK    8  A    between atoms: C9_13  and  O5_14 
REMARK    9  A    between atoms: C16_22  and  O6_23 
REMARK   10  A    between atoms: C18_25  and  O7_26 
REMARK   11  A    between atoms: C20_28  and  O8_29 
REMARK   12  A    between atoms: C22_31  and  O9_32 
REMARK   13  A    between atoms: C25_35  and  O10_36 
REMARK   14  A    between atoms: C27_38  and  C28_39 
ROOT
HETATM    1  C5  UNL     1       8.529   8.337  11.487  1.00  0.00     0.031 A 
HETATM    2  C6  UNL     1       7.519   7.406  11.585  1.00  0.00     0.056 A 
HETATM    3  C15 UNL     1       6.532   7.393  10.614  1.00  0.00     0.058 A 
HETATM    4  C16 UNL     1       6.552   8.301   9.556  1.00  0.00     0.105 A 
HETATM    5  C18 UNL     1       7.558   9.235   9.452  1.00  0.00     0.136 A 
HETATM    6  C20 UNL     1       8.550   9.251  10.423  1.00  0.00     0.116 A 
ENDROOT
BRANCH   1   7
HETATM    7  C4  UNL     1       9.583   8.389  12.471  1.00  0.00     0.028 A 
HETATM    8  C3  UNL     1       9.490   9.237  13.559  1.00  0.00     0.062 A 
HETATM    9  C27 UNL     1      10.531   9.267  14.484  1.00  0.00    -0.004 A 
HETATM   10  C25 UNL     1      11.624   8.464  14.313  1.00  0.00     0.078 A 
HETATM   11  C24 UNL     1      11.689   7.612  13.198  1.00  0.00     0.075 A 
HETATM   12  C22 UNL     1      10.674   7.566  12.273  1.00  0.00     0.083 A 
BRANCH   8  13
HETATM   13  C2  UNL     1       8.349  10.109  13.738  1.00  0.00     0.294 C 
HETATM   14  O2  UNL     1       7.329   9.783  14.407  1.00  0.00    -0.259 OA
BRANCH  13  15
HETATM   15  O1  UNL     1       8.299  11.380  13.181  1.00  0.00    -0.322 OA
HETATM   16  C1  UNL     1       7.163  11.910  12.525  1.00  0.00     0.213 C 
ENDBRANCH  13  15
ENDBRANCH   8  13
BRANCH   9  17
HETATM   17  C28 UNL     1      10.388  10.164  15.619  1.00  0.00     0.014 C 
HETATM   18  C29 UNL     1      11.299  11.374  15.624  1.00  0.00     0.015 C 
HETATM   19  C30 UNL     1      10.621   9.471  16.948  1.00  0.00     0.015 C 
ENDBRANCH   9  17
BRANCH  10  20
HETATM   20  O10 UNL     1      12.671   8.464  15.204  1.00  0.00    -0.355 OA
HETATM   21  C26 UNL     1      13.830   9.213  14.914  1.00  0.00     0.210 C 
ENDBRANCH  10  20
BRANCH  12  22
HETATM   22  O9  UNL     1      10.751   6.716  11.174  1.00  0.00    -0.355 OA
HETATM   23  C23 UNL     1      11.880   6.658  10.336  1.00  0.00     0.210 C 
ENDBRANCH  12  22
ENDBRANCH   1   7
BRANCH   2  24
HETATM   24  C7  UNL     1       7.418   6.433  12.661  1.00  0.00     0.294 C 
HETATM   25  O3  UNL     1       7.246   6.743  13.874  1.00  0.00    -0.259 OA
BRANCH  24  26
HETATM   26  O4  UNL     1       7.508   5.076  12.390  1.00  0.00    -0.314 OA
BRANCH  26  27
HETATM   27  C8  UNL     1       6.396   4.352  11.971  1.00  0.00     0.217 C 
BRANCH  27  28
HETATM   28  C9  UNL     1       6.476   2.931  12.492  1.00  0.00     0.080 C 
HETATM   29  C10 UNL     1       6.489   2.008  11.324  1.00  0.00     0.040 C 
HETATM   30  C11 UNL     1       6.854   0.590  11.681  1.00  0.00     0.003 C 
HETATM   31  C12 UNL     1       8.227   0.612  12.313  1.00  0.00     0.000 C 
HETATM   32  C13 UNL     1       8.128   1.400  13.591  1.00  0.00     0.003 C 
HETATM   33  C14 UNL     1       7.716   2.834  13.348  1.00  0.00     0.040 C 
BRANCH  28  34
HETATM   34  O5  UNL     1       5.373   2.722  13.322  1.00  0.00    -0.388 OA
ATOM     35  H5  UNL     1       5.692   2.664  14.215  1.00  0.00     0.210 HD
ENDBRANCH  28  34
ENDBRANCH  27  28
ENDBRANCH  26  27
ENDBRANCH  24  26
ENDBRANCH   2  24
BRANCH   6  36
HETATM   36  O8  UNL     1       9.537  10.210  10.275  1.00  0.00    -0.352 OA
HETATM   37  C21 UNL     1      10.692  10.068   9.484  1.00  0.00     0.210 C 
ENDBRANCH   6  36
BRANCH   5  38
HETATM   38  O7  UNL     1       7.554  10.109   8.411  1.00  0.00    -0.351 OA
HETATM   39  C19 UNL     1       6.997  11.379   8.340  1.00  0.00     0.210 C 
ENDBRANCH   5  38
BRANCH   4  40
HETATM   40  O6  UNL     1       5.568   8.295   8.580  1.00  0.00    -0.353 OA
HETATM   41  C17 UNL     1       5.653   7.304   7.574  1.00  0.00     0.210 C 
ENDBRANCH   4  40
TORSDOF 14
ENDMDL
MODEL 4
REMARK VINA RESULT: -6.511872752      1.923      5.578
REMARK  14 active torsions:
REMARK  status: ('A' for Active; 'I' for Inactive)
REMARK    1  A    between atoms: O1_2  and  C2_3 
REMARK    2  A    between atoms: C2_3  and  C3_5 
REMARK    3  A    between atoms: C4_6  and  C5_7 
REMARK    4  A    between atoms: C6_8  and  C7_9 
REMARK    5  A    between atoms: C7_9  and  O4_11 
REMARK    6  A    between atoms: O4_11  and  C8_12 
REMARK    7  A    between atoms: C8_12  and  C9_13 
REMARK    8  A    between atoms: C9_13  and  O5_14 
REMARK    9  A    between atoms: C16_22  and  O6_23 
REMARK   10  A    between atoms: C18_25  and  O7_26 
REMARK   11  A    between atoms: C20_28  and  O8_29 
REMARK   12  A    between atoms: C22_31  and  O9_32 
REMARK   13  A    between atoms: C25_35  and  O10_36 
REMARK   14  A    between atoms: C27_38  and  C28_39 
ROOT
HETATM    1  C5  UNL     1       7.879   8.251  12.580  1.00  0.00     0.031 A 
HETATM    2  C6  UNL     1       7.993   7.319  13.587  1.00  0.00     0.056 A 
HETATM    3  C15 UNL     1       8.201   7.763  14.881  1.00  0.00     0.058 A 
HETATM    4  C16 UNL     1       8.295   9.125  15.169  1.00  0.00     0.105 A 
HETATM    5  C18 UNL     1       8.182  10.062  14.166  1.00  0.00     0.136 A 
HETATM    6  C20 UNL     1       7.973   9.621  12.868  1.00  0.00     0.116 A 
ENDROOT
BRANCH   1   7
HETATM    7  C4  UNL     1       7.657   7.839  11.214  1.00  0.00     0.028 A 
HETATM    8  C3  UNL     1       8.722   7.668  10.349  1.00  0.00     0.062 A 
HETATM    9  C27 UNL     1       8.470   7.278   9.035  1.00  0.00    -0.004 A 
HETATM   10  C25 UNL     1       7.186   7.069   8.617  1.00  0.00     0.078 A 
HETATM   11  C24 UNL     1       6.125   7.250   9.519  1.00  0.00     0.075 A 
HETATM   12  C22 UNL     1       6.351   7.634  10.820  1.00  0.00     0.083 A 
BRANCH   8  13
HETATM   13  C2  UNL     1      10.084   7.910  10.774  1.00  0.00     0.294 C 
HETATM   14  O2  UNL     1      10.652   9.033  10.666  1.00  0.00    -0.259 OA
BRANCH  13  15
HETATM   15  O1  UNL     1      10.868   6.912  11.339  1.00  0.00    -0.322 OA
HETATM   16  C1  UNL     1      11.599   7.068  12.539  1.00  0.00     0.213 C 
ENDBRANCH  13  15
ENDBRANCH   8  13
BRANCH   9  17
HETATM   17  C28 UNL     1       9.618   7.098   8.162  1.00  0.00     0.014 C 
HETATM   18  C29 UNL     1       9.727   8.068   7.005  1.00  0.00     0.015 C 
HETATM   19  C30 UNL     1       9.672   5.715   7.542  1.00  0.00     0.015 C 
ENDBRANCH   9  17
BRANCH  10  20
HETATM   20  O10 UNL     1       6.896   6.682   7.330  1.00  0.00    -0.355 OA
HETATM   21  C26 UNL     1       5.582   6.831   6.840  1.00  0.00     0.210 C 
ENDBRANCH  10  20
BRANCH  12  22
HETATM   22  O9  UNL     1       5.290   7.808  11.704  1.00  0.00    -0.355 OA
HETATM   23  C23 UNL     1       4.408   8.902  11.627  1.00  0.00     0.210 C 
ENDBRANCH  12  22
ENDBRANCH   1   7
BRANCH   2  24
HETATM   24  C7  UNL     1       7.919   5.882  13.371  1.00  0.00     0.294 C 
HETATM   25  O3  UNL     1       8.917   5.164  13.079  1.00  0.00    -0.259 OA
BRANCH  24  26
HETATM   26  O4  UNL     1       6.707   5.218  13.482  1.00  0.00    -0.314 OA
BRANCH  26  27
HETATM   27  C8  UNL     1       6.198   4.471  12.424  1.00  0.00     0.217 C 
BRANCH  27  28
HETATM   28  C9  UNL     1       6.230   2.996  12.768  1.00  0.00     0.080 C 
HETATM   29  C10 UNL     1       7.069   2.300  11.754  1.00  0.00     0.040 C 
HETATM   30  C11 UNL     1       7.422   0.884  12.133  1.00  0.00     0.003 C 
HETATM   31  C12 UNL     1       8.167   0.932  13.448  1.00  0.00     0.000 C 
HETATM   32  C13 UNL     1       7.221   1.467  14.489  1.00  0.00     0.003 C 
HETATM   33  C14 UNL     1       6.763   2.873  14.176  1.00  0.00     0.040 C 
BRANCH  28  34
HETATM   34  O5  UNL     1       4.912   2.534  12.775  1.00  0.00    -0.388 OA
ATOM     35  H5  UNL     1       4.940   1.586  12.827  1.00  0.00     0.210 HD
ENDBRANCH  28  34
ENDBRANCH  27  28
ENDBRANCH  26  27
ENDBRANCH  24  26
ENDBRANCH   2  24
BRANCH   6  36
HETATM   36  O8  UNL     1       7.869  10.602  11.896  1.00  0.00    -0.352 OA
HETATM   37  C21 UNL     1       6.731  11.398  11.667  1.00  0.00     0.210 C 
ENDBRANCH   6  36
BRANCH   5  38
HETATM   38  O7  UNL     1       8.277  11.383  14.473  1.00  0.00    -0.351 OA
HETATM   39  C19 UNL     1       9.386  12.215  14.409  1.00  0.00     0.210 C 
ENDBRANCH   5  38
BRANCH   4  40
HETATM   40  O6  UNL     1       8.503   9.578  16.462  1.00  0.00    -0.353 OA
HETATM   41  C17 UNL     1       9.829   9.555  16.956  1.00  0.00     0.210 C 
ENDBRANCH   4  40
TORSDOF 14
ENDMDL
MODEL 5
REMARK VINA RESULT: -6.386516806      2.136      3.116
REMARK  14 active torsions:
REMARK  status: ('A' for Active; 'I' for Inactive)
REMARK    1  A    between atoms: O1_2  and  C2_3 
REMARK    2  A    between atoms: C2_3  and  C3_5 
REMARK    3  A    between atoms: C4_6  and  C5_7 
REMARK    4  A    between atoms: C6_8  and  C7_9 
REMARK    5  A    between atoms: C7_9  and  O4_11 
REMARK    6  A    between atoms: O4_11  and  C8_12 
REMARK    7  A    between atoms: C8_12  and  C9_13 
REMARK    8  A    between atoms: C9_13  and  O5_14 
REMARK    9  A    between atoms: C16_22  and  O6_23 
REMARK   10  A    between atoms: C18_25  and  O7_26 
REMARK   11  A    between atoms: C20_28  and  O8_29 
REMARK   12  A    between atoms: C22_31  and  O9_32 
REMARK   13  A    between atoms: C25_35  and  O10_36 
REMARK   14  A    between atoms: C27_38  and  C28_39 
ROOT
HETATM    1  C5  UNL     1       8.582   7.688  10.922  1.00  0.00     0.031 A 
HETATM    2  C6  UNL     1       7.640   6.684  10.960  1.00  0.00     0.056 A 
HETATM    3  C15 UNL     1       7.261   6.084   9.772  1.00  0.00     0.058 A 
HETATM    4  C16 UNL     1       7.815   6.482   8.556  1.00  0.00     0.105 A 
HETATM    5  C18 UNL     1       8.757   7.486   8.510  1.00  0.00     0.136 A 
HETATM    6  C20 UNL     1       9.140   8.090   9.699  1.00  0.00     0.116 A 
ENDROOT
BRANCH   1   7
HETATM    7  C4  UNL     1       9.013   8.342  12.134  1.00  0.00     0.028 A 
HETATM    8  C3  UNL     1       8.468   9.555  12.512  1.00  0.00     0.062 A 
HETATM    9  C27 UNL     1       8.915  10.162  13.684  1.00  0.00    -0.004 A 
HETATM   10  C25 UNL     1       9.878   9.559  14.443  1.00  0.00     0.078 A 
HETATM   11  C24 UNL     1      10.413   8.326  14.033  1.00  0.00     0.075 A 
HETATM   12  C22 UNL     1       9.986   7.710  12.881  1.00  0.00     0.083 A 
BRANCH   8  13
HETATM   13  C2  UNL     1       7.464  10.214  11.704  1.00  0.00     0.294 C 
HETATM   14  O2  UNL     1       7.742  11.081  10.829  1.00  0.00    -0.259 OA
BRANCH  13  15
HETATM   15  O1  UNL     1       6.111   9.932  11.836  1.00  0.00    -0.322 OA
HETATM   16  C1  UNL     1       5.281   9.526  10.765  1.00  0.00     0.213 C 
ENDBRANCH  13  15
ENDBRANCH   8  13
BRANCH   9  17
HETATM   17  C28 UNL     1       8.307  11.429  14.051  1.00  0.00     0.014 C 
HETATM   18  C29 UNL     1       9.201  12.646  13.949  1.00  0.00     0.015 C 
HETATM   19  C30 UNL     1       7.772  11.435  15.471  1.00  0.00     0.015 C 
ENDBRANCH   9  17
BRANCH  10  20
HETATM   20  O10 UNL     1      10.345  10.125  15.606  1.00  0.00    -0.355 OA
HETATM   21  C26 UNL     1      10.730   9.292  16.677  1.00  0.00     0.210 C 
ENDBRANCH  10  20
BRANCH  12  22
HETATM   22  O9  UNL     1      10.524   6.489  12.488  1.00  0.00    -0.355 OA
HETATM   23  C23 UNL     1      11.893   6.312  12.216  1.00  0.00     0.210 C 
ENDBRANCH  12  22
ENDBRANCH   1   7
BRANCH   2  24
HETATM   24  C7  UNL     1       7.005   6.217  12.183  1.00  0.00     0.294 C 
HETATM   25  O3  UNL     1       6.455   6.982  13.025  1.00  0.00    -0.259 OA
BRANCH  24  26
HETATM   26  O4  UNL     1       6.976   4.865  12.486  1.00  0.00    -0.314 OA
BRANCH  26  27
HETATM   27  C8  UNL     1       5.903   4.066  12.104  1.00  0.00     0.217 C 
BRANCH  27  28
HETATM   28  C9  UNL     1       6.153   2.628  12.515  1.00  0.00     0.080 C 
HETATM   29  C10 UNL     1       6.570   1.865  11.307  1.00  0.00     0.040 C 
HETATM   30  C11 UNL     1       7.126   0.499  11.619  1.00  0.00     0.003 C 
HETATM   31  C12 UNL     1       8.320   0.685  12.528  1.00  0.00     0.000 C 
HETATM   32  C13 UNL     1       7.825   1.288  13.815  1.00  0.00     0.003 C 
HETATM   33  C14 UNL     1       7.199   2.648  13.605  1.00  0.00     0.040 C 
BRANCH  28  34
HETATM   34  O5  UNL     1       4.972   2.136  13.073  1.00  0.00    -0.388 OA
ATOM     35  H5  UNL     1       4.938   1.203  12.899  1.00  0.00     0.210 HD
ENDBRANCH  28  34
ENDBRANCH  27  28
ENDBRANCH  26  27
ENDBRANCH  24  26
ENDBRANCH   2  24
BRANCH   6  36
HETATM   36  O8  UNL     1      10.087   9.095   9.599  1.00  0.00    -0.352 OA
HETATM   37  C21 UNL     1      11.480   8.898   9.596  1.00  0.00     0.210 C 
ENDBRANCH   6  36
BRANCH   5  38
HETATM   38  O7  UNL     1       9.281   7.856   7.312  1.00  0.00    -0.351 OA
HETATM   39  C19 UNL     1       8.825   8.817   6.419  1.00  0.00     0.210 C 
ENDBRANCH   5  38
BRANCH   4  40
HETATM   40  O6  UNL     1       7.442   5.887   7.361  1.00  0.00    -0.353 OA
HETATM   41  C17 UNL     1       6.074   5.946   7.004  1.00  0.00     0.210 C 
ENDBRANCH   4  40
TORSDOF 14
ENDMDL
