MODEL 1
REMARK VINA RESULT: -8.704577330      0.000      0.000
REMARK  14 active torsions:
REMARK  status: ('A' for Active; 'I' for Inactive)
REMARK    1  A    between atoms: C2_2  and  C3_3 
REMARK    2  A    between atoms: C3_3  and  O1_4 
REMARK    3  A    between atoms: C3_3  and  C8_10 
REMARK    4  A    between atoms: O1_4  and  C4_5 
REMARK    5  A    between atoms: C4_5  and  C5_7 
REMARK    6  A    between atoms: C8_10  and  O3_11 
REMARK    7  A    between atoms: O3_11  and  C9_12 
REMARK    8  A    between atoms: C11_16  and  C12_17 
REMARK    9  A    between atoms: C12_17  and  C13_18 
REMARK   10  A    between atoms: C13_18  and  C14_19 
REMARK   11  A    between atoms: C19_26  and  O8_27 
REMARK   12  A    between atoms: C22_31  and  C24_33 
REMARK   13  A    between atoms: C24_33  and  C25_34 
REMARK   14  A    between atoms: C25_34  and  C26_35 
ROOT
HETATM    1  C14 UNL     1       7.186   2.555  13.202  1.00  0.00     0.078 C 
HETATM    2  C15 UNL     1       8.464   1.838  13.320  1.00  0.00     0.048 C 
HETATM    3  O6  UNL     1       7.013   3.068  11.847  1.00  0.00    -0.333 OA
HETATM    4  C16 UNL     1       6.587   2.533  10.672  1.00  0.00     0.140 A 
HETATM    5  C17 UNL     1       6.311   1.167  10.490  1.00  0.00     0.024 A 
HETATM    6  C18 UNL     1       5.909   0.989   9.197  1.00  0.00     0.159 A 
HETATM    7  O7  UNL     1       5.933   2.164   8.611  1.00  0.00    -0.297 OA
HETATM    8  C19 UNL     1       6.330   3.100   9.458  1.00  0.00     0.218 A 
HETATM    9  C20 UNL     1       6.450   0.127  11.522  1.00  0.00     0.013 C 
HETATM   10  C21 UNL     1       6.318   0.361  12.806  1.00  0.00    -0.009 C 
HETATM   11  C22 UNL     1       6.004   1.647  13.556  1.00  0.00     0.023 C 
HETATM   12  C23 UNL     1       4.779   2.218  12.968  1.00  0.00     0.027 C 
ENDROOT
BRANCH   1  13
HETATM   13  C13 UNL     1       7.163   3.827  14.032  1.00  0.00     0.042 C 
BRANCH  13  14
HETATM   14  C12 UNL     1       7.933   4.980  13.549  1.00  0.00     0.041 C 
BRANCH  14  15
HETATM   15  C11 UNL     1       7.287   6.300  13.618  1.00  0.00     0.191 A 
HETATM   16  C8  UNL     1       7.872   7.577  13.562  1.00  0.00     0.226 A 
HETATM   17  O5  UNL     1       7.515   6.992  14.909  1.00  0.00    -0.339 OA
BRANCH  16  18
HETATM   18  C3  UNL     1       9.379   7.824  13.638  1.00  0.00     0.197 C 
BRANCH  18  19
HETATM   19  C2  UNL     1      10.053   7.756  12.297  1.00  0.00     0.033 C 
HETATM   20  C1  UNL     1      11.190   6.735  12.460  1.00  0.00     0.007 C 
ENDBRANCH  18  19
BRANCH  18  21
HETATM   21  O1  UNL     1       9.596   9.166  14.109  1.00  0.00    -0.310 OA
BRANCH  21  22
HETATM   22  C4  UNL     1      10.510   9.472  15.081  1.00  0.00     0.262 C 
HETATM   23  O2  UNL     1      11.632   9.921  14.704  1.00  0.00    -0.265 OA
BRANCH  22  24
HETATM   24  C5  UNL     1      10.165   9.275  16.501  1.00  0.00     0.077 C 
HETATM   25  C6  UNL     1       8.935  10.014  16.937  1.00  0.00     0.020 C 
HETATM   26  C7  UNL     1      11.318   9.630  17.419  1.00  0.00     0.020 C 
ENDBRANCH  22  24
ENDBRANCH  21  22
ENDBRANCH  18  21
ENDBRANCH  16  18
BRANCH  16  27
HETATM   27  O3  UNL     1       7.201   8.744  13.256  1.00  0.00    -0.278 OA
BRANCH  27  28
HETATM   28  C9  UNL     1       6.647   9.194  12.108  1.00  0.00     0.257 C 
HETATM   29  C10 UNL     1       5.265   8.762  11.721  1.00  0.00     0.126 C 
HETATM   30  O4  UNL     1       7.268   9.965  11.356  1.00  0.00    -0.266 OA
ENDBRANCH  27  28
ENDBRANCH  16  27
ENDBRANCH  14  15
ENDBRANCH  13  14
ENDBRANCH   1  13
BRANCH  11  31
HETATM   31  C24 UNL     1       5.979   1.285  14.973  1.00  0.00    -0.012 C 
BRANCH  31  32
HETATM   32  C25 UNL     1       6.021  -0.069  15.490  1.00  0.00     0.006 C 
BRANCH  32  33
HETATM   33  C26 UNL     1       6.917  -0.499  16.596  1.00  0.00     0.177 C 
HETATM   34  C27 UNL     1       8.285  -0.777  15.964  1.00  0.00     0.006 C 
HETATM   35  C28 UNL     1       9.398  -0.706  16.646  1.00  0.00    -0.018 C 
HETATM   36  C29 UNL     1       9.428  -0.354  18.076  1.00  0.00     0.138 C 
HETATM   37  C30 UNL     1       8.182   0.369  18.484  1.00  0.00     0.263 C 
HETATM   38  O9  UNL     1       8.139   0.798  19.665  1.00  0.00    -0.265 OA
HETATM   39  O10 UNL     1       7.153   0.533  17.569  1.00  0.00    -0.308 OA
ENDBRANCH  32  33
ENDBRANCH  31  32
ENDBRANCH  11  31
BRANCH   8  40
HETATM   40  O8  UNL     1       6.489   4.469   9.231  1.00  0.00    -0.339 OA
ATOM     41  H8  UNL     1       6.569   4.830   8.356  1.00  0.00     0.220 HD
ENDBRANCH   8  40
TORSDOF 14
ENDMDL
MODEL 2
REMARK VINA RESULT: -8.563490998      2.241      9.434
REMARK  14 active torsions:
REMARK  status: ('A' for Active; 'I' for Inactive)
REMARK    1  A    between atoms: C2_2  and  C3_3 
REMARK    2  A    between atoms: C3_3  and  O1_4 
REMARK    3  A    between atoms: C3_3  and  C8_10 
REMARK    4  A    between atoms: O1_4  and  C4_5 
REMARK    5  A    between atoms: C4_5  and  C5_7 
REMARK    6  A    between atoms: C8_10  and  O3_11 
REMARK    7  A    between atoms: O3_11  and  C9_12 
REMARK    8  A    between atoms: C11_16  and  C12_17 
REMARK    9  A    between atoms: C12_17  and  C13_18 
REMARK   10  A    between atoms: C13_18  and  C14_19 
REMARK   11  A    between atoms: C19_26  and  O8_27 
REMARK   12  A    between atoms: C22_31  and  C24_33 
REMARK   13  A    between atoms: C24_33  and  C25_34 
REMARK   14  A    between atoms: C25_34  and  C26_35 
ROOT
HETATM    1  C14 UNL     1       8.045   6.643  13.096  1.00  0.00     0.078 C 
HETATM    2  C15 UNL     1       9.304   6.050  12.623  1.00  0.00     0.048 C 
HETATM    3  O6  UNL     1       8.284   7.478  14.270  1.00  0.00    -0.333 OA
HETATM    4  C16 UNL     1       8.720   8.751  14.461  1.00  0.00     0.140 A 
HETATM    5  C17 UNL     1       9.202   9.576  13.431  1.00  0.00     0.024 A 
HETATM    6  C18 UNL     1       9.548  10.776  13.982  1.00  0.00     0.159 A 
HETATM    7  O7  UNL     1       9.299  10.706  15.269  1.00  0.00    -0.297 OA
HETATM    8  C19 UNL     1       8.807   9.519  15.586  1.00  0.00     0.218 A 
HETATM    9  C20 UNL     1       9.318   9.188  12.016  1.00  0.00     0.013 C 
HETATM   10  C21 UNL     1       8.538   8.302  11.443  1.00  0.00    -0.009 C 
HETATM   11  C22 UNL     1       7.382   7.486  12.001  1.00  0.00     0.023 C 
HETATM   12  C23 UNL     1       6.439   8.424  12.636  1.00  0.00     0.027 C 
ENDROOT
BRANCH   1  13
HETATM   13  C13 UNL     1       7.085   5.598  13.636  1.00  0.00     0.042 C 
BRANCH  13  14
HETATM   14  C12 UNL     1       7.442   4.183  13.470  1.00  0.00     0.041 C 
BRANCH  14  15
HETATM   15  C11 UNL     1       6.380   3.188  13.692  1.00  0.00     0.191 A 
HETATM   16  C8  UNL     1       6.197   1.937  13.080  1.00  0.00     0.226 A 
HETATM   17  O5  UNL     1       5.404   3.121  12.578  1.00  0.00    -0.339 OA
BRANCH  16  18
HETATM   18  C3  UNL     1       6.991   1.463  11.862  1.00  0.00     0.197 C 
BRANCH  18  19
HETATM   19  C2  UNL     1       7.909   0.313  12.173  1.00  0.00     0.033 C 
HETATM   20  C1  UNL     1       8.847   0.824  13.277  1.00  0.00     0.007 C 
ENDBRANCH  18  19
BRANCH  18  21
HETATM   21  O1  UNL     1       6.065   0.960  10.883  1.00  0.00    -0.310 OA
BRANCH  21  22
HETATM   22  C4  UNL     1       6.261  -0.217  10.213  1.00  0.00     0.262 C 
HETATM   23  O2  UNL     1       5.649  -1.240  10.642  1.00  0.00    -0.265 OA
BRANCH  22  24
HETATM   24  C5  UNL     1       7.156  -0.255   9.042  1.00  0.00     0.077 C 
HETATM   25  C6  UNL     1       6.477   0.074   7.746  1.00  0.00     0.020 C 
HETATM   26  C7  UNL     1       7.866  -1.588   8.914  1.00  0.00     0.020 C 
ENDBRANCH  22  24
ENDBRANCH  21  22
ENDBRANCH  18  21
ENDBRANCH  16  18
BRANCH  16  27
HETATM   27  O3  UNL     1       5.423   0.912  13.587  1.00  0.00    -0.278 OA
BRANCH  27  28
HETATM   28  C9  UNL     1       5.174   0.508  14.853  1.00  0.00     0.257 C 
HETATM   29  C10 UNL     1       6.286  -0.032  15.701  1.00  0.00     0.126 C 
HETATM   30  O4  UNL     1       4.030   0.575  15.334  1.00  0.00    -0.266 OA
ENDBRANCH  27  28
ENDBRANCH  16  27
ENDBRANCH  14  15
ENDBRANCH  13  14
ENDBRANCH   1  13
BRANCH  11  31
HETATM   31  C24 UNL     1       6.894   6.674  10.887  1.00  0.00    -0.012 C 
BRANCH  31  32
HETATM   32  C25 UNL     1       6.662   7.158   9.540  1.00  0.00     0.006 C 
BRANCH  32  33
HETATM   33  C26 UNL     1       6.782   6.305   8.328  1.00  0.00     0.177 C 
HETATM   34  C27 UNL     1       6.930   4.862   8.826  1.00  0.00     0.006 C 
HETATM   35  C28 UNL     1       6.587   3.833   8.096  1.00  0.00    -0.018 C 
HETATM   36  C29 UNL     1       6.033   3.975   6.738  1.00  0.00     0.138 C 
HETATM   37  C30 UNL     1       5.464   5.343   6.524  1.00  0.00     0.263 C 
HETATM   38  O9  UNL     1       4.882   5.547   5.428  1.00  0.00    -0.265 OA
HETATM   39  O10 UNL     1       5.598   6.305   7.515  1.00  0.00    -0.308 OA
ENDBRANCH  32  33
ENDBRANCH  31  32
ENDBRANCH  11  31
BRANCH   8  40
HETATM   40  O8  UNL     1       8.414   9.046  16.840  1.00  0.00    -0.339 OA
ATOM     41  H8  UNL     1       7.507   8.851  17.044  1.00  0.00     0.220 HD
ENDBRANCH   8  40
TORSDOF 14
ENDMDL
MODEL 3
REMARK VINA RESULT: -8.461727899      2.152      8.530
REMARK  14 active torsions:
REMARK  status: ('A' for Active; 'I' for Inactive)
REMARK    1  A    between atoms: C2_2  and  C3_3 
REMARK    2  A    between atoms: C3_3  and  O1_4 
REMARK    3  A    between atoms: C3_3  and  C8_10 
REMARK    4  A    between atoms: O1_4  and  C4_5 
REMARK    5  A    between atoms: C4_5  and  C5_7 
REMARK    6  A    between atoms: C8_10  and  O3_11 
REMARK    7  A    between atoms: O3_11  and  C9_12 
REMARK    8  A    between atoms: C11_16  and  C12_17 
REMARK    9  A    between atoms: C12_17  and  C13_18 
REMARK   10  A    between atoms: C13_18  and  C14_19 
REMARK   11  A    between atoms: C19_26  and  O8_27 
REMARK   12  A    between atoms: C22_31  and  C24_33 
REMARK   13  A    between atoms: C24_33  and  C25_34 
REMARK   14  A    between atoms: C25_34  and  C26_35 
ROOT
HETATM    1  C14 UNL     1       7.208   6.669  12.688  1.00  0.00     0.078 C 
HETATM    2  C15 UNL     1       6.153   7.671  12.895  1.00  0.00     0.048 C 
HETATM    3  O6  UNL     1       7.028   5.996  11.405  1.00  0.00    -0.333 OA
HETATM    4  C16 UNL     1       7.344   6.298  10.118  1.00  0.00     0.140 A 
HETATM    5  C17 UNL     1       7.868   7.537   9.712  1.00  0.00     0.024 A 
HETATM    6  C18 UNL     1       8.064   7.487   8.361  1.00  0.00     0.159 A 
HETATM    7  O7  UNL     1       7.688   6.297   7.952  1.00  0.00    -0.297 OA
HETATM    8  C19 UNL     1       7.257   5.568   8.969  1.00  0.00     0.218 A 
HETATM    9  C20 UNL     1       8.137   8.678  10.601  1.00  0.00     0.013 C 
HETATM   10  C21 UNL     1       8.440   8.550  11.871  1.00  0.00    -0.009 C 
HETATM   11  C22 UNL     1       8.599   7.308  12.734  1.00  0.00     0.023 C 
HETATM   12  C23 UNL     1       9.552   6.412  12.054  1.00  0.00     0.027 C 
ENDROOT
BRANCH   1  13
HETATM   13  C13 UNL     1       7.106   5.516  13.672  1.00  0.00     0.042 C 
BRANCH  13  14
HETATM   14  C12 UNL     1       7.308   4.154  13.161  1.00  0.00     0.041 C 
BRANCH  14  15
HETATM   15  C11 UNL     1       6.270   3.157  13.467  1.00  0.00     0.191 A 
HETATM   16  C8  UNL     1       6.109   1.859  12.953  1.00  0.00     0.226 A 
HETATM   17  O5  UNL     1       5.286   2.986  12.371  1.00  0.00    -0.339 OA
BRANCH  16  18
HETATM   18  C3  UNL     1       6.902   1.312  11.766  1.00  0.00     0.197 C 
BRANCH  18  19
HETATM   19  C2  UNL     1       7.929   0.291  12.169  1.00  0.00     0.033 C 
HETATM   20  C1  UNL     1       8.758   0.957  13.277  1.00  0.00     0.007 C 
ENDBRANCH  18  19
BRANCH  18  21
HETATM   21  O1  UNL     1       5.994   0.618  10.893  1.00  0.00    -0.310 OA
BRANCH  21  22
HETATM   22  C4  UNL     1       6.286   0.346   9.583  1.00  0.00     0.262 C 
HETATM   23  O2  UNL     1       6.406   1.331   8.797  1.00  0.00    -0.265 OA
BRANCH  22  24
HETATM   24  C5  UNL     1       6.449  -1.052   9.142  1.00  0.00     0.077 C 
HETATM   25  C6  UNL     1       7.876  -1.460   8.927  1.00  0.00     0.020 C 
HETATM   26  C7  UNL     1       5.646  -1.349   7.892  1.00  0.00     0.020 C 
ENDBRANCH  22  24
ENDBRANCH  21  22
ENDBRANCH  18  21
ENDBRANCH  16  18
BRANCH  16  27
HETATM   27  O3  UNL     1       5.361   0.860  13.543  1.00  0.00    -0.278 OA
BRANCH  27  28
HETATM   28  C9  UNL     1       5.163   0.523  14.837  1.00  0.00     0.257 C 
HETATM   29  C10 UNL     1       6.316   0.071  15.681  1.00  0.00     0.126 C 
HETATM   30  O4  UNL     1       4.031   0.580  15.348  1.00  0.00    -0.266 OA
ENDBRANCH  27  28
ENDBRANCH  16  27
ENDBRANCH  14  15
ENDBRANCH  13  14
ENDBRANCH   1  13
BRANCH  11  31
HETATM   31  C24 UNL     1       8.950   7.794  14.069  1.00  0.00    -0.012 C 
BRANCH  31  32
HETATM   32  C25 UNL     1       9.201   9.179  14.413  1.00  0.00     0.006 C 
BRANCH  32  33
HETATM   33  C26 UNL     1      10.466   9.656  15.033  1.00  0.00     0.177 C 
HETATM   34  C27 UNL     1      10.334   9.403  16.539  1.00  0.00     0.006 C 
HETATM   35  C28 UNL     1      11.374   9.245  17.314  1.00  0.00    -0.018 C 
HETATM   36  C29 UNL     1      12.756   9.298  16.806  1.00  0.00     0.138 C 
HETATM   37  C30 UNL     1      12.802   9.046  15.331  1.00  0.00     0.263 C 
HETATM   38  O9  UNL     1      13.941   8.978  14.806  1.00  0.00    -0.265 OA
HETATM   39  O10 UNL     1      11.618   8.902  14.623  1.00  0.00    -0.308 OA
ENDBRANCH  32  33
ENDBRANCH  31  32
ENDBRANCH  11  31
BRANCH   8  40
HETATM   40  O8  UNL     1       6.774   4.258   8.957  1.00  0.00    -0.339 OA
ATOM     41  H8  UNL     1       6.651   3.772   8.150  1.00  0.00     0.220 HD
ENDBRANCH   8  40
TORSDOF 14
ENDMDL
MODEL 4
REMARK VINA RESULT: -8.183804265      2.219      8.710
REMARK  14 active torsions:
REMARK  status: ('A' for Active; 'I' for Inactive)
REMARK    1  A    between atoms: C2_2  and  C3_3 
REMARK    2  A    between atoms: C3_3  and  O1_4 
REMARK    3  A    between atoms: C3_3  and  C8_10 
REMARK    4  A    between atoms: O1_4  and  C4_5 
REMARK    5  A    between atoms: C4_5  and  C5_7 
REMARK    6  A    between atoms: C8_10  and  O3_11 
REMARK    7  A    between atoms: O3_11  and  C9_12 
REMARK    8  A    between atoms: C11_16  and  C12_17 
REMARK    9  A    between atoms: C12_17  and  C13_18 
REMARK   10  A    between atoms: C13_18  and  C14_19 
REMARK   11  A    between atoms: C19_26  and  O8_27 
REMARK   12  A    between atoms: C22_31  and  C24_33 
REMARK   13  A    between atoms: C24_33  and  C25_34 
REMARK   14  A    between atoms: C25_34  and  C26_35 
ROOT
HETATM    1  C14 UNL     1       7.319   6.806  12.590  1.00  0.00     0.078 C 
HETATM    2  C15 UNL     1       6.271   7.812  12.816  1.00  0.00     0.048 C 
HETATM    3  O6  UNL     1       7.112   6.132  11.312  1.00  0.00    -0.333 OA
HETATM    4  C16 UNL     1       7.405   6.431  10.018  1.00  0.00     0.140 A 
HETATM    5  C17 UNL     1       7.924   7.667   9.600  1.00  0.00     0.024 A 
HETATM    6  C18 UNL     1       8.095   7.615   8.246  1.00  0.00     0.159 A 
HETATM    7  O7  UNL     1       7.708   6.425   7.846  1.00  0.00    -0.297 OA
HETATM    8  C19 UNL     1       7.294   5.699   8.872  1.00  0.00     0.218 A 
HETATM    9  C20 UNL     1       8.214   8.810  10.482  1.00  0.00     0.013 C 
HETATM   10  C21 UNL     1       8.540   8.683  11.746  1.00  0.00    -0.009 C 
HETATM   11  C22 UNL     1       8.713   7.442  12.609  1.00  0.00     0.023 C 
HETATM   12  C23 UNL     1       9.650   6.542  11.912  1.00  0.00     0.027 C 
ENDROOT
BRANCH   1  13
HETATM   13  C13 UNL     1       7.232   5.656  13.577  1.00  0.00     0.042 C 
BRANCH  13  14
HETATM   14  C12 UNL     1       7.367   4.289  13.057  1.00  0.00     0.041 C 
BRANCH  14  15
HETATM   15  C11 UNL     1       6.291   3.336  13.374  1.00  0.00     0.191 A 
HETATM   16  C8  UNL     1       6.099   2.027  12.901  1.00  0.00     0.226 A 
HETATM   17  O5  UNL     1       5.326   3.158  12.263  1.00  0.00    -0.339 OA
BRANCH  16  18
HETATM   18  C3  UNL     1       6.900   1.414  11.751  1.00  0.00     0.197 C 
BRANCH  18  19
HETATM   19  C2  UNL     1       7.853   0.344  12.207  1.00  0.00     0.033 C 
HETATM   20  C1  UNL     1       8.803   1.035  13.197  1.00  0.00     0.007 C 
ENDBRANCH  18  19
BRANCH  18  21
HETATM   21  O1  UNL     1       5.983   0.757  10.859  1.00  0.00    -0.310 OA
BRANCH  21  22
HETATM   22  C4  UNL     1       6.209   0.647   9.513  1.00  0.00     0.262 C 
HETATM   23  O2  UNL     1       6.313   1.722   8.852  1.00  0.00    -0.265 OA
BRANCH  22  24
HETATM   24  C5  UNL     1       6.321  -0.686   8.894  1.00  0.00     0.077 C 
HETATM   25  C6  UNL     1       5.310  -1.676   9.392  1.00  0.00     0.020 C 
HETATM   26  C7  UNL     1       7.712  -1.267   9.046  1.00  0.00     0.020 C 
ENDBRANCH  22  24
ENDBRANCH  21  22
ENDBRANCH  18  21
ENDBRANCH  16  18
BRANCH  16  27
HETATM   27  O3  UNL     1       5.307   1.073  13.508  1.00  0.00    -0.278 OA
BRANCH  27  28
HETATM   28  C9  UNL     1       5.180   0.692  14.798  1.00  0.00     0.257 C 
HETATM   29  C10 UNL     1       6.397   0.367  15.610  1.00  0.00     0.126 C 
HETATM   30  O4  UNL     1       4.061   0.604  15.333  1.00  0.00    -0.266 OA
ENDBRANCH  27  28
ENDBRANCH  16  27
ENDBRANCH  14  15
ENDBRANCH  13  14
ENDBRANCH   1  13
BRANCH  11  31
HETATM   31  C24 UNL     1       9.090   7.929  13.935  1.00  0.00    -0.012 C 
BRANCH  31  32
HETATM   32  C25 UNL     1      10.157   8.872  14.206  1.00  0.00     0.006 C 
BRANCH  32  33
HETATM   33  C26 UNL     1       9.932  10.226  14.776  1.00  0.00     0.177 C 
HETATM   34  C27 UNL     1       8.426  10.494  14.679  1.00  0.00     0.006 C 
HETATM   35  C28 UNL     1       7.811  11.325  15.478  1.00  0.00    -0.018 C 
HETATM   36  C29 UNL     1       8.513  12.073  16.535  1.00  0.00     0.138 C 
HETATM   37  C30 UNL     1       9.810  11.417  16.894  1.00  0.00     0.263 C 
HETATM   38  O9  UNL     1      10.452  11.921  17.851  1.00  0.00    -0.265 OA
HETATM   39  O10 UNL     1      10.241  10.310  16.178  1.00  0.00    -0.308 OA
ENDBRANCH  32  33
ENDBRANCH  31  32
ENDBRANCH  11  31
BRANCH   8  40
HETATM   40  O8  UNL     1       6.806   4.390   8.872  1.00  0.00    -0.339 OA
ATOM     41  H8  UNL     1       7.303   3.667   8.508  1.00  0.00     0.220 HD
ENDBRANCH   8  40
TORSDOF 14
ENDMDL
MODEL 5
REMARK VINA RESULT: -8.076406827      2.346      9.562
REMARK  14 active torsions:
REMARK  status: ('A' for Active; 'I' for Inactive)
REMARK    1  A    between atoms: C2_2  and  C3_3 
REMARK    2  A    between atoms: C3_3  and  O1_4 
REMARK    3  A    between atoms: C3_3  and  C8_10 
REMARK    4  A    between atoms: O1_4  and  C4_5 
REMARK    5  A    between atoms: C4_5  and  C5_7 
REMARK    6  A    between atoms: C8_10  and  O3_11 
REMARK    7  A    between atoms: O3_11  and  C9_12 
REMARK    8  A    between atoms: C11_16  and  C12_17 
REMARK    9  A    between atoms: C12_17  and  C13_18 
REMARK   10  A    between atoms: C13_18  and  C14_19 
REMARK   11  A    between atoms: C19_26  and  O8_27 
REMARK   12  A    between atoms: C22_31  and  C24_33 
REMARK   13  A    between atoms: C24_33  and  C25_34 
REMARK   14  A    between atoms: C25_34  and  C26_35 
ROOT
HETATM    1  C14 UNL     1       8.111   6.670  13.225  1.00  0.00     0.078 C 
HETATM    2  C15 UNL     1       9.374   6.047  12.805  1.00  0.00     0.048 C 
HETATM    3  O6  UNL     1       8.324   7.517  14.395  1.00  0.00    -0.333 OA
HETATM    4  C16 UNL     1       8.776   8.785  14.584  1.00  0.00     0.140 A 
HETATM    5  C17 UNL     1       9.308   9.586  13.560  1.00  0.00     0.024 A 
HETATM    6  C18 UNL     1       9.657  10.788  14.105  1.00  0.00     0.159 A 
HETATM    7  O7  UNL     1       9.362  10.741  15.384  1.00  0.00    -0.297 OA
HETATM    8  C19 UNL     1       8.838   9.567  15.700  1.00  0.00     0.218 A 
HETATM    9  C20 UNL     1       9.465   9.175  12.155  1.00  0.00     0.013 C 
HETATM   10  C21 UNL     1       8.690   8.295  11.567  1.00  0.00    -0.009 C 
HETATM   11  C22 UNL     1       7.501   7.508  12.097  1.00  0.00     0.023 C 
HETATM   12  C23 UNL     1       6.554   8.472  12.685  1.00  0.00     0.027 C 
ENDROOT
BRANCH   1  13
HETATM   13  C13 UNL     1       7.114   5.649  13.746  1.00  0.00     0.042 C 
BRANCH  13  14
HETATM   14  C12 UNL     1       7.489   4.231  13.694  1.00  0.00     0.041 C 
BRANCH  14  15
HETATM   15  C11 UNL     1       6.414   3.241  13.871  1.00  0.00     0.191 A 
HETATM   16  C8  UNL     1       6.216   2.019  13.206  1.00  0.00     0.226 A 
HETATM   17  O5  UNL     1       5.440   3.235  12.753  1.00  0.00    -0.339 OA
BRANCH  16  18
HETATM   18  C3  UNL     1       7.007   1.588  11.970  1.00  0.00     0.197 C 
BRANCH  18  19
HETATM   19  C2  UNL     1       7.829   0.351  12.202  1.00  0.00     0.033 C 
HETATM   20  C1  UNL     1       8.828   0.724  13.308  1.00  0.00     0.007 C 
ENDBRANCH  18  19
BRANCH  18  21
HETATM   21  O1  UNL     1       6.074   1.240  10.932  1.00  0.00    -0.310 OA
BRANCH  21  22
HETATM   22  C4  UNL     1       6.148   1.754   9.665  1.00  0.00     0.262 C 
HETATM   23  O2  UNL     1       6.202   3.014   9.552  1.00  0.00    -0.265 OA
BRANCH  22  24
HETATM   24  C5  UNL     1       6.162   0.847   8.503  1.00  0.00     0.077 C 
HETATM   25  C6  UNL     1       7.002  -0.381   8.700  1.00  0.00     0.020 C 
HETATM   26  C7  UNL     1       6.595   1.555   7.236  1.00  0.00     0.020 C 
ENDBRANCH  22  24
ENDBRANCH  21  22
ENDBRANCH  18  21
ENDBRANCH  16  18
BRANCH  16  27
HETATM   27  O3  UNL     1       5.428   0.984  13.666  1.00  0.00    -0.278 OA
BRANCH  27  28
HETATM   28  C9  UNL     1       5.219   0.490  14.907  1.00  0.00     0.257 C 
HETATM   29  C10 UNL     1       6.382   0.071  15.755  1.00  0.00     0.126 C 
HETATM   30  O4  UNL     1       4.069   0.372  15.365  1.00  0.00    -0.266 OA
ENDBRANCH  27  28
ENDBRANCH  16  27
ENDBRANCH  14  15
ENDBRANCH  13  14
ENDBRANCH   1  13
BRANCH  11  31
HETATM   31  C24 UNL     1       7.037   6.689  10.977  1.00  0.00    -0.012 C 
BRANCH  31  32
HETATM   32  C25 UNL     1       7.416   6.877   9.591  1.00  0.00     0.006 C 
BRANCH  32  33
HETATM   33  C26 UNL     1       6.805   7.902   8.704  1.00  0.00     0.177 C 
HETATM   34  C27 UNL     1       6.065   7.137   7.601  1.00  0.00     0.006 C 
HETATM   35  C28 UNL     1       5.054   7.650   6.952  1.00  0.00    -0.018 C 
HETATM   36  C29 UNL     1       4.543   9.005   7.225  1.00  0.00     0.138 C 
HETATM   37  C30 UNL     1       4.952   9.475   8.586  1.00  0.00     0.263 C 
HETATM   38  O9  UNL     1       4.495  10.584   8.961  1.00  0.00    -0.265 OA
HETATM   39  O10 UNL     1       5.796   8.690   9.358  1.00  0.00    -0.308 OA
ENDBRANCH  32  33
ENDBRANCH  31  32
ENDBRANCH  11  31
BRANCH   8  40
HETATM   40  O8  UNL     1       8.394   9.119  16.946  1.00  0.00    -0.339 OA
ATOM     41  H8  UNL     1       8.955   9.123  17.713  1.00  0.00     0.220 HD
ENDBRANCH   8  40
TORSDOF 14
ENDMDL
