MODEL 1
REMARK VINA RESULT: -7.392230270      0.000      0.000
REMARK  4 active torsions:
REMARK  status: ('A' for Active; 'I' for Inactive)
REMARK    1  A    between atoms: C2_2  and  O1_4 
REMARK    2  A    between atoms: O1_4  and  C4_5 
REMARK    3  A    between atoms: C4_5  and  C5_9 
REMARK    4  A    between atoms: C19_24  and  O3_25 
ROOT
HETATM    1  C5  UNL     1      25.527  34.075  27.136  1.00  0.00     0.061 C 
HETATM    2  C6  UNL     1      26.799  34.678  26.527  1.00  0.00     0.013 C 
HETATM    3  C7  UNL     1      27.388  35.605  27.557  1.00  0.00     0.009 C 
HETATM    4  C8  UNL     1      27.739  34.849  28.795  1.00  0.00     0.027 C 
HETATM    5  C9  UNL     1      26.653  33.941  29.290  1.00  0.00    -0.007 C 
HETATM    6  C10 UNL     1      27.242  33.059  30.366  1.00  0.00     0.007 C 
HETATM    7  C11 UNL     1      28.604  33.481  30.804  1.00  0.00     0.035 C 
HETATM    8  C12 UNL     1      28.735  34.969  31.026  1.00  0.00     0.157 C 
HETATM    9  O2  UNL     1      30.099  35.262  31.020  1.00  0.00    -0.373 OA
HETATM   10  C13 UNL     1      30.445  36.296  31.849  1.00  0.00     0.054 C 
HETATM   11  C14 UNL     1      31.783  36.846  31.402  1.00  0.00     0.045 C 
HETATM   12  C15 UNL     1      30.600  35.762  33.247  1.00  0.00     0.045 C 
HETATM   13  C16 UNL     1      29.446  37.427  31.853  1.00  0.00     0.037 C 
HETATM   14  C17 UNL     1      29.145  37.958  30.493  1.00  0.00     0.006 C 
HETATM   15  C18 UNL     1      28.965  36.895  29.448  1.00  0.00     0.041 C 
HETATM   16  C19 UNL     1      28.095  35.777  29.938  1.00  0.00     0.088 C 
HETATM   17  C20 UNL     1      25.996  33.132  28.221  1.00  0.00     0.018 C 
ENDROOT
BRANCH   1  18
HETATM   18  C4  UNL     1      24.859  33.341  26.029  1.00  0.00     0.121 C 
HETATM   19  N1  UNL     1      23.580  33.399  25.845  1.00  0.00    -0.383 N 
ATOM     20  H12 UNL     1      23.123  32.896  25.085  1.00  0.00     0.158 HD
ATOM     21  H11 UNL     1      23.062  33.978  26.506  1.00  0.00     0.158 HD
BRANCH  18  22
HETATM   22  O1  UNL     1      25.565  32.554  25.129  1.00  0.00    -0.303 OA
BRANCH  22  23
HETATM   23  C2  UNL     1      25.137  31.282  24.788  1.00  0.00     0.042 C 
HETATM   24  C1  UNL     1      24.970  30.990  23.517  1.00  0.00     0.046 C 
HETATM   25  C3  UNL     1      24.859  30.230  25.799  1.00  0.00     0.076 C 
ENDBRANCH  22  23
ENDBRANCH  18  22
ENDBRANCH   1  18
BRANCH  16  26
HETATM   26  O3  UNL     1      26.901  36.323  30.402  1.00  0.00    -0.387 OA
ATOM     27  H3  UNL     1      26.601  35.766  31.110  1.00  0.00     0.210 HD
ENDBRANCH  16  26
TORSDOF 4
ENDMDL
MODEL 2
REMARK VINA RESULT: -7.187083259      5.618      9.258
REMARK  4 active torsions:
REMARK  status: ('A' for Active; 'I' for Inactive)
REMARK    1  A    between atoms: C2_2  and  O1_4 
REMARK    2  A    between atoms: O1_4  and  C4_5 
REMARK    3  A    between atoms: C4_5  and  C5_9 
REMARK    4  A    between atoms: C19_24  and  O3_25 
ROOT
HETATM    1  C5  UNL     1      25.065  30.121  27.113  1.00  0.00     0.061 C 
HETATM    2  C6  UNL     1      25.581  30.057  28.556  1.00  0.00     0.013 C 
HETATM    3  C7  UNL     1      24.840  28.940  29.243  1.00  0.00     0.009 C 
HETATM    4  C8  UNL     1      25.108  27.642  28.559  1.00  0.00     0.027 C 
HETATM    5  C9  UNL     1      24.962  27.690  27.067  1.00  0.00    -0.007 C 
HETATM    6  C10 UNL     1      25.520  26.403  26.506  1.00  0.00     0.007 C 
HETATM    7  C11 UNL     1      25.813  25.375  27.547  1.00  0.00     0.035 C 
HETATM    8  C12 UNL     1      24.718  25.227  28.576  1.00  0.00     0.157 C 
HETATM    9  O2  UNL     1      25.279  24.572  29.674  1.00  0.00    -0.373 OA
HETATM   10  C13 UNL     1      24.400  23.759  30.339  1.00  0.00     0.054 C 
HETATM   11  C14 UNL     1      24.930  23.517  31.737  1.00  0.00     0.045 C 
HETATM   12  C15 UNL     1      24.333  22.435  29.626  1.00  0.00     0.045 C 
HETATM   13  C16 UNL     1      23.010  24.336  30.453  1.00  0.00     0.037 C 
HETATM   14  C17 UNL     1      22.982  25.700  31.055  1.00  0.00     0.006 C 
HETATM   15  C18 UNL     1      24.059  26.615  30.549  1.00  0.00     0.041 C 
HETATM   16  C19 UNL     1      24.191  26.544  29.058  1.00  0.00     0.088 C 
HETATM   17  C20 UNL     1      25.595  28.882  26.428  1.00  0.00     0.018 C 
ENDROOT
BRANCH   1  18
HETATM   18  C4  UNL     1      25.650  31.358  26.531  1.00  0.00     0.121 C 
HETATM   19  N1  UNL     1      25.052  32.501  26.613  1.00  0.00    -0.383 N 
ATOM     20  H12 UNL     1      25.455  33.349  26.213  1.00  0.00     0.158 HD
ATOM     21  H11 UNL     1      24.156  32.500  27.101  1.00  0.00     0.158 HD
BRANCH  18  22
HETATM   22  O1  UNL     1      26.869  31.359  25.867  1.00  0.00    -0.303 OA
BRANCH  22  23
HETATM   23  C2  UNL     1      26.959  31.645  24.515  1.00  0.00     0.042 C 
HETATM   24  C1  UNL     1      27.840  32.534  24.113  1.00  0.00     0.046 C 
HETATM   25  C3  UNL     1      26.099  30.988  23.497  1.00  0.00     0.076 C 
ENDBRANCH  22  23
ENDBRANCH  18  22
ENDBRANCH   1  18
BRANCH  16  26
HETATM   26  O3  UNL     1      22.938  26.779  28.496  1.00  0.00    -0.387 OA
ATOM     27  H3  UNL     1      22.729  26.022  27.964  1.00  0.00     0.210 HD
ENDBRANCH  16  26
TORSDOF 4
ENDMDL
MODEL 3
REMARK VINA RESULT: -7.153480756      1.490      1.967
REMARK  4 active torsions:
REMARK  status: ('A' for Active; 'I' for Inactive)
REMARK    1  A    between atoms: C2_2  and  O1_4 
REMARK    2  A    between atoms: O1_4  and  C4_5 
REMARK    3  A    between atoms: C4_5  and  C5_9 
REMARK    4  A    between atoms: C19_24  and  O3_25 
ROOT
HETATM    1  C5  UNL     1      25.438  33.459  27.364  1.00  0.00     0.061 C 
HETATM    2  C6  UNL     1      26.735  34.265  27.212  1.00  0.00     0.013 C 
HETATM    3  C7  UNL     1      27.060  34.843  28.564  1.00  0.00     0.009 C 
HETATM    4  C8  UNL     1      27.265  33.751  29.560  1.00  0.00     0.027 C 
HETATM    5  C9  UNL     1      26.197  32.698  29.548  1.00  0.00    -0.007 C 
HETATM    6  C10 UNL     1      26.675  31.544  30.399  1.00  0.00     0.007 C 
HETATM    7  C11 UNL     1      27.902  31.854  31.189  1.00  0.00     0.035 C 
HETATM    8  C12 UNL     1      27.860  33.202  31.868  1.00  0.00     0.157 C 
HETATM    9  O2  UNL     1      29.175  33.528  32.205  1.00  0.00    -0.373 OA
HETATM   10  C13 UNL     1      29.285  34.262  33.355  1.00  0.00     0.054 C 
HETATM   11  C14 UNL     1      30.624  34.969  33.351  1.00  0.00     0.045 C 
HETATM   12  C15 UNL     1      29.251  33.324  34.532  1.00  0.00     0.045 C 
HETATM   13  C16 UNL     1      28.202  35.301  33.513  1.00  0.00     0.037 C 
HETATM   14  C17 UNL     1      28.086  36.220  32.345  1.00  0.00     0.006 C 
HETATM   15  C18 UNL     1      28.178  35.530  31.014  1.00  0.00     0.041 C 
HETATM   16  C19 UNL     1      27.342  34.287  30.974  1.00  0.00     0.088 C 
HETATM   17  C20 UNL     1      25.802  32.241  28.182  1.00  0.00     0.018 C 
ENDROOT
BRANCH   1  18
HETATM   18  C4  UNL     1      25.032  33.086  25.983  1.00  0.00     0.121 C 
HETATM   19  N1  UNL     1      23.796  33.109  25.605  1.00  0.00    -0.383 N 
ATOM     20  H12 UNL     1      23.518  32.853  24.658  1.00  0.00     0.158 HD
ATOM     21  H11 UNL     1      23.120  33.399  26.313  1.00  0.00     0.158 HD
BRANCH  18  22
HETATM   22  O1  UNL     1      25.952  32.692  25.021  1.00  0.00    -0.303 OA
BRANCH  22  23
HETATM   23  C2  UNL     1      25.975  31.399  24.526  1.00  0.00     0.042 C 
HETATM   24  C1  UNL     1      26.694  30.495  25.152  1.00  0.00     0.046 C 
HETATM   25  C3  UNL     1      25.220  30.991  23.314  1.00  0.00     0.076 C 
ENDBRANCH  22  23
ENDBRANCH  18  22
ENDBRANCH   1  18
BRANCH  16  26
HETATM   26  O3  UNL     1      26.043  34.621  31.351  1.00  0.00    -0.387 OA
ATOM     27  H3  UNL     1      25.951  34.382  32.265  1.00  0.00     0.210 HD
ENDBRANCH  16  26
TORSDOF 4
ENDMDL
MODEL 4
REMARK VINA RESULT: -7.072792395      3.734      5.464
REMARK  4 active torsions:
REMARK  status: ('A' for Active; 'I' for Inactive)
REMARK    1  A    between atoms: C2_2  and  O1_4 
REMARK    2  A    between atoms: O1_4  and  C4_5 
REMARK    3  A    between atoms: C4_5  and  C5_9 
REMARK    4  A    between atoms: C19_24  and  O3_25 
ROOT
HETATM    1  C5  UNL     1      26.330  31.291  27.181  1.00  0.00     0.061 C 
HETATM    2  C6  UNL     1      25.259  30.302  27.658  1.00  0.00     0.013 C 
HETATM    3  C7  UNL     1      25.611  29.914  29.069  1.00  0.00     0.009 C 
HETATM    4  C8  UNL     1      25.610  31.114  29.954  1.00  0.00     0.027 C 
HETATM    5  C9  UNL     1      26.364  32.288  29.401  1.00  0.00    -0.007 C 
HETATM    6  C10 UNL     1      26.048  33.488  30.262  1.00  0.00     0.007 C 
HETATM    7  C11 UNL     1      25.317  33.147  31.517  1.00  0.00     0.035 C 
HETATM    8  C12 UNL     1      25.880  31.946  32.239  1.00  0.00     0.157 C 
HETATM    9  O2  UNL     1      24.893  31.503  33.121  1.00  0.00    -0.373 OA
HETATM   10  C13 UNL     1      25.389  30.958  34.275  1.00  0.00     0.054 C 
HETATM   11  C14 UNL     1      24.319  30.084  34.895  1.00  0.00     0.045 C 
HETATM   12  C15 UNL     1      25.704  32.071  35.238  1.00  0.00     0.045 C 
HETATM   13  C16 UNL     1      26.624  30.116  34.064  1.00  0.00     0.037 C 
HETATM   14  C17 UNL     1      26.444  29.044  33.043  1.00  0.00     0.006 C 
HETATM   15  C18 UNL     1      25.704  29.488  31.814  1.00  0.00     0.041 C 
HETATM   16  C19 UNL     1      26.201  30.811  31.315  1.00  0.00     0.088 C 
HETATM   17  C20 UNL     1      26.093  32.565  27.959  1.00  0.00     0.018 C 
ENDROOT
BRANCH   1  18
HETATM   18  C4  UNL     1      26.080  31.486  25.728  1.00  0.00     0.121 C 
HETATM   19  N1  UNL     1      26.981  31.972  24.938  1.00  0.00    -0.383 N 
ATOM     20  H12 UNL     1      26.808  32.105  23.942  1.00  0.00     0.158 HD
ATOM     21  H11 UNL     1      27.871  32.212  25.375  1.00  0.00     0.158 HD
BRANCH  18  22
HETATM   22  O1  UNL     1      24.868  31.159  25.135  1.00  0.00    -0.303 OA
BRANCH  22  23
HETATM   23  C2  UNL     1      23.940  32.130  24.797  1.00  0.00     0.042 C 
HETATM   24  C1  UNL     1      23.330  32.046  23.636  1.00  0.00     0.046 C 
HETATM   25  C3  UNL     1      23.605  33.267  25.693  1.00  0.00     0.076 C 
ENDBRANCH  22  23
ENDBRANCH  18  22
ENDBRANCH   1  18
BRANCH  16  26
HETATM   26  O3  UNL     1      27.581  30.724  31.146  1.00  0.00    -0.387 OA
ATOM     27  H3  UNL     1      27.732  30.139  30.413  1.00  0.00     0.210 HD
ENDBRANCH  16  26
TORSDOF 4
ENDMDL
MODEL 5
REMARK VINA RESULT: -7.069598567      3.300      5.153
REMARK  4 active torsions:
REMARK  status: ('A' for Active; 'I' for Inactive)
REMARK    1  A    between atoms: C2_2  and  O1_4 
REMARK    2  A    between atoms: O1_4  and  C4_5 
REMARK    3  A    between atoms: C4_5  and  C5_9 
REMARK    4  A    between atoms: C19_24  and  O3_25 
ROOT
HETATM    1  C5  UNL     1      26.514  33.018  27.639  1.00  0.00     0.061 C 
HETATM    2  C6  UNL     1      25.433  31.955  27.872  1.00  0.00     0.013 C 
HETATM    3  C7  UNL     1      25.860  31.142  29.066  1.00  0.00     0.009 C 
HETATM    4  C8  UNL     1      25.972  32.011  30.273  1.00  0.00     0.027 C 
HETATM    5  C9  UNL     1      26.740  33.280  30.049  1.00  0.00    -0.007 C 
HETATM    6  C10 UNL     1      26.538  34.163  31.258  1.00  0.00     0.007 C 
HETATM    7  C11 UNL     1      25.876  33.468  32.400  1.00  0.00     0.035 C 
HETATM    8  C12 UNL     1      26.430  32.091  32.675  1.00  0.00     0.157 C 
HETATM    9  O2  UNL     1      25.484  31.420  33.452  1.00  0.00    -0.373 OA
HETATM   10  C13 UNL     1      26.030  30.535  34.342  1.00  0.00     0.054 C 
HETATM   11  C14 UNL     1      24.965  29.537  34.746  1.00  0.00     0.045 C 
HETATM   12  C15 UNL     1      26.458  31.289  35.573  1.00  0.00     0.045 C 
HETATM   13  C16 UNL     1      27.208  29.771  33.789  1.00  0.00     0.037 C 
HETATM   14  C17 UNL     1      26.912  29.070  32.507  1.00  0.00     0.006 C 
HETATM   15  C18 UNL     1      26.114  29.889  31.533  1.00  0.00     0.041 C 
HETATM   16  C19 UNL     1      26.637  31.289  31.426  1.00  0.00     0.088 C 
HETATM   17  C20 UNL     1      26.388  33.995  28.786  1.00  0.00     0.018 C 
ENDROOT
BRANCH   1  18
HETATM   18  C4  UNL     1      26.177  33.657  26.340  1.00  0.00     0.121 C 
HETATM   19  N1  UNL     1      26.063  34.939  26.219  1.00  0.00    -0.383 N 
ATOM     20  H12 UNL     1      25.832  35.377  25.327  1.00  0.00     0.158 HD
ATOM     21  H11 UNL     1      26.219  35.481  27.069  1.00  0.00     0.158 HD
BRANCH  18  22
HETATM   22  O1  UNL     1      25.966  32.918  25.184  1.00  0.00    -0.303 OA
BRANCH  22  23
HETATM   23  C2  UNL     1      26.923  32.043  24.697  1.00  0.00     0.042 C 
HETATM   24  C1  UNL     1      27.982  32.534  24.093  1.00  0.00     0.046 C 
HETATM   25  C3  UNL     1      26.803  30.568  24.831  1.00  0.00     0.076 C 
ENDBRANCH  22  23
ENDBRANCH  18  22
ENDBRANCH   1  18
BRANCH  16  26
HETATM   26  O3  UNL     1      27.997  31.226  31.132  1.00  0.00    -0.387 OA
ATOM     27  H3  UNL     1      28.169  30.350  30.811  1.00  0.00     0.210 HD
ENDBRANCH  16  26
TORSDOF 4
ENDMDL
