MODEL 1
REMARK VINA RESULT: -6.323204671      0.000      0.000
REMARK  4 active torsions:
REMARK  status: ('A' for Active; 'I' for Inactive)
REMARK    1  A    between atoms: C2_2  and  S1_4 
REMARK    2  A    between atoms: S1_4  and  C4_5 
REMARK    3  A    between atoms: C12_15  and  C14_17 
REMARK       I    between atoms: C14_17  and  N2_19 
REMARK    4  A    between atoms: N2_19  and  N3_21 
ROOT
HETATM    1  C4  UNL     1      28.177  35.718  32.287  1.00  0.00     0.043 C 
HETATM    2  N1  UNL     1      27.104  35.455  31.653  1.00  0.00    -0.378 N 
ATOM      3  H1  UNL     1      26.260  36.026  31.688  1.00  0.00     0.160 HD
HETATM    4  C5  UNL     1      27.235  34.255  30.885  1.00  0.00     0.035 C 
HETATM    5  C6  UNL     1      26.763  33.133  31.812  1.00  0.00     0.039 C 
HETATM    6  C7  UNL     1      28.694  34.166  30.627  1.00  0.00     0.020 C 
HETATM    7  C8  UNL     1      29.093  35.218  29.636  1.00  0.00     0.008 C 
HETATM    8  C9  UNL     1      28.315  35.153  28.354  1.00  0.00     0.005 C 
HETATM    9  C10 UNL     1      26.829  35.125  28.563  1.00  0.00    -0.007 C 
HETATM   10  C11 UNL     1      26.170  34.853  27.260  1.00  0.00     0.024 C 
HETATM   11  C12 UNL     1      26.043  33.413  26.875  1.00  0.00     0.039 C 
HETATM   12  C13 UNL     1      24.539  33.137  26.711  1.00  0.00     0.025 C 
HETATM   13  C15 UNL     1      26.545  32.451  27.891  1.00  0.00     0.019 C 
HETATM   14  C16 UNL     1      26.002  32.845  29.244  1.00  0.00     0.009 C 
HETATM   15  C17 UNL     1      26.355  34.237  29.670  1.00  0.00     0.018 C 
HETATM   16  C18 UNL     1      29.219  34.663  31.991  1.00  0.00     0.071 C 
ENDROOT
BRANCH  11  17
HETATM   17  C14 UNL     1      26.652  33.115  25.563  1.00  0.00     0.243 C 
HETATM   18  O1  UNL     1      27.397  33.973  25.028  1.00  0.00    -0.271 OA
HETATM   19  N2  UNL     1      26.441  31.904  24.862  1.00  0.00    -0.276 N 
ATOM     20  H2  UNL     1      25.838  31.196  25.281  1.00  0.00     0.189 HD
BRANCH  19  21
HETATM   21  N3  UNL     1      27.020  31.637  23.626  1.00  0.00    -0.343 N 
ATOM     22  H32 UNL     1      26.830  32.289  22.865  1.00  0.00     0.176 HD
ATOM     23  H31 UNL     1      27.618  30.828  23.459  1.00  0.00     0.176 HD
ENDBRANCH  19  21
ENDBRANCH  11  17
BRANCH   1  24
HETATM   24  S1  UNL     1      28.534  37.089  33.380  1.00  0.00    -0.113 SA
BRANCH  24  25
HETATM   25  C2  UNL     1      28.300  38.679  32.601  1.00  0.00     0.045 C 
HETATM   26  C1  UNL     1      26.835  39.009  32.466  1.00  0.00     0.021 C 
HETATM   27  C3  UNL     1      28.880  38.583  31.190  1.00  0.00     0.021 C 
ENDBRANCH  24  25
ENDBRANCH   1  24
TORSDOF 4
ENDMDL
MODEL 2
REMARK VINA RESULT: -6.280573552      3.386      7.159
REMARK  4 active torsions:
REMARK  status: ('A' for Active; 'I' for Inactive)
REMARK    1  A    between atoms: C2_2  and  S1_4 
REMARK    2  A    between atoms: S1_4  and  C4_5 
REMARK    3  A    between atoms: C12_15  and  C14_17 
REMARK       I    between atoms: C14_17  and  N2_19 
REMARK    4  A    between atoms: N2_19  and  N3_21 
ROOT
HETATM    1  C4  UNL     1      26.432  32.618  25.978  1.00  0.00     0.043 C 
HETATM    2  N1  UNL     1      27.136  32.575  27.038  1.00  0.00    -0.378 N 
ATOM      3  H1  UNL     1      28.051  32.128  27.103  1.00  0.00     0.160 HD
HETATM    4  C5  UNL     1      26.480  33.233  28.125  1.00  0.00     0.035 C 
HETATM    5  C6  UNL     1      25.667  32.139  28.823  1.00  0.00     0.039 C 
HETATM    6  C7  UNL     1      25.597  34.217  27.453  1.00  0.00     0.020 C 
HETATM    7  C8  UNL     1      26.428  35.322  26.873  1.00  0.00     0.008 C 
HETATM    8  C9  UNL     1      27.312  35.994  27.884  1.00  0.00     0.005 C 
HETATM    9  C10 UNL     1      28.147  35.030  28.675  1.00  0.00    -0.007 C 
HETATM   10  C11 UNL     1      28.819  35.772  29.772  1.00  0.00     0.024 C 
HETATM   11  C12 UNL     1      28.023  35.957  31.026  1.00  0.00     0.039 C 
HETATM   12  C13 UNL     1      28.824  35.287  32.154  1.00  0.00     0.025 C 
HETATM   13  C15 UNL     1      26.683  35.311  31.012  1.00  0.00     0.019 C 
HETATM   14  C16 UNL     1      26.829  33.898  30.500  1.00  0.00     0.009 C 
HETATM   15  C17 UNL     1      27.438  33.796  29.134  1.00  0.00     0.018 C 
HETATM   16  C18 UNL     1      25.144  33.365  26.248  1.00  0.00     0.071 C 
ENDROOT
BRANCH  11  17
HETATM   17  C14 UNL     1      27.889  37.375  31.415  1.00  0.00     0.243 C 
HETATM   18  O1  UNL     1      26.895  37.729  32.095  1.00  0.00    -0.271 OA
HETATM   19  N2  UNL     1      28.829  38.373  31.062  1.00  0.00    -0.276 N 
ATOM     20  H2  UNL     1      29.643  38.103  30.510  1.00  0.00     0.189 HD
BRANCH  19  21
HETATM   21  N3  UNL     1      28.690  39.705  31.435  1.00  0.00    -0.343 N 
ATOM     22  H32 UNL     1      28.601  39.909  32.430  1.00  0.00     0.176 HD
ATOM     23  H31 UNL     1      28.674  40.469  30.760  1.00  0.00     0.176 HD
ENDBRANCH  19  21
ENDBRANCH  11  17
BRANCH   1  24
HETATM   24  S1  UNL     1      26.791  31.951  24.356  1.00  0.00    -0.113 SA
BRANCH  24  25
HETATM   25  C2  UNL     1      25.678  30.637  23.883  1.00  0.00     0.045 C 
HETATM   26  C1  UNL     1      24.508  31.170  23.095  1.00  0.00     0.021 C 
HETATM   27  C3  UNL     1      25.124  30.026  25.170  1.00  0.00     0.021 C 
ENDBRANCH  24  25
ENDBRANCH   1  24
TORSDOF 4
ENDMDL
MODEL 3
REMARK VINA RESULT: -5.943264122      1.607      1.803
REMARK  4 active torsions:
REMARK  status: ('A' for Active; 'I' for Inactive)
REMARK    1  A    between atoms: C2_2  and  S1_4 
REMARK    2  A    between atoms: S1_4  and  C4_5 
REMARK    3  A    between atoms: C12_15  and  C14_17 
REMARK       I    between atoms: C14_17  and  N2_19 
REMARK    4  A    between atoms: N2_19  and  N3_21 
ROOT
HETATM    1  C4  UNL     1      26.777  34.265  32.071  1.00  0.00     0.043 C 
HETATM    2  N1  UNL     1      25.875  33.863  31.266  1.00  0.00    -0.378 N 
ATOM      3  H1  UNL     1      24.912  34.198  31.265  1.00  0.00     0.160 HD
HETATM    4  C5  UNL     1      26.387  32.879  30.362  1.00  0.00     0.035 C 
HETATM    5  C6  UNL     1      26.136  31.535  31.049  1.00  0.00     0.039 C 
HETATM    6  C7  UNL     1      27.836  33.191  30.295  1.00  0.00     0.020 C 
HETATM    7  C8  UNL     1      28.042  34.460  29.526  1.00  0.00     0.008 C 
HETATM    8  C9  UNL     1      27.433  34.429  28.153  1.00  0.00     0.005 C 
HETATM    9  C10 UNL     1      25.993  34.008  28.152  1.00  0.00    -0.007 C 
HETATM   10  C11 UNL     1      25.556  33.811  26.746  1.00  0.00     0.024 C 
HETATM   11  C12 UNL     1      25.845  32.470  26.148  1.00  0.00     0.039 C 
HETATM   12  C13 UNL     1      24.489  31.871  25.744  1.00  0.00     0.025 C 
HETATM   13  C15 UNL     1      26.481  31.500  27.078  1.00  0.00     0.019 C 
HETATM   14  C16 UNL     1      25.727  31.513  28.387  1.00  0.00     0.009 C 
HETATM   15  C17 UNL     1      25.663  32.857  29.048  1.00  0.00     0.018 C 
HETATM   16  C18 UNL     1      28.081  33.559  31.775  1.00  0.00     0.071 C 
ENDROOT
BRANCH  11  17
HETATM   17  C14 UNL     1      26.634  32.557  24.903  1.00  0.00     0.243 C 
HETATM   18  O1  UNL     1      26.199  31.999  23.865  1.00  0.00    -0.271 OA
HETATM   19  N2  UNL     1      27.870  33.241  24.808  1.00  0.00    -0.276 N 
ATOM     20  H2  UNL     1      28.239  33.700  25.641  1.00  0.00     0.189 HD
BRANCH  19  21
HETATM   21  N3  UNL     1      28.602  33.314  23.628  1.00  0.00    -0.343 N 
ATOM     22  H32 UNL     1      28.087  33.468  22.762  1.00  0.00     0.176 HD
ATOM     23  H31 UNL     1      29.618  33.221  23.602  1.00  0.00     0.176 HD
ENDBRANCH  19  21
ENDBRANCH  11  17
BRANCH   1  24
HETATM   24  S1  UNL     1      26.658  35.475  33.385  1.00  0.00    -0.113 SA
BRANCH  24  25
HETATM   25  C2  UNL     1      27.469  37.015  32.987  1.00  0.00     0.045 C 
HETATM   26  C1  UNL     1      27.359  37.325  31.515  1.00  0.00     0.021 C 
HETATM   27  C3  UNL     1      28.954  36.842  33.309  1.00  0.00     0.021 C 
ENDBRANCH  24  25
ENDBRANCH   1  24
TORSDOF 4
ENDMDL
MODEL 4
REMARK VINA RESULT: -5.886287910      2.084      2.470
REMARK  4 active torsions:
REMARK  status: ('A' for Active; 'I' for Inactive)
REMARK    1  A    between atoms: C2_2  and  S1_4 
REMARK    2  A    between atoms: S1_4  and  C4_5 
REMARK    3  A    between atoms: C12_15  and  C14_17 
REMARK       I    between atoms: C14_17  and  N2_19 
REMARK    4  A    between atoms: N2_19  and  N3_21 
ROOT
HETATM    1  C4  UNL     1      26.842  34.602  31.953  1.00  0.00     0.043 C 
HETATM    2  N1  UNL     1      25.931  34.149  31.187  1.00  0.00    -0.378 N 
ATOM      3  H1  UNL     1      24.966  34.477  31.183  1.00  0.00     0.160 HD
HETATM    4  C5  UNL     1      26.437  33.120  30.331  1.00  0.00     0.035 C 
HETATM    5  C6  UNL     1      26.207  31.815  31.096  1.00  0.00     0.039 C 
HETATM    6  C7  UNL     1      27.883  33.438  30.224  1.00  0.00     0.020 C 
HETATM    7  C8  UNL     1      28.066  34.664  29.382  1.00  0.00     0.008 C 
HETATM    8  C9  UNL     1      27.437  34.552  28.023  1.00  0.00     0.005 C 
HETATM    9  C10 UNL     1      26.000  34.121  28.068  1.00  0.00    -0.007 C 
HETATM   10  C11 UNL     1      25.544  33.843  26.683  1.00  0.00     0.024 C 
HETATM   11  C12 UNL     1      25.834  32.473  26.156  1.00  0.00     0.039 C 
HETATM   12  C13 UNL     1      24.476  31.842  25.807  1.00  0.00     0.025 C 
HETATM   13  C15 UNL     1      26.492  31.560  27.129  1.00  0.00     0.019 C 
HETATM   14  C16 UNL     1      25.757  31.642  28.446  1.00  0.00     0.009 C 
HETATM   15  C17 UNL     1      25.693  33.019  29.032  1.00  0.00     0.018 C 
HETATM   16  C18 UNL     1      28.147  33.890  31.677  1.00  0.00     0.071 C 
ENDROOT
BRANCH  11  17
HETATM   17  C14 UNL     1      26.603  32.495  24.895  1.00  0.00     0.243 C 
HETATM   18  O1  UNL     1      26.144  31.898  23.891  1.00  0.00    -0.271 OA
HETATM   19  N2  UNL     1      27.845  33.159  24.751  1.00  0.00    -0.276 N 
ATOM     20  H2  UNL     1      28.233  33.649  25.556  1.00  0.00     0.189 HD
BRANCH  19  21
HETATM   21  N3  UNL     1      28.558  33.171  23.557  1.00  0.00    -0.343 N 
ATOM     22  H32 UNL     1      29.555  33.381  23.606  1.00  0.00     0.176 HD
ATOM     23  H31 UNL     1      28.126  32.981  22.653  1.00  0.00     0.176 HD
ENDBRANCH  19  21
ENDBRANCH  11  17
BRANCH   1  24
HETATM   24  S1  UNL     1      26.734  35.883  33.199  1.00  0.00    -0.113 SA
BRANCH  24  25
HETATM   25  C2  UNL     1      25.476  35.557  34.424  1.00  0.00     0.045 C 
HETATM   26  C1  UNL     1      25.385  34.084  34.734  1.00  0.00     0.021 C 
HETATM   27  C3  UNL     1      24.136  35.982  33.822  1.00  0.00     0.021 C 
ENDBRANCH  24  25
ENDBRANCH   1  24
TORSDOF 4
ENDMDL
MODEL 5
REMARK VINA RESULT: -5.797297436      2.048      3.825
REMARK  4 active torsions:
REMARK  status: ('A' for Active; 'I' for Inactive)
REMARK    1  A    between atoms: C2_2  and  S1_4 
REMARK    2  A    between atoms: S1_4  and  C4_5 
REMARK    3  A    between atoms: C12_15  and  C14_17 
REMARK       I    between atoms: C14_17  and  N2_19 
REMARK    4  A    between atoms: N2_19  and  N3_21 
ROOT
HETATM    1  C4  UNL     1      27.886  34.011  32.558  1.00  0.00     0.043 C 
HETATM    2  N1  UNL     1      28.328  33.918  31.367  1.00  0.00    -0.378 N 
ATOM      3  H1  UNL     1      29.177  33.416  31.105  1.00  0.00     0.160 HD
HETATM    4  C5  UNL     1      27.482  34.608  30.443  1.00  0.00     0.035 C 
HETATM    5  C6  UNL     1      28.050  36.027  30.363  1.00  0.00     0.039 C 
HETATM    6  C7  UNL     1      26.156  34.592  31.109  1.00  0.00     0.020 C 
HETATM    7  C8  UNL     1      25.593  33.204  31.073  1.00  0.00     0.008 C 
HETATM    8  C9  UNL     1      25.506  32.633  29.687  1.00  0.00     0.005 C 
HETATM    9  C10 UNL     1      26.796  32.727  28.925  1.00  0.00    -0.007 C 
HETATM   10  C11 UNL     1      26.545  32.331  27.515  1.00  0.00     0.024 C 
HETATM   11  C12 UNL     1      26.045  33.410  26.607  1.00  0.00     0.039 C 
HETATM   12  C13 UNL     1      27.079  33.545  25.478  1.00  0.00     0.025 C 
HETATM   13  C15 UNL     1      25.927  34.750  27.241  1.00  0.00     0.019 C 
HETATM   14  C16 UNL     1      27.196  35.040  28.007  1.00  0.00     0.009 C 
HETATM   15  C17 UNL     1      27.525  34.026  29.060  1.00  0.00     0.018 C 
HETATM   16  C18 UNL     1      26.607  34.817  32.568  1.00  0.00     0.071 C 
ENDROOT
BRANCH  11  17
HETATM   17  C14 UNL     1      24.772  33.057  25.946  1.00  0.00     0.243 C 
HETATM   18  O1  UNL     1      23.713  33.617  26.324  1.00  0.00    -0.271 OA
HETATM   19  N2  UNL     1      24.673  32.111  24.898  1.00  0.00    -0.276 N 
ATOM     20  H2  UNL     1      25.523  31.647  24.579  1.00  0.00     0.189 HD
BRANCH  19  21
HETATM   21  N3  UNL     1      23.467  31.788  24.285  1.00  0.00    -0.343 N 
ATOM     22  H32 UNL     1      23.056  32.481  23.660  1.00  0.00     0.176 HD
ATOM     23  H31 UNL     1      22.990  30.900  24.438  1.00  0.00     0.176 HD
ENDBRANCH  19  21
ENDBRANCH  11  17
BRANCH   1  24
HETATM   24  S1  UNL     1      28.566  33.335  34.069  1.00  0.00    -0.113 SA
BRANCH  24  25
HETATM   25  C2  UNL     1      27.832  31.771  34.523  1.00  0.00     0.045 C 
HETATM   26  C1  UNL     1      27.614  30.900  33.312  1.00  0.00     0.021 C 
HETATM   27  C3  UNL     1      26.459  32.072  35.126  1.00  0.00     0.021 C 
ENDBRANCH  24  25
ENDBRANCH   1  24
TORSDOF 4
ENDMDL
