MODEL 1
REMARK VINA RESULT: -6.326958993      0.000      0.000
REMARK  4 active torsions:
REMARK  status: ('A' for Active; 'I' for Inactive)
REMARK    1  A    between atoms: C2_2  and  C5_5 
REMARK    2  A    between atoms: C14_18  and  O1_19 
REMARK    3  A    between atoms: O1_19  and  C15_20 
REMARK    4  A    between atoms: C20_25  and  O2_26 
ROOT
HETATM    1  C5  UNL     1      25.055  32.407  25.258  1.00  0.00    -0.007 C 
HETATM    2  C6  UNL     1      24.634  31.976  26.620  1.00  0.00     0.006 C 
HETATM    3  C7  UNL     1      24.965  33.057  27.626  1.00  0.00     0.012 C 
HETATM    4  C8  UNL     1      26.475  33.172  27.838  1.00  0.00    -0.007 C 
HETATM    5  C9  UNL     1      27.117  32.529  26.608  1.00  0.00     0.012 C 
HETATM    6  C10 UNL     1      26.445  32.982  25.332  1.00  0.00     0.006 C 
HETATM    7  C11 UNL     1      26.842  32.327  29.009  1.00  0.00     0.060 C 
HETATM    8  C12 UNL     1      27.099  33.059  30.272  1.00  0.00     0.295 C 
HETATM    9  C13 UNL     1      25.862  33.322  30.985  1.00  0.00     0.092 C 
HETATM   10  N1  UNL     1      24.873  33.529  31.573  1.00  0.00    -0.195 NA
HETATM   11  N2  UNL     1      27.866  34.263  30.128  1.00  0.00    -0.030 N 
ATOM     12  H21 UNL     1      28.821  34.089  29.813  1.00  0.00     0.281 HD
ATOM     13  H22 UNL     1      28.095  34.695  31.023  1.00  0.00     0.281 HD
HETATM   14  C14 UNL     1      27.137  35.150  29.247  1.00  0.00     0.352 C 
HETATM   15  C20 UNL     1      26.915  34.584  27.891  1.00  0.00     0.183 C 
ENDROOT
BRANCH  14  16
HETATM   16  O1  UNL     1      27.913  36.309  29.113  1.00  0.00    -0.352 OA
BRANCH  16  17
HETATM   17  C15 UNL     1      28.914  36.385  30.057  1.00  0.00     0.124 C 
HETATM   18  C16 UNL     1      28.721  37.592  30.956  1.00  0.00     0.032 C 
HETATM   19  C17 UNL     1      29.418  38.744  30.299  1.00  0.00     0.002 C 
HETATM   20  C18 UNL     1      29.932  38.201  28.971  1.00  0.00     0.002 C 
HETATM   21  C19 UNL     1      30.204  36.750  29.343  1.00  0.00     0.032 C 
ENDBRANCH  16  17
ENDBRANCH  14  16
BRANCH  15  22
HETATM   22  O2  UNL     1      25.967  35.412  27.243  1.00  0.00    -0.390 OA
ATOM     23  H2  UNL     1      25.830  36.206  27.747  1.00  0.00     0.210 HD
ENDBRANCH  15  22
BRANCH   1  24
HETATM   24  C2  UNL     1      24.932  31.312  24.241  1.00  0.00    -0.048 C 
HETATM   25  C1  UNL     1      26.213  31.052  23.498  1.00  0.00     0.015 C 
HETATM   26  C3  UNL     1      24.528  30.040  24.953  1.00  0.00     0.015 C 
HETATM   27  C4  UNL     1      23.877  31.676  23.222  1.00  0.00     0.015 C 
ENDBRANCH   1  24
TORSDOF 4
ENDMDL
MODEL 2
REMARK VINA RESULT: -5.852517275      1.570      6.950
REMARK  4 active torsions:
REMARK  status: ('A' for Active; 'I' for Inactive)
REMARK    1  A    between atoms: C2_2  and  C5_5 
REMARK    2  A    between atoms: C14_18  and  O1_19 
REMARK    3  A    between atoms: O1_19  and  C15_20 
REMARK    4  A    between atoms: C20_25  and  O2_26 
ROOT
HETATM    1  C5  UNL     1      29.837  37.132  29.398  1.00  0.00    -0.007 C 
HETATM    2  C6  UNL     1      29.921  36.095  30.465  1.00  0.00     0.006 C 
HETATM    3  C7  UNL     1      29.260  34.818  29.994  1.00  0.00     0.012 C 
HETATM    4  C8  UNL     1      27.742  34.983  29.901  1.00  0.00    -0.007 C 
HETATM    5  C9  UNL     1      27.492  36.489  29.819  1.00  0.00     0.012 C 
HETATM    6  C10 UNL     1      28.436  37.155  28.845  1.00  0.00     0.006 C 
HETATM    7  C11 UNL     1      27.148  34.514  31.184  1.00  0.00     0.060 C 
HETATM    8  C12 UNL     1      26.518  33.173  31.147  1.00  0.00     0.295 C 
HETATM    9  C13 UNL     1      27.504  32.126  31.345  1.00  0.00     0.092 C 
HETATM   10  N1  UNL     1      28.288  31.276  31.515  1.00  0.00    -0.195 NA
HETATM   11  N2  UNL     1      25.727  32.908  29.979  1.00  0.00    -0.030 N 
ATOM     12  H21 UNL     1      24.903  33.506  29.916  1.00  0.00     0.281 HD
ATOM     13  H22 UNL     1      25.242  32.012  30.025  1.00  0.00     0.281 HD
HETATM   14  C14 UNL     1      26.592  33.020  28.824  1.00  0.00     0.352 C 
HETATM   15  C20 UNL     1      27.199  34.366  28.669  1.00  0.00     0.183 C 
ENDROOT
BRANCH  14  16
HETATM   16  O1  UNL     1      25.792  32.772  27.701  1.00  0.00    -0.352 OA
BRANCH  16  17
HETATM   17  C15 UNL     1      26.132  31.601  27.059  1.00  0.00     0.124 C 
HETATM   18  C16 UNL     1      26.781  31.886  25.717  1.00  0.00     0.032 C 
HETATM   19  C17 UNL     1      25.679  31.978  24.707  1.00  0.00     0.002 C 
HETATM   20  C18 UNL     1      24.388  31.832  25.505  1.00  0.00     0.002 C 
HETATM   21  C19 UNL     1      24.849  30.913  26.628  1.00  0.00     0.032 C 
ENDBRANCH  16  17
ENDBRANCH  14  16
BRANCH  15  22
HETATM   22  O2  UNL     1      28.218  34.255  27.693  1.00  0.00    -0.390 OA
ATOM     23  H2  UNL     1      28.721  33.462  27.837  1.00  0.00     0.210 HD
ENDBRANCH  15  22
BRANCH   1  24
HETATM   24  C2  UNL     1      30.301  38.480  29.863  1.00  0.00    -0.048 C 
HETATM   25  C1  UNL     1      29.495  39.015  31.013  1.00  0.00     0.015 C 
HETATM   26  C3  UNL     1      31.743  38.364  30.304  1.00  0.00     0.015 C 
HETATM   27  C4  UNL     1      30.200  39.474  28.730  1.00  0.00     0.015 C 
ENDBRANCH   1  24
TORSDOF 4
ENDMDL
MODEL 3
REMARK VINA RESULT: -5.735677171      1.660      7.241
REMARK  4 active torsions:
REMARK  status: ('A' for Active; 'I' for Inactive)
REMARK    1  A    between atoms: C2_2  and  C5_5 
REMARK    2  A    between atoms: C14_18  and  O1_19 
REMARK    3  A    between atoms: O1_19  and  C15_20 
REMARK    4  A    between atoms: C20_25  and  O2_26 
ROOT
HETATM    1  C5  UNL     1      30.172  37.288  30.500  1.00  0.00    -0.007 C 
HETATM    2  C6  UNL     1      30.080  36.069  31.351  1.00  0.00     0.006 C 
HETATM    3  C7  UNL     1      29.388  34.960  30.589  1.00  0.00     0.012 C 
HETATM    4  C8  UNL     1      27.901  35.265  30.398  1.00  0.00    -0.007 C 
HETATM    5  C9  UNL     1      27.759  36.775  30.585  1.00  0.00     0.012 C 
HETATM    6  C10 UNL     1      28.838  37.530  29.843  1.00  0.00     0.006 C 
HETATM    7  C11 UNL     1      27.152  34.618  31.511  1.00  0.00     0.060 C 
HETATM    8  C12 UNL     1      26.442  33.364  31.163  1.00  0.00     0.295 C 
HETATM    9  C13 UNL     1      27.333  32.220  31.241  1.00  0.00     0.092 C 
HETATM   10  N1  UNL     1      28.039  31.291  31.311  1.00  0.00    -0.195 NA
HETATM   11  N2  UNL     1      25.757  33.386  29.902  1.00  0.00    -0.030 N 
ATOM     12  H21 UNL     1      24.984  34.052  29.884  1.00  0.00     0.281 HD
ATOM     13  H22 UNL     1      25.212  32.541  29.733  1.00  0.00     0.281 HD
HETATM   14  C14 UNL     1      26.739  33.637  28.869  1.00  0.00     0.352 C 
HETATM   15  C20 UNL     1      27.446  34.934  29.029  1.00  0.00     0.183 C 
ENDROOT
BRANCH  14  16
HETATM   16  O1  UNL     1      26.042  33.669  27.654  1.00  0.00    -0.352 OA
BRANCH  16  17
HETATM   17  C15 UNL     1      25.191  32.595  27.506  1.00  0.00     0.124 C 
HETATM   18  C16 UNL     1      25.970  31.303  27.346  1.00  0.00     0.032 C 
HETATM   19  C17 UNL     1      26.244  31.134  25.883  1.00  0.00     0.002 C 
HETATM   20  C18 UNL     1      25.691  32.391  25.221  1.00  0.00     0.002 C 
HETATM   21  C19 UNL     1      24.524  32.710  26.147  1.00  0.00     0.032 C 
ENDBRANCH  16  17
ENDBRANCH  14  16
BRANCH  15  22
HETATM   22  O2  UNL     1      28.548  34.921  28.141  1.00  0.00    -0.390 OA
ATOM     23  H2  UNL     1      28.278  35.224  27.282  1.00  0.00     0.210 HD
ENDBRANCH  15  22
BRANCH   1  24
HETATM   24  C2  UNL     1      30.674  38.484  31.254  1.00  0.00    -0.048 C 
HETATM   25  C1  UNL     1      30.409  38.402  32.731  1.00  0.00     0.015 C 
HETATM   26  C3  UNL     1      32.167  38.590  31.043  1.00  0.00     0.015 C 
HETATM   27  C4  UNL     1      30.002  39.733  30.736  1.00  0.00     0.015 C 
ENDBRANCH   1  24
TORSDOF 4
ENDMDL
MODEL 4
REMARK VINA RESULT: -5.706953083      6.020      8.627
REMARK  4 active torsions:
REMARK  status: ('A' for Active; 'I' for Inactive)
REMARK    1  A    between atoms: C2_2  and  C5_5 
REMARK    2  A    between atoms: C14_18  and  O1_19 
REMARK    3  A    between atoms: O1_19  and  C15_20 
REMARK    4  A    between atoms: C20_25  and  O2_26 
ROOT
HETATM    1  C5  UNL     1      25.944  26.442  32.858  1.00  0.00    -0.007 C 
HETATM    2  C6  UNL     1      26.153  25.597  31.649  1.00  0.00     0.006 C 
HETATM    3  C7  UNL     1      26.272  26.476  30.423  1.00  0.00     0.012 C 
HETATM    4  C8  UNL     1      24.929  27.118  30.071  1.00  0.00    -0.007 C 
HETATM    5  C9  UNL     1      24.092  27.057  31.348  1.00  0.00     0.012 C 
HETATM    6  C10 UNL     1      24.894  27.480  32.557  1.00  0.00     0.006 C 
HETATM    7  C11 UNL     1      24.252  26.250  29.067  1.00  0.00     0.060 C 
HETATM    8  C12 UNL     1      24.299  26.731  27.666  1.00  0.00     0.295 C 
HETATM    9  C13 UNL     1      25.536  26.333  27.018  1.00  0.00     0.092 C 
HETATM   10  N1  UNL     1      26.523  26.008  26.483  1.00  0.00    -0.195 NA
HETATM   11  N2  UNL     1      24.073  28.139  27.502  1.00  0.00    -0.030 N 
ATOM     12  H21 UNL     1      23.129  28.421  27.768  1.00  0.00     0.281 HD
ATOM     13  H22 UNL     1      24.028  28.421  26.523  1.00  0.00     0.281 HD
HETATM   14  C14 UNL     1      25.098  28.841  28.243  1.00  0.00     0.352 C 
HETATM   15  C20 UNL     1      25.084  28.542  29.699  1.00  0.00     0.183 C 
ENDROOT
BRANCH  14  16
HETATM   16  O1  UNL     1      24.844  30.210  28.078  1.00  0.00    -0.352 OA
BRANCH  16  17
HETATM   17  C15 UNL     1      25.888  30.870  27.470  1.00  0.00     0.124 C 
HETATM   18  C16 UNL     1      25.800  32.366  27.713  1.00  0.00     0.032 C 
HETATM   19  C17 UNL     1      24.956  32.939  26.616  1.00  0.00     0.002 C 
HETATM   20  C18 UNL     1      24.490  31.741  25.797  1.00  0.00     0.002 C 
HETATM   21  C19 UNL     1      25.675  30.801  25.968  1.00  0.00     0.032 C 
ENDBRANCH  16  17
ENDBRANCH  14  16
BRANCH  15  22
HETATM   22  O2  UNL     1      26.285  29.058  30.242  1.00  0.00    -0.390 OA
ATOM     23  H2  UNL     1      26.146  29.327  31.142  1.00  0.00     0.210 HD
ENDBRANCH  15  22
BRANCH   1  24
HETATM   24  C2  UNL     1      25.628  25.633  34.081  1.00  0.00    -0.048 C 
HETATM   25  C1  UNL     1      24.558  26.253  34.936  1.00  0.00     0.015 C 
HETATM   26  C3  UNL     1      25.154  24.266  33.642  1.00  0.00     0.015 C 
HETATM   27  C4  UNL     1      26.868  25.487  34.932  1.00  0.00     0.015 C 
ENDBRANCH   1  24
TORSDOF 4
ENDMDL
MODEL 5
REMARK VINA RESULT: -5.675091310      7.772      9.991
REMARK  4 active torsions:
REMARK  status: ('A' for Active; 'I' for Inactive)
REMARK    1  A    between atoms: C2_2  and  C5_5 
REMARK    2  A    between atoms: C14_18  and  O1_19 
REMARK    3  A    between atoms: O1_19  and  C15_20 
REMARK    4  A    between atoms: C20_25  and  O2_26 
ROOT
HETATM    1  C5  UNL     1      20.955  23.343  30.238  1.00  0.00    -0.007 C 
HETATM    2  C6  UNL     1      22.145  23.093  29.379  1.00  0.00     0.006 C 
HETATM    3  C7  UNL     1      23.275  24.015  29.785  1.00  0.00     0.012 C 
HETATM    4  C8  UNL     1      22.970  25.464  29.403  1.00  0.00    -0.007 C 
HETATM    5  C9  UNL     1      21.454  25.536  29.223  1.00  0.00     0.012 C 
HETATM    6  C10 UNL     1      20.729  24.829  30.344  1.00  0.00     0.006 C 
HETATM    7  C11 UNL     1      23.578  25.727  28.068  1.00  0.00     0.060 C 
HETATM    8  C12 UNL     1      24.839  26.505  28.079  1.00  0.00     0.295 C 
HETATM    9  C13 UNL     1      25.984  25.643  28.311  1.00  0.00     0.092 C 
HETATM   10  N1  UNL     1      26.913  24.956  28.486  1.00  0.00    -0.195 NA
HETATM   11  N2  UNL     1      24.854  27.620  28.984  1.00  0.00    -0.030 N 
ATOM     12  H21 UNL     1      24.186  28.346  28.727  1.00  0.00     0.281 HD
ATOM     13  H22 UNL     1      25.702  28.181  28.905  1.00  0.00     0.281 HD
HETATM   14  C14 UNL     1      24.641  27.108  30.320  1.00  0.00     0.352 C 
HETATM   15  C20 UNL     1      23.343  26.405  30.484  1.00  0.00     0.183 C 
ENDROOT
BRANCH  14  16
HETATM   16  O1  UNL     1      24.646  28.216  31.178  1.00  0.00    -0.352 OA
BRANCH  16  17
HETATM   17  C15 UNL     1      25.908  28.523  31.637  1.00  0.00     0.124 C 
HETATM   18  C16 UNL     1      26.588  27.296  32.216  1.00  0.00     0.032 C 
HETATM   19  C17 UNL     1      26.210  27.226  33.663  1.00  0.00     0.002 C 
HETATM   20  C18 UNL     1      25.233  28.376  33.881  1.00  0.00     0.002 C 
HETATM   21  C19 UNL     1      25.759  29.390  32.874  1.00  0.00     0.032 C 
ENDBRANCH  16  17
ENDBRANCH  14  16
BRANCH  15  22
HETATM   22  O2  UNL     1      23.390  25.724  31.724  1.00  0.00    -0.390 OA
ATOM     23  H2  UNL     1      22.525  25.705  32.117  1.00  0.00     0.210 HD
ENDBRANCH  15  22
BRANCH   1  24
HETATM   24  C2  UNL     1      19.738  22.601  29.772  1.00  0.00    -0.048 C 
HETATM   25  C1  UNL     1      19.299  21.530  30.730  1.00  0.00     0.015 C 
HETATM   26  C3  UNL     1      18.606  23.591  29.612  1.00  0.00     0.015 C 
HETATM   27  C4  UNL     1      20.020  21.940  28.443  1.00  0.00     0.015 C 
ENDBRANCH   1  24
TORSDOF 4
ENDMDL
