MODEL 1
REMARK VINA RESULT: -7.165885553      0.000      0.000
REMARK  11 active torsions:
REMARK  status: ('A' for Active; 'I' for Inactive)
REMARK    1  A    between atoms: C3_4  and  O2_5 
REMARK    2  A    between atoms: O2_5  and  C4_6 
REMARK    3  A    between atoms: C8_12  and  C9_13 
REMARK    4  A    between atoms: C10_19  and  C11_20 
REMARK    5  A    between atoms: C11_20  and  C12_21 
REMARK    6  A    between atoms: C12_21  and  N3_22 
REMARK    7  A    between atoms: N4_26  and  O6_28 
REMARK    8  A    between atoms: O6_28  and  C13_29 
REMARK    9  A    between atoms: C14_32  and  O8_33 
REMARK   10  A    between atoms: C15_35  and  O9_36 
REMARK   11  A    between atoms: C16_38  and  O10_39 
ROOT
HETATM    1  C4  UNL     1     -14.109 -14.587  14.579  1.00  0.00     0.301 C 
HETATM    2  O3  UNL     1     -14.213 -15.973  14.667  1.00  0.00    -0.323 OA
HETATM    3  C5  UNL     1     -12.948 -16.469  14.854  1.00  0.00     0.161 C 
HETATM    4  C6  UNL     1     -12.639 -17.510  13.795  1.00  0.00     0.078 C 
HETATM    5  C7  UNL     1     -12.863 -17.180  16.208  1.00  0.00     0.078 C 
HETATM    6  O4  UNL     1     -12.040 -15.435  14.844  1.00  0.00    -0.339 OA
HETATM    7  C8  UNL     1     -12.781 -14.343  15.249  1.00  0.00     0.234 C 
ENDROOT
BRANCH   7   8
HETATM    8  C9  UNL     1     -12.177 -13.060  14.839  1.00  0.00     0.099 A 
HETATM    9  N1  UNL     1     -12.854 -12.035  14.311  1.00  0.00    -0.241 N 
HETATM   10  O5  UNL     1     -12.055 -11.056  14.052  1.00  0.00    -0.156 OA
ATOM     11  H1  UNL     1     -13.859 -12.028  14.138  1.00  0.00     0.196 HD
HETATM   12  N2  UNL     1     -10.856 -11.403  14.397  1.00  0.00    -0.238 N 
HETATM   13  C10 UNL     1     -10.858 -12.672  14.908  1.00  0.00     0.110 A 
ATOM     14  H2  UNL     1     -10.029 -10.814  14.300  1.00  0.00     0.197 HD
BRANCH  13  15
HETATM   15  C11 UNL     1      -9.715 -13.410  15.405  1.00  0.00     0.088 C 
HETATM   16  N4  UNL     1      -9.271 -14.413  14.756  1.00  0.00    -0.257 N 
ATOM     17  H4  UNL     1      -9.744 -14.672  13.890  1.00  0.00     0.195 HD
BRANCH  15  18
HETATM   18  C12 UNL     1      -9.065 -12.999  16.660  1.00  0.00     0.290 C 
BRANCH  18  19
HETATM   19  N3  UNL     1      -7.947 -12.093  16.426  1.00  0.00    -0.074 N 
ATOM     20  H33 UNL     1      -7.055 -12.557  16.594  1.00  0.00     0.274 HD
ATOM     21  H32 UNL     1      -7.839 -11.890  15.432  1.00  0.00     0.274 HD
ATOM     22  H31 UNL     1      -8.028 -11.237  16.973  1.00  0.00     0.274 HD
ENDBRANCH  18  19
ENDBRANCH  15  18
BRANCH  16  23
HETATM   23  O6  UNL     1      -8.205 -15.159  15.150  1.00  0.00    -0.183 OA
BRANCH  23  24
HETATM   24  C13 UNL     1      -8.191 -16.543  15.221  1.00  0.00     0.394 C 
HETATM   25  N5  UNL     1      -9.240 -17.302  15.786  1.00  0.00    -0.031 NA
HETATM   26  O7  UNL     1      -7.183 -17.135  14.755  1.00  0.00    -0.240 OA
ENDBRANCH  23  24
ENDBRANCH  16  23
ENDBRANCH  13  15
ENDBRANCH   7   8
BRANCH   1  27
HETATM   27  O2  UNL     1     -15.181 -14.034  15.272  1.00  0.00    -0.326 OA
BRANCH  27  28
HETATM   28  C3  UNL     1     -16.012 -13.259  14.498  1.00  0.00     0.294 C 
HETATM   29  O1  UNL     1     -15.397 -12.908  13.276  1.00  0.00    -0.351 OA
HETATM   30  C2  UNL     1     -16.367 -12.197  12.536  1.00  0.00     0.152 C 
HETATM   31  C1  UNL     1     -16.018 -12.153  11.077  1.00  0.00     0.042 C 
HETATM   32  C16 UNL     1     -16.440 -10.823  13.169  1.00  0.00     0.178 C 
HETATM   33  C15 UNL     1     -17.112 -10.996  14.518  1.00  0.00     0.183 C 
HETATM   34  C14 UNL     1     -16.325 -12.002  15.304  1.00  0.00     0.204 C 
BRANCH  32  35
HETATM   35  O10 UNL     1     -15.105 -10.410  13.366  1.00  0.00    -0.390 OA
ATOM     36  H10 UNL     1     -14.741 -10.998  14.018  1.00  0.00     0.210 HD
ENDBRANCH  32  35
BRANCH  33  37
HETATM   37  O9  UNL     1     -17.115  -9.806  15.245  1.00  0.00    -0.390 OA
ATOM     38  H9  UNL     1     -17.991  -9.441  15.190  1.00  0.00     0.210 HD
ENDBRANCH  33  37
BRANCH  34  39
HETATM   39  O8  UNL     1     -15.161 -11.411  15.781  1.00  0.00    -0.388 OA
ATOM     40  H8  UNL     1     -15.008 -10.571  15.363  1.00  0.00     0.210 HD
ENDBRANCH  34  39
ENDBRANCH  27  28
ENDBRANCH   1  27
TORSDOF 11
ENDMDL
MODEL 2
REMARK VINA RESULT: -6.793174428      2.371      6.298
REMARK  11 active torsions:
REMARK  status: ('A' for Active; 'I' for Inactive)
REMARK    1  A    between atoms: C3_4  and  O2_5 
REMARK    2  A    between atoms: O2_5  and  C4_6 
REMARK    3  A    between atoms: C8_12  and  C9_13 
REMARK    4  A    between atoms: C10_19  and  C11_20 
REMARK    5  A    between atoms: C11_20  and  C12_21 
REMARK    6  A    between atoms: C12_21  and  N3_22 
REMARK    7  A    between atoms: N4_26  and  O6_28 
REMARK    8  A    between atoms: O6_28  and  C13_29 
REMARK    9  A    between atoms: C14_32  and  O8_33 
REMARK   10  A    between atoms: C15_35  and  O9_36 
REMARK   11  A    between atoms: C16_38  and  O10_39 
ROOT
HETATM    1  C4  UNL     1     -14.080 -16.348  15.559  1.00  0.00     0.301 C 
HETATM    2  O3  UNL     1     -13.729 -17.677  15.332  1.00  0.00    -0.323 OA
HETATM    3  C5  UNL     1     -14.758 -18.261  14.639  1.00  0.00     0.161 C 
HETATM    4  C6  UNL     1     -15.234 -19.502  15.368  1.00  0.00     0.078 C 
HETATM    5  C7  UNL     1     -14.264 -18.720  13.264  1.00  0.00     0.078 C 
HETATM    6  O4  UNL     1     -15.772 -17.347  14.458  1.00  0.00    -0.339 OA
HETATM    7  C8  UNL     1     -15.124 -16.128  14.494  1.00  0.00     0.234 C 
ENDROOT
BRANCH   7   8
HETATM    8  C9  UNL     1     -16.030 -15.010  14.825  1.00  0.00     0.099 A 
HETATM    9  N1  UNL     1     -17.173 -15.133  15.508  1.00  0.00    -0.241 N 
HETATM   10  O5  UNL     1     -17.746 -13.985  15.635  1.00  0.00    -0.156 OA
ATOM     11  H1  UNL     1     -17.539 -16.011  15.877  1.00  0.00     0.196 HD
HETATM   12  N2  UNL     1     -17.011 -13.093  15.050  1.00  0.00    -0.238 N 
HETATM   13  C10 UNL     1     -15.897 -13.677  14.510  1.00  0.00     0.110 A 
ATOM     14  H2  UNL     1     -17.231 -12.099  15.000  1.00  0.00     0.197 HD
BRANCH  13  15
HETATM   15  C11 UNL     1     -14.835 -13.012  13.782  1.00  0.00     0.088 C 
HETATM   16  N4  UNL     1     -13.618 -13.278  14.045  1.00  0.00    -0.257 N 
ATOM     17  H4  UNL     1     -13.423 -13.964  14.775  1.00  0.00     0.195 HD
BRANCH  15  18
HETATM   18  C12 UNL     1     -15.166 -12.031  12.737  1.00  0.00     0.290 C 
BRANCH  18  19
HETATM   19  N3  UNL     1     -14.918 -10.662  13.174  1.00  0.00    -0.074 N 
ATOM     20  H33 UNL     1     -15.044 -10.567  14.181  1.00  0.00     0.274 HD
ATOM     21  H32 UNL     1     -13.926 -10.429  13.113  1.00  0.00     0.274 HD
ATOM     22  H31 UNL     1     -15.489  -9.989  12.664  1.00  0.00     0.274 HD
ENDBRANCH  18  19
ENDBRANCH  15  18
BRANCH  16  23
HETATM   23  O6  UNL     1     -12.562 -12.703  13.411  1.00  0.00    -0.183 OA
BRANCH  23  24
HETATM   24  C13 UNL     1     -11.590 -11.933  14.030  1.00  0.00     0.394 C 
HETATM   25  N5  UNL     1     -10.311 -12.427  14.373  1.00  0.00    -0.031 NA
HETATM   26  O7  UNL     1     -11.880 -10.737  14.291  1.00  0.00    -0.240 OA
ENDBRANCH  23  24
ENDBRANCH  16  23
ENDBRANCH  13  15
ENDBRANCH   7   8
BRANCH   1  27
HETATM   27  O2  UNL     1     -12.942 -15.570  15.378  1.00  0.00    -0.326 OA
BRANCH  27  28
HETATM   28  C3  UNL     1     -11.768 -16.286  15.356  1.00  0.00     0.294 C 
HETATM   29  O1  UNL     1     -10.740 -15.608  16.046  1.00  0.00    -0.351 OA
HETATM   30  C2  UNL     1      -9.621 -16.471  16.034  1.00  0.00     0.152 C 
HETATM   31  C1  UNL     1      -8.625 -16.088  17.088  1.00  0.00     0.042 C 
HETATM   32  C16 UNL     1      -9.058 -16.393  14.630  1.00  0.00     0.178 C 
HETATM   33  C15 UNL     1     -10.040 -17.109  13.723  1.00  0.00     0.183 C 
HETATM   34  C14 UNL     1     -11.384 -16.465  13.891  1.00  0.00     0.204 C 
BRANCH  32  35
HETATM   35  O10 UNL     1      -9.031 -15.023  14.293  1.00  0.00    -0.390 OA
ATOM     36  H10 UNL     1      -8.817 -14.983  13.368  1.00  0.00     0.210 HD
ENDBRANCH  32  35
BRANCH  33  37
HETATM   37  O9  UNL     1      -9.682 -16.987  12.381  1.00  0.00    -0.390 OA
ATOM     38  H9  UNL     1      -8.735 -16.914  12.344  1.00  0.00     0.210 HD
ENDBRANCH  33  37
BRANCH  34  39
HETATM   39  O8  UNL     1     -11.403 -15.249  13.216  1.00  0.00    -0.388 OA
ATOM     40  H8  UNL     1     -11.498 -15.379  12.280  1.00  0.00     0.210 HD
ENDBRANCH  34  39
ENDBRANCH  27  28
ENDBRANCH   1  27
TORSDOF 11
ENDMDL
MODEL 3
REMARK VINA RESULT: -6.738072563      1.885      3.530
REMARK  11 active torsions:
REMARK  status: ('A' for Active; 'I' for Inactive)
REMARK    1  A    between atoms: C3_4  and  O2_5 
REMARK    2  A    between atoms: O2_5  and  C4_6 
REMARK    3  A    between atoms: C8_12  and  C9_13 
REMARK    4  A    between atoms: C10_19  and  C11_20 
REMARK    5  A    between atoms: C11_20  and  C12_21 
REMARK    6  A    between atoms: C12_21  and  N3_22 
REMARK    7  A    between atoms: N4_26  and  O6_28 
REMARK    8  A    between atoms: O6_28  and  C13_29 
REMARK    9  A    between atoms: C14_32  and  O8_33 
REMARK   10  A    between atoms: C15_35  and  O9_36 
REMARK   11  A    between atoms: C16_38  and  O10_39 
ROOT
HETATM    1  C4  UNL     1     -14.419 -16.019  14.367  1.00  0.00     0.301 C 
HETATM    2  O3  UNL     1     -15.538 -16.489  15.051  1.00  0.00    -0.323 OA
HETATM    3  C5  UNL     1     -15.254 -17.760  15.481  1.00  0.00     0.161 C 
HETATM    4  C6  UNL     1     -16.323 -18.721  14.998  1.00  0.00     0.078 C 
HETATM    5  C7  UNL     1     -15.277 -17.809  17.012  1.00  0.00     0.078 C 
HETATM    6  O4  UNL     1     -13.998 -18.124  15.050  1.00  0.00    -0.339 OA
HETATM    7  C8  UNL     1     -13.338 -16.920  14.908  1.00  0.00     0.234 C 
ENDROOT
BRANCH   7   8
HETATM    8  C9  UNL     1     -12.178 -17.008  13.998  1.00  0.00     0.099 A 
HETATM    9  N1  UNL     1     -11.979 -17.990  13.113  1.00  0.00    -0.241 N 
HETATM   10  O5  UNL     1     -10.880 -17.795  12.467  1.00  0.00    -0.156 OA
ATOM     11  H1  UNL     1     -12.607 -18.781  12.970  1.00  0.00     0.196 HD
HETATM   12  N2  UNL     1     -10.338 -16.701  12.900  1.00  0.00    -0.238 N 
HETATM   13  C10 UNL     1     -11.114 -16.144  13.880  1.00  0.00     0.110 A 
ATOM     14  H2  UNL     1      -9.459 -16.312  12.560  1.00  0.00     0.197 HD
BRANCH  13  15
HETATM   15  C11 UNL     1     -10.848 -14.918  14.606  1.00  0.00     0.088 C 
HETATM   16  N4  UNL     1     -11.548 -13.878  14.382  1.00  0.00    -0.257 N 
ATOM     17  H4  UNL     1     -12.289 -13.941  13.684  1.00  0.00     0.195 HD
BRANCH  15  18
HETATM   18  C12 UNL     1      -9.768 -14.877  15.605  1.00  0.00     0.290 C 
BRANCH  18  19
HETATM   19  N3  UNL     1      -8.643 -14.063  15.161  1.00  0.00    -0.074 N 
ATOM     20  H33 UNL     1      -8.848 -13.601  14.275  1.00  0.00     0.274 HD
ATOM     21  H32 UNL     1      -8.529 -13.238  15.750  1.00  0.00     0.274 HD
ATOM     22  H31 UNL     1      -7.779 -14.601  15.106  1.00  0.00     0.274 HD
ENDBRANCH  18  19
ENDBRANCH  15  18
BRANCH  16  23
HETATM   23  O6  UNL     1     -11.367 -12.690  15.017  1.00  0.00    -0.183 OA
BRANCH  23  24
HETATM   24  C13 UNL     1     -10.992 -11.509  14.396  1.00  0.00     0.394 C 
HETATM   25  N5  UNL     1      -9.710 -11.297  13.843  1.00  0.00    -0.031 NA
HETATM   26  O7  UNL     1     -11.852 -10.592  14.333  1.00  0.00    -0.240 OA
ENDBRANCH  23  24
ENDBRANCH  16  23
ENDBRANCH  13  15
ENDBRANCH   7   8
BRANCH   1  27
HETATM   27  O2  UNL     1     -14.241 -14.683  14.709  1.00  0.00    -0.326 OA
BRANCH  27  28
HETATM   28  C3  UNL     1     -15.215 -13.843  14.224  1.00  0.00     0.294 C 
HETATM   29  O1  UNL     1     -14.848 -13.300  12.973  1.00  0.00    -0.351 OA
HETATM   30  C2  UNL     1     -15.951 -12.534  12.537  1.00  0.00     0.152 C 
HETATM   31  C1  UNL     1     -15.885 -12.272  11.061  1.00  0.00     0.042 C 
HETATM   32  C16 UNL     1     -15.924 -11.266  13.365  1.00  0.00     0.178 C 
HETATM   33  C15 UNL     1     -16.326 -11.654  14.775  1.00  0.00     0.183 C 
HETATM   34  C14 UNL     1     -15.389 -12.726  15.247  1.00  0.00     0.204 C 
BRANCH  32  35
HETATM   35  O10 UNL     1     -14.583 -10.829  13.369  1.00  0.00    -0.390 OA
ATOM     36  H10 UNL     1     -14.598  -9.927  13.069  1.00  0.00     0.210 HD
ENDBRANCH  32  35
BRANCH  33  37
HETATM   37  O9  UNL     1     -16.209 -10.579  15.655  1.00  0.00    -0.390 OA
ATOM     38  H9  UNL     1     -16.316  -9.782  15.148  1.00  0.00     0.210 HD
ENDBRANCH  33  37
BRANCH  34  39
HETATM   39  O8  UNL     1     -14.165 -12.158  15.581  1.00  0.00    -0.388 OA
ATOM     40  H8  UNL     1     -14.007 -11.367  15.081  1.00  0.00     0.210 HD
ENDBRANCH  34  39
ENDBRANCH  27  28
ENDBRANCH   1  27
TORSDOF 11
ENDMDL
MODEL 4
REMARK VINA RESULT: -6.639857810      2.484      6.061
REMARK  11 active torsions:
REMARK  status: ('A' for Active; 'I' for Inactive)
REMARK    1  A    between atoms: C3_4  and  O2_5 
REMARK    2  A    between atoms: O2_5  and  C4_6 
REMARK    3  A    between atoms: C8_12  and  C9_13 
REMARK    4  A    between atoms: C10_19  and  C11_20 
REMARK    5  A    between atoms: C11_20  and  C12_21 
REMARK    6  A    between atoms: C12_21  and  N3_22 
REMARK    7  A    between atoms: N4_26  and  O6_28 
REMARK    8  A    between atoms: O6_28  and  C13_29 
REMARK    9  A    between atoms: C14_32  and  O8_33 
REMARK   10  A    between atoms: C15_35  and  O9_36 
REMARK   11  A    between atoms: C16_38  and  O10_39 
ROOT
HETATM    1  C4  UNL     1     -14.817 -16.734  14.675  1.00  0.00     0.301 C 
HETATM    2  O3  UNL     1     -15.365 -17.813  13.985  1.00  0.00    -0.323 OA
HETATM    3  C5  UNL     1     -16.719 -17.608  13.910  1.00  0.00     0.161 C 
HETATM    4  C6  UNL     1     -17.456 -18.811  14.466  1.00  0.00     0.078 C 
HETATM    5  C7  UNL     1     -17.144 -17.470  12.444  1.00  0.00     0.078 C 
HETATM    6  O4  UNL     1     -17.048 -16.447  14.572  1.00  0.00    -0.339 OA
HETATM    7  C8  UNL     1     -15.894 -15.693  14.506  1.00  0.00     0.234 C 
ENDROOT
BRANCH   7   8
HETATM    8  C9  UNL     1     -15.832 -14.652  15.551  1.00  0.00     0.099 A 
HETATM    9  N1  UNL     1     -16.569 -14.649  16.667  1.00  0.00    -0.241 N 
HETATM   10  O5  UNL     1     -16.296 -13.611  17.382  1.00  0.00    -0.156 OA
ATOM     11  H1  UNL     1     -17.250 -15.367  16.916  1.00  0.00     0.196 HD
HETATM   12  N2  UNL     1     -15.390 -12.918  16.769  1.00  0.00    -0.238 N 
HETATM   13  C10 UNL     1     -15.045 -13.523  15.592  1.00  0.00     0.110 A 
ATOM     14  H2  UNL     1     -14.992 -12.045  17.115  1.00  0.00     0.197 HD
BRANCH  13  15
HETATM   15  C11 UNL     1     -14.067 -13.058  14.630  1.00  0.00     0.088 C 
HETATM   16  N4  UNL     1     -12.824 -13.242  14.844  1.00  0.00    -0.257 N 
ATOM     17  H4  UNL     1     -12.550 -13.720  15.702  1.00  0.00     0.195 HD
BRANCH  15  18
HETATM   18  C12 UNL     1     -14.510 -12.373  13.406  1.00  0.00     0.290 C 
BRANCH  18  19
HETATM   19  N3  UNL     1     -14.405 -10.924  13.521  1.00  0.00    -0.074 N 
ATOM     20  H33 UNL     1     -14.158 -10.645  14.470  1.00  0.00     0.274 HD
ATOM     21  H32 UNL     1     -13.583 -10.572  13.030  1.00  0.00     0.274 HD
ATOM     22  H31 UNL     1     -15.254 -10.453  13.207  1.00  0.00     0.274 HD
ENDBRANCH  18  19
ENDBRANCH  15  18
BRANCH  16  23
HETATM   23  O6  UNL     1     -11.841 -12.839  13.995  1.00  0.00    -0.183 OA
BRANCH  23  24
HETATM   24  C13 UNL     1     -10.967 -11.791  14.237  1.00  0.00     0.394 C 
HETATM   25  N5  UNL     1      -9.570 -11.960  14.363  1.00  0.00    -0.031 NA
HETATM   26  O7  UNL     1     -11.462 -10.639  14.347  1.00  0.00    -0.240 OA
ENDBRANCH  23  24
ENDBRANCH  16  23
ENDBRANCH  13  15
ENDBRANCH   7   8
BRANCH   1  27
HETATM   27  O2  UNL     1     -13.622 -16.391  14.050  1.00  0.00    -0.326 OA
BRANCH  27  28
HETATM   28  C3  UNL     1     -12.497 -16.799  14.726  1.00  0.00     0.294 C 
HETATM   29  O1  UNL     1     -12.272 -16.009  15.874  1.00  0.00    -0.351 OA
HETATM   30  C2  UNL     1     -11.154 -16.572  16.529  1.00  0.00     0.152 C 
HETATM   31  C1  UNL     1     -11.077 -16.126  17.960  1.00  0.00     0.042 C 
HETATM   32  C16 UNL     1      -9.948 -16.156  15.713  1.00  0.00     0.178 C 
HETATM   33  C15 UNL     1     -10.004 -16.941  14.416  1.00  0.00     0.183 C 
HETATM   34  C14 UNL     1     -11.324 -16.663  13.761  1.00  0.00     0.204 C 
BRANCH  32  35
HETATM   35  O10 UNL     1     -10.118 -14.784  15.432  1.00  0.00    -0.390 OA
ATOM     36  H10 UNL     1      -9.669 -14.315  16.126  1.00  0.00     0.210 HD
ENDBRANCH  32  35
BRANCH  33  37
HETATM   37  O9  UNL     1      -9.004 -16.539  13.531  1.00  0.00    -0.390 OA
ATOM     38  H9  UNL     1      -8.386 -16.009  14.021  1.00  0.00     0.210 HD
ENDBRANCH  33  37
BRANCH  34  39
HETATM   39  O8  UNL     1     -11.297 -15.400  13.181  1.00  0.00    -0.388 OA
ATOM     40  H8  UNL     1     -10.767 -15.396  12.393  1.00  0.00     0.210 HD
ENDBRANCH  34  39
ENDBRANCH  27  28
ENDBRANCH   1  27
TORSDOF 11
ENDMDL
MODEL 5
REMARK VINA RESULT: -6.614915993      1.364      1.822
REMARK  11 active torsions:
REMARK  status: ('A' for Active; 'I' for Inactive)
REMARK    1  A    between atoms: C3_4  and  O2_5 
REMARK    2  A    between atoms: O2_5  and  C4_6 
REMARK    3  A    between atoms: C8_12  and  C9_13 
REMARK    4  A    between atoms: C10_19  and  C11_20 
REMARK    5  A    between atoms: C11_20  and  C12_21 
REMARK    6  A    between atoms: C12_21  and  N3_22 
REMARK    7  A    between atoms: N4_26  and  O6_28 
REMARK    8  A    between atoms: O6_28  and  C13_29 
REMARK    9  A    between atoms: C14_32  and  O8_33 
REMARK   10  A    between atoms: C15_35  and  O9_36 
REMARK   11  A    between atoms: C16_38  and  O10_39 
ROOT
HETATM    1  C4  UNL     1     -13.567 -14.682  14.414  1.00  0.00     0.301 C 
HETATM    2  O3  UNL     1     -13.580 -16.075  14.396  1.00  0.00    -0.323 OA
HETATM    3  C5  UNL     1     -12.280 -16.499  14.502  1.00  0.00     0.161 C 
HETATM    4  C6  UNL     1     -11.945 -17.433  13.355  1.00  0.00     0.078 C 
HETATM    5  C7  UNL     1     -12.099 -17.304  15.793  1.00  0.00     0.078 C 
HETATM    6  O4  UNL     1     -11.440 -15.409  14.544  1.00  0.00    -0.339 OA
HETATM    7  C8  UNL     1     -12.233 -14.403  15.058  1.00  0.00     0.234 C 
ENDROOT
BRANCH   7   8
HETATM    8  C9  UNL     1     -11.728 -13.055  14.731  1.00  0.00     0.099 A 
HETATM    9  N1  UNL     1     -12.419 -12.125  14.063  1.00  0.00    -0.241 N 
HETATM   10  O5  UNL     1     -11.713 -11.054  13.927  1.00  0.00    -0.156 OA
ATOM     11  H1  UNL     1     -13.368 -12.247  13.710  1.00  0.00     0.196 HD
HETATM   12  N2  UNL     1     -10.564 -11.246  14.492  1.00  0.00    -0.238 N 
HETATM   13  C10 UNL     1     -10.503 -12.503  15.027  1.00  0.00     0.110 A 
ATOM     14  H2  UNL     1      -9.812 -10.557  14.531  1.00  0.00     0.197 HD
BRANCH  13  15
HETATM   15  C11 UNL     1      -9.387 -13.089  15.742  1.00  0.00     0.088 C 
HETATM   16  N4  UNL     1      -9.252 -12.886  16.993  1.00  0.00    -0.257 N 
ATOM     17  H4  UNL     1      -9.947 -12.305  17.462  1.00  0.00     0.195 HD
BRANCH  15  18
HETATM   18  C12 UNL     1      -8.410 -13.921  15.022  1.00  0.00     0.290 C 
BRANCH  18  19
HETATM   19  N3  UNL     1      -8.607 -15.342  15.277  1.00  0.00    -0.074 N 
ATOM     20  H33 UNL     1      -8.832 -15.514  16.257  1.00  0.00     0.274 HD
ATOM     21  H32 UNL     1      -9.472 -15.677  14.853  1.00  0.00     0.274 HD
ATOM     22  H31 UNL     1      -7.807 -15.899  14.978  1.00  0.00     0.274 HD
ENDBRANCH  18  19
ENDBRANCH  15  18
BRANCH  16  23
HETATM   23  O6  UNL     1      -8.238 -13.398  17.739  1.00  0.00    -0.183 OA
BRANCH  23  24
HETATM   24  C13 UNL     1      -8.383 -14.381  18.705  1.00  0.00     0.394 C 
HETATM   25  N5  UNL     1      -8.550 -14.100  20.080  1.00  0.00    -0.031 NA
HETATM   26  O7  UNL     1      -8.361 -15.578  18.318  1.00  0.00    -0.240 OA
ENDBRANCH  23  24
ENDBRANCH  16  23
ENDBRANCH  13  15
ENDBRANCH   7   8
BRANCH   1  27
HETATM   27  O2  UNL     1     -14.646 -14.257  15.183  1.00  0.00    -0.326 OA
BRANCH  27  28
HETATM   28  C3  UNL     1     -15.562 -13.497  14.495  1.00  0.00     0.294 C 
HETATM   29  O1  UNL     1     -15.049 -13.076  13.249  1.00  0.00    -0.351 OA
HETATM   30  C2  UNL     1     -16.099 -12.388  12.602  1.00  0.00     0.152 C 
HETATM   31  C1  UNL     1     -15.852 -12.278  11.126  1.00  0.00     0.042 C 
HETATM   32  C16 UNL     1     -16.192 -11.041  13.289  1.00  0.00     0.178 C 
HETATM   33  C15 UNL     1     -16.762 -11.293  14.671  1.00  0.00     0.183 C 
HETATM   34  C14 UNL     1     -15.878 -12.286  15.366  1.00  0.00     0.204 C 
BRANCH  32  35
HETATM   35  O10 UNL     1     -14.868 -10.571  13.412  1.00  0.00    -0.390 OA
ATOM     36  H10 UNL     1     -14.758 -10.327  14.324  1.00  0.00     0.210 HD
ENDBRANCH  32  35
BRANCH  33  37
HETATM   37  O9  UNL     1     -16.772 -10.130  15.441  1.00  0.00    -0.390 OA
ATOM     38  H9  UNL     1     -16.847 -10.391  16.352  1.00  0.00     0.210 HD
ENDBRANCH  33  37
BRANCH  34  39
HETATM   39  O8  UNL     1     -14.713 -11.654  15.787  1.00  0.00    -0.388 OA
ATOM     40  H8  UNL     1     -13.949 -12.185  15.597  1.00  0.00     0.210 HD
ENDBRANCH  34  39
ENDBRANCH  27  28
ENDBRANCH   1  27
TORSDOF 11
ENDMDL
