MODEL 1
REMARK VINA RESULT: -8.288609927      0.000      0.000
REMARK  9 active torsions:
REMARK  status: ('A' for Active; 'I' for Inactive)
REMARK    1  A    between atoms: C1_2  and  C2_4 
REMARK    2  A    between atoms: C2_4  and  C3_5 
REMARK    3  A    between atoms: C3_5  and  C4_6 
REMARK    4  A    between atoms: C4_6  and  N1_7 
REMARK    5  A    between atoms: C4_6  and  C15_22 
REMARK       I    between atoms: N1_7  and  C5_9 
REMARK    6  A    between atoms: C5_9  and  C6_11 
REMARK    7  A    between atoms: C8_13  and  N2_14 
REMARK       I    between atoms: C15_22  and  N3_24 
REMARK       I    between atoms: N4_27  and  C18_28 
REMARK    8  A    between atoms: C18_28  and  C19_30 
REMARK    9  A    between atoms: C19_30  and  C20_32 
ROOT
HETATM    1  C4  UNL     1       8.082  22.551  18.345  1.00  0.00     0.177 C 
ENDROOT
BRANCH   1   2
HETATM    2  C3  UNL     1       7.842  22.639  16.824  1.00  0.00     0.045 C 
BRANCH   2   3
HETATM    3  C2  UNL     1       6.669  21.736  16.492  1.00  0.00     0.116 C 
BRANCH   3   4
HETATM    4  C1  UNL     1       7.125  20.755  15.474  1.00  0.00     0.172 C 
HETATM    5  O1  UNL     1       7.365  21.125  14.277  1.00  0.00    -0.648 OA
HETATM    6  O2  UNL     1       7.304  19.419  15.778  1.00  0.00    -0.648 OA
ENDBRANCH   3   4
ENDBRANCH   2   3
ENDBRANCH   1   2
BRANCH   1   7
HETATM    7  N1  UNL     1       6.882  21.802  18.795  1.00  0.00    -0.342 N 
HETATM    8  C5  UNL     1       6.017  22.439  19.704  1.00  0.00     0.276 C 
HETATM    9  O3  UNL     1       6.265  23.594  20.108  1.00  0.00    -0.265 OA
ATOM     10  H1  UNL     1       6.690  20.859  18.458  1.00  0.00     0.163 HD
BRANCH   8  11
HETATM   11  C6  UNL     1       4.833  21.733  20.166  1.00  0.00     0.144 A 
HETATM   12  C7  UNL     1       4.379  21.620  21.472  1.00  0.00     0.074 A 
HETATM   13  C8  UNL     1       3.225  20.869  21.461  1.00  0.00     0.055 A 
HETATM   14  C14 UNL     1       3.015  20.548  20.138  1.00  0.00     0.172 A 
HETATM   15  O4  UNL     1       3.978  21.072  19.403  1.00  0.00    -0.315 OA
BRANCH  13  16
HETATM   16  N2  UNL     1       2.403  20.490  22.580  1.00  0.00    -0.379 N 
HETATM   17  C9  UNL     1       2.964  20.200  23.872  1.00  0.00     0.123 C 
HETATM   18  C10 UNL     1       2.379  19.004  24.547  1.00  0.00     0.020 C 
HETATM   19  C11 UNL     1       0.938  18.757  24.244  1.00  0.00     0.003 C 
HETATM   20  C12 UNL     1       0.615  18.934  22.792  1.00  0.00     0.020 C 
HETATM   21  C13 UNL     1       0.963  20.386  22.439  1.00  0.00     0.123 C 
ENDBRANCH  13  16
ENDBRANCH   8  11
ENDBRANCH   1   7
BRANCH   1  22
HETATM   22  C15 UNL     1       9.271  21.739  18.628  1.00  0.00     0.242 C 
HETATM   23  O5  UNL     1       9.711  20.960  17.738  1.00  0.00    -0.271 OA
HETATM   24  N3  UNL     1       9.936  21.800  19.863  1.00  0.00    -0.347 N 
HETATM   25  C16 UNL     1       9.518  22.607  20.982  1.00  0.00     0.145 C 
HETATM   26  C26 UNL     1      11.156  20.984  20.047  1.00  0.00     0.145 C 
HETATM   27  C17 UNL     1      10.681  23.563  21.274  1.00  0.00     0.146 C 
HETATM   28  N4  UNL     1      11.784  22.702  21.646  1.00  0.00    -0.343 N 
HETATM   29  C18 UNL     1      12.385  22.587  22.896  1.00  0.00     0.290 C 
HETATM   30  C25 UNL     1      12.305  21.837  20.545  1.00  0.00     0.146 C 
HETATM   31  O6  UNL     1      13.374  21.757  22.982  1.00  0.00    -0.264 OA
BRANCH  29  32
HETATM   32  C19 UNL     1      12.050  23.274  24.118  1.00  0.00     0.222 C 
HETATM   33  O7  UNL     1      12.437  24.442  24.328  1.00  0.00    -0.287 OA
BRANCH  32  34
HETATM   34  C20 UNL     1      11.220  22.579  25.167  1.00  0.00     0.091 C 
HETATM   35  C21 UNL     1      12.161  21.926  26.147  1.00  0.00     0.016 C 
HETATM   36  C22 UNL     1      11.447  21.248  27.268  1.00  0.00     0.028 C 
HETATM   37  C23 UNL     1      10.207  20.566  26.691  1.00  0.00     0.232 C 
HETATM   38  N5  UNL     1      10.413  20.287  25.288  1.00  0.00    -0.074 N 
HETATM   39  C24 UNL     1      10.339  21.523  24.504  1.00  0.00     0.244 C 
ATOM     40  H52 UNL     1      11.287  19.786  25.125  1.00  0.00     0.277 HD
ATOM     41  H51 UNL     1       9.766  19.579  24.942  1.00  0.00     0.277 HD
ENDBRANCH  32  34
ENDBRANCH  29  32
ENDBRANCH   1  22
TORSDOF 9
ENDMDL
MODEL 2
REMARK VINA RESULT: -8.263256166      4.914     10.260
REMARK  9 active torsions:
REMARK  status: ('A' for Active; 'I' for Inactive)
REMARK    1  A    between atoms: C1_2  and  C2_4 
REMARK    2  A    between atoms: C2_4  and  C3_5 
REMARK    3  A    between atoms: C3_5  and  C4_6 
REMARK    4  A    between atoms: C4_6  and  N1_7 
REMARK    5  A    between atoms: C4_6  and  C15_22 
REMARK       I    between atoms: N1_7  and  C5_9 
REMARK    6  A    between atoms: C5_9  and  C6_11 
REMARK    7  A    between atoms: C8_13  and  N2_14 
REMARK       I    between atoms: C15_22  and  N3_24 
REMARK       I    between atoms: N4_27  and  C18_28 
REMARK    8  A    between atoms: C18_28  and  C19_30 
REMARK    9  A    between atoms: C19_30  and  C20_32 
ROOT
HETATM    1  C4  UNL     1       2.887  20.821  22.349  1.00  0.00     0.177 C 
ENDROOT
BRANCH   1   2
HETATM    2  C3  UNL     1       2.745  22.309  22.729  1.00  0.00     0.045 C 
BRANCH   2   3
HETATM    3  C2  UNL     1       1.382  22.489  23.371  1.00  0.00     0.116 C 
BRANCH   3   4
HETATM    4  C1  UNL     1       1.591  23.043  24.733  1.00  0.00     0.172 C 
HETATM    5  O1  UNL     1       0.756  23.865  25.236  1.00  0.00    -0.648 OA
HETATM    6  O2  UNL     1       2.685  22.694  25.502  1.00  0.00    -0.648 OA
ENDBRANCH   3   4
ENDBRANCH   2   3
ENDBRANCH   1   2
BRANCH   1   7
HETATM    7  N1  UNL     1       3.797  20.894  21.179  1.00  0.00    -0.342 N 
HETATM    8  C5  UNL     1       3.253  20.627  19.909  1.00  0.00     0.276 C 
HETATM    9  O3  UNL     1       2.044  20.340  19.789  1.00  0.00    -0.265 OA
ATOM     10  H1  UNL     1       4.783  21.130  21.291  1.00  0.00     0.163 HD
BRANCH   8  11
HETATM   11  C6  UNL     1       4.118  20.690  18.742  1.00  0.00     0.144 A 
HETATM   12  C7  UNL     1       5.344  21.331  18.641  1.00  0.00     0.074 A 
HETATM   13  C8  UNL     1       5.822  21.142  17.363  1.00  0.00     0.055 A 
HETATM   14  C14 UNL     1       4.862  20.386  16.726  1.00  0.00     0.172 A 
HETATM   15  O4  UNL     1       3.873  20.137  17.566  1.00  0.00    -0.315 OA
BRANCH  13  16
HETATM   16  N2  UNL     1       7.055  21.621  16.797  1.00  0.00    -0.379 N 
HETATM   17  C9  UNL     1       8.108  22.160  17.616  1.00  0.00     0.123 C 
HETATM   18  C10 UNL     1       8.747  23.393  17.070  1.00  0.00     0.020 C 
HETATM   19  C11 UNL     1       8.797  23.465  15.579  1.00  0.00     0.003 C 
HETATM   20  C12 UNL     1       7.514  23.034  14.938  1.00  0.00     0.020 C 
HETATM   21  C13 UNL     1       7.278  21.579  15.365  1.00  0.00     0.123 C 
ENDBRANCH  13  16
ENDBRANCH   8  11
ENDBRANCH   1   7
BRANCH   1  22
HETATM   22  C15 UNL     1       3.564  20.082  23.421  1.00  0.00     0.242 C 
HETATM   23  O5  UNL     1       4.815  20.193  23.550  1.00  0.00    -0.271 OA
HETATM   24  N3  UNL     1       2.863  19.252  24.311  1.00  0.00    -0.347 N 
HETATM   25  C16 UNL     1       1.446  18.997  24.252  1.00  0.00     0.145 C 
HETATM   26  C26 UNL     1       3.617  18.583  25.393  1.00  0.00     0.145 C 
HETATM   27  C17 UNL     1       0.871  19.479  25.590  1.00  0.00     0.146 C 
HETATM   28  N4  UNL     1       1.503  18.641  26.587  1.00  0.00    -0.343 N 
HETATM   29  C18 UNL     1       0.899  17.676  27.389  1.00  0.00     0.290 C 
HETATM   30  C25 UNL     1       2.974  18.845  26.740  1.00  0.00     0.146 C 
HETATM   31  O6  UNL     1       1.671  17.063  28.226  1.00  0.00    -0.264 OA
BRANCH  29  32
HETATM   32  C19 UNL     1      -0.482  17.266  27.411  1.00  0.00     0.222 C 
HETATM   33  O7  UNL     1      -1.351  17.954  27.986  1.00  0.00    -0.287 OA
BRANCH  32  34
HETATM   34  C20 UNL     1      -0.896  15.985  26.732  1.00  0.00     0.091 C 
HETATM   35  C21 UNL     1      -0.613  14.846  27.677  1.00  0.00     0.016 C 
HETATM   36  C22 UNL     1      -1.035  13.523  27.130  1.00  0.00     0.028 C 
HETATM   37  C23 UNL     1      -0.694  13.501  25.640  1.00  0.00     0.232 C 
HETATM   38  N5  UNL     1       0.385  14.425  25.374  1.00  0.00    -0.074 N 
HETATM   39  C24 UNL     1      -0.097  15.808  25.444  1.00  0.00     0.244 C 
ATOM     40  H52 UNL     1       1.180  14.268  25.993  1.00  0.00     0.277 HD
ATOM     41  H51 UNL     1       0.843  14.227  24.484  1.00  0.00     0.277 HD
ENDBRANCH  32  34
ENDBRANCH  29  32
ENDBRANCH   1  22
TORSDOF 9
ENDMDL
MODEL 3
REMARK VINA RESULT: -8.138852814      0.707      1.033
REMARK  9 active torsions:
REMARK  status: ('A' for Active; 'I' for Inactive)
REMARK    1  A    between atoms: C1_2  and  C2_4 
REMARK    2  A    between atoms: C2_4  and  C3_5 
REMARK    3  A    between atoms: C3_5  and  C4_6 
REMARK    4  A    between atoms: C4_6  and  N1_7 
REMARK    5  A    between atoms: C4_6  and  C15_22 
REMARK       I    between atoms: N1_7  and  C5_9 
REMARK    6  A    between atoms: C5_9  and  C6_11 
REMARK    7  A    between atoms: C8_13  and  N2_14 
REMARK       I    between atoms: C15_22  and  N3_24 
REMARK       I    between atoms: N4_27  and  C18_28 
REMARK    8  A    between atoms: C18_28  and  C19_30 
REMARK    9  A    between atoms: C19_30  and  C20_32 
ROOT
HETATM    1  C4  UNL     1       8.093  22.599  18.156  1.00  0.00     0.177 C 
ENDROOT
BRANCH   1   2
HETATM    2  C3  UNL     1       7.776  22.607  16.647  1.00  0.00     0.045 C 
BRANCH   2   3
HETATM    3  C2  UNL     1       6.613  21.660  16.418  1.00  0.00     0.116 C 
BRANCH   3   4
HETATM    4  C1  UNL     1       7.038  20.654  15.411  1.00  0.00     0.172 C 
HETATM    5  O1  UNL     1       7.258  20.997  14.203  1.00  0.00    -0.648 OA
HETATM    6  O2  UNL     1       7.209  19.322  15.738  1.00  0.00    -0.648 OA
ENDBRANCH   3   4
ENDBRANCH   2   3
ENDBRANCH   1   2
BRANCH   1   7
HETATM    7  N1  UNL     1       6.928  21.861  18.704  1.00  0.00    -0.342 N 
HETATM    8  C5  UNL     1       6.086  22.541  19.603  1.00  0.00     0.276 C 
HETATM    9  O3  UNL     1       6.325  23.726  19.918  1.00  0.00    -0.265 OA
ATOM     10  H1  UNL     1       6.743  20.893  18.438  1.00  0.00     0.163 HD
BRANCH   8  11
HETATM   11  C6  UNL     1       4.936  21.847  20.158  1.00  0.00     0.144 A 
HETATM   12  C7  UNL     1       4.480  21.894  21.467  1.00  0.00     0.074 A 
HETATM   13  C8  UNL     1       3.365  21.090  21.561  1.00  0.00     0.055 A 
HETATM   14  C14 UNL     1       3.181  20.577  20.296  1.00  0.00     0.172 A 
HETATM   15  O4  UNL     1       4.122  21.043  19.495  1.00  0.00    -0.315 OA
BRANCH  13  16
HETATM   16  N2  UNL     1       2.555  20.829  22.721  1.00  0.00    -0.379 N 
HETATM   17  C9  UNL     1       1.532  19.817  22.722  1.00  0.00     0.123 C 
HETATM   18  C10 UNL     1       0.256  20.228  23.379  1.00  0.00     0.020 C 
HETATM   19  C11 UNL     1       0.416  21.182  24.516  1.00  0.00     0.003 C 
HETATM   20  C12 UNL     1       1.400  22.273  24.219  1.00  0.00     0.020 C 
HETATM   21  C13 UNL     1       2.744  21.586  23.943  1.00  0.00     0.123 C 
ENDBRANCH  13  16
ENDBRANCH   8  11
ENDBRANCH   1   7
BRANCH   1  22
HETATM   22  C15 UNL     1       9.307  21.817  18.420  1.00  0.00     0.242 C 
HETATM   23  O5  UNL     1       9.743  21.038  17.528  1.00  0.00    -0.271 OA
HETATM   24  N3  UNL     1       9.999  21.907  19.638  1.00  0.00    -0.347 N 
HETATM   25  C16 UNL     1       9.590  22.716  20.758  1.00  0.00     0.145 C 
HETATM   26  C26 UNL     1      11.241  21.120  19.802  1.00  0.00     0.145 C 
HETATM   27  C17 UNL     1      10.738  23.701  21.012  1.00  0.00     0.146 C 
HETATM   28  N4  UNL     1      11.868  22.869  21.366  1.00  0.00    -0.343 N 
HETATM   29  C18 UNL     1      12.501  22.781  22.603  1.00  0.00     0.290 C 
HETATM   30  C25 UNL     1      12.382  22.004  20.263  1.00  0.00     0.146 C 
HETATM   31  O6  UNL     1      13.509  21.975  22.674  1.00  0.00    -0.264 OA
BRANCH  29  32
HETATM   32  C19 UNL     1      12.180  23.474  23.825  1.00  0.00     0.222 C 
HETATM   33  O7  UNL     1      12.578  24.640  24.029  1.00  0.00    -0.287 OA
BRANCH  32  34
HETATM   34  C20 UNL     1      11.351  22.790  24.881  1.00  0.00     0.091 C 
HETATM   35  C21 UNL     1      12.291  22.091  25.830  1.00  0.00     0.016 C 
HETATM   36  C22 UNL     1      11.580  21.418  26.956  1.00  0.00     0.028 C 
HETATM   37  C23 UNL     1      10.306  20.786  26.396  1.00  0.00     0.232 C 
HETATM   38  N5  UNL     1      10.472  20.523  24.985  1.00  0.00    -0.074 N 
HETATM   39  C24 UNL     1      10.421  21.774  24.223  1.00  0.00     0.244 C 
ATOM     40  H52 UNL     1      11.325  19.997  24.794  1.00  0.00     0.277 HD
ATOM     41  H51 UNL     1       9.794  19.842  24.643  1.00  0.00     0.277 HD
ENDBRANCH  32  34
ENDBRANCH  29  32
ENDBRANCH   1  22
TORSDOF 9
ENDMDL
MODEL 4
REMARK VINA RESULT: -8.076483431      5.145     11.314
REMARK  9 active torsions:
REMARK  status: ('A' for Active; 'I' for Inactive)
REMARK    1  A    between atoms: C1_2  and  C2_4 
REMARK    2  A    between atoms: C2_4  and  C3_5 
REMARK    3  A    between atoms: C3_5  and  C4_6 
REMARK    4  A    between atoms: C4_6  and  N1_7 
REMARK    5  A    between atoms: C4_6  and  C15_22 
REMARK       I    between atoms: N1_7  and  C5_9 
REMARK    6  A    between atoms: C5_9  and  C6_11 
REMARK    7  A    between atoms: C8_13  and  N2_14 
REMARK       I    between atoms: C15_22  and  N3_24 
REMARK       I    between atoms: N4_27  and  C18_28 
REMARK    8  A    between atoms: C18_28  and  C19_30 
REMARK    9  A    between atoms: C19_30  and  C20_32 
ROOT
HETATM    1  C4  UNL     1       2.690  20.232  24.287  1.00  0.00     0.177 C 
ENDROOT
BRANCH   1   2
HETATM    2  C3  UNL     1       2.864  21.314  25.372  1.00  0.00     0.045 C 
BRANCH   2   3
HETATM    3  C2  UNL     1       1.480  21.708  25.851  1.00  0.00     0.116 C 
BRANCH   3   4
HETATM    4  C1  UNL     1       0.671  22.067  24.658  1.00  0.00     0.172 C 
HETATM    5  O1  UNL     1      -0.474  21.538  24.466  1.00  0.00    -0.648 OA
HETATM    6  O2  UNL     1       1.120  22.976  23.719  1.00  0.00    -0.648 OA
ENDBRANCH   3   4
ENDBRANCH   2   3
ENDBRANCH   1   2
BRANCH   1   7
HETATM    7  N1  UNL     1       3.621  20.709  23.234  1.00  0.00    -0.342 N 
HETATM    8  C5  UNL     1       3.139  20.771  21.914  1.00  0.00     0.276 C 
HETATM    9  O3  UNL     1       1.965  20.433  21.654  1.00  0.00    -0.265 OA
ATOM     10  H1  UNL     1       4.577  20.982  23.459  1.00  0.00     0.163 HD
BRANCH   8  11
HETATM   11  C6  UNL     1       4.025  21.234  20.858  1.00  0.00     0.144 A 
HETATM   12  C7  UNL     1       4.054  20.805  19.540  1.00  0.00     0.074 A 
HETATM   13  C8  UNL     1       5.044  21.503  18.884  1.00  0.00     0.055 A 
HETATM   14  C14 UNL     1       5.588  22.339  19.835  1.00  0.00     0.172 A 
HETATM   15  O4  UNL     1       4.965  22.156  20.985  1.00  0.00    -0.315 OA
BRANCH  13  16
HETATM   16  N2  UNL     1       5.441  21.397  17.505  1.00  0.00    -0.379 N 
HETATM   17  C9  UNL     1       4.853  20.428  16.618  1.00  0.00     0.123 C 
HETATM   18  C10 UNL     1       5.828  19.733  15.727  1.00  0.00     0.020 C 
HETATM   19  C11 UNL     1       7.003  20.558  15.319  1.00  0.00     0.003 C 
HETATM   20  C12 UNL     1       7.576  21.346  16.457  1.00  0.00     0.020 C 
HETATM   21  C13 UNL     1       6.459  22.271  16.957  1.00  0.00     0.123 C 
ENDBRANCH  13  16
ENDBRANCH   8  11
ENDBRANCH   1   7
BRANCH   1  22
HETATM   22  C15 UNL     1       3.167  18.934  24.778  1.00  0.00     0.242 C 
HETATM   23  O5  UNL     1       4.409  18.728  24.865  1.00  0.00    -0.271 OA
HETATM   24  N3  UNL     1       2.283  17.910  25.154  1.00  0.00    -0.347 N 
HETATM   25  C16 UNL     1       0.847  17.990  25.062  1.00  0.00     0.145 C 
HETATM   26  C26 UNL     1       2.848  16.651  25.685  1.00  0.00     0.145 C 
HETATM   27  C17 UNL     1       0.319  17.805  26.491  1.00  0.00     0.146 C 
HETATM   28  N4  UNL     1       0.735  16.472  26.869  1.00  0.00    -0.343 N 
HETATM   29  C18 UNL     1      -0.076  15.363  27.094  1.00  0.00     0.290 C 
HETATM   30  C25 UNL     1       2.211  16.290  27.011  1.00  0.00     0.146 C 
HETATM   31  O6  UNL     1       0.528  14.273  27.444  1.00  0.00    -0.264 OA
BRANCH  29  32
HETATM   32  C19 UNL     1      -1.510  15.265  26.989  1.00  0.00     0.222 C 
HETATM   33  O7  UNL     1      -2.068  15.147  25.878  1.00  0.00    -0.287 OA
BRANCH  32  34
HETATM   34  C20 UNL     1      -2.359  15.306  28.233  1.00  0.00     0.091 C 
HETATM   35  C21 UNL     1      -3.636  14.558  27.950  1.00  0.00     0.016 C 
HETATM   36  C22 UNL     1      -4.539  14.486  29.136  1.00  0.00     0.028 C 
HETATM   37  C23 UNL     1      -4.481  15.836  29.851  1.00  0.00     0.232 C 
HETATM   38  N5  UNL     1      -4.097  16.867  28.915  1.00  0.00    -0.074 N 
HETATM   39  C24 UNL     1      -2.672  16.757  28.591  1.00  0.00     0.244 C 
ATOM     40  H52 UNL     1      -4.679  16.856  28.078  1.00  0.00     0.277 HD
ATOM     41  H51 UNL     1      -4.338  17.798  29.255  1.00  0.00     0.277 HD
ENDBRANCH  32  34
ENDBRANCH  29  32
ENDBRANCH   1  22
TORSDOF 9
ENDMDL
MODEL 5
REMARK VINA RESULT: -8.054020628      5.081     11.288
REMARK  9 active torsions:
REMARK  status: ('A' for Active; 'I' for Inactive)
REMARK    1  A    between atoms: C1_2  and  C2_4 
REMARK    2  A    between atoms: C2_4  and  C3_5 
REMARK    3  A    between atoms: C3_5  and  C4_6 
REMARK    4  A    between atoms: C4_6  and  N1_7 
REMARK    5  A    between atoms: C4_6  and  C15_22 
REMARK       I    between atoms: N1_7  and  C5_9 
REMARK    6  A    between atoms: C5_9  and  C6_11 
REMARK    7  A    between atoms: C8_13  and  N2_14 
REMARK       I    between atoms: C15_22  and  N3_24 
REMARK       I    between atoms: N4_27  and  C18_28 
REMARK    8  A    between atoms: C18_28  and  C19_30 
REMARK    9  A    between atoms: C19_30  and  C20_32 
ROOT
HETATM    1  C4  UNL     1       2.678  20.226  24.337  1.00  0.00     0.177 C 
ENDROOT
BRANCH   1   2
HETATM    2  C3  UNL     1       2.935  21.288  25.425  1.00  0.00     0.045 C 
BRANCH   2   3
HETATM    3  C2  UNL     1       1.586  21.730  25.960  1.00  0.00     0.116 C 
BRANCH   3   4
HETATM    4  C1  UNL     1       0.774  22.202  24.809  1.00  0.00     0.172 C 
HETATM    5  O1  UNL     1       1.143  23.212  24.123  1.00  0.00    -0.648 OA
HETATM    6  O2  UNL     1      -0.400  21.574  24.440  1.00  0.00    -0.648 OA
ENDBRANCH   3   4
ENDBRANCH   2   3
ENDBRANCH   1   2
BRANCH   1   7
HETATM    7  N1  UNL     1       3.648  20.630  23.287  1.00  0.00    -0.342 N 
HETATM    8  C5  UNL     1       3.144  20.909  22.004  1.00  0.00     0.276 C 
HETATM    9  O3  UNL     1       1.920  20.815  21.772  1.00  0.00    -0.265 OA
ATOM     10  H1  UNL     1       4.645  20.702  23.490  1.00  0.00     0.163 HD
BRANCH   8  11
HETATM   11  C6  UNL     1       4.067  21.307  20.954  1.00  0.00     0.144 A 
HETATM   12  C7  UNL     1       4.048  20.909  19.625  1.00  0.00     0.074 A 
HETATM   13  C8  UNL     1       5.099  21.521  18.979  1.00  0.00     0.055 A 
HETATM   14  C14 UNL     1       5.726  22.277  19.945  1.00  0.00     0.172 A 
HETATM   15  O4  UNL     1       5.094  22.129  21.095  1.00  0.00    -0.315 OA
BRANCH  13  16
HETATM   16  N2  UNL     1       5.476  21.409  17.595  1.00  0.00    -0.379 N 
HETATM   17  C9  UNL     1       4.837  20.475  16.706  1.00  0.00     0.123 C 
HETATM   18  C10 UNL     1       5.770  19.744  15.800  1.00  0.00     0.020 C 
HETATM   19  C11 UNL     1       6.978  20.519  15.387  1.00  0.00     0.003 C 
HETATM   20  C12 UNL     1       7.597  21.271  16.526  1.00  0.00     0.020 C 
HETATM   21  C13 UNL     1       6.527  22.241  17.044  1.00  0.00     0.123 C 
ENDBRANCH  13  16
ENDBRANCH   8  11
ENDBRANCH   1   7
BRANCH   1  22
HETATM   22  C15 UNL     1       3.049  18.892  24.825  1.00  0.00     0.242 C 
HETATM   23  O5  UNL     1       4.246  18.508  24.718  1.00  0.00    -0.271 OA
HETATM   24  N3  UNL     1       2.109  18.027  25.409  1.00  0.00    -0.347 N 
HETATM   25  C16 UNL     1       0.705  18.316  25.553  1.00  0.00     0.145 C 
HETATM   26  C26 UNL     1       2.578  16.721  25.920  1.00  0.00     0.145 C 
HETATM   27  C17 UNL     1       0.413  18.269  27.058  1.00  0.00     0.146 C 
HETATM   28  N4  UNL     1       0.700  16.905  27.449  1.00  0.00    -0.343 N 
HETATM   29  C18 UNL     1      -0.206  15.939  27.878  1.00  0.00     0.290 C 
HETATM   30  C25 UNL     1       2.137  16.513  27.355  1.00  0.00     0.146 C 
HETATM   31  O6  UNL     1       0.292  14.787  28.192  1.00  0.00    -0.264 OA
BRANCH  29  32
HETATM   32  C19 UNL     1      -1.636  16.051  28.019  1.00  0.00     0.222 C 
HETATM   33  O7  UNL     1      -2.145  16.565  29.037  1.00  0.00    -0.287 OA
BRANCH  32  34
HETATM   34  C20 UNL     1      -2.541  15.541  26.927  1.00  0.00     0.091 C 
HETATM   35  C21 UNL     1      -3.610  14.694  27.567  1.00  0.00     0.016 C 
HETATM   36  C22 UNL     1      -4.603  14.175  26.581  1.00  0.00     0.028 C 
HETATM   37  C23 UNL     1      -3.844  13.778  25.315  1.00  0.00     0.232 C 
HETATM   38  N5  UNL     1      -2.471  13.473  25.646  1.00  0.00    -0.074 N 
HETATM   39  C24 UNL     1      -1.730  14.703  25.941  1.00  0.00     0.244 C 
ATOM     40  H52 UNL     1      -2.404  12.798  26.409  1.00  0.00     0.277 HD
ATOM     41  H51 UNL     1      -2.017  12.922  24.917  1.00  0.00     0.277 HD
ENDBRANCH  32  34
ENDBRANCH  29  32
ENDBRANCH   1  22
TORSDOF 9
ENDMDL
