MODEL 1
REMARK VINA RESULT: -6.684634686      0.000      0.000
REMARK  13 active torsions:
REMARK  status: ('A' for Active; 'I' for Inactive)
REMARK    1  A    between atoms: C2_2  and  S1_3 
REMARK    2  A    between atoms: S1_3  and  S2_4 
REMARK    3  A    between atoms: S2_4  and  C3_5 
REMARK    4  A    between atoms: C6_8  and  N1_9 
REMARK    5  A    between atoms: C11_18  and  C12_19 
REMARK    6  A    between atoms: C12_19  and  O4_20 
REMARK    7  A    between atoms: C12_19  and  N3_22 
REMARK    8  A    between atoms: N3_22  and  C13_24 
REMARK    9  A    between atoms: C13_24  and  C14_25 
REMARK   10  A    between atoms: C13_24  and  C18_29 
REMARK   11  A    between atoms: C14_25  and  C15_26 
REMARK   12  A    between atoms: C19_32  and  C20_33 
REMARK   13  A    between atoms: C20_33  and  O6_35 
ROOT
HETATM    1  C3  UNL     1      10.980  23.315  20.480  1.00  0.00     0.130 C 
HETATM    2  C4  UNL     1      10.641  23.813  19.132  1.00  0.00     0.051 C 
HETATM    3  C5  UNL     1       9.374  23.411  18.515  1.00  0.00     0.122 C 
HETATM    4  C6  UNL     1       9.250  22.033  17.921  1.00  0.00     0.204 C 
HETATM    5  C10 UNL     1       7.860  22.159  18.517  1.00  0.00     0.246 C 
HETATM    6  O3  UNL     1       6.841  21.549  18.153  1.00  0.00    -0.271 OA
HETATM    7  N2  UNL     1       8.282  23.107  19.461  1.00  0.00    -0.330 N 
HETATM    8  C11 UNL     1       8.031  23.704  20.739  1.00  0.00     0.175 C 
HETATM    9  C19 UNL     1       8.727  22.818  21.791  1.00  0.00     0.116 C 
HETATM   10  C22 UNL     1      10.019  22.449  21.153  1.00  0.00     0.150 C 
HETATM   11  O7  UNL     1      10.278  21.267  21.218  1.00  0.00    -0.296 OA
ENDROOT
BRANCH   8  12
HETATM   12  C12 UNL     1       6.614  23.856  21.011  1.00  0.00     0.136 C 
BRANCH  12  13
HETATM   13  O4  UNL     1       6.060  24.902  20.465  1.00  0.00    -0.348 OA
ATOM     14  H4  UNL     1       5.180  24.761  20.135  1.00  0.00     0.219 HD
ENDBRANCH  12  13
BRANCH  12  15
HETATM   15  N3  UNL     1       5.750  23.075  21.760  1.00  0.00    -0.360 N 
ATOM     16  H3  UNL     1       5.383  23.428  22.644  1.00  0.00     0.162 HD
BRANCH  15  17
HETATM   17  C13 UNL     1       5.357  21.734  21.286  1.00  0.00     0.173 C 
BRANCH  17  18
HETATM   18  C14 UNL     1       3.919  21.748  20.886  1.00  0.00     0.038 C 
BRANCH  18  19
HETATM   19  C15 UNL     1       3.507  20.518  20.166  1.00  0.00    -0.020 C 
HETATM   20  C16 UNL     1       2.040  20.213  20.514  1.00  0.00     0.009 C 
HETATM   21  C17 UNL     1       3.584  20.559  18.684  1.00  0.00     0.009 C 
ENDBRANCH  18  19
ENDBRANCH  17  18
BRANCH  17  22
HETATM   22  C18 UNL     1       5.771  20.716  22.255  1.00  0.00     0.253 C 
HETATM   23  N4  UNL     1       5.117  20.387  23.465  1.00  0.00    -0.060 NA
HETATM   24  O5  UNL     1       6.833  20.009  22.037  1.00  0.00    -0.275 OA
ENDBRANCH  17  22
ENDBRANCH  15  17
ENDBRANCH  12  15
ENDBRANCH   8  12
BRANCH   9  25
HETATM   25  C20 UNL     1       9.027  23.574  23.058  1.00  0.00     0.128 C 
HETATM   26  C21 UNL     1       8.268  23.011  24.243  1.00  0.00     0.040 C 
BRANCH  25  27
HETATM   27  O6  UNL     1       8.754  24.956  22.930  1.00  0.00    -0.395 OA
ATOM     28  H6  UNL     1       9.296  25.482  23.508  1.00  0.00     0.210 HD
ENDBRANCH  25  27
ENDBRANCH   9  25
BRANCH   4  29
HETATM   29  N1  UNL     1       9.210  22.078  16.476  1.00  0.00    -0.310 N 
HETATM   30  C7  UNL     1       8.747  23.244  15.742  1.00  0.00     0.156 C 
HETATM   31  C8  UNL     1       8.399  22.708  14.368  1.00  0.00     0.200 C 
HETATM   32  O1  UNL     1       9.004  21.429  14.313  1.00  0.00    -0.302 OA
HETATM   33  C9  UNL     1       9.582  21.089  15.518  1.00  0.00     0.363 C 
HETATM   34  O2  UNL     1      10.316  20.110  15.817  1.00  0.00    -0.238 OA
ENDBRANCH   4  29
BRANCH   1  35
HETATM   35  S2  UNL     1      12.682  22.616  20.482  1.00  0.00    -0.085 SA
BRANCH  35  36
HETATM   36  S1  UNL     1      13.710  23.122  22.267  1.00  0.00    -0.097 SA
BRANCH  36  37
HETATM   37  C2  UNL     1      13.503  21.842  23.535  1.00  0.00     0.081 C 
HETATM   38  C1  UNL     1      12.155  21.897  24.188  1.00  0.00     0.017 C 
ENDBRANCH  36  37
ENDBRANCH  35  36
ENDBRANCH   1  35
TORSDOF 13
ENDMDL
MODEL 2
REMARK VINA RESULT: -6.674165792      2.776      5.319
REMARK  13 active torsions:
REMARK  status: ('A' for Active; 'I' for Inactive)
REMARK    1  A    between atoms: C2_2  and  S1_3 
REMARK    2  A    between atoms: S1_3  and  S2_4 
REMARK    3  A    between atoms: S2_4  and  C3_5 
REMARK    4  A    between atoms: C6_8  and  N1_9 
REMARK    5  A    between atoms: C11_18  and  C12_19 
REMARK    6  A    between atoms: C12_19  and  O4_20 
REMARK    7  A    between atoms: C12_19  and  N3_22 
REMARK    8  A    between atoms: N3_22  and  C13_24 
REMARK    9  A    between atoms: C13_24  and  C14_25 
REMARK   10  A    between atoms: C13_24  and  C18_29 
REMARK   11  A    between atoms: C14_25  and  C15_26 
REMARK   12  A    between atoms: C19_32  and  C20_33 
REMARK   13  A    between atoms: C20_33  and  O6_35 
ROOT
HETATM    1  C3  UNL     1       8.877  22.887  23.234  1.00  0.00     0.130 C 
HETATM    2  C4  UNL     1       9.727  23.950  22.663  1.00  0.00     0.051 C 
HETATM    3  C5  UNL     1      10.519  23.668  21.462  1.00  0.00     0.122 C 
HETATM    4  C6  UNL     1      11.790  22.869  21.591  1.00  0.00     0.204 C 
HETATM    5  C10 UNL     1      11.289  22.307  20.274  1.00  0.00     0.246 C 
HETATM    6  O3  UNL     1      11.978  21.778  19.386  1.00  0.00    -0.271 OA
HETATM    7  N2  UNL     1       9.958  22.640  20.564  1.00  0.00    -0.330 N 
HETATM    8  C11 UNL     1       8.578  22.348  20.314  1.00  0.00     0.175 C 
HETATM    9  C19 UNL     1       8.174  21.224  21.290  1.00  0.00     0.116 C 
HETATM   10  C22 UNL     1       8.850  21.594  22.562  1.00  0.00     0.150 C 
HETATM   11  O7  UNL     1       9.449  20.678  23.083  1.00  0.00    -0.296 OA
ENDROOT
BRANCH   8  12
HETATM   12  C12 UNL     1       8.332  21.978  18.933  1.00  0.00     0.136 C 
BRANCH  12  13
HETATM   13  O4  UNL     1       9.222  21.182  18.411  1.00  0.00    -0.348 OA
ATOM     14  H4  UNL     1       9.268  21.200  17.462  1.00  0.00     0.219 HD
ENDBRANCH  12  13
BRANCH  12  15
HETATM   15  N3  UNL     1       7.308  22.336  18.071  1.00  0.00    -0.360 N 
ATOM     16  H3  UNL     1       6.911  23.274  18.116  1.00  0.00     0.162 HD
BRANCH  15  17
HETATM   17  C13 UNL     1       6.788  21.364  17.089  1.00  0.00     0.173 C 
BRANCH  17  18
HETATM   18  C14 UNL     1       7.071  21.853  15.707  1.00  0.00     0.038 C 
BRANCH  18  19
HETATM   19  C15 UNL     1       7.778  20.849  14.874  1.00  0.00    -0.020 C 
HETATM   20  C16 UNL     1       9.025  21.512  14.260  1.00  0.00     0.009 C 
HETATM   21  C17 UNL     1       8.255  19.626  15.568  1.00  0.00     0.009 C 
ENDBRANCH  18  19
ENDBRANCH  17  18
BRANCH  17  22
HETATM   22  C18 UNL     1       5.398  21.023  17.404  1.00  0.00     0.253 C 
HETATM   23  N4  UNL     1       4.521  20.240  16.619  1.00  0.00    -0.060 NA
HETATM   24  O5  UNL     1       4.861  21.451  18.501  1.00  0.00    -0.275 OA
ENDBRANCH  17  22
ENDBRANCH  15  17
ENDBRANCH  12  15
ENDBRANCH   8  12
BRANCH   9  25
HETATM   25  C20 UNL     1       6.689  21.197  21.537  1.00  0.00     0.128 C 
HETATM   26  C21 UNL     1       6.115  22.594  21.672  1.00  0.00     0.040 C 
BRANCH  25  27
HETATM   27  O6  UNL     1       6.354  20.432  22.679  1.00  0.00    -0.395 OA
ATOM     28  H6  UNL     1       5.487  20.049  22.610  1.00  0.00     0.210 HD
ENDBRANCH  25  27
ENDBRANCH   9  25
BRANCH   4  29
HETATM   29  N1  UNL     1      12.960  23.696  21.400  1.00  0.00    -0.310 N 
HETATM   30  C7  UNL     1      12.893  25.025  20.812  1.00  0.00     0.156 C 
HETATM   31  C8  UNL     1      14.308  25.301  20.348  1.00  0.00     0.200 C 
HETATM   32  O1  UNL     1      15.102  24.327  21.001  1.00  0.00    -0.302 OA
HETATM   33  C9  UNL     1      14.327  23.437  21.715  1.00  0.00     0.363 C 
HETATM   34  O2  UNL     1      14.668  22.529  22.519  1.00  0.00    -0.238 OA
ENDBRANCH   4  29
BRANCH   1  35
HETATM   35  S2  UNL     1       9.191  22.737  25.042  1.00  0.00    -0.085 SA
BRANCH  35  36
HETATM   36  S1  UNL     1      10.769  24.019  25.647  1.00  0.00    -0.097 SA
BRANCH  36  37
HETATM   37  C2  UNL     1      12.389  23.306  25.255  1.00  0.00     0.081 C 
HETATM   38  C1  UNL     1      12.330  21.819  25.073  1.00  0.00     0.017 C 
ENDBRANCH  36  37
ENDBRANCH  35  36
ENDBRANCH   1  35
TORSDOF 13
ENDMDL
MODEL 3
REMARK VINA RESULT: -6.604479524      2.417      5.763
REMARK  13 active torsions:
REMARK  status: ('A' for Active; 'I' for Inactive)
REMARK    1  A    between atoms: C2_2  and  S1_3 
REMARK    2  A    between atoms: S1_3  and  S2_4 
REMARK    3  A    between atoms: S2_4  and  C3_5 
REMARK    4  A    between atoms: C6_8  and  N1_9 
REMARK    5  A    between atoms: C11_18  and  C12_19 
REMARK    6  A    between atoms: C12_19  and  O4_20 
REMARK    7  A    between atoms: C12_19  and  N3_22 
REMARK    8  A    between atoms: N3_22  and  C13_24 
REMARK    9  A    between atoms: C13_24  and  C14_25 
REMARK   10  A    between atoms: C13_24  and  C18_29 
REMARK   11  A    between atoms: C14_25  and  C15_26 
REMARK   12  A    between atoms: C19_32  and  C20_33 
REMARK   13  A    between atoms: C20_33  and  O6_35 
ROOT
HETATM    1  C3  UNL     1      10.597  21.803  22.316  1.00  0.00     0.130 C 
HETATM    2  C4  UNL     1       9.348  21.066  22.039  1.00  0.00     0.051 C 
HETATM    3  C5  UNL     1       8.313  21.692  21.211  1.00  0.00     0.122 C 
HETATM    4  C6  UNL     1       7.429  22.750  21.817  1.00  0.00     0.204 C 
HETATM    5  C10 UNL     1       7.599  23.348  20.434  1.00  0.00     0.246 C 
HETATM    6  O3  UNL     1       6.828  24.144  19.872  1.00  0.00    -0.271 OA
HETATM    7  N2  UNL     1       8.805  22.666  20.217  1.00  0.00    -0.330 N 
HETATM    8  C11 UNL     1      10.048  22.647  19.505  1.00  0.00     0.175 C 
HETATM    9  C19 UNL     1      11.045  23.495  20.321  1.00  0.00     0.116 C 
HETATM   10  C22 UNL     1      10.754  23.130  21.734  1.00  0.00     0.150 C 
HETATM   11  O7  UNL     1      10.638  24.084  22.472  1.00  0.00    -0.296 OA
ENDROOT
BRANCH   8  12
HETATM   12  C12 UNL     1       9.914  23.130  18.144  1.00  0.00     0.136 C 
BRANCH  12  13
HETATM   13  O4  UNL     1      10.126  24.407  17.992  1.00  0.00    -0.348 OA
ATOM     14  H4  UNL     1       9.639  24.811  17.284  1.00  0.00     0.219 HD
ENDBRANCH  12  13
BRANCH  12  15
HETATM   15  N3  UNL     1       9.594  22.459  16.975  1.00  0.00    -0.360 N 
ATOM     16  H3  UNL     1      10.321  21.963  16.459  1.00  0.00     0.162 HD
BRANCH  15  17
HETATM   17  C13 UNL     1       8.207  22.460  16.472  1.00  0.00     0.173 C 
BRANCH  17  18
HETATM   18  C14 UNL     1       7.448  21.339  17.102  1.00  0.00     0.038 C 
BRANCH  18  19
HETATM   19  C15 UNL     1       6.117  21.122  16.482  1.00  0.00    -0.020 C 
HETATM   20  C16 UNL     1       6.117  19.748  15.788  1.00  0.00     0.009 C 
HETATM   21  C17 UNL     1       4.949  21.128  17.397  1.00  0.00     0.009 C 
ENDBRANCH  18  19
ENDBRANCH  17  18
BRANCH  17  22
HETATM   22  C18 UNL     1       8.201  22.530  15.009  1.00  0.00     0.253 C 
HETATM   23  N4  UNL     1       8.854  21.647  14.118  1.00  0.00    -0.060 NA
HETATM   24  O5  UNL     1       7.549  23.473  14.409  1.00  0.00    -0.275 OA
ENDBRANCH  17  22
ENDBRANCH  15  17
ENDBRANCH  12  15
ENDBRANCH   8  12
BRANCH   9  25
HETATM   25  C20 UNL     1      12.474  23.128  20.026  1.00  0.00     0.128 C 
HETATM   26  C21 UNL     1      13.271  24.319  19.532  1.00  0.00     0.040 C 
BRANCH  25  27
HETATM   27  O6  UNL     1      12.570  22.070  19.091  1.00  0.00    -0.395 OA
ATOM     28  H6  UNL     1      12.965  22.351  18.273  1.00  0.00     0.210 HD
ENDBRANCH  25  27
ENDBRANCH   9  25
BRANCH   4  29
HETATM   29  N1  UNL     1       6.081  22.265  22.020  1.00  0.00    -0.310 N 
HETATM   30  C7  UNL     1       5.415  21.387  21.072  1.00  0.00     0.156 C 
HETATM   31  C8  UNL     1       3.942  21.541  21.390  1.00  0.00     0.200 C 
HETATM   32  O1  UNL     1       3.907  22.170  22.659  1.00  0.00    -0.302 OA
HETATM   33  C9  UNL     1       5.173  22.505  23.093  1.00  0.00     0.363 C 
HETATM   34  O2  UNL     1       5.556  22.948  24.208  1.00  0.00    -0.238 OA
ENDBRANCH   4  29
BRANCH   1  35
HETATM   35  S2  UNL     1      10.953  21.777  24.121  1.00  0.00    -0.085 SA
BRANCH  35  36
HETATM   36  S1  UNL     1       9.185  22.098  25.249  1.00  0.00    -0.097 SA
BRANCH  36  37
HETATM   37  C2  UNL     1       9.359  21.481  26.944  1.00  0.00     0.081 C 
HETATM   38  C1  UNL     1      10.271  20.294  27.029  1.00  0.00     0.017 C 
ENDBRANCH  36  37
ENDBRANCH  35  36
ENDBRANCH   1  35
TORSDOF 13
ENDMDL
MODEL 4
REMARK VINA RESULT: -6.571870691      2.835      5.877
REMARK  13 active torsions:
REMARK  status: ('A' for Active; 'I' for Inactive)
REMARK    1  A    between atoms: C2_2  and  S1_3 
REMARK    2  A    between atoms: S1_3  and  S2_4 
REMARK    3  A    between atoms: S2_4  and  C3_5 
REMARK    4  A    between atoms: C6_8  and  N1_9 
REMARK    5  A    between atoms: C11_18  and  C12_19 
REMARK    6  A    between atoms: C12_19  and  O4_20 
REMARK    7  A    between atoms: C12_19  and  N3_22 
REMARK    8  A    between atoms: N3_22  and  C13_24 
REMARK    9  A    between atoms: C13_24  and  C14_25 
REMARK   10  A    between atoms: C13_24  and  C18_29 
REMARK   11  A    between atoms: C14_25  and  C15_26 
REMARK   12  A    between atoms: C19_32  and  C20_33 
REMARK   13  A    between atoms: C20_33  and  O6_35 
ROOT
HETATM    1  C3  UNL     1       8.336  23.068  22.599  1.00  0.00     0.130 C 
HETATM    2  C4  UNL     1       9.483  23.998  22.584  1.00  0.00     0.051 C 
HETATM    3  C5  UNL     1      10.615  23.728  21.693  1.00  0.00     0.122 C 
HETATM    4  C6  UNL     1      11.615  22.670  22.076  1.00  0.00     0.204 C 
HETATM    5  C10 UNL     1      11.564  22.417  20.581  1.00  0.00     0.246 C 
HETATM    6  O3  UNL     1      12.450  21.886  19.890  1.00  0.00    -0.271 OA
HETATM    7  N2  UNL     1      10.285  22.979  20.465  1.00  0.00    -0.330 N 
HETATM    8  C11 UNL     1       9.070  23.022  19.706  1.00  0.00     0.175 C 
HETATM    9  C19 UNL     1       8.174  21.882  20.231  1.00  0.00     0.116 C 
HETATM   10  C22 UNL     1       8.374  21.918  21.704  1.00  0.00     0.150 C 
HETATM   11  O7  UNL     1       8.596  20.832  22.195  1.00  0.00    -0.296 OA
ENDROOT
BRANCH   8  12
HETATM   12  C12 UNL     1       9.305  22.912  18.279  1.00  0.00     0.136 C 
BRANCH  12  13
HETATM   13  O4  UNL     1       9.816  23.974  17.723  1.00  0.00    -0.348 OA
ATOM     14  H4  UNL     1       9.202  24.501  17.227  1.00  0.00     0.219 HD
ENDBRANCH  12  13
BRANCH  12  15
HETATM   15  N3  UNL     1       9.072  21.863  17.403  1.00  0.00    -0.360 N 
ATOM     16  H3  UNL     1       9.219  20.902  17.712  1.00  0.00     0.162 HD
BRANCH  15  17
HETATM   17  C13 UNL     1       8.613  22.131  16.026  1.00  0.00     0.173 C 
BRANCH  17  18
HETATM   18  C14 UNL     1       7.120  22.122  15.989  1.00  0.00     0.038 C 
BRANCH  18  19
HETATM   19  C15 UNL     1       6.538  20.847  16.477  1.00  0.00    -0.020 C 
HETATM   20  C16 UNL     1       5.163  21.143  17.103  1.00  0.00     0.009 C 
HETATM   21  C17 UNL     1       6.316  19.787  15.463  1.00  0.00     0.009 C 
ENDBRANCH  18  19
ENDBRANCH  17  18
BRANCH  17  22
HETATM   22  C18 UNL     1       9.309  21.253  15.083  1.00  0.00     0.253 C 
HETATM   23  N4  UNL     1      10.117  20.138  15.406  1.00  0.00    -0.060 NA
HETATM   24  O5  UNL     1       9.213  21.465  13.810  1.00  0.00    -0.275 OA
ENDBRANCH  17  22
ENDBRANCH  15  17
ENDBRANCH  12  15
ENDBRANCH   8  12
BRANCH   9  25
HETATM   25  C20 UNL     1       6.716  22.134  19.948  1.00  0.00     0.128 C 
HETATM   26  C21 UNL     1       6.406  23.616  19.869  1.00  0.00     0.040 C 
BRANCH  25  27
HETATM   27  O6  UNL     1       5.875  21.521  20.906  1.00  0.00    -0.395 OA
ATOM     28  H6  UNL     1       4.977  21.825  20.840  1.00  0.00     0.210 HD
ENDBRANCH  25  27
ENDBRANCH   9  25
BRANCH   4  29
HETATM   29  N1  UNL     1      12.880  23.250  22.470  1.00  0.00    -0.310 N 
HETATM   30  C7  UNL     1      13.188  24.658  22.280  1.00  0.00     0.156 C 
HETATM   31  C8  UNL     1      14.700  24.723  22.342  1.00  0.00     0.200 C 
HETATM   32  O1  UNL     1      15.095  23.482  22.900  1.00  0.00    -0.302 OA
HETATM   33  C9  UNL     1      14.016  22.643  23.083  1.00  0.00     0.363 C 
HETATM   34  O2  UNL     1      13.945  21.528  23.667  1.00  0.00    -0.238 OA
ENDBRANCH   4  29
BRANCH   1  35
HETATM   35  S2  UNL     1       7.930  22.601  24.332  1.00  0.00    -0.085 SA
BRANCH  35  36
HETATM   36  S1  UNL     1       9.379  23.363  25.683  1.00  0.00    -0.097 SA
BRANCH  36  37
HETATM   37  C2  UNL     1      10.863  22.323  25.717  1.00  0.00     0.081 C 
HETATM   38  C1  UNL     1      10.595  20.928  25.235  1.00  0.00     0.017 C 
ENDBRANCH  36  37
ENDBRANCH  35  36
ENDBRANCH   1  35
TORSDOF 13
ENDMDL
MODEL 5
REMARK VINA RESULT: -6.563361817      3.428      7.029
REMARK  13 active torsions:
REMARK  status: ('A' for Active; 'I' for Inactive)
REMARK    1  A    between atoms: C2_2  and  S1_3 
REMARK    2  A    between atoms: S1_3  and  S2_4 
REMARK    3  A    between atoms: S2_4  and  C3_5 
REMARK    4  A    between atoms: C6_8  and  N1_9 
REMARK    5  A    between atoms: C11_18  and  C12_19 
REMARK    6  A    between atoms: C12_19  and  O4_20 
REMARK    7  A    between atoms: C12_19  and  N3_22 
REMARK    8  A    between atoms: N3_22  and  C13_24 
REMARK    9  A    between atoms: C13_24  and  C14_25 
REMARK   10  A    between atoms: C13_24  and  C18_29 
REMARK   11  A    between atoms: C14_25  and  C15_26 
REMARK   12  A    between atoms: C19_32  and  C20_33 
REMARK   13  A    between atoms: C20_33  and  O6_35 
ROOT
HETATM    1  C3  UNL     1       5.351  22.352  23.140  1.00  0.00     0.130 C 
HETATM    2  C4  UNL     1       6.547  23.211  23.247  1.00  0.00     0.051 C 
HETATM    3  C5  UNL     1       7.776  22.823  22.550  1.00  0.00     0.122 C 
HETATM    4  C6  UNL     1       8.638  21.734  23.132  1.00  0.00     0.204 C 
HETATM    5  C10 UNL     1       8.788  21.394  21.661  1.00  0.00     0.246 C 
HETATM    6  O3  UNL     1       9.729  20.772  21.138  1.00  0.00    -0.271 OA
HETATM    7  N2  UNL     1       7.579  22.021  21.327  1.00  0.00    -0.330 N 
HETATM    8  C11 UNL     1       6.493  22.087  20.394  1.00  0.00     0.175 C 
HETATM    9  C19 UNL     1       5.457  21.035  20.838  1.00  0.00     0.116 C 
HETATM   10  C22 UNL     1       5.443  21.149  22.321  1.00  0.00     0.150 C 
HETATM   11  O7  UNL     1       5.519  20.084  22.895  1.00  0.00    -0.296 OA
ENDROOT
BRANCH   8  12
HETATM   12  C12 UNL     1       6.925  21.877  19.026  1.00  0.00     0.136 C 
BRANCH  12  13
HETATM   13  O4  UNL     1       8.186  21.575  18.888  1.00  0.00    -0.348 OA
ATOM     14  H4  UNL     1       8.737  22.288  18.589  1.00  0.00     0.219 HD
ENDBRANCH  12  13
BRANCH  12  15
HETATM   15  N3  UNL     1       6.220  21.947  17.835  1.00  0.00    -0.360 N 
ATOM     16  H3  UNL     1       5.303  22.392  17.814  1.00  0.00     0.162 HD
BRANCH  15  17
HETATM   17  C13 UNL     1       6.790  21.380  16.598  1.00  0.00     0.173 C 
BRANCH  17  18
HETATM   18  C14 UNL     1       7.038  22.477  15.615  1.00  0.00     0.038 C 
BRANCH  18  19
HETATM   19  C15 UNL     1       8.479  22.673  15.320  1.00  0.00    -0.020 C 
HETATM   20  C16 UNL     1       9.035  23.743  16.277  1.00  0.00     0.009 C 
HETATM   21  C17 UNL     1       9.355  21.484  15.469  1.00  0.00     0.009 C 
ENDBRANCH  18  19
ENDBRANCH  17  18
BRANCH  17  22
HETATM   22  C18 UNL     1       5.981  20.247  16.143  1.00  0.00     0.253 C 
HETATM   23  N4  UNL     1       4.600  20.048  16.374  1.00  0.00    -0.060 NA
HETATM   24  O5  UNL     1       6.526  19.299  15.451  1.00  0.00    -0.275 OA
ENDBRANCH  17  22
ENDBRANCH  15  17
ENDBRANCH  12  15
ENDBRANCH   8  12
BRANCH   9  25
HETATM   25  C20 UNL     1       4.076  21.352  20.329  1.00  0.00     0.128 C 
HETATM   26  C21 UNL     1       3.002  20.924  21.311  1.00  0.00     0.040 C 
BRANCH  25  27
HETATM   27  O6  UNL     1       3.827  20.766  19.066  1.00  0.00    -0.395 OA
ATOM     28  H6  UNL     1       2.963  20.374  19.018  1.00  0.00     0.210 HD
ENDBRANCH  25  27
ENDBRANCH   9  25
BRANCH   4  29
HETATM   29  N1  UNL     1       9.867  22.264  23.679  1.00  0.00    -0.310 N 
HETATM   30  C7  UNL     1      10.370  23.585  23.341  1.00  0.00     0.156 C 
HETATM   31  C8  UNL     1      11.841  23.530  23.697  1.00  0.00     0.200 C 
HETATM   32  O1  UNL     1      11.976  22.377  24.508  1.00  0.00    -0.302 OA
HETATM   33  C9  UNL     1      10.790  21.678  24.596  1.00  0.00     0.363 C 
HETATM   34  O2  UNL     1      10.481  20.693  25.318  1.00  0.00    -0.238 OA
ENDBRANCH   4  29
BRANCH   1  35
HETATM   35  S2  UNL     1       4.668  22.016  24.815  1.00  0.00    -0.085 SA
BRANCH  35  36
HETATM   36  S1  UNL     1       2.565  22.297  24.848  1.00  0.00    -0.097 SA
BRANCH  36  37
HETATM   37  C2  UNL     1       1.684  20.713  24.829  1.00  0.00     0.081 C 
HETATM   38  C1  UNL     1       2.618  19.541  24.794  1.00  0.00     0.017 C 
ENDBRANCH  36  37
ENDBRANCH  35  36
ENDBRANCH   1  35
TORSDOF 13
ENDMDL
