MODEL 1
REMARK VINA RESULT: -7.841974190      0.000      0.000
REMARK  10 active torsions:
REMARK  status: ('A' for Active; 'I' for Inactive)
REMARK    1  A    between atoms: C2_2  and  C3_3 
REMARK    2  A    between atoms: C2_2  and  C4_6 
REMARK    3  A    between atoms: C3_3  and  O1_4 
REMARK    4  A    between atoms: C6_8  and  N1_9 
REMARK    5  A    between atoms: N1_9  and  C7_11 
REMARK    6  A    between atoms: C7_11  and  C8_12 
REMARK    7  A    between atoms: C8_12  and  C9_14 
REMARK    8  A    between atoms: C9_14  and  C10_16 
REMARK    9  A    between atoms: C10_16  and  S1_17 
REMARK   10  A    between atoms: C14_24  and  C15_25 
REMARK       I    between atoms: C15_25  and  N2_27 
ROOT
HETATM    1  C4  UNL     1       8.159  23.138  22.746  1.00  0.00     0.023 C 
HETATM    2  C5  UNL     1       6.653  23.102  22.524  1.00  0.00     0.040 C 
HETATM    3  C6  UNL     1       6.256  22.625  21.189  1.00  0.00     0.031 C 
HETATM    4  C11 UNL     1       6.932  21.286  21.071  1.00  0.00     0.036 C 
HETATM    5  C12 UNL     1       8.416  21.580  20.804  1.00  0.00    -0.006 C 
HETATM    6  C13 UNL     1       8.500  21.664  19.325  1.00  0.00     0.025 C 
HETATM    7  C14 UNL     1       8.583  23.100  18.825  1.00  0.00     0.045 C 
HETATM    8  C20 UNL     1       9.915  23.540  19.377  1.00  0.00     0.024 C 
HETATM    9  C21 UNL     1       9.471  23.892  20.819  1.00  0.00    -0.008 C 
HETATM   10  C22 UNL     1       8.431  24.890  20.441  1.00  0.00     0.011 C 
HETATM   11  C23 UNL     1       7.612  24.039  19.501  1.00  0.00     0.006 C 
HETATM   12  C24 UNL     1       6.391  23.501  20.011  1.00  0.00     0.036 C 
HETATM   13  C25 UNL     1       8.975  22.689  21.572  1.00  0.00     0.002 C 
ENDROOT
BRANCH   3  14
HETATM   14  N1  UNL     1       4.808  22.377  21.185  1.00  0.00    -0.386 N 
ATOM     15  H1  UNL     1       4.160  23.012  21.653  1.00  0.00     0.159 HD
BRANCH  14  16
HETATM   16  C7  UNL     1       4.349  21.230  20.512  1.00  0.00     0.143 C 
BRANCH  16  17
HETATM   17  C8  UNL     1       3.021  20.851  21.142  1.00  0.00     0.233 C 
HETATM   18  O2  UNL     1       2.194  20.281  20.376  1.00  0.00    -0.283 OA
BRANCH  17  19
HETATM   19  C9  UNL     1       2.725  21.118  22.522  1.00  0.00     0.216 C 
HETATM   20  O3  UNL     1       2.635  22.322  22.943  1.00  0.00    -0.288 OA
BRANCH  19  21
HETATM   21  C10 UNL     1       2.532  20.028  23.485  1.00  0.00     0.252 C 
BRANCH  21  22
HETATM   22  S1  UNL     1       4.042  19.740  24.431  1.00  0.00     0.109 S 
HETATM   23  O4  UNL     1       5.239  20.085  23.572  1.00  0.00    -0.595 OA
HETATM   24  O5  UNL     1       4.079  18.290  24.776  1.00  0.00    -0.595 OA
HETATM   25  O6  UNL     1       4.037  20.673  25.810  1.00  0.00    -0.595 OA
ENDBRANCH  21  22
ENDBRANCH  19  21
ENDBRANCH  17  19
ENDBRANCH  16  17
ENDBRANCH  14  16
ENDBRANCH   3  14
BRANCH   1  26
HETATM   26  C2  UNL     1       8.541  22.482  24.031  1.00  0.00    -0.061 C 
HETATM   27  C1  UNL     1       9.561  21.746  24.302  1.00  0.00     0.017 C 
BRANCH  26  28
HETATM   28  C3  UNL     1       7.598  22.778  25.182  1.00  0.00     0.198 C 
BRANCH  28  29
HETATM   29  O1  UNL     1       6.958  21.599  25.603  1.00  0.00    -0.397 OA
ATOM     30  H1  UNL     1       6.050  21.599  25.323  1.00  0.00     0.209 HD
ENDBRANCH  28  29
ENDBRANCH  26  28
ENDBRANCH   1  26
BRANCH   7  31
HETATM   31  C15 UNL     1       8.423  23.103  17.373  1.00  0.00     0.229 C 
HETATM   32  O7  UNL     1       9.379  23.790  16.832  1.00  0.00    -0.272 OA
HETATM   33  N2  UNL     1       7.508  22.554  16.514  1.00  0.00    -0.347 N 
HETATM   34  C16 UNL     1       7.628  22.814  15.061  1.00  0.00     0.152 C 
HETATM   35  C19 UNL     1       6.389  21.678  16.752  1.00  0.00     0.152 C 
HETATM   36  C17 UNL     1       7.826  21.456  14.360  1.00  0.00     0.187 C 
HETATM   37  O8  UNL     1       6.879  20.546  14.766  1.00  0.00    -0.388 OA
HETATM   38  C18 UNL     1       6.838  20.330  16.139  1.00  0.00     0.187 C 
ENDBRANCH   7  31
TORSDOF 10
ENDMDL
MODEL 2
REMARK VINA RESULT: -7.774061763      1.837      2.672
REMARK  10 active torsions:
REMARK  status: ('A' for Active; 'I' for Inactive)
REMARK    1  A    between atoms: C2_2  and  C3_3 
REMARK    2  A    between atoms: C2_2  and  C4_6 
REMARK    3  A    between atoms: C3_3  and  O1_4 
REMARK    4  A    between atoms: C6_8  and  N1_9 
REMARK    5  A    between atoms: N1_9  and  C7_11 
REMARK    6  A    between atoms: C7_11  and  C8_12 
REMARK    7  A    between atoms: C8_12  and  C9_14 
REMARK    8  A    between atoms: C9_14  and  C10_16 
REMARK    9  A    between atoms: C10_16  and  S1_17 
REMARK   10  A    between atoms: C14_24  and  C15_25 
REMARK       I    between atoms: C15_25  and  N2_27 
ROOT
HETATM    1  C4  UNL     1       7.221  23.845  22.904  1.00  0.00     0.023 C 
HETATM    2  C5  UNL     1       6.000  22.941  23.000  1.00  0.00     0.040 C 
HETATM    3  C6  UNL     1       5.991  21.840  22.024  1.00  0.00     0.031 C 
HETATM    4  C11 UNL     1       7.302  21.139  22.263  1.00  0.00     0.036 C 
HETATM    5  C12 UNL     1       8.382  22.030  21.632  1.00  0.00    -0.006 C 
HETATM    6  C13 UNL     1       8.469  21.544  20.232  1.00  0.00     0.025 C 
HETATM    7  C14 UNL     1       7.761  22.467  19.249  1.00  0.00     0.045 C 
HETATM    8  C20 UNL     1       8.599  23.716  19.344  1.00  0.00     0.024 C 
HETATM    9  C21 UNL     1       7.973  24.326  20.623  1.00  0.00    -0.008 C 
HETATM   10  C22 UNL     1       6.572  24.381  20.120  1.00  0.00     0.011 C 
HETATM   11  C23 UNL     1       6.405  22.936  19.719  1.00  0.00     0.006 C 
HETATM   12  C24 UNL     1       5.667  22.097  20.609  1.00  0.00     0.036 C 
HETATM   13  C25 UNL     1       8.198  23.464  21.834  1.00  0.00     0.002 C 
ENDROOT
BRANCH   3  14
HETATM   14  N1  UNL     1       4.927  20.894  22.385  1.00  0.00    -0.386 N 
ATOM     15  H1  UNL     1       4.356  20.441  21.671  1.00  0.00     0.159 HD
BRANCH  14  16
HETATM   16  C7  UNL     1       4.725  20.636  23.753  1.00  0.00     0.143 C 
BRANCH  16  17
HETATM   17  C8  UNL     1       3.225  20.585  23.976  1.00  0.00     0.233 C 
HETATM   18  O2  UNL     1       2.814  19.663  24.735  1.00  0.00    -0.283 OA
BRANCH  17  19
HETATM   19  C9  UNL     1       2.328  21.528  23.367  1.00  0.00     0.216 C 
HETATM   20  O3  UNL     1       2.705  22.729  23.146  1.00  0.00    -0.288 OA
BRANCH  19  21
HETATM   21  C10 UNL     1       0.960  21.148  22.996  1.00  0.00     0.252 C 
BRANCH  21  22
HETATM   22  S1  UNL     1       0.974  20.015  21.590  1.00  0.00     0.109 S 
HETATM   23  O4  UNL     1      -0.260  20.254  20.748  1.00  0.00    -0.595 OA
HETATM   24  O5  UNL     1       0.941  18.629  22.139  1.00  0.00    -0.595 OA
HETATM   25  O6  UNL     1       2.347  20.255  20.678  1.00  0.00    -0.595 OA
ENDBRANCH  21  22
ENDBRANCH  19  21
ENDBRANCH  17  19
ENDBRANCH  16  17
ENDBRANCH  14  16
ENDBRANCH   3  14
BRANCH   1  26
HETATM   26  C2  UNL     1       7.847  24.067  24.241  1.00  0.00    -0.061 C 
HETATM   27  C1  UNL     1       7.429  23.720  25.407  1.00  0.00     0.017 C 
BRANCH  26  28
HETATM   28  C3  UNL     1       9.192  24.765  24.187  1.00  0.00     0.198 C 
BRANCH  28  29
HETATM   29  O1  UNL     1       9.037  26.141  24.425  1.00  0.00    -0.397 OA
ATOM     30  H1  UNL     1       9.572  26.410  25.163  1.00  0.00     0.209 HD
ENDBRANCH  28  29
ENDBRANCH  26  28
ENDBRANCH   1  26
BRANCH   7  31
HETATM   31  C15 UNL     1       7.688  21.803  17.949  1.00  0.00     0.229 C 
HETATM   32  O7  UNL     1       8.850  21.317  17.644  1.00  0.00    -0.272 OA
HETATM   33  N2  UNL     1       6.687  21.604  17.036  1.00  0.00    -0.347 N 
HETATM   34  C16 UNL     1       6.993  20.913  15.761  1.00  0.00     0.152 C 
HETATM   35  C19 UNL     1       5.283  21.921  17.082  1.00  0.00     0.152 C 
HETATM   36  C17 UNL     1       6.132  19.636  15.707  1.00  0.00     0.187 C 
HETATM   37  O8  UNL     1       4.813  19.916  15.977  1.00  0.00    -0.388 OA
HETATM   38  C18 UNL     1       4.595  20.541  17.200  1.00  0.00     0.187 C 
ENDBRANCH   7  31
TORSDOF 10
ENDMDL
MODEL 3
REMARK VINA RESULT: -7.772003593      3.195      5.816
REMARK  10 active torsions:
REMARK  status: ('A' for Active; 'I' for Inactive)
REMARK    1  A    between atoms: C2_2  and  C3_3 
REMARK    2  A    between atoms: C2_2  and  C4_6 
REMARK    3  A    between atoms: C3_3  and  O1_4 
REMARK    4  A    between atoms: C6_8  and  N1_9 
REMARK    5  A    between atoms: N1_9  and  C7_11 
REMARK    6  A    between atoms: C7_11  and  C8_12 
REMARK    7  A    between atoms: C8_12  and  C9_14 
REMARK    8  A    between atoms: C9_14  and  C10_16 
REMARK    9  A    between atoms: C10_16  and  S1_17 
REMARK   10  A    between atoms: C14_24  and  C15_25 
REMARK       I    between atoms: C15_25  and  N2_27 
ROOT
HETATM    1  C4  UNL     1       6.719  22.701  23.117  1.00  0.00     0.023 C 
HETATM    2  C5  UNL     1       8.079  22.030  23.255  1.00  0.00     0.040 C 
HETATM    3  C6  UNL     1       9.014  22.343  22.162  1.00  0.00     0.031 C 
HETATM    4  C11 UNL     1       9.063  23.848  22.154  1.00  0.00     0.036 C 
HETATM    5  C12 UNL     1       7.751  24.313  21.505  1.00  0.00    -0.006 C 
HETATM    6  C13 UNL     1       8.073  24.373  20.058  1.00  0.00     0.025 C 
HETATM    7  C14 UNL     1       7.516  23.184  19.286  1.00  0.00     0.045 C 
HETATM    8  C20 UNL     1       6.031  23.397  19.425  1.00  0.00     0.024 C 
HETATM    9  C21 UNL     1       5.834  22.785  20.835  1.00  0.00    -0.008 C 
HETATM   10  C22 UNL     1       6.388  21.439  20.519  1.00  0.00     0.011 C 
HETATM   11  C23 UNL     1       7.732  21.856  19.971  1.00  0.00     0.006 C 
HETATM   12  C24 UNL     1       8.858  21.714  20.839  1.00  0.00     0.036 C 
HETATM   13  C25 UNL     1       6.565  23.557  21.898  1.00  0.00     0.002 C 
ENDROOT
BRANCH   3  14
HETATM   14  N1  UNL     1      10.355  21.872  22.536  1.00  0.00    -0.386 N 
ATOM     15  H1  UNL     1      10.543  20.883  22.699  1.00  0.00     0.159 HD
BRANCH  14  16
HETATM   16  C7  UNL     1      11.370  22.839  22.660  1.00  0.00     0.143 C 
BRANCH  16  17
HETATM   17  C8  UNL     1      12.637  22.222  22.096  1.00  0.00     0.233 C 
HETATM   18  O2  UNL     1      13.268  21.455  22.876  1.00  0.00    -0.283 OA
BRANCH  17  19
HETATM   19  C9  UNL     1      13.088  22.488  20.759  1.00  0.00     0.216 C 
HETATM   20  O3  UNL     1      14.295  22.851  20.542  1.00  0.00    -0.288 OA
BRANCH  19  21
HETATM   21  C10 UNL     1      12.181  22.367  19.611  1.00  0.00     0.252 C 
BRANCH  21  22
HETATM   22  S1  UNL     1      12.073  20.650  19.065  1.00  0.00     0.109 S 
HETATM   23  O4  UNL     1      13.468  20.117  18.821  1.00  0.00    -0.595 OA
HETATM   24  O5  UNL     1      11.306  20.639  17.786  1.00  0.00    -0.595 OA
HETATM   25  O6  UNL     1      11.302  19.732  20.221  1.00  0.00    -0.595 OA
ENDBRANCH  21  22
ENDBRANCH  19  21
ENDBRANCH  17  19
ENDBRANCH  16  17
ENDBRANCH  14  16
ENDBRANCH   3  14
BRANCH   1  26
HETATM   26  C2  UNL     1       6.310  23.376  24.384  1.00  0.00    -0.061 C 
HETATM   27  C1  UNL     1       6.797  24.427  24.945  1.00  0.00     0.017 C 
BRANCH  26  28
HETATM   28  C3  UNL     1       5.115  22.739  25.068  1.00  0.00     0.198 C 
BRANCH  28  29
HETATM   29  O1  UNL     1       3.980  22.823  24.244  1.00  0.00    -0.397 OA
ATOM     30  H1  UNL     1       4.239  22.939  23.337  1.00  0.00     0.209 HD
ENDBRANCH  28  29
ENDBRANCH  26  28
ENDBRANCH   1  26
BRANCH   7  31
HETATM   31  C15 UNL     1       8.074  23.197  17.935  1.00  0.00     0.229 C 
HETATM   32  O7  UNL     1       9.113  23.970  17.901  1.00  0.00    -0.272 OA
HETATM   33  N2  UNL     1       7.732  22.586  16.758  1.00  0.00    -0.347 N 
HETATM   34  C16 UNL     1       8.514  22.879  15.534  1.00  0.00     0.152 C 
HETATM   35  C19 UNL     1       6.714  21.615  16.452  1.00  0.00     0.152 C 
HETATM   36  C17 UNL     1       9.136  21.553  15.051  1.00  0.00     0.187 C 
HETATM   37  O8  UNL     1       8.188  20.561  14.976  1.00  0.00    -0.388 OA
HETATM   38  C18 UNL     1       7.510  20.320  16.167  1.00  0.00     0.187 C 
ENDBRANCH   7  31
TORSDOF 10
ENDMDL
MODEL 4
REMARK VINA RESULT: -7.670150156      3.667      8.271
REMARK  10 active torsions:
REMARK  status: ('A' for Active; 'I' for Inactive)
REMARK    1  A    between atoms: C2_2  and  C3_3 
REMARK    2  A    between atoms: C2_2  and  C4_6 
REMARK    3  A    between atoms: C3_3  and  O1_4 
REMARK    4  A    between atoms: C6_8  and  N1_9 
REMARK    5  A    between atoms: N1_9  and  C7_11 
REMARK    6  A    between atoms: C7_11  and  C8_12 
REMARK    7  A    between atoms: C8_12  and  C9_14 
REMARK    8  A    between atoms: C9_14  and  C10_16 
REMARK    9  A    between atoms: C10_16  and  S1_17 
REMARK   10  A    between atoms: C14_24  and  C15_25 
REMARK       I    between atoms: C15_25  and  N2_27 
ROOT
HETATM    1  C4  UNL     1       6.967  22.615  18.299  1.00  0.00     0.023 C 
HETATM    2  C5  UNL     1       8.463  22.804  18.085  1.00  0.00     0.040 C 
HETATM    3  C6  UNL     1       9.267  22.643  19.308  1.00  0.00     0.031 C 
HETATM    4  C11 UNL     1       8.881  21.278  19.813  1.00  0.00     0.036 C 
HETATM    5  C12 UNL     1       7.490  21.436  20.444  1.00  0.00    -0.006 C 
HETATM    6  C13 UNL     1       7.779  21.790  21.856  1.00  0.00     0.025 C 
HETATM    7  C14 UNL     1       7.588  23.274  22.137  1.00  0.00     0.045 C 
HETATM    8  C20 UNL     1       6.104  23.437  21.928  1.00  0.00     0.024 C 
HETATM    9  C21 UNL     1       6.093  23.558  20.384  1.00  0.00    -0.008 C 
HETATM   10  C22 UNL     1       7.011  24.728  20.296  1.00  0.00     0.011 C 
HETATM   11  C23 UNL     1       8.177  24.177  21.080  1.00  0.00     0.006 C 
HETATM   12  C24 UNL     1       9.297  23.705  20.330  1.00  0.00     0.036 C 
HETATM   13  C25 UNL     1       6.572  22.303  19.710  1.00  0.00     0.002 C 
ENDROOT
BRANCH   3  14
HETATM   14  N1  UNL     1      10.687  22.577  18.936  1.00  0.00    -0.386 N 
ATOM     15  H1  UNL     1      11.265  23.416  18.899  1.00  0.00     0.159 HD
BRANCH  14  16
HETATM   16  C7  UNL     1      11.219  21.310  18.632  1.00  0.00     0.143 C 
BRANCH  16  17
HETATM   17  C8  UNL     1      12.653  21.303  19.131  1.00  0.00     0.233 C 
HETATM   18  O2  UNL     1      13.341  20.295  18.808  1.00  0.00    -0.283 OA
BRANCH  17  19
HETATM   19  C9  UNL     1      13.195  22.377  19.916  1.00  0.00     0.216 C 
HETATM   20  O3  UNL     1      12.674  22.681  21.044  1.00  0.00    -0.288 OA
BRANCH  19  21
HETATM   21  C10 UNL     1      14.343  23.160  19.446  1.00  0.00     0.252 C 
BRANCH  21  22
HETATM   22  S1  UNL     1      13.853  24.862  19.097  1.00  0.00     0.109 S 
HETATM   23  O4  UNL     1      12.343  24.939  19.027  1.00  0.00    -0.595 OA
HETATM   24  O5  UNL     1      14.431  25.227  17.772  1.00  0.00    -0.595 OA
HETATM   25  O6  UNL     1      14.425  25.875  20.289  1.00  0.00    -0.595 OA
ENDBRANCH  21  22
ENDBRANCH  19  21
ENDBRANCH  17  19
ENDBRANCH  16  17
ENDBRANCH  14  16
ENDBRANCH   3  14
BRANCH   1  26
HETATM   26  C2  UNL     1       6.382  21.685  17.289  1.00  0.00    -0.061 C 
HETATM   27  C1  UNL     1       5.199  21.180  17.230  1.00  0.00     0.017 C 
BRANCH  26  28
HETATM   28  C3  UNL     1       7.322  21.333  16.152  1.00  0.00     0.198 C 
BRANCH  28  29
HETATM   29  O1  UNL     1       7.546  19.946  16.116  1.00  0.00    -0.397 OA
ATOM     30  H1  UNL     1       7.400  19.611  15.240  1.00  0.00     0.209 HD
ENDBRANCH  28  29
ENDBRANCH  26  28
ENDBRANCH   1  26
BRANCH   7  31
HETATM   31  C15 UNL     1       8.117  23.574  23.466  1.00  0.00     0.229 C 
HETATM   32  O7  UNL     1       7.230  24.226  24.150  1.00  0.00    -0.272 OA
HETATM   33  N2  UNL     1       9.304  23.317  24.099  1.00  0.00    -0.347 N 
HETATM   34  C16 UNL     1       9.522  23.832  25.471  1.00  0.00     0.152 C 
HETATM   35  C19 UNL     1      10.456  22.558  23.685  1.00  0.00     0.152 C 
HETATM   36  C17 UNL     1       9.749  22.617  26.393  1.00  0.00     0.187 C 
HETATM   37  O8  UNL     1      10.702  21.773  25.873  1.00  0.00    -0.388 OA
HETATM   38  C18 UNL     1      10.421  21.306  24.593  1.00  0.00     0.187 C 
ENDBRANCH   7  31
TORSDOF 10
ENDMDL
MODEL 5
REMARK VINA RESULT: -7.628052609      3.497      6.483
REMARK  10 active torsions:
REMARK  status: ('A' for Active; 'I' for Inactive)
REMARK    1  A    between atoms: C2_2  and  C3_3 
REMARK    2  A    between atoms: C2_2  and  C4_6 
REMARK    3  A    between atoms: C3_3  and  O1_4 
REMARK    4  A    between atoms: C6_8  and  N1_9 
REMARK    5  A    between atoms: N1_9  and  C7_11 
REMARK    6  A    between atoms: C7_11  and  C8_12 
REMARK    7  A    between atoms: C8_12  and  C9_14 
REMARK    8  A    between atoms: C9_14  and  C10_16 
REMARK    9  A    between atoms: C10_16  and  S1_17 
REMARK   10  A    between atoms: C14_24  and  C15_25 
REMARK       I    between atoms: C15_25  and  N2_27 
ROOT
HETATM    1  C4  UNL     1       7.535  22.530  23.313  1.00  0.00     0.023 C 
HETATM    2  C5  UNL     1       8.875  21.810  23.243  1.00  0.00     0.040 C 
HETATM    3  C6  UNL     1       9.691  22.177  22.073  1.00  0.00     0.031 C 
HETATM    4  C11 UNL     1       9.796  23.675  22.166  1.00  0.00     0.036 C 
HETATM    5  C12 UNL     1       8.437  24.226  21.709  1.00  0.00    -0.006 C 
HETATM    6  C13 UNL     1       8.593  24.385  20.242  1.00  0.00     0.025 C 
HETATM    7  C14 UNL     1       7.906  23.274  19.458  1.00  0.00     0.045 C 
HETATM    8  C20 UNL     1       6.456  23.520  19.785  1.00  0.00     0.024 C 
HETATM    9  C21 UNL     1       6.398  22.811  21.161  1.00  0.00    -0.008 C 
HETATM   10  C22 UNL     1       6.861  21.477  20.688  1.00  0.00     0.011 C 
HETATM   11  C23 UNL     1       8.148  21.893  20.018  1.00  0.00     0.006 C 
HETATM   12  C24 UNL     1       9.359  21.652  20.736  1.00  0.00     0.036 C 
HETATM   13  C25 UNL     1       7.275  23.479  22.183  1.00  0.00     0.002 C 
ENDROOT
BRANCH   3  14
HETATM   14  N1  UNL     1      11.046  21.639  22.253  1.00  0.00    -0.386 N 
ATOM     15  H1  UNL     1      11.275  20.680  21.993  1.00  0.00     0.159 HD
BRANCH  14  16
HETATM   16  C7  UNL     1      12.017  22.500  22.799  1.00  0.00     0.143 C 
BRANCH  16  17
HETATM   17  C8  UNL     1      13.120  22.632  21.764  1.00  0.00     0.233 C 
HETATM   18  O2  UNL     1      14.294  22.716  22.222  1.00  0.00    -0.283 OA
BRANCH  17  19
HETATM   19  C9  UNL     1      12.847  22.655  20.354  1.00  0.00     0.216 C 
HETATM   20  O3  UNL     1      12.894  21.577  19.668  1.00  0.00    -0.288 OA
BRANCH  19  21
HETATM   21  C10 UNL     1      12.522  23.907  19.661  1.00  0.00     0.252 C 
BRANCH  21  22
HETATM   22  S1  UNL     1      14.028  24.774  19.175  1.00  0.00     0.109 S 
HETATM   23  O4  UNL     1      15.150  23.771  19.015  1.00  0.00    -0.595 OA
HETATM   24  O5  UNL     1      14.366  25.726  20.272  1.00  0.00    -0.595 OA
HETATM   25  O6  UNL     1      13.780  25.590  17.744  1.00  0.00    -0.595 OA
ENDBRANCH  21  22
ENDBRANCH  19  21
ENDBRANCH  17  19
ENDBRANCH  16  17
ENDBRANCH  14  16
ENDBRANCH   3  14
BRANCH   1  26
HETATM   26  C2  UNL     1       7.299  23.121  24.663  1.00  0.00    -0.061 C 
HETATM   27  C1  UNL     1       6.427  23.991  25.034  1.00  0.00     0.017 C 
BRANCH  26  28
HETATM   28  C3  UNL     1       8.201  22.565  25.749  1.00  0.00     0.198 C 
BRANCH  28  29
HETATM   29  O1  UNL     1       7.539  21.549  26.460  1.00  0.00    -0.397 OA
ATOM     30  H1  UNL     1       8.111  21.187  27.126  1.00  0.00     0.209 HD
ENDBRANCH  28  29
ENDBRANCH  26  28
ENDBRANCH   1  26
BRANCH   7  31
HETATM   31  C15 UNL     1       8.306  23.371  18.056  1.00  0.00     0.229 C 
HETATM   32  O7  UNL     1       9.348  24.134  17.953  1.00  0.00    -0.272 OA
HETATM   33  N2  UNL     1       7.820  22.844  16.889  1.00  0.00    -0.347 N 
HETATM   34  C16 UNL     1       8.463  23.210  15.604  1.00  0.00     0.152 C 
HETATM   35  C19 UNL     1       6.756  21.907  16.640  1.00  0.00     0.152 C 
HETATM   36  C17 UNL     1       9.000  21.913  14.968  1.00  0.00     0.187 C 
HETATM   37  O8  UNL     1       8.031  20.938  14.938  1.00  0.00    -0.388 OA
HETATM   38  C18 UNL     1       7.490  20.625  16.181  1.00  0.00     0.187 C 
ENDBRANCH   7  31
TORSDOF 10
ENDMDL
