MODEL 1
REMARK VINA RESULT: -6.843243936      0.000      0.000
REMARK  10 active torsions:
REMARK  status: ('A' for Active; 'I' for Inactive)
REMARK    1  A    between atoms: C2_2  and  C3_3 
REMARK    2  A    between atoms: C3_3  and  N1_6 
REMARK    3  A    between atoms: N1_6  and  S1_8 
REMARK    4  A    between atoms: S1_8  and  O3_11 
REMARK    5  A    between atoms: O3_11  and  C6_12 
REMARK    6  A    between atoms: C10_16  and  C11_17 
REMARK    7  A    between atoms: C11_17  and  N2_18 
REMARK    8  A    between atoms: C11_17  and  C20_31 
REMARK       I    between atoms: N2_18  and  C12_20 
REMARK       I    between atoms: C12_20  and  N3_22 
REMARK    9  A    between atoms: C20_31  and  O6_32 
REMARK   10  A    between atoms: C20_31  and  N4_34 
ROOT
HETATM    1  C11 UNL     1       7.930  22.555  20.970  1.00  0.00     0.151 C 
ENDROOT
BRANCH   1   2
HETATM    2  C10 UNL     1       8.800  21.945  22.055  1.00  0.00     0.043 C 
HETATM    3  C6  UNL     1      10.244  22.486  21.901  1.00  0.00     0.150 C 
HETATM    4  C7  UNL     1      10.136  23.877  22.421  1.00  0.00     0.034 C 
HETATM    5  C8  UNL     1       8.916  23.931  23.351  1.00  0.00     0.003 C 
HETATM    6  C9  UNL     1       8.401  22.513  23.397  1.00  0.00     0.009 C 
BRANCH   3   7
HETATM    7  O3  UNL     1      11.177  21.686  22.438  1.00  0.00    -0.254 OA
BRANCH   7   8
HETATM    8  S1  UNL     1      12.562  22.329  23.023  1.00  0.00     0.359 S 
HETATM    9  O1  UNL     1      13.138  23.203  21.914  1.00  0.00    -0.176 OA
HETATM   10  O2  UNL     1      13.629  21.294  23.271  1.00  0.00    -0.176 OA
BRANCH   8  11
HETATM   11  N1  UNL     1      12.307  23.356  24.351  1.00  0.00    -0.284 N 
ATOM     12  H1  UNL     1      12.397  24.369  24.275  1.00  0.00     0.175 HD
BRANCH  11  13
HETATM   13  C3  UNL     1      11.962  22.722  25.576  1.00  0.00     0.052 C 
HETATM   14  C4  UNL     1      13.178  22.534  26.454  1.00  0.00     0.043 C 
HETATM   15  C5  UNL     1      10.996  23.625  26.315  1.00  0.00     0.043 C 
BRANCH  13  16
HETATM   16  C2  UNL     1      11.299  21.407  25.428  1.00  0.00    -0.006 C 
HETATM   17  C1  UNL     1      10.265  21.033  26.159  1.00  0.00     0.009 C 
ENDBRANCH  13  16
ENDBRANCH  11  13
ENDBRANCH   8  11
ENDBRANCH   7   8
ENDBRANCH   3   7
ENDBRANCH   1   2
BRANCH   1  18
HETATM   18  N2  UNL     1       8.064  21.832  19.727  1.00  0.00    -0.334 N 
HETATM   19  C12 UNL     1       8.227  22.551  18.489  1.00  0.00     0.320 C 
HETATM   20  O4  UNL     1       8.246  23.821  18.532  1.00  0.00    -0.247 OA
HETATM   21  N3  UNL     1       8.363  21.923  17.254  1.00  0.00    -0.313 N 
HETATM   22  C13 UNL     1       8.366  20.499  17.020  1.00  0.00     0.171 A 
HETATM   23  C17 UNL     1       8.528  22.555  15.973  1.00  0.00     0.031 C 
HETATM   24  C14 UNL     1       7.668  19.920  15.868  1.00  0.00     0.157 A 
HETATM   25  C15 UNL     1       9.106  20.286  15.716  1.00  0.00     0.090 A 
HETATM   26  O5  UNL     1       6.708  19.446  15.269  1.00  0.00    -0.295 OA
HETATM   27  C16 UNL     1       9.356  21.630  15.115  1.00  0.00     0.045 C 
HETATM   28  C18 UNL     1       9.281  23.868  16.062  1.00  0.00     0.038 C 
HETATM   29  C19 UNL     1       7.204  22.853  15.306  1.00  0.00     0.038 C 
ATOM     30  H2  UNL     1       8.044  20.812  19.726  1.00  0.00     0.164 HD
ENDBRANCH   1  18
BRANCH   1  31
HETATM   31  C20 UNL     1       6.514  22.734  21.352  1.00  0.00     0.380 C 
BRANCH  31  32
HETATM   32  O6  UNL     1       6.055  23.873  20.625  1.00  0.00    -0.366 OA
ATOM     33  H6  UNL     1       5.589  24.412  21.254  1.00  0.00     0.212 HD
ENDBRANCH  31  32
BRANCH  31  34
HETATM   34  N4  UNL     1       5.622  21.651  21.319  1.00  0.00     0.123 N 
HETATM   35  C21 UNL     1       4.774  21.566  20.196  1.00  0.00     0.302 C 
HETATM   36  C22 UNL     1       3.438  20.898  20.432  1.00  0.00     0.198 C 
HETATM   37  O7  UNL     1       2.901  21.113  21.674  1.00  0.00    -0.388 OA
HETATM   38  C23 UNL     1       3.805  20.581  22.598  1.00  0.00     0.198 C 
HETATM   39  C24 UNL     1       5.004  21.469  22.591  1.00  0.00     0.302 C 
ENDBRANCH  31  34
ENDBRANCH   1  31
TORSDOF 10
ENDMDL
MODEL 2
REMARK VINA RESULT: -6.759466659      1.683      2.767
REMARK  10 active torsions:
REMARK  status: ('A' for Active; 'I' for Inactive)
REMARK    1  A    between atoms: C2_2  and  C3_3 
REMARK    2  A    between atoms: C3_3  and  N1_6 
REMARK    3  A    between atoms: N1_6  and  S1_8 
REMARK    4  A    between atoms: S1_8  and  O3_11 
REMARK    5  A    between atoms: O3_11  and  C6_12 
REMARK    6  A    between atoms: C10_16  and  C11_17 
REMARK    7  A    between atoms: C11_17  and  N2_18 
REMARK    8  A    between atoms: C11_17  and  C20_31 
REMARK       I    between atoms: N2_18  and  C12_20 
REMARK       I    between atoms: C12_20  and  N3_22 
REMARK    9  A    between atoms: C20_31  and  O6_32 
REMARK   10  A    between atoms: C20_31  and  N4_34 
ROOT
HETATM    1  C11 UNL     1       7.672  22.583  21.282  1.00  0.00     0.151 C 
ENDROOT
BRANCH   1   2
HETATM    2  C10 UNL     1       8.483  21.993  22.422  1.00  0.00     0.043 C 
HETATM    3  C6  UNL     1       9.789  22.811  22.583  1.00  0.00     0.150 C 
HETATM    4  C7  UNL     1       9.319  24.064  23.234  1.00  0.00     0.034 C 
HETATM    5  C8  UNL     1       7.993  23.751  23.941  1.00  0.00     0.003 C 
HETATM    6  C9  UNL     1       7.784  22.270  23.732  1.00  0.00     0.009 C 
BRANCH   3   7
HETATM    7  O3  UNL     1      10.781  22.129  23.176  1.00  0.00    -0.254 OA
BRANCH   7   8
HETATM    8  S1  UNL     1      12.271  22.108  22.501  1.00  0.00     0.359 S 
HETATM    9  O1  UNL     1      13.172  21.341  23.463  1.00  0.00    -0.176 OA
HETATM   10  O2  UNL     1      12.895  23.477  22.419  1.00  0.00    -0.176 OA
BRANCH   8  11
HETATM   11  N1  UNL     1      12.321  21.263  21.029  1.00  0.00    -0.284 N 
ATOM     12  H1  UNL     1      12.380  20.246  20.993  1.00  0.00     0.175 HD
BRANCH  11  13
HETATM   13  C3  UNL     1      12.276  22.056  19.850  1.00  0.00     0.052 C 
HETATM   14  C4  UNL     1      13.650  22.571  19.487  1.00  0.00     0.043 C 
HETATM   15  C5  UNL     1      11.799  21.178  18.712  1.00  0.00     0.043 C 
BRANCH  13  16
HETATM   16  C2  UNL     1      11.358  23.215  19.917  1.00  0.00    -0.006 C 
HETATM   17  C1  UNL     1      11.595  24.360  19.303  1.00  0.00     0.009 C 
ENDBRANCH  13  16
ENDBRANCH  11  13
ENDBRANCH   8  11
ENDBRANCH   7   8
ENDBRANCH   3   7
ENDBRANCH   1   2
BRANCH   1  18
HETATM   18  N2  UNL     1       7.915  21.872  20.048  1.00  0.00    -0.334 N 
HETATM   19  C12 UNL     1       8.095  22.603  18.819  1.00  0.00     0.320 C 
HETATM   20  O4  UNL     1       8.032  23.871  18.862  1.00  0.00    -0.247 OA
HETATM   21  N3  UNL     1       8.334  21.988  17.594  1.00  0.00    -0.313 N 
HETATM   22  C13 UNL     1       8.439  20.567  17.361  1.00  0.00     0.171 A 
HETATM   23  C17 UNL     1       8.525  22.632  16.322  1.00  0.00     0.031 C 
HETATM   24  C14 UNL     1       7.839  19.948  16.175  1.00  0.00     0.157 A 
HETATM   25  C15 UNL     1       9.257  20.405  16.098  1.00  0.00     0.090 A 
HETATM   26  O5  UNL     1       6.943  19.416  15.529  1.00  0.00    -0.295 OA
HETATM   27  C16 UNL     1       9.452  21.764  15.509  1.00  0.00     0.045 C 
HETATM   28  C18 UNL     1       9.187  23.990  16.449  1.00  0.00     0.038 C 
HETATM   29  C19 UNL     1       7.220  22.847  15.588  1.00  0.00     0.038 C 
ATOM     30  H2  UNL     1       7.960  20.853  20.047  1.00  0.00     0.164 HD
ENDBRANCH   1  18
BRANCH   1  31
HETATM   31  C20 UNL     1       6.228  22.715  21.565  1.00  0.00     0.380 C 
BRANCH  31  32
HETATM   32  O6  UNL     1       5.798  23.879  20.860  1.00  0.00    -0.366 OA
ATOM     33  H6  UNL     1       6.590  24.348  20.627  1.00  0.00     0.212 HD
ENDBRANCH  31  32
BRANCH  31  34
HETATM   34  N4  UNL     1       5.366  21.618  21.415  1.00  0.00     0.123 N 
HETATM   35  C21 UNL     1       4.731  21.482  20.164  1.00  0.00     0.302 C 
HETATM   36  C22 UNL     1       3.380  20.801  20.186  1.00  0.00     0.198 C 
HETATM   37  O7  UNL     1       2.631  21.049  21.305  1.00  0.00    -0.388 OA
HETATM   38  C23 UNL     1       3.363  20.563  22.393  1.00  0.00     0.198 C 
HETATM   39  C24 UNL     1       4.536  21.468  22.564  1.00  0.00     0.302 C 
ENDBRANCH  31  34
ENDBRANCH   1  31
TORSDOF 10
ENDMDL
MODEL 3
REMARK VINA RESULT: -6.758741742      2.989      7.563
REMARK  10 active torsions:
REMARK  status: ('A' for Active; 'I' for Inactive)
REMARK    1  A    between atoms: C2_2  and  C3_3 
REMARK    2  A    between atoms: C3_3  and  N1_6 
REMARK    3  A    between atoms: N1_6  and  S1_8 
REMARK    4  A    between atoms: S1_8  and  O3_11 
REMARK    5  A    between atoms: O3_11  and  C6_12 
REMARK    6  A    between atoms: C10_16  and  C11_17 
REMARK    7  A    between atoms: C11_17  and  N2_18 
REMARK    8  A    between atoms: C11_17  and  C20_31 
REMARK       I    between atoms: N2_18  and  C12_20 
REMARK       I    between atoms: C12_20  and  N3_22 
REMARK    9  A    between atoms: C20_31  and  O6_32 
REMARK   10  A    between atoms: C20_31  and  N4_34 
ROOT
HETATM    1  C11 UNL     1       9.535  23.376  21.947  1.00  0.00     0.151 C 
ENDROOT
BRANCH   1   2
HETATM    2  C10 UNL     1       8.870  22.598  20.826  1.00  0.00     0.043 C 
HETATM    3  C6  UNL     1       9.968  21.984  19.922  1.00  0.00     0.150 C 
HETATM    4  C7  UNL     1      10.479  20.851  20.742  1.00  0.00     0.034 C 
HETATM    5  C8  UNL     1       9.377  20.466  21.738  1.00  0.00     0.003 C 
HETATM    6  C9  UNL     1       8.213  21.362  21.393  1.00  0.00     0.009 C 
BRANCH   3   7
HETATM    7  O3  UNL     1       9.552  21.719  18.675  1.00  0.00    -0.254 OA
BRANCH   7   8
HETATM    8  S1  UNL     1       9.108  22.945  17.687  1.00  0.00     0.359 S 
HETATM    9  O1  UNL     1       9.925  24.162  18.111  1.00  0.00    -0.176 OA
HETATM   10  O2  UNL     1       7.677  23.370  17.890  1.00  0.00    -0.176 OA
BRANCH   8  11
HETATM   11  N1  UNL     1       9.495  22.659  16.059  1.00  0.00    -0.284 N 
ATOM     12  H1  UNL     1      10.410  22.893  15.673  1.00  0.00     0.175 HD
BRANCH  11  13
HETATM   13  C3  UNL     1       8.471  22.073  15.265  1.00  0.00     0.052 C 
HETATM   14  C4  UNL     1       7.574  23.132  14.666  1.00  0.00     0.043 C 
HETATM   15  C5  UNL     1       9.130  21.329  14.123  1.00  0.00     0.043 C 
BRANCH  13  16
HETATM   16  C2  UNL     1       7.614  21.101  15.979  1.00  0.00    -0.006 C 
HETATM   17  C1  UNL     1       7.675  19.797  15.773  1.00  0.00     0.009 C 
ENDBRANCH  13  16
ENDBRANCH  11  13
ENDBRANCH   8  11
ENDBRANCH   7   8
ENDBRANCH   3   7
ENDBRANCH   1   2
BRANCH   1  18
HETATM   18  N2  UNL     1      10.842  23.846  21.551  1.00  0.00    -0.334 N 
HETATM   19  C12 UNL     1      11.986  23.585  22.387  1.00  0.00     0.320 C 
HETATM   20  O4  UNL     1      11.804  22.938  23.465  1.00  0.00    -0.247 OA
HETATM   21  N3  UNL     1      13.275  24.005  22.070  1.00  0.00    -0.313 N 
HETATM   22  C13 UNL     1      13.663  24.744  20.893  1.00  0.00     0.171 A 
HETATM   23  C17 UNL     1      14.470  23.792  22.840  1.00  0.00     0.031 C 
HETATM   24  C14 UNL     1      14.639  25.835  20.971  1.00  0.00     0.157 A 
HETATM   25  C15 UNL     1      15.135  24.459  20.681  1.00  0.00     0.090 A 
HETATM   26  O5  UNL     1      15.002  26.996  21.130  1.00  0.00    -0.295 OA
HETATM   27  C16 UNL     1      15.622  23.698  21.870  1.00  0.00     0.045 C 
HETATM   28  C18 UNL     1      14.441  22.490  23.618  1.00  0.00     0.038 C 
HETATM   29  C19 UNL     1      14.711  24.898  23.843  1.00  0.00     0.038 C 
ATOM     30  H2  UNL     1      10.955  24.364  20.679  1.00  0.00     0.164 HD
ENDBRANCH   1  18
BRANCH   1  31
HETATM   31  C20 UNL     1       8.707  24.462  22.511  1.00  0.00     0.380 C 
BRANCH  31  32
HETATM   32  O6  UNL     1       7.841  24.880  21.455  1.00  0.00    -0.366 OA
ATOM     33  H6  UNL     1       8.025  25.802  21.319  1.00  0.00     0.212 HD
ENDBRANCH  31  32
BRANCH  31  34
HETATM   34  N4  UNL     1       8.052  24.298  23.741  1.00  0.00     0.123 N 
HETATM   35  C21 UNL     1       8.793  23.692  24.775  1.00  0.00     0.302 C 
HETATM   36  C22 UNL     1       7.986  22.917  25.793  1.00  0.00     0.198 C 
HETATM   37  O7  UNL     1       6.882  22.283  25.286  1.00  0.00    -0.388 OA
HETATM   38  C23 UNL     1       6.052  23.281  24.765  1.00  0.00     0.198 C 
HETATM   39  C24 UNL     1       6.727  23.809  23.544  1.00  0.00     0.302 C 
ENDBRANCH  31  34
ENDBRANCH   1  31
TORSDOF 10
ENDMDL
MODEL 4
REMARK VINA RESULT: -6.726049877      2.600      6.263
REMARK  10 active torsions:
REMARK  status: ('A' for Active; 'I' for Inactive)
REMARK    1  A    between atoms: C2_2  and  C3_3 
REMARK    2  A    between atoms: C3_3  and  N1_6 
REMARK    3  A    between atoms: N1_6  and  S1_8 
REMARK    4  A    between atoms: S1_8  and  O3_11 
REMARK    5  A    between atoms: O3_11  and  C6_12 
REMARK    6  A    between atoms: C10_16  and  C11_17 
REMARK    7  A    between atoms: C11_17  and  N2_18 
REMARK    8  A    between atoms: C11_17  and  C20_31 
REMARK       I    between atoms: N2_18  and  C12_20 
REMARK       I    between atoms: C12_20  and  N3_22 
REMARK    9  A    between atoms: C20_31  and  O6_32 
REMARK   10  A    between atoms: C20_31  and  N4_34 
ROOT
HETATM    1  C11 UNL     1      10.475  22.569  20.333  1.00  0.00     0.151 C 
ENDROOT
BRANCH   1   2
HETATM    2  C10 UNL     1       9.233  22.887  21.145  1.00  0.00     0.043 C 
HETATM    3  C6  UNL     1       8.320  21.636  21.175  1.00  0.00     0.150 C 
HETATM    4  C7  UNL     1       9.019  20.735  22.132  1.00  0.00     0.034 C 
HETATM    5  C8  UNL     1       9.901  21.611  23.033  1.00  0.00     0.003 C 
HETATM    6  C9  UNL     1       9.607  23.028  22.602  1.00  0.00     0.009 C 
BRANCH   3   7
HETATM    7  O3  UNL     1       7.029  21.918  21.407  1.00  0.00    -0.254 OA
BRANCH   7   8
HETATM    8  S1  UNL     1       6.024  22.223  20.152  1.00  0.00     0.359 S 
HETATM    9  O1  UNL     1       6.635  21.543  18.931  1.00  0.00    -0.176 OA
HETATM   10  O2  UNL     1       5.980  23.683  19.781  1.00  0.00    -0.176 OA
BRANCH   8  11
HETATM   11  N1  UNL     1       4.484  21.539  20.354  1.00  0.00    -0.284 N 
ATOM     12  H1  UNL     1       3.894  21.293  19.559  1.00  0.00     0.175 HD
BRANCH  11  13
HETATM   13  C3  UNL     1       4.062  21.329  21.696  1.00  0.00     0.052 C 
HETATM   14  C4  UNL     1       4.006  22.632  22.460  1.00  0.00     0.043 C 
HETATM   15  C5  UNL     1       2.661  20.755  21.663  1.00  0.00     0.043 C 
BRANCH  13  16
HETATM   16  C2  UNL     1       4.900  20.384  22.467  1.00  0.00    -0.006 C 
HETATM   17  C1  UNL     1       4.896  20.327  23.787  1.00  0.00     0.009 C 
ENDBRANCH  13  16
ENDBRANCH  11  13
ENDBRANCH   8  11
ENDBRANCH   7   8
ENDBRANCH   3   7
ENDBRANCH   1   2
BRANCH   1  18
HETATM   18  N2  UNL     1      10.141  21.832  19.136  1.00  0.00    -0.334 N 
HETATM   19  C12 UNL     1       9.511  22.504  18.028  1.00  0.00     0.320 C 
HETATM   20  O4  UNL     1       9.265  23.745  18.142  1.00  0.00    -0.247 OA
HETATM   21  N3  UNL     1       9.161  21.861  16.845  1.00  0.00    -0.313 N 
HETATM   22  C13 UNL     1       9.366  20.464  16.543  1.00  0.00     0.171 A 
HETATM   23  C17 UNL     1       8.532  22.447  15.692  1.00  0.00     0.031 C 
HETATM   24  C14 UNL     1       8.343  19.683  15.841  1.00  0.00     0.157 A 
HETATM   25  C15 UNL     1       9.399  20.359  15.033  1.00  0.00     0.090 A 
HETATM   26  O5  UNL     1       7.346  18.973  15.756  1.00  0.00    -0.295 OA
HETATM   27  C16 UNL     1       9.015  21.691  14.479  1.00  0.00     0.045 C 
HETATM   28  C18 UNL     1       8.917  23.900  15.491  1.00  0.00     0.038 C 
HETATM   29  C19 UNL     1       7.022  22.400  15.778  1.00  0.00     0.038 C 
ATOM     30  H2  UNL     1      10.351  20.835  19.076  1.00  0.00     0.164 HD
ENDBRANCH   1  18
BRANCH   1  31
HETATM   31  C20 UNL     1      11.327  23.739  20.037  1.00  0.00     0.380 C 
BRANCH  31  32
HETATM   32  O6  UNL     1      10.550  24.885  20.385  1.00  0.00    -0.366 OA
ATOM     33  H6  UNL     1      11.174  25.582  20.548  1.00  0.00     0.212 HD
ENDBRANCH  31  32
BRANCH  31  34
HETATM   34  N4  UNL     1      12.650  23.797  20.503  1.00  0.00     0.123 N 
HETATM   35  C21 UNL     1      13.062  25.014  21.083  1.00  0.00     0.302 C 
HETATM   36  C22 UNL     1      14.535  25.333  20.957  1.00  0.00     0.198 C 
HETATM   37  O7  UNL     1      15.118  24.902  19.795  1.00  0.00    -0.388 OA
HETATM   38  C23 UNL     1      14.989  23.510  19.776  1.00  0.00     0.198 C 
HETATM   39  C24 UNL     1      13.543  23.214  19.557  1.00  0.00     0.302 C 
ENDBRANCH  31  34
ENDBRANCH   1  31
TORSDOF 10
ENDMDL
MODEL 5
REMARK VINA RESULT: -6.683717206      2.714      5.736
REMARK  10 active torsions:
REMARK  status: ('A' for Active; 'I' for Inactive)
REMARK    1  A    between atoms: C2_2  and  C3_3 
REMARK    2  A    between atoms: C3_3  and  N1_6 
REMARK    3  A    between atoms: N1_6  and  S1_8 
REMARK    4  A    between atoms: S1_8  and  O3_11 
REMARK    5  A    between atoms: O3_11  and  C6_12 
REMARK    6  A    between atoms: C10_16  and  C11_17 
REMARK    7  A    between atoms: C11_17  and  N2_18 
REMARK    8  A    between atoms: C11_17  and  C20_31 
REMARK       I    between atoms: N2_18  and  C12_20 
REMARK       I    between atoms: C12_20  and  N3_22 
REMARK    9  A    between atoms: C20_31  and  O6_32 
REMARK   10  A    between atoms: C20_31  and  N4_34 
ROOT
HETATM    1  C11 UNL     1      10.550  21.757  20.969  1.00  0.00     0.151 C 
ENDROOT
BRANCH   1   2
HETATM    2  C10 UNL     1       9.454  22.691  21.451  1.00  0.00     0.043 C 
HETATM    3  C6  UNL     1       8.371  21.856  22.181  1.00  0.00     0.150 C 
HETATM    4  C7  UNL     1       9.018  21.538  23.484  1.00  0.00     0.034 C 
HETATM    5  C8  UNL     1      10.104  22.594  23.733  1.00  0.00     0.003 C 
HETATM    6  C9  UNL     1       9.985  23.552  22.572  1.00  0.00     0.009 C 
BRANCH   3   7
HETATM    7  O3  UNL     1       7.166  22.445  22.206  1.00  0.00    -0.254 OA
BRANCH   7   8
HETATM    8  S1  UNL     1       5.871  21.623  22.775  1.00  0.00     0.359 S 
HETATM    9  O1  UNL     1       5.919  20.239  22.136  1.00  0.00    -0.176 OA
HETATM   10  O2  UNL     1       4.560  22.202  22.309  1.00  0.00    -0.176 OA
BRANCH   8  11
HETATM   11  N1  UNL     1       5.930  21.373  24.454  1.00  0.00    -0.284 N 
ATOM     12  H1  UNL     1       6.039  20.442  24.856  1.00  0.00     0.175 HD
BRANCH  11  13
HETATM   13  C3  UNL     1       5.817  22.535  25.265  1.00  0.00     0.052 C 
HETATM   14  C4  UNL     1       4.386  22.760  25.698  1.00  0.00     0.043 C 
HETATM   15  C5  UNL     1       6.646  22.317  26.513  1.00  0.00     0.043 C 
BRANCH  13  16
HETATM   16  C2  UNL     1       6.303  23.781  24.633  1.00  0.00    -0.006 C 
HETATM   17  C1  UNL     1       7.267  24.524  25.148  1.00  0.00     0.009 C 
ENDBRANCH  13  16
ENDBRANCH  11  13
ENDBRANCH   8  11
ENDBRANCH   7   8
ENDBRANCH   3   7
ENDBRANCH   1   2
BRANCH   1  18
HETATM   18  N2  UNL     1      10.263  21.258  19.644  1.00  0.00    -0.334 N 
HETATM   19  C12 UNL     1       9.641  22.117  18.669  1.00  0.00     0.320 C 
HETATM   20  O4  UNL     1       9.358  23.307  19.013  1.00  0.00    -0.247 OA
HETATM   21  N3  UNL     1       9.336  21.707  17.375  1.00  0.00    -0.313 N 
HETATM   22  C13 UNL     1       9.586  20.400  16.815  1.00  0.00     0.171 A 
HETATM   23  C17 UNL     1       8.717  22.490  16.339  1.00  0.00     0.031 C 
HETATM   24  C14 UNL     1       8.602  19.746  15.948  1.00  0.00     0.157 A 
HETATM   25  C15 UNL     1       9.657  20.589  15.315  1.00  0.00     0.090 A 
HETATM   26  O5  UNL     1       7.627  19.043  15.701  1.00  0.00    -0.295 OA
HETATM   27  C16 UNL     1       9.249  21.994  15.018  1.00  0.00     0.045 C 
HETATM   28  C18 UNL     1       9.066  23.962  16.433  1.00  0.00     0.038 C 
HETATM   29  C19 UNL     1       7.208  22.393  16.372  1.00  0.00     0.038 C 
ATOM     30  H2  UNL     1      10.502  20.296  19.399  1.00  0.00     0.164 HD
ENDBRANCH   1  18
BRANCH   1  31
HETATM   31  C20 UNL     1      11.913  22.318  21.062  1.00  0.00     0.380 C 
BRANCH  31  32
HETATM   32  O6  UNL     1      12.705  21.315  21.699  1.00  0.00    -0.366 OA
ATOM     33  H6  UNL     1      13.261  20.953  21.019  1.00  0.00     0.212 HD
ENDBRANCH  31  32
BRANCH  31  34
HETATM   34  N4  UNL     1      12.531  22.889  19.939  1.00  0.00     0.123 N 
HETATM   35  C21 UNL     1      13.797  22.379  19.587  1.00  0.00     0.302 C 
HETATM   36  C22 UNL     1      14.725  23.351  18.892  1.00  0.00     0.198 C 
HETATM   37  O7  UNL     1      14.607  24.652  19.306  1.00  0.00    -0.388 OA
HETATM   38  C23 UNL     1      13.296  25.045  19.018  1.00  0.00     0.198 C 
HETATM   39  C24 UNL     1      12.407  24.309  19.963  1.00  0.00     0.302 C 
ENDBRANCH  31  34
ENDBRANCH   1  31
TORSDOF 10
ENDMDL
