MODEL 1
REMARK VINA RESULT: -7.142752416      0.000      0.000
REMARK  11 active torsions:
REMARK  status: ('A' for Active; 'I' for Inactive)
REMARK    1  A    between atoms: C2_2  and  N1_3 
REMARK    2  A    between atoms: C2_2  and  C19_28 
REMARK    3  A    between atoms: N1_3  and  C3_5 
REMARK    4  A    between atoms: C3_5  and  O1_6 
REMARK    5  A    between atoms: C3_5  and  C4_8 
REMARK    6  A    between atoms: C4_8  and  C5_9 
REMARK    7  A    between atoms: C4_8  and  C16_25 
REMARK       I    between atoms: C5_9  and  N2_11 
REMARK    8  A    between atoms: C10_17  and  C11_18 
REMARK    9  A    between atoms: C11_18  and  O4_20 
REMARK   10  A    between atoms: O4_20  and  C12_21 
REMARK       I    between atoms: C19_28  and  N3_30 
REMARK   11  A    between atoms: C23_34  and  C24_35 
ROOT
HETATM    1  C4  UNL     1       6.642  23.059  21.998  1.00  0.00     0.040 C 
ENDROOT
BRANCH   1   2
HETATM    2  C3  UNL     1       6.135  23.665  20.747  1.00  0.00     0.254 C 
BRANCH   2   3
HETATM    3  N1  UNL     1       6.046  23.048  19.544  1.00  0.00    -0.359 N 
ATOM      4  H1  UNL     1       6.297  23.679  18.783  1.00  0.00     0.162 HD
BRANCH   3   5
HETATM    5  C2  UNL     1       5.711  21.807  19.075  1.00  0.00     0.072 C 
HETATM    6  C1  UNL     1       4.452  21.149  19.497  1.00  0.00     0.074 C 
BRANCH   5   7
HETATM    7  C19 UNL     1       5.938  21.643  17.576  1.00  0.00     0.266 C 
HETATM    8  O5  UNL     1       5.016  21.032  16.977  1.00  0.00    -0.266 OA
HETATM    9  N3  UNL     1       7.087  22.139  16.923  1.00  0.00    -0.334 N 
HETATM   10  C20 UNL     1       8.206  22.854  17.459  1.00  0.00     0.127 C 
HETATM   11  C23 UNL     1       7.303  21.977  15.492  1.00  0.00     0.176 C 
HETATM   12  C21 UNL     1       8.953  23.441  16.273  1.00  0.00     0.022 C 
HETATM   13  C22 UNL     1       7.948  23.320  15.165  1.00  0.00     0.036 C 
BRANCH  11  14
HETATM   14  C24 UNL     1       8.228  20.894  15.162  1.00  0.00     0.254 C 
HETATM   15  N4  UNL     1       9.044  21.077  13.993  1.00  0.00    -0.060 NA
HETATM   16  O6  UNL     1       8.373  19.829  15.800  1.00  0.00    -0.275 OA
ENDBRANCH  11  14
ENDBRANCH   5   7
ENDBRANCH   3   5
ENDBRANCH   2   3
BRANCH   2  17
HETATM   17  O1  UNL     1       6.894  24.896  20.575  1.00  0.00    -0.373 OA
ATOM     18  H1  UNL     1       7.819  24.677  20.552  1.00  0.00     0.212 HD
ENDBRANCH   2  17
ENDBRANCH   1   2
BRANCH   1  19
HETATM   19  C5  UNL     1       8.101  22.833  22.055  1.00  0.00     0.252 C 
HETATM   20  O2  UNL     1       8.635  21.936  21.312  1.00  0.00    -0.268 OA
HETATM   21  N2  UNL     1       8.974  23.543  22.888  1.00  0.00    -0.324 N 
HETATM   22  C6  UNL     1       8.519  24.642  23.788  1.00  0.00     0.202 C 
HETATM   23  C10 UNL     1      10.390  23.442  23.166  1.00  0.00     0.206 C 
HETATM   24  S1  UNL     1       9.200  23.928  25.356  1.00  0.00    -0.137 SA
HETATM   25  C7  UNL     1      10.438  22.793  24.557  1.00  0.00     0.032 C 
HETATM   26  C8  UNL     1       9.828  21.435  24.561  1.00  0.00     0.029 C 
HETATM   27  C9  UNL     1      11.773  22.900  25.195  1.00  0.00     0.029 C 
BRANCH  23  28
HETATM   28  C11 UNL     1      11.249  22.932  22.192  1.00  0.00     0.284 C 
HETATM   29  O3  UNL     1      11.572  21.751  21.989  1.00  0.00    -0.263 OA
BRANCH  28  30
HETATM   30  O4  UNL     1      11.863  23.848  21.290  1.00  0.00    -0.310 OA
BRANCH  30  31
HETATM   31  C12 UNL     1      11.590  23.854  19.923  1.00  0.00     0.060 C 
HETATM   32  C13 UNL     1      10.329  24.666  19.692  1.00  0.00     0.045 C 
HETATM   33  C14 UNL     1      11.503  22.498  19.299  1.00  0.00     0.045 C 
HETATM   34  C15 UNL     1      12.715  24.633  19.241  1.00  0.00     0.045 C 
ENDBRANCH  30  31
ENDBRANCH  28  30
ENDBRANCH  23  28
ENDBRANCH   1  19
BRANCH   1  35
HETATM   35  C16 UNL     1       5.788  22.107  22.750  1.00  0.00     0.024 A 
HETATM   36  C17 UNL     1       5.251  22.574  24.119  1.00  0.00     0.010 A 
HETATM   37  C18 UNL     1       4.349  22.252  23.028  1.00  0.00     0.010 A 
ENDBRANCH   1  35
TORSDOF 11
ENDMDL
MODEL 2
REMARK VINA RESULT: -7.130013301      0.754      1.005
REMARK  11 active torsions:
REMARK  status: ('A' for Active; 'I' for Inactive)
REMARK    1  A    between atoms: C2_2  and  N1_3 
REMARK    2  A    between atoms: C2_2  and  C19_28 
REMARK    3  A    between atoms: N1_3  and  C3_5 
REMARK    4  A    between atoms: C3_5  and  O1_6 
REMARK    5  A    between atoms: C3_5  and  C4_8 
REMARK    6  A    between atoms: C4_8  and  C5_9 
REMARK    7  A    between atoms: C4_8  and  C16_25 
REMARK       I    between atoms: C5_9  and  N2_11 
REMARK    8  A    between atoms: C10_17  and  C11_18 
REMARK    9  A    between atoms: C11_18  and  O4_20 
REMARK   10  A    between atoms: O4_20  and  C12_21 
REMARK       I    between atoms: C19_28  and  N3_30 
REMARK   11  A    between atoms: C23_34  and  C24_35 
ROOT
HETATM    1  C4  UNL     1       6.667  22.987  21.903  1.00  0.00     0.040 C 
ENDROOT
BRANCH   1   2
HETATM    2  C3  UNL     1       6.064  23.619  20.708  1.00  0.00     0.254 C 
BRANCH   2   3
HETATM    3  N1  UNL     1       5.892  23.030  19.500  1.00  0.00    -0.359 N 
ATOM      4  H1  UNL     1       5.987  23.705  18.741  1.00  0.00     0.162 HD
BRANCH   3   5
HETATM    5  C2  UNL     1       5.624  21.776  19.023  1.00  0.00     0.072 C 
HETATM    6  C1  UNL     1       4.388  21.060  19.418  1.00  0.00     0.074 C 
BRANCH   5   7
HETATM    7  C19 UNL     1       5.890  21.625  17.529  1.00  0.00     0.266 C 
HETATM    8  O5  UNL     1       4.984  21.017  16.902  1.00  0.00    -0.266 OA
HETATM    9  N3  UNL     1       7.054  22.128  16.911  1.00  0.00    -0.334 N 
HETATM   10  C20 UNL     1       8.157  22.841  17.481  1.00  0.00     0.127 C 
HETATM   11  C23 UNL     1       7.308  21.978  15.485  1.00  0.00     0.176 C 
HETATM   12  C21 UNL     1       8.934  23.438  16.320  1.00  0.00     0.022 C 
HETATM   13  C22 UNL     1       7.959  23.325  15.186  1.00  0.00     0.036 C 
BRANCH  11  14
HETATM   14  C24 UNL     1       8.243  20.899  15.170  1.00  0.00     0.254 C 
HETATM   15  N4  UNL     1       9.056  21.073  13.997  1.00  0.00    -0.060 NA
HETATM   16  O6  UNL     1       8.400  19.846  15.824  1.00  0.00    -0.275 OA
ENDBRANCH  11  14
ENDBRANCH   5   7
ENDBRANCH   3   5
ENDBRANCH   2   3
BRANCH   2  17
HETATM   17  O1  UNL     1       6.796  24.862  20.512  1.00  0.00    -0.373 OA
ATOM     18  H1  UNL     1       6.597  25.443  21.237  1.00  0.00     0.212 HD
ENDBRANCH   2  17
ENDBRANCH   1   2
BRANCH   1  19
HETATM   19  C5  UNL     1       8.108  22.673  21.802  1.00  0.00     0.252 C 
HETATM   20  O2  UNL     1       8.498  21.721  21.040  1.00  0.00    -0.268 OA
HETATM   21  N2  UNL     1       9.111  23.355  22.500  1.00  0.00    -0.324 N 
HETATM   22  C6  UNL     1       8.828  24.510  23.400  1.00  0.00     0.202 C 
HETATM   23  C10 UNL     1      10.541  23.176  22.618  1.00  0.00     0.206 C 
HETATM   24  S1  UNL     1       9.645  23.808  24.908  1.00  0.00    -0.137 SA
HETATM   25  C7  UNL     1      10.714  22.572  24.020  1.00  0.00     0.032 C 
HETATM   26  C8  UNL     1      10.031  21.255  24.149  1.00  0.00     0.029 C 
HETATM   27  C9  UNL     1      12.118  22.617  24.496  1.00  0.00     0.029 C 
BRANCH  23  28
HETATM   28  C11 UNL     1      11.251  22.581  21.574  1.00  0.00     0.284 C 
HETATM   29  O3  UNL     1      11.557  21.387  21.431  1.00  0.00    -0.263 OA
BRANCH  28  30
HETATM   30  O4  UNL     1      11.705  23.411  20.510  1.00  0.00    -0.310 OA
BRANCH  30  31
HETATM   31  C12 UNL     1      13.054  23.673  20.283  1.00  0.00     0.060 C 
HETATM   32  C13 UNL     1      13.629  22.539  19.456  1.00  0.00     0.045 C 
HETATM   33  C14 UNL     1      13.857  23.925  21.520  1.00  0.00     0.045 C 
HETATM   34  C15 UNL     1      13.131  24.915  19.393  1.00  0.00     0.045 C 
ENDBRANCH  30  31
ENDBRANCH  28  30
ENDBRANCH  23  28
ENDBRANCH   1  19
BRANCH   1  35
HETATM   35  C16 UNL     1       5.845  22.092  22.754  1.00  0.00     0.024 A 
HETATM   36  C17 UNL     1       5.375  22.651  24.113  1.00  0.00     0.010 A 
HETATM   37  C18 UNL     1       4.421  22.265  23.089  1.00  0.00     0.010 A 
ENDBRANCH   1  35
TORSDOF 11
ENDMDL
MODEL 3
REMARK VINA RESULT: -7.020385929      1.516      3.040
REMARK  11 active torsions:
REMARK  status: ('A' for Active; 'I' for Inactive)
REMARK    1  A    between atoms: C2_2  and  N1_3 
REMARK    2  A    between atoms: C2_2  and  C19_28 
REMARK    3  A    between atoms: N1_3  and  C3_5 
REMARK    4  A    between atoms: C3_5  and  O1_6 
REMARK    5  A    between atoms: C3_5  and  C4_8 
REMARK    6  A    between atoms: C4_8  and  C5_9 
REMARK    7  A    between atoms: C4_8  and  C16_25 
REMARK       I    between atoms: C5_9  and  N2_11 
REMARK    8  A    between atoms: C10_17  and  C11_18 
REMARK    9  A    between atoms: C11_18  and  O4_20 
REMARK   10  A    between atoms: O4_20  and  C12_21 
REMARK       I    between atoms: C19_28  and  N3_30 
REMARK   11  A    between atoms: C23_34  and  C24_35 
ROOT
HETATM    1  C4  UNL     1       6.434  23.333  21.942  1.00  0.00     0.040 C 
ENDROOT
BRANCH   1   2
HETATM    2  C3  UNL     1       6.059  23.729  20.566  1.00  0.00     0.254 C 
BRANCH   2   3
HETATM    3  N1  UNL     1       6.215  22.975  19.451  1.00  0.00    -0.359 N 
ATOM      4  H1  UNL     1       6.835  23.428  18.780  1.00  0.00     0.162 HD
BRANCH   3   5
HETATM    5  C2  UNL     1       5.766  21.770  18.983  1.00  0.00     0.072 C 
HETATM    6  C1  UNL     1       4.441  21.244  19.387  1.00  0.00     0.074 C 
BRANCH   5   7
HETATM    7  C19 UNL     1       6.001  21.573  17.489  1.00  0.00     0.266 C 
HETATM    8  O5  UNL     1       5.124  20.878  16.916  1.00  0.00    -0.266 OA
HETATM    9  N3  UNL     1       7.109  22.128  16.816  1.00  0.00    -0.334 N 
HETATM   10  C20 UNL     1       8.175  22.939  17.322  1.00  0.00     0.127 C 
HETATM   11  C23 UNL     1       7.334  21.935  15.390  1.00  0.00     0.176 C 
HETATM   12  C21 UNL     1       8.876  23.538  16.114  1.00  0.00     0.022 C 
HETATM   13  C22 UNL     1       7.880  23.309  15.016  1.00  0.00     0.036 C 
BRANCH  11  14
HETATM   14  C24 UNL     1       8.333  20.910  15.092  1.00  0.00     0.254 C 
HETATM   15  N4  UNL     1       9.147  21.124  13.925  1.00  0.00    -0.060 NA
HETATM   16  O6  UNL     1       8.545  19.872  15.755  1.00  0.00    -0.275 OA
ENDBRANCH  11  14
ENDBRANCH   5   7
ENDBRANCH   3   5
ENDBRANCH   2   3
BRANCH   2  17
HETATM   17  O1  UNL     1       6.701  25.016  20.342  1.00  0.00    -0.373 OA
ATOM     18  H1  UNL     1       6.694  25.501  21.159  1.00  0.00     0.212 HD
ENDBRANCH   2  17
ENDBRANCH   1   2
BRANCH   1  19
HETATM   19  C5  UNL     1       7.859  23.512  22.293  1.00  0.00     0.252 C 
HETATM   20  O2  UNL     1       8.248  24.610  22.826  1.00  0.00    -0.268 OA
HETATM   21  N2  UNL     1       8.847  22.545  22.080  1.00  0.00    -0.324 N 
HETATM   22  C6  UNL     1       8.554  21.202  21.502  1.00  0.00     0.202 C 
HETATM   23  C10 UNL     1      10.282  22.528  22.263  1.00  0.00     0.206 C 
HETATM   24  S1  UNL     1       9.761  21.305  20.100  1.00  0.00    -0.137 SA
HETATM   25  C7  UNL     1      10.829  22.640  20.832  1.00  0.00     0.032 C 
HETATM   26  C8  UNL     1      10.422  23.913  20.176  1.00  0.00     0.029 C 
HETATM   27  C9  UNL     1      12.271  22.302  20.741  1.00  0.00     0.029 C 
BRANCH  23  28
HETATM   28  C11 UNL     1      10.863  23.344  23.235  1.00  0.00     0.284 C 
HETATM   29  O3  UNL     1      11.562  24.357  23.075  1.00  0.00    -0.263 OA
BRANCH  28  30
HETATM   30  O4  UNL     1      10.654  23.012  24.604  1.00  0.00    -0.310 OA
BRANCH  30  31
HETATM   31  C12 UNL     1      11.454  22.097  25.286  1.00  0.00     0.060 C 
HETATM   32  C13 UNL     1      11.759  22.661  26.661  1.00  0.00     0.045 C 
HETATM   33  C14 UNL     1      12.697  21.692  24.560  1.00  0.00     0.045 C 
HETATM   34  C15 UNL     1      10.604  20.848  25.530  1.00  0.00     0.045 C 
ENDBRANCH  30  31
ENDBRANCH  28  30
ENDBRANCH  23  28
ENDBRANCH   1  19
BRANCH   1  35
HETATM   35  C16 UNL     1       5.716  22.217  22.605  1.00  0.00     0.024 A 
HETATM   36  C17 UNL     1       5.102  22.503  23.992  1.00  0.00     0.010 A 
HETATM   37  C18 UNL     1       4.268  22.136  22.861  1.00  0.00     0.010 A 
ENDBRANCH   1  35
TORSDOF 11
ENDMDL
MODEL 4
REMARK VINA RESULT: -6.815877527      3.301      7.166
REMARK  11 active torsions:
REMARK  status: ('A' for Active; 'I' for Inactive)
REMARK    1  A    between atoms: C2_2  and  N1_3 
REMARK    2  A    between atoms: C2_2  and  C19_28 
REMARK    3  A    between atoms: N1_3  and  C3_5 
REMARK    4  A    between atoms: C3_5  and  O1_6 
REMARK    5  A    between atoms: C3_5  and  C4_8 
REMARK    6  A    between atoms: C4_8  and  C5_9 
REMARK    7  A    between atoms: C4_8  and  C16_25 
REMARK       I    between atoms: C5_9  and  N2_11 
REMARK    8  A    between atoms: C10_17  and  C11_18 
REMARK    9  A    between atoms: C11_18  and  O4_20 
REMARK   10  A    between atoms: O4_20  and  C12_21 
REMARK       I    between atoms: C19_28  and  N3_30 
REMARK   11  A    between atoms: C23_34  and  C24_35 
ROOT
HETATM    1  C4  UNL     1       7.993  22.432  22.371  1.00  0.00     0.040 C 
ENDROOT
BRANCH   1   2
HETATM    2  C3  UNL     1       6.829  22.907  23.152  1.00  0.00     0.254 C 
BRANCH   2   3
HETATM    3  N1  UNL     1       5.553  22.991  22.704  1.00  0.00    -0.359 N 
ATOM      4  H1  UNL     1       5.305  23.952  22.467  1.00  0.00     0.162 HD
BRANCH   3   5
HETATM    5  C2  UNL     1       4.508  22.136  22.484  1.00  0.00     0.072 C 
HETATM    6  C1  UNL     1       4.068  21.812  21.106  1.00  0.00     0.074 C 
BRANCH   5   7
HETATM    7  C19 UNL     1       4.555  20.884  23.352  1.00  0.00     0.266 C 
HETATM    8  O5  UNL     1       5.369  20.010  22.955  1.00  0.00    -0.266 OA
HETATM    9  N3  UNL     1       3.752  20.726  24.501  1.00  0.00    -0.334 N 
HETATM   10  C20 UNL     1       2.796  21.622  25.079  1.00  0.00     0.127 C 
HETATM   11  C23 UNL     1       3.795  19.527  25.327  1.00  0.00     0.176 C 
HETATM   12  C21 UNL     1       2.504  21.102  26.476  1.00  0.00     0.022 C 
HETATM   13  C22 UNL     1       3.637  20.148  26.710  1.00  0.00     0.036 C 
BRANCH  11  14
HETATM   14  C24 UNL     1       2.690  18.605  25.071  1.00  0.00     0.254 C 
HETATM   15  N4  UNL     1       2.443  17.602  26.072  1.00  0.00    -0.060 NA
HETATM   16  O6  UNL     1       1.943  18.608  24.069  1.00  0.00    -0.275 OA
ENDBRANCH  11  14
ENDBRANCH   5   7
ENDBRANCH   3   5
ENDBRANCH   2   3
BRANCH   2  17
HETATM   17  O1  UNL     1       7.217  24.209  23.677  1.00  0.00    -0.373 OA
ATOM     18  H1  UNL     1       7.850  24.074  24.373  1.00  0.00     0.212 HD
ENDBRANCH   2  17
ENDBRANCH   1   2
BRANCH   1  19
HETATM   19  C5  UNL     1       7.763  22.254  20.922  1.00  0.00     0.252 C 
HETATM   20  O2  UNL     1       7.371  21.119  20.475  1.00  0.00    -0.268 OA
HETATM   21  N2  UNL     1       7.948  23.261  19.968  1.00  0.00    -0.324 N 
HETATM   22  C6  UNL     1       8.367  24.647  20.326  1.00  0.00     0.202 C 
HETATM   23  C10 UNL     1       7.866  23.295  18.525  1.00  0.00     0.206 C 
HETATM   24  S1  UNL     1       9.854  24.712  19.223  1.00  0.00    -0.137 SA
HETATM   25  C7  UNL     1       9.336  23.339  18.081  1.00  0.00     0.032 C 
HETATM   26  C8  UNL     1      10.085  22.126  18.512  1.00  0.00     0.029 C 
HETATM   27  C9  UNL     1       9.494  23.719  16.656  1.00  0.00     0.029 C 
BRANCH  23  28
HETATM   28  C11 UNL     1       7.024  22.402  17.861  1.00  0.00     0.284 C 
HETATM   29  O3  UNL     1       5.816  22.526  17.603  1.00  0.00    -0.263 OA
BRANCH  28  30
HETATM   30  O4  UNL     1       7.576  21.173  17.399  1.00  0.00    -0.310 OA
BRANCH  30  31
HETATM   31  C12 UNL     1       7.485  20.760  16.071  1.00  0.00     0.060 C 
HETATM   32  C13 UNL     1       8.669  19.860  15.768  1.00  0.00     0.045 C 
HETATM   33  C14 UNL     1       7.360  21.872  15.079  1.00  0.00     0.045 C 
HETATM   34  C15 UNL     1       6.248  19.867  15.960  1.00  0.00     0.045 C 
ENDBRANCH  30  31
ENDBRANCH  28  30
ENDBRANCH  23  28
ENDBRANCH   1  19
BRANCH   1  35
HETATM   35  C16 UNL     1       8.982  21.527  23.007  1.00  0.00     0.024 A 
HETATM   36  C17 UNL     1      10.421  22.062  23.168  1.00  0.00     0.010 A 
HETATM   37  C18 UNL     1       9.616  21.709  24.324  1.00  0.00     0.010 A 
ENDBRANCH   1  35
TORSDOF 11
ENDMDL
MODEL 5
REMARK VINA RESULT: -6.812289383      3.518      6.291
REMARK  11 active torsions:
REMARK  status: ('A' for Active; 'I' for Inactive)
REMARK    1  A    between atoms: C2_2  and  N1_3 
REMARK    2  A    between atoms: C2_2  and  C19_28 
REMARK    3  A    between atoms: N1_3  and  C3_5 
REMARK    4  A    between atoms: C3_5  and  O1_6 
REMARK    5  A    between atoms: C3_5  and  C4_8 
REMARK    6  A    between atoms: C4_8  and  C5_9 
REMARK    7  A    between atoms: C4_8  and  C16_25 
REMARK       I    between atoms: C5_9  and  N2_11 
REMARK    8  A    between atoms: C10_17  and  C11_18 
REMARK    9  A    between atoms: C11_18  and  O4_20 
REMARK   10  A    between atoms: O4_20  and  C12_21 
REMARK       I    between atoms: C19_28  and  N3_30 
REMARK   11  A    between atoms: C23_34  and  C24_35 
ROOT
HETATM    1  C4  UNL     1       4.271  21.431  21.165  1.00  0.00     0.040 C 
ENDROOT
BRANCH   1   2
HETATM    2  C3  UNL     1       5.299  22.412  20.750  1.00  0.00     0.254 C 
BRANCH   2   3
HETATM    3  N1  UNL     1       6.448  22.128  20.091  1.00  0.00    -0.359 N 
ATOM      4  H1  UNL     1       6.805  21.207  20.346  1.00  0.00     0.162 HD
BRANCH   3   5
HETATM    5  C2  UNL     1       7.259  22.742  19.176  1.00  0.00     0.072 C 
HETATM    6  C1  UNL     1       8.013  23.968  19.530  1.00  0.00     0.074 C 
BRANCH   5   7
HETATM    7  C19 UNL     1       8.132  21.770  18.389  1.00  0.00     0.266 C 
HETATM    8  O5  UNL     1       9.223  21.487  18.950  1.00  0.00    -0.266 OA
HETATM    9  N3  UNL     1       7.743  21.239  17.142  1.00  0.00    -0.334 N 
HETATM   10  C20 UNL     1       6.545  21.456  16.389  1.00  0.00     0.127 C 
HETATM   11  C23 UNL     1       8.581  20.315  16.391  1.00  0.00     0.176 C 
HETATM   12  C21 UNL     1       6.502  20.376  15.322  1.00  0.00     0.022 C 
HETATM   13  C22 UNL     1       7.513  19.387  15.821  1.00  0.00     0.036 C 
BRANCH  11  14
HETATM   14  C24 UNL     1       9.315  20.951  15.298  1.00  0.00     0.254 C 
HETATM   15  N4  UNL     1       9.994  20.075  14.382  1.00  0.00    -0.060 NA
HETATM   16  O6  UNL     1       9.405  22.180  15.087  1.00  0.00    -0.275 OA
ENDBRANCH  11  14
ENDBRANCH   5   7
ENDBRANCH   3   5
ENDBRANCH   2   3
BRANCH   2  17
HETATM   17  O1  UNL     1       5.634  23.158  21.954  1.00  0.00    -0.373 OA
ATOM     18  H1  UNL     1       4.830  23.337  22.429  1.00  0.00     0.212 HD
ENDBRANCH   2  17
ENDBRANCH   1   2
BRANCH   1  19
HETATM   19  C5  UNL     1       4.280  21.061  22.596  1.00  0.00     0.252 C 
HETATM   20  O2  UNL     1       5.208  20.304  23.051  1.00  0.00    -0.268 OA
HETATM   21  N2  UNL     1       3.321  21.485  23.522  1.00  0.00    -0.324 N 
HETATM   22  C6  UNL     1       2.197  22.397  23.163  1.00  0.00     0.202 C 
HETATM   23  C10 UNL     1       3.085  21.193  24.919  1.00  0.00     0.206 C 
HETATM   24  S1  UNL     1       0.830  21.295  23.756  1.00  0.00    -0.137 SA
HETATM   25  C7  UNL     1       1.872  20.252  24.891  1.00  0.00     0.032 C 
HETATM   26  C8  UNL     1       2.161  18.990  24.156  1.00  0.00     0.029 C 
HETATM   27  C9  UNL     1       1.240  20.090  26.223  1.00  0.00     0.029 C 
BRANCH  23  28
HETATM   28  C11 UNL     1       4.156  20.831  25.738  1.00  0.00     0.284 C 
HETATM   29  O3  UNL     1       4.442  19.709  26.183  1.00  0.00    -0.263 OA
BRANCH  28  30
HETATM   30  O4  UNL     1       5.068  21.848  26.142  1.00  0.00    -0.310 OA
BRANCH  30  31
HETATM   31  C12 UNL     1       5.014  22.451  27.397  1.00  0.00     0.060 C 
HETATM   32  C13 UNL     1       6.251  22.045  28.176  1.00  0.00     0.045 C 
HETATM   33  C14 UNL     1       3.758  22.183  28.164  1.00  0.00     0.045 C 
HETATM   34  C15 UNL     1       5.138  23.960  27.179  1.00  0.00     0.045 C 
ENDBRANCH  30  31
ENDBRANCH  28  30
ENDBRANCH  23  28
ENDBRANCH   1  19
BRANCH   1  35
HETATM   35  C16 UNL     1       3.822  20.390  20.208  1.00  0.00     0.024 A 
HETATM   36  C17 UNL     1       2.342  20.426  19.774  1.00  0.00     0.010 A 
HETATM   37  C18 UNL     1       3.413  20.603  18.809  1.00  0.00     0.010 A 
ENDBRANCH   1  35
TORSDOF 11
ENDMDL
