MODEL 1
REMARK VINA RESULT: -7.547550528      0.000      0.000
REMARK  2 active torsions:
REMARK  status: ('A' for Active; 'I' for Inactive)
REMARK    1  A    between atoms: C2_3  and  N2_4 
REMARK       I    between atoms: N2_4  and  C3_6 
REMARK       I    between atoms: C3_6  and  N3_8 
REMARK    2  A    between atoms: N3_8  and  C4_10 
ROOT
HETATM    1  N1  UNL     1       2.631   4.023  10.304  1.00  0.00    -0.196 NA
HETATM    2  C1  UNL     1       1.669   4.569  10.681  1.00  0.00     0.078 C 
HETATM    3  C2  UNL     1       0.471   5.231  11.151  1.00  0.00     0.248 C 
ENDROOT
BRANCH   3   4
HETATM    4  N2  UNL     1       0.029   4.648  12.373  1.00  0.00    -0.331 N 
HETATM    5  C3  UNL     1      -1.342   4.241  12.520  1.00  0.00     0.317 C 
HETATM    6  O1  UNL     1      -2.130   4.408  11.555  1.00  0.00    -0.247 OA
HETATM    7  N3  UNL     1      -1.823   3.659  13.714  1.00  0.00    -0.338 N 
ATOM      8  H3  UNL     1      -1.193   3.518  14.503  1.00  0.00     0.164 HD
ATOM      9  H2  UNL     1       0.684   4.521  13.144  1.00  0.00     0.165 HD
BRANCH   7  10
HETATM   10  C4  UNL     1      -3.203   3.266  13.816  1.00  0.00     0.091 C 
HETATM   11  C5  UNL     1      -3.437   2.192  12.783  1.00  0.00     0.051 C 
HETATM   12  C6  UNL     1      -4.205   1.077  13.468  1.00  0.00     0.171 C 
HETATM   13  O2  UNL     1      -5.251   1.670  14.142  1.00  0.00    -0.380 OA
HETATM   14  C7  UNL     1      -4.845   2.196  15.394  1.00  0.00     0.062 C 
HETATM   15  C8  UNL     1      -5.763   3.312  15.695  1.00  0.00     0.038 C 
HETATM   16  C12 UNL     1      -4.753   1.081  16.344  1.00  0.00     0.038 C 
HETATM   17  C13 UNL     1      -3.438   2.785  15.218  1.00  0.00     0.063 C 
HETATM   18  C9  UNL     1      -6.844   3.032  16.692  1.00  0.00     0.003 C 
HETATM   19  C10 UNL     1      -6.359   2.248  17.883  1.00  0.00     0.000 C 
HETATM   20  C11 UNL     1      -5.867   0.939  17.332  1.00  0.00     0.003 C 
ENDBRANCH   7  10
ENDBRANCH   3   4
TORSDOF 2
ENDMDL
MODEL 2
REMARK VINA RESULT: -7.476809512      1.230      1.716
REMARK  2 active torsions:
REMARK  status: ('A' for Active; 'I' for Inactive)
REMARK    1  A    between atoms: C2_3  and  N2_4 
REMARK       I    between atoms: N2_4  and  C3_6 
REMARK       I    between atoms: C3_6  and  N3_8 
REMARK    2  A    between atoms: N3_8  and  C4_10 
ROOT
HETATM    1  N1  UNL     1       0.190   8.532  13.095  1.00  0.00    -0.196 NA
HETATM    2  C1  UNL     1       0.076   7.556  12.463  1.00  0.00     0.078 C 
HETATM    3  C2  UNL     1      -0.057   6.340  11.691  1.00  0.00     0.248 C 
ENDROOT
BRANCH   3   4
HETATM    4  N2  UNL     1      -0.317   5.233  12.549  1.00  0.00    -0.331 N 
HETATM    5  C3  UNL     1      -1.664   4.763  12.727  1.00  0.00     0.317 C 
HETATM    6  O1  UNL     1      -2.594   5.346  12.114  1.00  0.00    -0.247 OA
HETATM    7  N3  UNL     1      -1.967   3.669  13.568  1.00  0.00    -0.338 N 
ATOM      8  H3  UNL     1      -1.221   3.188  14.069  1.00  0.00     0.164 HD
ATOM      9  H2  UNL     1       0.452   4.773  13.037  1.00  0.00     0.165 HD
BRANCH   7  10
HETATM   10  C4  UNL     1      -3.330   3.234  13.715  1.00  0.00     0.091 C 
HETATM   11  C5  UNL     1      -3.560   2.139  12.703  1.00  0.00     0.051 C 
HETATM   12  C6  UNL     1      -4.271   1.009  13.424  1.00  0.00     0.171 C 
HETATM   13  O2  UNL     1      -5.315   1.577  14.123  1.00  0.00    -0.380 OA
HETATM   14  C7  UNL     1      -4.889   2.132  15.355  1.00  0.00     0.062 C 
HETATM   15  C8  UNL     1      -5.834   3.223  15.670  1.00  0.00     0.038 C 
HETATM   16  C12 UNL     1      -4.733   1.033  16.315  1.00  0.00     0.038 C 
HETATM   17  C13 UNL     1      -3.508   2.764  15.130  1.00  0.00     0.063 C 
HETATM   18  C9  UNL     1      -6.876   2.922  16.701  1.00  0.00     0.003 C 
HETATM   19  C10 UNL     1      -6.330   2.169  17.887  1.00  0.00     0.000 C 
HETATM   20  C11 UNL     1      -5.813   0.869  17.338  1.00  0.00     0.003 C 
ENDBRANCH   7  10
ENDBRANCH   3   4
TORSDOF 2
ENDMDL
MODEL 3
REMARK VINA RESULT: -7.389840139      1.417      1.778
REMARK  2 active torsions:
REMARK  status: ('A' for Active; 'I' for Inactive)
REMARK    1  A    between atoms: C2_3  and  N2_4 
REMARK       I    between atoms: N2_4  and  C3_6 
REMARK       I    between atoms: C3_6  and  N3_8 
REMARK    2  A    between atoms: N3_8  and  C4_10 
ROOT
HETATM    1  N1  UNL     1       3.126   3.294   9.095  1.00  0.00    -0.196 NA
HETATM    2  C1  UNL     1       2.502   3.972   9.814  1.00  0.00     0.078 C 
HETATM    3  C2  UNL     1       1.715   4.801  10.700  1.00  0.00     0.248 C 
ENDROOT
BRANCH   3   4
HETATM    4  N2  UNL     1       0.955   3.992  11.594  1.00  0.00    -0.331 N 
HETATM    5  C3  UNL     1      -0.480   4.077  11.595  1.00  0.00     0.317 C 
HETATM    6  O1  UNL     1      -1.040   4.871  10.798  1.00  0.00    -0.247 OA
HETATM    7  N3  UNL     1      -1.272   3.294  12.463  1.00  0.00    -0.338 N 
ATOM      8  H3  UNL     1      -0.829   2.646  13.114  1.00  0.00     0.164 HD
ATOM      9  H2  UNL     1       1.429   3.354  12.232  1.00  0.00     0.165 HD
BRANCH   7  10
HETATM   10  C4  UNL     1      -2.705   3.412  12.429  1.00  0.00     0.091 C 
HETATM   11  C5  UNL     1      -3.221   2.313  11.532  1.00  0.00     0.051 C 
HETATM   12  C6  UNL     1      -4.385   1.661  12.254  1.00  0.00     0.171 C 
HETATM   13  O2  UNL     1      -5.205   2.680  12.692  1.00  0.00    -0.380 OA
HETATM   14  C7  UNL     1      -4.739   3.252  13.902  1.00  0.00     0.062 C 
HETATM   15  C8  UNL     1      -5.225   4.646  13.919  1.00  0.00     0.038 C 
HETATM   16  C12 UNL     1      -5.123   2.357  15.000  1.00  0.00     0.038 C 
HETATM   17  C13 UNL     1      -3.206   3.293  13.840  1.00  0.00     0.063 C 
HETATM   18  C9  UNL     1      -6.411   4.926  14.787  1.00  0.00     0.003 C 
HETATM   19  C10 UNL     1      -6.330   4.248  16.130  1.00  0.00     0.000 C 
HETATM   20  C11 UNL     1      -6.291   2.775  15.838  1.00  0.00     0.003 C 
ENDBRANCH   7  10
ENDBRANCH   3   4
TORSDOF 2
ENDMDL
MODEL 4
REMARK VINA RESULT: -7.220282044      2.182      2.714
REMARK  2 active torsions:
REMARK  status: ('A' for Active; 'I' for Inactive)
REMARK    1  A    between atoms: C2_3  and  N2_4 
REMARK       I    between atoms: N2_4  and  C3_6 
REMARK       I    between atoms: C3_6  and  N3_8 
REMARK    2  A    between atoms: N3_8  and  C4_10 
ROOT
HETATM    1  N1  UNL     1      -1.107   8.986  15.316  1.00  0.00    -0.196 NA
HETATM    2  C1  UNL     1      -1.192   8.457  14.278  1.00  0.00     0.078 C 
HETATM    3  C2  UNL     1      -1.285   7.791  12.996  1.00  0.00     0.248 C 
ENDROOT
BRANCH   3   4
HETATM    4  N2  UNL     1      -1.223   6.378  13.165  1.00  0.00    -0.331 N 
HETATM    5  C3  UNL     1      -2.434   5.621  13.330  1.00  0.00     0.317 C 
HETATM    6  O1  UNL     1      -3.534   6.229  13.322  1.00  0.00    -0.247 OA
HETATM    7  N3  UNL     1      -2.419   4.218  13.499  1.00  0.00    -0.338 N 
ATOM      8  H3  UNL     1      -1.533   3.715  13.507  1.00  0.00     0.164 HD
ATOM      9  H2  UNL     1      -0.321   5.903  13.168  1.00  0.00     0.165 HD
BRANCH   7  10
HETATM   10  C4  UNL     1      -3.656   3.502  13.661  1.00  0.00     0.091 C 
HETATM   11  C5  UNL     1      -3.647   2.367  12.666  1.00  0.00     0.051 C 
HETATM   12  C6  UNL     1      -4.096   1.123  13.409  1.00  0.00     0.171 C 
HETATM   13  O2  UNL     1      -5.236   1.464  14.104  1.00  0.00    -0.380 OA
HETATM   14  C7  UNL     1      -4.937   2.117  15.326  1.00  0.00     0.062 C 
HETATM   15  C8  UNL     1      -6.094   2.983  15.630  1.00  0.00     0.038 C 
HETATM   16  C12 UNL     1      -4.546   1.093  16.301  1.00  0.00     0.038 C 
HETATM   17  C13 UNL     1      -3.725   3.027  15.084  1.00  0.00     0.063 C 
HETATM   18  C9  UNL     1      -7.044   2.481  16.672  1.00  0.00     0.003 C 
HETATM   19  C10 UNL     1      -6.346   1.883  17.865  1.00  0.00     0.000 C 
HETATM   20  C11 UNL     1      -5.563   0.716  17.333  1.00  0.00     0.003 C 
ENDBRANCH   7  10
ENDBRANCH   3   4
TORSDOF 2
ENDMDL
MODEL 5
REMARK VINA RESULT: -7.188207796      1.521      1.900
REMARK  2 active torsions:
REMARK  status: ('A' for Active; 'I' for Inactive)
REMARK    1  A    between atoms: C2_3  and  N2_4 
REMARK       I    between atoms: N2_4  and  C3_6 
REMARK       I    between atoms: C3_6  and  N3_8 
REMARK    2  A    between atoms: N3_8  and  C4_10 
ROOT
HETATM    1  N1  UNL     1       3.931   4.794  12.248  1.00  0.00    -0.196 NA
HETATM    2  C1  UNL     1       2.895   4.805  11.708  1.00  0.00     0.078 C 
HETATM    3  C2  UNL     1       1.614   4.801  11.036  1.00  0.00     0.248 C 
ENDROOT
BRANCH   3   4
HETATM    4  N2  UNL     1       0.795   3.746  11.533  1.00  0.00    -0.331 N 
HETATM    5  C3  UNL     1      -0.631   3.915  11.603  1.00  0.00     0.317 C 
HETATM    6  O1  UNL     1      -1.131   5.003  11.218  1.00  0.00    -0.247 OA
HETATM    7  N3  UNL     1      -1.479   2.896  12.088  1.00  0.00    -0.338 N 
ATOM      8  H3  UNL     1      -1.085   2.009  12.402  1.00  0.00     0.164 HD
ATOM      9  H2  UNL     1       1.221   2.871  11.839  1.00  0.00     0.165 HD
BRANCH   7  10
HETATM   10  C4  UNL     1      -2.901   3.109  12.140  1.00  0.00     0.091 C 
HETATM   11  C5  UNL     1      -3.541   2.058  11.267  1.00  0.00     0.051 C 
HETATM   12  C6  UNL     1      -4.703   1.477  12.051  1.00  0.00     0.171 C 
HETATM   13  O2  UNL     1      -5.424   2.544  12.543  1.00  0.00    -0.380 OA
HETATM   14  C7  UNL     1      -4.852   3.070  13.728  1.00  0.00     0.062 C 
HETATM   15  C8  UNL     1      -5.240   4.494  13.783  1.00  0.00     0.038 C 
HETATM   16  C12 UNL     1      -5.231   2.191  14.841  1.00  0.00     0.038 C 
HETATM   17  C13 UNL     1      -3.326   3.009  13.576  1.00  0.00     0.063 C 
HETATM   18  C9  UNL     1      -6.352   4.843  14.722  1.00  0.00     0.003 C 
HETATM   19  C10 UNL     1      -6.239   4.146  16.053  1.00  0.00     0.000 C 
HETATM   20  C11 UNL     1      -6.317   2.677  15.749  1.00  0.00     0.003 C 
ENDBRANCH   7  10
ENDBRANCH   3   4
TORSDOF 2
ENDMDL
