MODEL 1
REMARK VINA RESULT: -7.183376828      0.000      0.000
REMARK  3 active torsions:
REMARK  status: ('A' for Active; 'I' for Inactive)
REMARK    1  A    between atoms: O1_2  and  C2_3 
REMARK       I    between atoms: N1_6  and  C5_7 
REMARK       I    between atoms: C5_7  and  N3_12 
REMARK    2  A    between atoms: N2_8  and  O2_10 
REMARK    3  A    between atoms: N3_12  and  C6_14 
ROOT
HETATM    1  C2  UNL     1      -6.386   1.779  16.446  1.00  0.00     0.123 C 
HETATM    2  C3  UNL     1      -4.924   1.365  16.516  1.00  0.00     0.052 C 
HETATM    3  C4  UNL     1      -4.372   1.331  15.129  1.00  0.00     0.143 C 
HETATM    4  N1  UNL     1      -4.622   2.619  14.507  1.00  0.00    -0.216 N 
HETATM    5  C5  UNL     1      -3.612   3.106  13.620  1.00  0.00     0.696 C 
HETATM    6  N2  UNL     1      -2.466   3.373  14.109  1.00  0.00    -0.099 N 
ATOM      7  H2  UNL     1      -2.348   3.217  15.110  1.00  0.00     0.213 HD
HETATM    8  N3  UNL     1      -3.825   3.304  12.231  1.00  0.00    -0.220 N 
ATOM      9  H3  UNL     1      -3.989   4.253  11.892  1.00  0.00     0.178 HD
HETATM   10  C11 UNL     1      -5.791   3.412  14.721  1.00  0.00     0.143 C 
HETATM   11  C12 UNL     1      -6.409   3.241  16.089  1.00  0.00     0.052 C 
ENDROOT
BRANCH   6  12
HETATM   12  O2  UNL     1      -1.390   3.841  13.433  1.00  0.00    -0.276 OA
ATOM     13  H2  UNL     1      -0.589   4.183  13.812  1.00  0.00     0.245 HD
ENDBRANCH   6  12
BRANCH   8  14
HETATM   14  C6  UNL     1      -3.820   2.222  11.281  1.00  0.00     0.099 C 
HETATM   15  C7  UNL     1      -2.880   1.137  11.689  1.00  0.00     0.026 C 
HETATM   16  C8  UNL     1      -3.510  -0.180  11.304  1.00  0.00     0.002 C 
HETATM   17  C9  UNL     1      -4.751   0.193  10.541  1.00  0.00     0.002 C 
HETATM   18  C10 UNL     1      -5.165   1.486  11.256  1.00  0.00     0.026 C 
ENDBRANCH   8  14
BRANCH   1  19
HETATM   19  O1  UNL     1      -6.943   1.509  17.680  1.00  0.00    -0.391 OA
HETATM   20  C1  UNL     1      -6.302   2.135  18.734  1.00  0.00     0.202 C 
ENDBRANCH   1  19
TORSDOF 3
ENDMDL
MODEL 2
REMARK VINA RESULT: -6.626124675      2.011      5.743
REMARK  3 active torsions:
REMARK  status: ('A' for Active; 'I' for Inactive)
REMARK    1  A    between atoms: O1_2  and  C2_3 
REMARK       I    between atoms: N1_6  and  C5_7 
REMARK       I    between atoms: C5_7  and  N3_12 
REMARK    2  A    between atoms: N2_8  and  O2_10 
REMARK    3  A    between atoms: N3_12  and  C6_14 
ROOT
HETATM    1  C2  UNL     1      -4.451   3.422  10.757  1.00  0.00     0.123 C 
HETATM    2  C3  UNL     1      -3.854   4.289  11.855  1.00  0.00     0.052 C 
HETATM    3  C4  UNL     1      -4.411   3.847  13.168  1.00  0.00     0.143 C 
HETATM    4  N1  UNL     1      -4.174   2.421  13.306  1.00  0.00    -0.216 N 
HETATM    5  C5  UNL     1      -3.876   1.948  14.622  1.00  0.00     0.696 C 
HETATM    6  N2  UNL     1      -2.802   2.355  15.174  1.00  0.00    -0.099 N 
ATOM      7  H2  UNL     1      -2.223   2.996  14.632  1.00  0.00     0.213 HD
HETATM    8  N3  UNL     1      -4.716   1.056  15.338  1.00  0.00    -0.220 N 
ATOM      9  H3  UNL     1      -4.458   0.070  15.380  1.00  0.00     0.178 HD
HETATM   10  C11 UNL     1      -4.219   1.481  12.231  1.00  0.00     0.143 C 
HETATM   11  C12 UNL     1      -3.829   2.058  10.891  1.00  0.00     0.052 C 
ENDROOT
BRANCH   6  12
HETATM   12  O2  UNL     1      -2.352   2.021  16.407  1.00  0.00    -0.276 OA
ATOM     13  H2  UNL     1      -1.735   1.329  16.616  1.00  0.00     0.245 HD
ENDBRANCH   6  12
BRANCH   8  14
HETATM   14  C6  UNL     1      -5.917   1.486  16.007  1.00  0.00     0.099 C 
HETATM   15  C7  UNL     1      -5.898   1.127  17.455  1.00  0.00     0.026 C 
HETATM   16  C8  UNL     1      -6.563   2.252  18.212  1.00  0.00     0.002 C 
HETATM   17  C9  UNL     1      -7.085   3.178  17.149  1.00  0.00     0.002 C 
HETATM   18  C10 UNL     1      -6.018   3.015  16.059  1.00  0.00     0.026 C 
ENDBRANCH   8  14
BRANCH   1  19
HETATM   19  O1  UNL     1      -4.165   4.036   9.555  1.00  0.00    -0.391 OA
HETATM   20  C1  UNL     1      -3.141   4.963   9.627  1.00  0.00     0.202 C 
ENDBRANCH   1  19
TORSDOF 3
ENDMDL
MODEL 3
REMARK VINA RESULT: -6.423437242      2.252      3.105
REMARK  3 active torsions:
REMARK  status: ('A' for Active; 'I' for Inactive)
REMARK    1  A    between atoms: O1_2  and  C2_3 
REMARK       I    between atoms: N1_6  and  C5_7 
REMARK       I    between atoms: C5_7  and  N3_12 
REMARK    2  A    between atoms: N2_8  and  O2_10 
REMARK    3  A    between atoms: N3_12  and  C6_14 
ROOT
HETATM    1  C2  UNL     1      -5.624   2.629  16.140  1.00  0.00     0.123 C 
HETATM    2  C3  UNL     1      -6.260   3.240  14.902  1.00  0.00     0.052 C 
HETATM    3  C4  UNL     1      -5.213   3.380  13.847  1.00  0.00     0.143 C 
HETATM    4  N1  UNL     1      -4.590   2.083  13.649  1.00  0.00    -0.216 N 
HETATM    5  C5  UNL     1      -4.202   1.759  12.311  1.00  0.00     0.696 C 
HETATM    6  N2  UNL     1      -5.120   1.644  11.435  1.00  0.00    -0.099 N 
ATOM      7  H2  UNL     1      -6.078   1.793  11.753  1.00  0.00     0.213 HD
HETATM    8  N3  UNL     1      -2.853   1.563  11.917  1.00  0.00    -0.220 N 
ATOM      9  H3  UNL     1      -2.512   0.609  11.800  1.00  0.00     0.178 HD
HETATM   10  C11 UNL     1      -4.345   1.132  14.686  1.00  0.00     0.143 C 
HETATM   11  C12 UNL     1      -5.341   1.186  15.820  1.00  0.00     0.052 C 
ENDROOT
BRANCH   6  12
HETATM   12  O2  UNL     1      -4.951   1.344  10.125  1.00  0.00    -0.276 OA
ATOM     13  H2  UNL     1      -5.340   0.615   9.657  1.00  0.00     0.245 HD
ENDBRANCH   6  12
BRANCH   8  14
HETATM   14  C6  UNL     1      -1.946   2.656  11.676  1.00  0.00     0.099 C 
HETATM   15  C7  UNL     1      -0.968   2.331  10.597  1.00  0.00     0.026 C 
HETATM   16  C8  UNL     1      -0.729   3.594   9.804  1.00  0.00     0.002 C 
HETATM   17  C9  UNL     1      -1.476   4.665  10.547  1.00  0.00     0.002 C 
HETATM   18  C10 UNL     1      -2.673   3.873  11.092  1.00  0.00     0.026 C 
ENDBRANCH   8  14
BRANCH   1  19
HETATM   19  O1  UNL     1      -6.519   2.793  17.179  1.00  0.00    -0.391 OA
HETATM   20  C1  UNL     1      -6.243   2.011  18.286  1.00  0.00     0.202 C 
ENDBRANCH   1  19
TORSDOF 3
ENDMDL
MODEL 4
REMARK VINA RESULT: -6.193802663      2.369      3.396
REMARK  3 active torsions:
REMARK  status: ('A' for Active; 'I' for Inactive)
REMARK    1  A    between atoms: O1_2  and  C2_3 
REMARK       I    between atoms: N1_6  and  C5_7 
REMARK       I    between atoms: C5_7  and  N3_12 
REMARK    2  A    between atoms: N2_8  and  O2_10 
REMARK    3  A    between atoms: N3_12  and  C6_14 
ROOT
HETATM    1  C2  UNL     1      -5.403   2.433  16.079  1.00  0.00     0.123 C 
HETATM    2  C3  UNL     1      -6.236   2.927  14.906  1.00  0.00     0.052 C 
HETATM    3  C4  UNL     1      -5.323   3.209  13.759  1.00  0.00     0.143 C 
HETATM    4  N1  UNL     1      -4.534   2.017  13.501  1.00  0.00    -0.216 N 
HETATM    5  C5  UNL     1      -4.229   1.738  12.132  1.00  0.00     0.696 C 
HETATM    6  N2  UNL     1      -5.196   1.476  11.346  1.00  0.00    -0.099 N 
ATOM      7  H2  UNL     1      -6.132   1.484  11.752  1.00  0.00     0.213 HD
HETATM    8  N3  UNL     1      -2.908   1.740  11.613  1.00  0.00    -0.220 N 
ATOM      9  H3  UNL     1      -2.440   0.846  11.463  1.00  0.00     0.178 HD
HETATM   10  C11 UNL     1      -4.055   1.125  14.509  1.00  0.00     0.143 C 
HETATM   11  C12 UNL     1      -4.938   1.045  15.731  1.00  0.00     0.052 C 
ENDROOT
BRANCH   6  12
HETATM   12  O2  UNL     1      -5.107   1.188  10.025  1.00  0.00    -0.276 OA
ATOM     13  H2  UNL     1      -5.771   0.767   9.492  1.00  0.00     0.245 HD
ENDBRANCH   6  12
BRANCH   8  14
HETATM   14  C6  UNL     1      -2.201   2.953  11.290  1.00  0.00     0.099 C 
HETATM   15  C7  UNL     1      -2.073   3.848  12.477  1.00  0.00     0.026 C 
HETATM   16  C8  UNL     1      -0.720   4.514  12.400  1.00  0.00     0.002 C 
HETATM   17  C9  UNL     1      -0.154   4.089  11.074  1.00  0.00     0.002 C 
HETATM   18  C10 UNL     1      -0.735   2.675  10.939  1.00  0.00     0.026 C 
ENDBRANCH   8  14
BRANCH   1  19
HETATM   19  O1  UNL     1      -6.212   2.474  17.197  1.00  0.00    -0.391 OA
HETATM   20  C1  UNL     1      -7.052   1.382  17.322  1.00  0.00     0.202 C 
ENDBRANCH   1  19
TORSDOF 3
ENDMDL
MODEL 5
REMARK VINA RESULT: -6.161109381      2.234      5.889
REMARK  3 active torsions:
REMARK  status: ('A' for Active; 'I' for Inactive)
REMARK    1  A    between atoms: O1_2  and  C2_3 
REMARK       I    between atoms: N1_6  and  C5_7 
REMARK       I    between atoms: C5_7  and  N3_12 
REMARK    2  A    between atoms: N2_8  and  O2_10 
REMARK    3  A    between atoms: N3_12  and  C6_14 
ROOT
HETATM    1  C2  UNL     1      -2.483   2.774  10.901  1.00  0.00     0.123 C 
HETATM    2  C3  UNL     1      -3.890   3.316  10.702  1.00  0.00     0.052 C 
HETATM    3  C4  UNL     1      -4.712   2.960  11.897  1.00  0.00     0.143 C 
HETATM    4  N1  UNL     1      -4.023   3.441  13.082  1.00  0.00    -0.216 N 
HETATM    5  C5  UNL     1      -4.847   3.930  14.144  1.00  0.00     0.696 C 
HETATM    6  N2  UNL     1      -5.553   4.968  13.923  1.00  0.00    -0.099 N 
ATOM      7  H2  UNL     1      -5.480   5.382  12.993  1.00  0.00     0.213 HD
HETATM    8  N3  UNL     1      -4.915   3.317  15.422  1.00  0.00    -0.220 N 
ATOM      9  H3  UNL     1      -4.397   3.737  16.194  1.00  0.00     0.178 HD
HETATM   10  C11 UNL     1      -2.605   3.455  13.250  1.00  0.00     0.143 C 
HETATM   11  C12 UNL     1      -1.834   3.622  11.961  1.00  0.00     0.052 C 
ENDROOT
BRANCH   6  12
HETATM   12  O2  UNL     1      -6.389   5.576  14.798  1.00  0.00    -0.276 OA
ATOM     13  H2  UNL     1      -7.036   5.153  15.350  1.00  0.00     0.245 HD
ENDBRANCH   6  12
BRANCH   8  14
HETATM   14  C6  UNL     1      -5.687   2.127  15.674  1.00  0.00     0.099 C 
HETATM   15  C7  UNL     1      -4.917   1.133  16.478  1.00  0.00     0.026 C 
HETATM   16  C8  UNL     1      -5.888   0.458  17.417  1.00  0.00     0.002 C 
HETATM   17  C9  UNL     1      -7.239   0.986  17.023  1.00  0.00     0.002 C 
HETATM   18  C10 UNL     1      -6.886   2.414  16.584  1.00  0.00     0.026 C 
ENDBRANCH   8  14
BRANCH   1  19
HETATM   19  O1  UNL     1      -1.845   2.844   9.679  1.00  0.00    -0.391 OA
HETATM   20  C1  UNL     1      -0.567   3.369   9.743  1.00  0.00     0.202 C 
ENDBRANCH   1  19
TORSDOF 3
ENDMDL
