MODEL 1
REMARK VINA RESULT: -6.628753528      0.000      0.000
REMARK  2 active torsions:
REMARK  status: ('A' for Active; 'I' for Inactive)
REMARK    1  A    between atoms: C2_2  and  C3_3 
REMARK       I    between atoms: C3_3  and  N1_5 
REMARK    2  A    between atoms: N1_5  and  C4_7 
ROOT
HETATM    1  C1  UNL     1      -4.127   5.491  14.789  1.00  0.00     0.027 C 
HETATM    2  C2  UNL     1      -4.406   4.004  14.508  1.00  0.00     0.053 C 
HETATM    3  C8  UNL     1      -5.840   3.771  14.786  1.00  0.00     0.023 C 
HETATM    4  C9  UNL     1      -5.968   2.909  16.031  1.00  0.00     0.041 C 
HETATM    5  C10 UNL     1      -5.234   1.617  15.659  1.00  0.00     0.185 C 
HETATM    6  C11 UNL     1      -5.572   0.608  16.664  1.00  0.00     0.084 C 
HETATM    7  N2  UNL     1      -5.842  -0.210  17.463  1.00  0.00    -0.195 NA
HETATM    8  N3  UNL     1      -3.839   1.894  15.679  1.00  0.00    -0.405 N 
ATOM      9  H3  UNL     1      -3.158   1.186  15.951  1.00  0.00     0.154 HD
HETATM   10  C12 UNL     1      -3.439   3.202  15.303  1.00  0.00     0.134 C 
ENDROOT
BRANCH   2  11
HETATM   11  C3  UNL     1      -4.174   3.825  13.054  1.00  0.00     0.228 C 
HETATM   12  O1  UNL     1      -5.139   3.649  12.270  1.00  0.00    -0.273 OA
HETATM   13  N1  UNL     1      -2.860   3.847  12.497  1.00  0.00    -0.355 N 
ATOM     14  H1  UNL     1      -2.063   3.989  13.118  1.00  0.00     0.162 HD
BRANCH  13  15
HETATM   15  C4  UNL     1      -2.621   3.675  11.081  1.00  0.00     0.094 C 
HETATM   16  C5  UNL     1      -2.444   5.050  10.490  1.00  0.00     0.036 C 
HETATM   17  C6  UNL     1      -2.129   4.821   9.010  1.00  0.00     0.076 C 
HETATM   18  S1  UNL     1      -0.812   3.553   9.203  1.00  0.00    -0.167 SA
HETATM   19  C7  UNL     1      -1.363   2.904  10.832  1.00  0.00     0.099 C 
ENDBRANCH  13  15
ENDBRANCH   2  11
TORSDOF 2
ENDMDL
MODEL 2
REMARK VINA RESULT: -6.595533528      3.121      3.452
REMARK  2 active torsions:
REMARK  status: ('A' for Active; 'I' for Inactive)
REMARK    1  A    between atoms: C2_2  and  C3_3 
REMARK       I    between atoms: C3_3  and  N1_5 
REMARK    2  A    between atoms: N1_5  and  C4_7 
ROOT
HETATM    1  C1  UNL     1      -3.623   5.967  14.519  1.00  0.00     0.027 C 
HETATM    2  C2  UNL     1      -4.190   4.681  13.894  1.00  0.00     0.053 C 
HETATM    3  C8  UNL     1      -5.360   4.282  14.708  1.00  0.00     0.023 C 
HETATM    4  C9  UNL     1      -5.021   3.011  15.469  1.00  0.00     0.041 C 
HETATM    5  C10 UNL     1      -4.712   1.995  14.366  1.00  0.00     0.185 C 
HETATM    6  C11 UNL     1      -4.687   0.666  14.979  1.00  0.00     0.084 C 
HETATM    7  N2  UNL     1      -4.670  -0.405  15.462  1.00  0.00    -0.195 NA
HETATM    8  N3  UNL     1      -3.437   2.321  13.827  1.00  0.00    -0.405 N 
ATOM      9  H3  UNL     1      -2.806   1.601  13.477  1.00  0.00     0.154 HD
HETATM   10  C12 UNL     1      -3.083   3.694  13.800  1.00  0.00     0.134 C 
ENDROOT
BRANCH   2  11
HETATM   11  C3  UNL     1      -4.669   5.073  12.545  1.00  0.00     0.228 C 
HETATM   12  O1  UNL     1      -4.750   4.223  11.625  1.00  0.00    -0.273 OA
HETATM   13  N1  UNL     1      -5.050   6.415  12.248  1.00  0.00    -0.355 N 
ATOM     14  H1  UNL     1      -4.990   7.120  12.983  1.00  0.00     0.162 HD
BRANCH  13  15
HETATM   15  C4  UNL     1      -5.519   6.810  10.938  1.00  0.00     0.094 C 
HETATM   16  C5  UNL     1      -6.869   7.454  11.124  1.00  0.00     0.036 C 
HETATM   17  C6  UNL     1      -7.297   7.914   9.729  1.00  0.00     0.076 C 
HETATM   18  S1  UNL     1      -5.750   8.777   9.237  1.00  0.00    -0.167 SA
HETATM   19  C7  UNL     1      -4.609   7.824  10.317  1.00  0.00     0.099 C 
ENDBRANCH  13  15
ENDBRANCH   2  11
TORSDOF 2
ENDMDL
MODEL 3
REMARK VINA RESULT: -6.482619785      1.243      1.357
REMARK  2 active torsions:
REMARK  status: ('A' for Active; 'I' for Inactive)
REMARK    1  A    between atoms: C2_2  and  C3_3 
REMARK       I    between atoms: C3_3  and  N1_5 
REMARK    2  A    between atoms: N1_5  and  C4_7 
ROOT
HETATM    1  C1  UNL     1      -4.407   5.553  14.809  1.00  0.00     0.027 C 
HETATM    2  C2  UNL     1      -4.738   4.080  14.512  1.00  0.00     0.053 C 
HETATM    3  C8  UNL     1      -6.129   3.848  14.961  1.00  0.00     0.023 C 
HETATM    4  C9  UNL     1      -6.109   2.942  16.180  1.00  0.00     0.041 C 
HETATM    5  C10 UNL     1      -5.445   1.659  15.672  1.00  0.00     0.185 C 
HETATM    6  C11 UNL     1      -5.666   0.615  16.675  1.00  0.00     0.084 C 
HETATM    7  N2  UNL     1      -5.844  -0.229  17.473  1.00  0.00    -0.195 NA
HETATM    8  N3  UNL     1      -4.056   1.923  15.525  1.00  0.00    -0.405 N 
ATOM      9  H3  UNL     1      -3.355   1.200  15.683  1.00  0.00     0.154 HD
HETATM   10  C12 UNL     1      -3.689   3.241  15.149  1.00  0.00     0.134 C 
ENDROOT
BRANCH   2  11
HETATM   11  C3  UNL     1      -4.694   3.953  13.034  1.00  0.00     0.228 C 
HETATM   12  O1  UNL     1      -5.107   2.910  12.470  1.00  0.00    -0.273 OA
HETATM   13  N1  UNL     1      -4.188   5.001  12.208  1.00  0.00    -0.355 N 
ATOM     14  H1  UNL     1      -3.848   5.856  12.649  1.00  0.00     0.162 HD
BRANCH  13  15
HETATM   15  C4  UNL     1      -4.141   4.891  10.767  1.00  0.00     0.094 C 
HETATM   16  C5  UNL     1      -4.379   6.270  10.208  1.00  0.00     0.036 C 
HETATM   17  C6  UNL     1      -4.256   6.122   8.690  1.00  0.00     0.076 C 
HETATM   18  S1  UNL     1      -2.669   5.194   8.633  1.00  0.00    -0.167 SA
HETATM   19  C7  UNL     1      -2.794   4.433  10.300  1.00  0.00     0.099 C 
ENDBRANCH  13  15
ENDBRANCH   2  11
TORSDOF 2
ENDMDL
MODEL 4
REMARK VINA RESULT: -6.468476928      1.028      1.028
REMARK  2 active torsions:
REMARK  status: ('A' for Active; 'I' for Inactive)
REMARK    1  A    between atoms: C2_2  and  C3_3 
REMARK       I    between atoms: C3_3  and  N1_5 
REMARK    2  A    between atoms: N1_5  and  C4_7 
ROOT
HETATM    1  C1  UNL     1      -3.609   5.037  14.399  1.00  0.00     0.027 C 
HETATM    2  C2  UNL     1      -3.776   3.510  14.313  1.00  0.00     0.053 C 
HETATM    3  C8  UNL     1      -5.225   3.239  14.179  1.00  0.00     0.023 C 
HETATM    4  C9  UNL     1      -5.726   2.588  15.458  1.00  0.00     0.041 C 
HETATM    5  C10 UNL     1      -4.904   1.300  15.558  1.00  0.00     0.185 C 
HETATM    6  C11 UNL     1      -5.529   0.451  16.575  1.00  0.00     0.084 C 
HETATM    7  N2  UNL     1      -6.028  -0.238  17.385  1.00  0.00    -0.195 NA
HETATM    8  N3  UNL     1      -3.586   1.661  15.952  1.00  0.00    -0.405 N 
ATOM      9  H3  UNL     1      -3.017   1.050  16.538  1.00  0.00     0.154 HD
HETATM   10  C12 UNL     1      -3.098   2.911  15.491  1.00  0.00     0.134 C 
ENDROOT
BRANCH   2  11
HETATM   11  C3  UNL     1      -3.105   3.109  13.052  1.00  0.00     0.228 C 
HETATM   12  O1  UNL     1      -3.017   1.897  12.734  1.00  0.00    -0.273 OA
HETATM   13  N1  UNL     1      -2.542   4.074  12.164  1.00  0.00    -0.355 N 
ATOM     14  H1  UNL     1      -2.604   5.063  12.406  1.00  0.00     0.162 HD
BRANCH  13  15
HETATM   15  C4  UNL     1      -1.886   3.695  10.932  1.00  0.00     0.094 C 
HETATM   16  C5  UNL     1      -2.176   4.778   9.924  1.00  0.00     0.036 C 
HETATM   17  C6  UNL     1      -1.412   4.374   8.661  1.00  0.00     0.076 C 
HETATM   18  S1  UNL     1       0.221   4.024   9.427  1.00  0.00    -0.167 SA
HETATM   19  C7  UNL     1      -0.402   3.618  11.107  1.00  0.00     0.099 C 
ENDBRANCH  13  15
ENDBRANCH   2  11
TORSDOF 2
ENDMDL
MODEL 5
REMARK VINA RESULT: -6.414783497      3.800      5.795
REMARK  2 active torsions:
REMARK  status: ('A' for Active; 'I' for Inactive)
REMARK    1  A    between atoms: C2_2  and  C3_3 
REMARK       I    between atoms: C3_3  and  N1_5 
REMARK    2  A    between atoms: N1_5  and  C4_7 
ROOT
HETATM    1  C1  UNL     1      -4.030   3.451  10.699  1.00  0.00     0.027 C 
HETATM    2  C2  UNL     1      -3.965   2.276  11.690  1.00  0.00     0.053 C 
HETATM    3  C8  UNL     1      -2.554   1.831  11.744  1.00  0.00     0.023 C 
HETATM    4  C9  UNL     1      -2.443   0.464  11.091  1.00  0.00     0.041 C 
HETATM    5  C10 UNL     1      -3.360  -0.423  11.938  1.00  0.00     0.185 C 
HETATM    6  C11 UNL     1      -3.078  -1.817  11.591  1.00  0.00     0.084 C 
HETATM    7  N2  UNL     1      -2.854  -2.938  11.322  1.00  0.00    -0.195 NA
HETATM    8  N3  UNL     1      -4.703  -0.088  11.609  1.00  0.00    -0.405 N 
ATOM      9  H3  UNL     1      -5.446  -0.787  11.624  1.00  0.00     0.154 HD
HETATM   10  C12 UNL     1      -4.962   1.261  11.259  1.00  0.00     0.134 C 
ENDROOT
BRANCH   2  11
HETATM   11  C3  UNL     1      -4.327   2.849  13.010  1.00  0.00     0.228 C 
HETATM   12  O1  UNL     1      -4.331   4.092  13.187  1.00  0.00    -0.273 OA
HETATM   13  N1  UNL     1      -4.681   2.018  14.115  1.00  0.00    -0.355 N 
ATOM     14  H1  UNL     1      -4.683   1.006  13.991  1.00  0.00     0.162 HD
BRANCH  13  15
HETATM   15  C4  UNL     1      -5.037   2.564  15.406  1.00  0.00     0.094 C 
HETATM   16  C5  UNL     1      -6.492   2.953  15.338  1.00  0.00     0.036 C 
HETATM   17  C6  UNL     1      -6.843   3.462  16.738  1.00  0.00     0.076 C 
HETATM   18  S1  UNL     1      -6.142   2.075  17.719  1.00  0.00    -0.167 SA
HETATM   19  C7  UNL     1      -4.885   1.543  16.489  1.00  0.00     0.099 C 
ENDBRANCH  13  15
ENDBRANCH   2  11
TORSDOF 2
ENDMDL
