MODEL 1
REMARK VINA RESULT: -7.321084756      0.000      0.000
REMARK  6 active torsions:
REMARK  status: ('A' for Active; 'I' for Inactive)
REMARK    1  A    between atoms: C2_2  and  N1_3 
REMARK    2  A    between atoms: N1_3  and  C3_5 
REMARK    3  A    between atoms: C3_5  and  N2_7 
REMARK    4  A    between atoms: N2_7  and  O1_9 
REMARK    5  A    between atoms: O1_9  and  C4_10 
REMARK    6  A    between atoms: C4_10  and  C5_12 
ROOT
HETATM    1  O1  UNL     1      -3.429   1.220  14.659  1.00  0.00    -0.197 OA
ENDROOT
BRANCH   1   2
HETATM    2  N2  UNL     1      -3.595   1.738  13.414  1.00  0.00    -0.232 N 
ATOM      3  H2  UNL     1      -3.283   2.691  13.226  1.00  0.00     0.197 HD
BRANCH   2   4
HETATM    4  C3  UNL     1      -4.186   0.991  12.379  1.00  0.00     0.192 C 
HETATM    5  S1  UNL     1      -5.091   1.765  11.263  1.00  0.00    -0.039 SA
BRANCH   4   6
HETATM    6  N1  UNL     1      -3.992  -0.412  12.318  1.00  0.00    -0.366 N 
ATOM      7  H1  UNL     1      -4.356  -1.012  13.057  1.00  0.00     0.161 HD
BRANCH   6   8
HETATM    8  C2  UNL     1      -3.267  -0.993  11.192  1.00  0.00     0.117 C 
HETATM    9  C1  UNL     1      -2.933  -2.431  11.478  1.00  0.00     0.026 C 
ENDBRANCH   6   8
ENDBRANCH   4   6
ENDBRANCH   2   4
ENDBRANCH   1   2
BRANCH   1  10
HETATM   10  C4  UNL     1      -4.463   0.722  15.431  1.00  0.00     0.285 C 
HETATM   11  O2  UNL     1      -4.857  -0.455  15.284  1.00  0.00    -0.263 OA
BRANCH  10  12
HETATM   12  C5  UNL     1      -5.096   1.578  16.422  1.00  0.00     0.092 C 
HETATM   13  C6  UNL     1      -5.974   2.659  15.779  1.00  0.00     0.020 C 
HETATM   14  C7  UNL     1      -7.110   2.718  16.766  1.00  0.00    -0.013 C 
HETATM   15  C8  UNL     1      -6.576   2.981  18.156  1.00  0.00     0.005 C 
HETATM   16  C11 UNL     1      -7.409   1.211  16.875  1.00  0.00     0.010 C 
HETATM   17  C9  UNL     1      -6.020   1.654  18.662  1.00  0.00     0.006 C 
HETATM   18  C10 UNL     1      -6.001   0.849  17.376  1.00  0.00    -0.001 C 
ENDBRANCH  10  12
ENDBRANCH   1  10
TORSDOF 6
ENDMDL
MODEL 2
REMARK VINA RESULT: -7.196567720      1.407      2.468
REMARK  6 active torsions:
REMARK  status: ('A' for Active; 'I' for Inactive)
REMARK    1  A    between atoms: C2_2  and  N1_3 
REMARK    2  A    between atoms: N1_3  and  C3_5 
REMARK    3  A    between atoms: C3_5  and  N2_7 
REMARK    4  A    between atoms: N2_7  and  O1_9 
REMARK    5  A    between atoms: O1_9  and  C4_10 
REMARK    6  A    between atoms: C4_10  and  C5_12 
ROOT
HETATM    1  O1  UNL     1      -4.906   0.224  14.721  1.00  0.00    -0.197 OA
ENDROOT
BRANCH   1   2
HETATM    2  N2  UNL     1      -4.330   0.139  13.494  1.00  0.00    -0.232 N 
ATOM      3  H2  UNL     1      -4.076  -0.778  13.125  1.00  0.00     0.197 HD
BRANCH   2   4
HETATM    4  C3  UNL     1      -4.075   1.286  12.719  1.00  0.00     0.192 C 
HETATM    5  S1  UNL     1      -5.005   1.579  11.412  1.00  0.00    -0.039 SA
BRANCH   4   6
HETATM    6  N1  UNL     1      -3.023   2.165  13.080  1.00  0.00    -0.366 N 
ATOM      7  H1  UNL     1      -2.070   1.813  13.173  1.00  0.00     0.161 HD
BRANCH   6   8
HETATM    8  C2  UNL     1      -3.310   3.576  13.320  1.00  0.00     0.117 C 
HETATM    9  C1  UNL     1      -2.733   4.004  14.641  1.00  0.00     0.026 C 
ENDBRANCH   6   8
ENDBRANCH   4   6
ENDBRANCH   2   4
ENDBRANCH   1   2
BRANCH   1  10
HETATM   10  C4  UNL     1      -4.340   0.885  15.795  1.00  0.00     0.285 C 
HETATM   11  O2  UNL     1      -3.139   0.705  16.091  1.00  0.00    -0.263 OA
BRANCH  10  12
HETATM   12  C5  UNL     1      -5.150   1.797  16.586  1.00  0.00     0.092 C 
HETATM   13  C6  UNL     1      -6.085   2.647  15.715  1.00  0.00     0.020 C 
HETATM   14  C7  UNL     1      -7.302   2.714  16.600  1.00  0.00    -0.013 C 
HETATM   15  C8  UNL     1      -6.926   3.255  17.961  1.00  0.00     0.005 C 
HETATM   16  C11 UNL     1      -7.437   1.216  16.934  1.00  0.00     0.010 C 
HETATM   17  C9  UNL     1      -6.270   2.102  18.714  1.00  0.00     0.006 C 
HETATM   18  C10 UNL     1      -6.046   1.117  17.583  1.00  0.00    -0.001 C 
ENDBRANCH  10  12
ENDBRANCH   1  10
TORSDOF 6
ENDMDL
MODEL 3
REMARK VINA RESULT: -7.053875105      1.367      1.769
REMARK  6 active torsions:
REMARK  status: ('A' for Active; 'I' for Inactive)
REMARK    1  A    between atoms: C2_2  and  N1_3 
REMARK    2  A    between atoms: N1_3  and  C3_5 
REMARK    3  A    between atoms: C3_5  and  N2_7 
REMARK    4  A    between atoms: N2_7  and  O1_9 
REMARK    5  A    between atoms: O1_9  and  C4_10 
REMARK    6  A    between atoms: C4_10  and  C5_12 
ROOT
HETATM    1  O1  UNL     1      -4.814   0.297  14.748  1.00  0.00    -0.197 OA
ENDROOT
BRANCH   1   2
HETATM    2  N2  UNL     1      -4.251   0.109  13.526  1.00  0.00    -0.232 N 
ATOM      3  H2  UNL     1      -3.981  -0.832  13.242  1.00  0.00     0.197 HD
BRANCH   2   4
HETATM    4  C3  UNL     1      -4.032   1.184  12.645  1.00  0.00     0.192 C 
HETATM    5  S1  UNL     1      -5.133   1.487  11.480  1.00  0.00    -0.039 SA
BRANCH   4   6
HETATM    6  N1  UNL     1      -2.868   1.982  12.777  1.00  0.00    -0.366 N 
ATOM      7  H1  UNL     1      -2.529   2.245  13.703  1.00  0.00     0.161 HD
BRANCH   6   8
HETATM    8  C2  UNL     1      -2.157   2.427  11.582  1.00  0.00     0.117 C 
HETATM    9  C1  UNL     1      -1.389   1.283  10.981  1.00  0.00     0.026 C 
ENDBRANCH   6   8
ENDBRANCH   4   6
ENDBRANCH   2   4
ENDBRANCH   1   2
BRANCH   1  10
HETATM   10  C4  UNL     1      -4.254   1.074  15.745  1.00  0.00     0.285 C 
HETATM   11  O2  UNL     1      -3.020   1.060  15.945  1.00  0.00    -0.263 OA
BRANCH  10  12
HETATM   12  C5  UNL     1      -5.109   1.915  16.567  1.00  0.00     0.092 C 
HETATM   13  C6  UNL     1      -6.110   2.721  15.728  1.00  0.00     0.020 C 
HETATM   14  C7  UNL     1      -7.316   2.691  16.631  1.00  0.00    -0.013 C 
HETATM   15  C8  UNL     1      -6.954   3.225  17.998  1.00  0.00     0.005 C 
HETATM   16  C11 UNL     1      -7.349   1.180  16.933  1.00  0.00     0.010 C 
HETATM   17  C9  UNL     1      -6.214   2.101  18.717  1.00  0.00     0.006 C 
HETATM   18  C10 UNL     1      -5.945   1.157  17.561  1.00  0.00    -0.001 C 
ENDBRANCH  10  12
ENDBRANCH   1  10
TORSDOF 6
ENDMDL
MODEL 4
REMARK VINA RESULT: -7.046766845      1.605      1.897
REMARK  6 active torsions:
REMARK  status: ('A' for Active; 'I' for Inactive)
REMARK    1  A    between atoms: C2_2  and  N1_3 
REMARK    2  A    between atoms: N1_3  and  C3_5 
REMARK    3  A    between atoms: C3_5  and  N2_7 
REMARK    4  A    between atoms: N2_7  and  O1_9 
REMARK    5  A    between atoms: O1_9  and  C4_10 
REMARK    6  A    between atoms: C4_10  and  C5_12 
ROOT
HETATM    1  O1  UNL     1      -3.541   1.384  14.364  1.00  0.00    -0.197 OA
ENDROOT
BRANCH   1   2
HETATM    2  N2  UNL     1      -3.786   1.619  13.049  1.00  0.00    -0.232 N 
ATOM      3  H2  UNL     1      -4.332   2.438  12.783  1.00  0.00     0.197 HD
BRANCH   2   4
HETATM    4  C3  UNL     1      -3.303   0.759  12.046  1.00  0.00     0.192 C 
HETATM    5  S1  UNL     1      -4.311  -0.352  11.405  1.00  0.00    -0.039 SA
BRANCH   4   6
HETATM    6  N1  UNL     1      -1.959   0.866  11.607  1.00  0.00    -0.366 N 
ATOM      7  H1  UNL     1      -1.245   0.245  11.987  1.00  0.00     0.161 HD
BRANCH   6   8
HETATM    8  C2  UNL     1      -1.602   1.871  10.610  1.00  0.00     0.117 C 
HETATM    9  C1  UNL     1      -0.606   2.839  11.185  1.00  0.00     0.026 C 
ENDBRANCH   6   8
ENDBRANCH   4   6
ENDBRANCH   2   4
ENDBRANCH   1   2
BRANCH   1  10
HETATM   10  C4  UNL     1      -4.439   0.773  15.219  1.00  0.00     0.285 C 
HETATM   11  O2  UNL     1      -4.743  -0.430  15.068  1.00  0.00    -0.263 OA
BRANCH  10  12
HETATM   12  C5  UNL     1      -5.035   1.538  16.303  1.00  0.00     0.092 C 
HETATM   13  C6  UNL     1      -5.899   2.696  15.789  1.00  0.00     0.020 C 
HETATM   14  C7  UNL     1      -7.015   2.680  16.800  1.00  0.00    -0.013 C 
HETATM   15  C8  UNL     1      -6.451   2.791  18.198  1.00  0.00     0.005 C 
HETATM   16  C11 UNL     1      -7.347   1.175  16.764  1.00  0.00     0.010 C 
HETATM   17  C9  UNL     1      -5.916   1.409  18.558  1.00  0.00     0.006 C 
HETATM   18  C10 UNL     1      -5.938   0.736  17.198  1.00  0.00    -0.001 C 
ENDBRANCH  10  12
ENDBRANCH   1  10
TORSDOF 6
ENDMDL
MODEL 5
REMARK VINA RESULT: -6.929987654      1.731      2.657
REMARK  6 active torsions:
REMARK  status: ('A' for Active; 'I' for Inactive)
REMARK    1  A    between atoms: C2_2  and  N1_3 
REMARK    2  A    between atoms: N1_3  and  C3_5 
REMARK    3  A    between atoms: C3_5  and  N2_7 
REMARK    4  A    between atoms: N2_7  and  O1_9 
REMARK    5  A    between atoms: O1_9  and  C4_10 
REMARK    6  A    between atoms: C4_10  and  C5_12 
ROOT
HETATM    1  O1  UNL     1      -3.526   1.337  14.452  1.00  0.00    -0.197 OA
ENDROOT
BRANCH   1   2
HETATM    2  N2  UNL     1      -3.631   1.301  13.098  1.00  0.00    -0.232 N 
ATOM      3  H2  UNL     1      -4.033   0.477  12.652  1.00  0.00     0.197 HD
BRANCH   2   4
HETATM    4  C3  UNL     1      -3.199   2.375  12.298  1.00  0.00     0.192 C 
HETATM    5  S1  UNL     1      -4.163   2.899  11.091  1.00  0.00    -0.039 SA
BRANCH   4   6
HETATM    6  N1  UNL     1      -1.942   2.982  12.547  1.00  0.00    -0.366 N 
ATOM      7  H1  UNL     1      -1.083   2.438  12.458  1.00  0.00     0.161 HD
BRANCH   6   8
HETATM    8  C2  UNL     1      -1.882   4.389  12.931  1.00  0.00     0.117 C 
HETATM    9  C1  UNL     1      -2.131   4.533  14.408  1.00  0.00     0.026 C 
ENDBRANCH   6   8
ENDBRANCH   4   6
ENDBRANCH   2   4
ENDBRANCH   1   2
BRANCH   1  10
HETATM   10  C4  UNL     1      -4.439   0.756  15.313  1.00  0.00     0.285 C 
HETATM   11  O2  UNL     1      -4.751  -0.448  15.191  1.00  0.00    -0.263 OA
BRANCH  10  12
HETATM   12  C5  UNL     1      -5.042   1.556  16.367  1.00  0.00     0.092 C 
HETATM   13  C6  UNL     1      -5.880   2.714  15.811  1.00  0.00     0.020 C 
HETATM   14  C7  UNL     1      -7.013   2.737  16.803  1.00  0.00    -0.013 C 
HETATM   15  C8  UNL     1      -6.472   2.873  18.208  1.00  0.00     0.005 C 
HETATM   16  C11 UNL     1      -7.367   1.237  16.796  1.00  0.00     0.010 C 
HETATM   17  C9  UNL     1      -5.964   1.492  18.609  1.00  0.00     0.006 C 
HETATM   18  C10 UNL     1      -5.973   0.788  17.265  1.00  0.00    -0.001 C 
ENDBRANCH  10  12
ENDBRANCH   1  10
TORSDOF 6
ENDMDL
