MODEL 1
REMARK VINA RESULT: -6.716551587      0.000      0.000
REMARK  4 active torsions:
REMARK  status: ('A' for Active; 'I' for Inactive)
REMARK    1  A    between atoms: C6_6  and  O1_7 
REMARK    2  A    between atoms: C12_14  and  O2_15 
REMARK    3  A    between atoms: C13_17  and  C14_18 
REMARK    4  A    between atoms: C14_18  and  O3_19 
ROOT
HETATM    1  C1  UNL     1      -6.519   2.848  16.938  1.00  0.00     0.015 C 
HETATM    2  C2  UNL     1      -6.161   3.337  15.764  1.00  0.00    -0.084 C 
HETATM    3  C3  UNL     1      -6.302   4.815  15.684  1.00  0.00     0.034 C 
HETATM    4  C4  UNL     1      -5.279   5.458  14.771  1.00  0.00     0.007 C 
HETATM    5  C5  UNL     1      -4.018   4.696  14.796  1.00  0.00     0.039 C 
HETATM    6  C6  UNL     1      -3.852   3.501  14.005  1.00  0.00     0.072 C 
HETATM    7  C7  UNL     1      -4.697   3.273  12.787  1.00  0.00     0.030 C 
HETATM    8  C8  UNL     1      -6.047   2.892  13.411  1.00  0.00     0.018 C 
HETATM    9  C9  UNL     1      -5.707   2.338  14.792  1.00  0.00     0.028 C 
HETATM   10  C10 UNL     1      -4.235   2.190  14.707  1.00  0.00     0.021 C 
HETATM   11  C11 UNL     1      -3.489   1.904  15.920  1.00  0.00     0.022 C 
HETATM   12  C12 UNL     1      -3.888   1.222  13.565  1.00  0.00     0.136 C 
HETATM   13  C13 UNL     1      -4.178   1.945  12.289  1.00  0.00     0.046 C 
ENDROOT
BRANCH  13  14
HETATM   14  C14 UNL     1      -3.124   1.991  11.283  1.00  0.00     0.174 C 
BRANCH  14  15
HETATM   15  O3  UNL     1      -1.975   1.381  11.794  1.00  0.00    -0.395 OA
HETATM   16  C15 UNL     1      -0.908   1.914  11.044  1.00  0.00     0.201 C 
ENDBRANCH  14  15
ENDBRANCH  13  14
BRANCH  12  17
HETATM   17  O2  UNL     1      -4.697   0.104  13.766  1.00  0.00    -0.394 OA
ATOM     18  H2  UNL     1      -5.020  -0.133  12.904  1.00  0.00     0.210 HD
ENDBRANCH  12  17
BRANCH   6  19
HETATM   19  O1  UNL     1      -2.470   3.327  13.745  1.00  0.00    -0.389 OA
ATOM     20  H1  UNL     1      -2.348   2.480  13.332  1.00  0.00     0.210 HD
ENDBRANCH   6  19
TORSDOF 4
ENDMDL
MODEL 2
REMARK VINA RESULT: -6.437500241      1.874      4.094
REMARK  4 active torsions:
REMARK  status: ('A' for Active; 'I' for Inactive)
REMARK    1  A    between atoms: C6_6  and  O1_7 
REMARK    2  A    between atoms: C12_14  and  O2_15 
REMARK    3  A    between atoms: C13_17  and  C14_18 
REMARK    4  A    between atoms: C14_18  and  O3_19 
ROOT
HETATM    1  C1  UNL     1      -2.050   6.054  12.249  1.00  0.00     0.015 C 
HETATM    2  C2  UNL     1      -2.582   5.556  13.351  1.00  0.00    -0.084 C 
HETATM    3  C3  UNL     1      -3.046   6.604  14.296  1.00  0.00     0.034 C 
HETATM    4  C4  UNL     1      -4.248   6.175  15.113  1.00  0.00     0.007 C 
HETATM    5  C5  UNL     1      -5.096   5.257  14.333  1.00  0.00     0.039 C 
HETATM    6  C6  UNL     1      -4.774   3.855  14.219  1.00  0.00     0.072 C 
HETATM    7  C7  UNL     1      -3.916   3.188  15.254  1.00  0.00     0.030 C 
HETATM    8  C8  UNL     1      -2.523   3.724  14.896  1.00  0.00     0.018 C 
HETATM    9  C9  UNL     1      -2.603   4.092  13.417  1.00  0.00     0.028 C 
HETATM   10  C10 UNL     1      -3.893   3.478  13.020  1.00  0.00     0.021 C 
HETATM   11  C11 UNL     1      -4.453   3.806  11.721  1.00  0.00     0.022 C 
HETATM   12  C12 UNL     1      -3.829   1.962  13.264  1.00  0.00     0.136 C 
HETATM   13  C13 UNL     1      -3.861   1.766  14.746  1.00  0.00     0.046 C 
ENDROOT
BRANCH  13  14
HETATM   14  C14 UNL     1      -4.852   0.842  15.284  1.00  0.00     0.174 C 
BRANCH  14  15
HETATM   15  O3  UNL     1      -4.565   0.595  16.629  1.00  0.00    -0.395 OA
HETATM   16  C15 UNL     1      -5.815   0.583  17.279  1.00  0.00     0.201 C 
ENDBRANCH  14  15
ENDBRANCH  13  14
BRANCH  12  17
HETATM   17  O2  UNL     1      -2.638   1.540  12.674  1.00  0.00    -0.394 OA
ATOM     18  H2  UNL     1      -2.745   1.701  11.744  1.00  0.00     0.210 HD
ENDBRANCH  12  17
BRANCH   6  19
HETATM   19  O1  UNL     1      -5.971   3.141  13.967  1.00  0.00    -0.389 OA
ATOM     20  H1  UNL     1      -5.755   2.360  13.472  1.00  0.00     0.210 HD
ENDBRANCH   6  19
TORSDOF 4
ENDMDL
MODEL 3
REMARK VINA RESULT: -6.312203457      1.595      3.245
REMARK  4 active torsions:
REMARK  status: ('A' for Active; 'I' for Inactive)
REMARK    1  A    between atoms: C6_6  and  O1_7 
REMARK    2  A    between atoms: C12_14  and  O2_15 
REMARK    3  A    between atoms: C13_17  and  C14_18 
REMARK    4  A    between atoms: C14_18  and  O3_19 
ROOT
HETATM    1  C1  UNL     1      -3.005   6.875  14.074  1.00  0.00     0.015 C 
HETATM    2  C2  UNL     1      -3.608   5.803  14.556  1.00  0.00    -0.084 C 
HETATM    3  C3  UNL     1      -4.713   6.131  15.495  1.00  0.00     0.034 C 
HETATM    4  C4  UNL     1      -5.836   5.114  15.465  1.00  0.00     0.007 C 
HETATM    5  C5  UNL     1      -5.970   4.539  14.116  1.00  0.00     0.039 C 
HETATM    6  C6  UNL     1      -5.105   3.475  13.667  1.00  0.00     0.072 C 
HETATM    7  C7  UNL     1      -4.417   2.586  14.660  1.00  0.00     0.030 C 
HETATM    8  C8  UNL     1      -3.311   3.510  15.189  1.00  0.00     0.018 C 
HETATM    9  C9  UNL     1      -3.071   4.526  14.076  1.00  0.00     0.028 C 
HETATM   10  C10 UNL     1      -3.826   3.928  12.949  1.00  0.00     0.021 C 
HETATM   11  C11 UNL     1      -4.042   4.720  11.753  1.00  0.00     0.022 C 
HETATM   12  C12 UNL     1      -3.249   2.538  12.635  1.00  0.00     0.136 C 
HETATM   13  C13 UNL     1      -3.654   1.643  13.760  1.00  0.00     0.046 C 
ENDROOT
BRANCH  13  14
HETATM   14  C14 UNL     1      -4.314   0.387  13.422  1.00  0.00     0.174 C 
BRANCH  14  15
HETATM   15  O3  UNL     1      -4.424   0.287  12.032  1.00  0.00    -0.395 OA
HETATM   16  C15 UNL     1      -3.943  -0.999  11.715  1.00  0.00     0.201 C 
ENDBRANCH  14  15
ENDBRANCH  13  14
BRANCH  12  17
HETATM   17  O2  UNL     1      -1.870   2.721  12.539  1.00  0.00    -0.394 OA
ATOM     18  H2  UNL     1      -1.486   2.029  13.066  1.00  0.00     0.210 HD
ENDBRANCH  12  17
BRANCH   6  19
HETATM   19  O1  UNL     1      -5.785   2.740  12.664  1.00  0.00    -0.389 OA
ATOM     20  H1  UNL     1      -6.350   3.337  12.186  1.00  0.00     0.210 HD
ENDBRANCH   6  19
TORSDOF 4
ENDMDL
MODEL 4
REMARK VINA RESULT: -6.246812167      1.912      4.242
REMARK  4 active torsions:
REMARK  status: ('A' for Active; 'I' for Inactive)
REMARK    1  A    between atoms: C6_6  and  O1_7 
REMARK    2  A    between atoms: C12_14  and  O2_15 
REMARK    3  A    between atoms: C13_17  and  C14_18 
REMARK    4  A    between atoms: C14_18  and  O3_19 
ROOT
HETATM    1  C1  UNL     1      -1.568   4.148  12.452  1.00  0.00     0.015 C 
HETATM    2  C2  UNL     1      -2.344   4.311  13.509  1.00  0.00    -0.084 C 
HETATM    3  C3  UNL     1      -2.337   5.706  14.024  1.00  0.00     0.034 C 
HETATM    4  C4  UNL     1      -3.655   6.110  14.653  1.00  0.00     0.007 C 
HETATM    5  C5  UNL     1      -4.774   5.426  13.983  1.00  0.00     0.039 C 
HETATM    6  C6  UNL     1      -5.126   4.067  14.315  1.00  0.00     0.072 C 
HETATM    7  C7  UNL     1      -4.746   3.488  15.646  1.00  0.00     0.030 C 
HETATM    8  C8  UNL     1      -3.241   3.246  15.460  1.00  0.00     0.018 C 
HETATM    9  C9  UNL     1      -3.041   3.101  13.954  1.00  0.00     0.028 C 
HETATM   10  C10 UNL     1      -4.438   2.985  13.472  1.00  0.00     0.021 C 
HETATM   11  C11 UNL     1      -4.694   3.065  12.045  1.00  0.00     0.022 C 
HETATM   12  C12 UNL     1      -5.096   1.754  14.116  1.00  0.00     0.136 C 
HETATM   13  C13 UNL     1      -5.316   2.092  15.555  1.00  0.00     0.046 C 
ENDROOT
BRANCH  13  14
HETATM   14  C14 UNL     1      -6.656   1.898  16.098  1.00  0.00     0.174 C 
BRANCH  14  15
HETATM   15  O3  UNL     1      -6.818   0.554  16.446  1.00  0.00    -0.395 OA
HETATM   16  C15 UNL     1      -5.915   0.334  17.505  1.00  0.00     0.201 C 
ENDBRANCH  14  15
ENDBRANCH  13  14
BRANCH  12  17
HETATM   17  O2  UNL     1      -4.195   0.707  13.923  1.00  0.00    -0.394 OA
ATOM     18  H2  UNL     1      -4.164   0.244  14.752  1.00  0.00     0.210 HD
ENDBRANCH  12  17
BRANCH   6  19
HETATM   19  O1  UNL     1      -6.498   3.875  14.015  1.00  0.00    -0.389 OA
ATOM     20  H1  UNL     1      -7.012   4.398  14.619  1.00  0.00     0.210 HD
ENDBRANCH   6  19
TORSDOF 4
ENDMDL
MODEL 5
REMARK VINA RESULT: -6.165197357      1.683      2.783
REMARK  4 active torsions:
REMARK  status: ('A' for Active; 'I' for Inactive)
REMARK    1  A    between atoms: C6_6  and  O1_7 
REMARK    2  A    between atoms: C12_14  and  O2_15 
REMARK    3  A    between atoms: C13_17  and  C14_18 
REMARK    4  A    between atoms: C14_18  and  O3_19 
ROOT
HETATM    1  C1  UNL     1      -3.954   6.536  15.132  1.00  0.00     0.015 C 
HETATM    2  C2  UNL     1      -4.379   5.610  14.291  1.00  0.00    -0.084 C 
HETATM    3  C3  UNL     1      -4.675   6.149  12.937  1.00  0.00     0.034 C 
HETATM    4  C4  UNL     1      -4.422   5.144  11.832  1.00  0.00     0.007 C 
HETATM    5  C5  UNL     1      -3.311   4.249  12.198  1.00  0.00     0.039 C 
HETATM    6  C6  UNL     1      -3.517   3.117  13.069  1.00  0.00     0.072 C 
HETATM    7  C7  UNL     1      -4.882   2.512  13.215  1.00  0.00     0.030 C 
HETATM    8  C8  UNL     1      -5.590   3.551  14.096  1.00  0.00     0.018 C 
HETATM    9  C9  UNL     1      -4.472   4.261  14.855  1.00  0.00     0.028 C 
HETATM   10  C10 UNL     1      -3.307   3.392  14.565  1.00  0.00     0.021 C 
HETATM   11  C11 UNL     1      -1.980   3.859  14.921  1.00  0.00     0.022 C 
HETATM   12  C12 UNL     1      -3.588   1.975  15.088  1.00  0.00     0.136 C 
HETATM   13  C13 UNL     1      -4.621   1.383  14.185  1.00  0.00     0.046 C 
ENDROOT
BRANCH  13  14
HETATM   14  C14 UNL     1      -4.342   0.075  13.603  1.00  0.00     0.174 C 
BRANCH  14  15
HETATM   15  O3  UNL     1      -4.737   0.075  12.263  1.00  0.00    -0.395 OA
HETATM   16  C15 UNL     1      -3.964  -0.931  11.649  1.00  0.00     0.201 C 
ENDBRANCH  14  15
ENDBRANCH  13  14
BRANCH  12  17
HETATM   17  O2  UNL     1      -4.030   2.144  16.400  1.00  0.00    -0.394 OA
ATOM     18  H2  UNL     1      -4.039   3.083  16.545  1.00  0.00     0.210 HD
ENDBRANCH  12  17
BRANCH   6  19
HETATM   19  O1  UNL     1      -2.523   2.148  12.784  1.00  0.00    -0.389 OA
ATOM     20  H1  UNL     1      -2.137   1.865  13.605  1.00  0.00     0.210 HD
ENDBRANCH   6  19
TORSDOF 4
ENDMDL
