MODEL 1
REMARK VINA RESULT: -7.193650551      0.000      0.000
REMARK  3 active torsions:
REMARK  status: ('A' for Active; 'I' for Inactive)
REMARK       I    between atoms: C1_2  and  N1_3 
REMARK    1  A    between atoms: C1_2  and  C10_15 
REMARK    2  A    between atoms: C2_5  and  C3_6 
REMARK    3  A    between atoms: C9_12  and  O2_13 
ROOT
HETATM    1  O1  UNL     1      -5.819   4.637  15.284  1.00  0.00    -0.273 OA
HETATM    2  C1  UNL     1      -5.463   3.551  14.786  1.00  0.00     0.227 C 
HETATM    3  N1  UNL     1      -4.664   3.535  13.626  1.00  0.00    -0.340 N 
ATOM      4  H1  UNL     1      -3.978   4.274  13.477  1.00  0.00     0.167 HD
HETATM    5  C2  UNL     1      -4.789   2.606  12.760  1.00  0.00     0.071 C 
ENDROOT
BRANCH   2   6
HETATM    6  C10 UNL     1      -5.889   2.291  15.424  1.00  0.00     0.104 C 
HETATM    7  C11 UNL     1      -6.897   2.507  16.520  1.00  0.00     0.017 C 
HETATM    8  C12 UNL     1      -7.221   1.134  17.101  1.00  0.00     0.028 C 
HETATM    9  C13 UNL     1      -5.926   0.585  17.685  1.00  0.00     0.232 C 
HETATM   10  N2  UNL     1      -5.014   0.357  16.583  1.00  0.00    -0.074 N 
HETATM   11  C14 UNL     1      -4.655   1.647  16.024  1.00  0.00     0.246 C 
ATOM     12  H22 UNL     1      -4.200  -0.197  16.852  1.00  0.00     0.277 HD
ATOM     13  H21 UNL     1      -5.391  -0.285  15.885  1.00  0.00     0.277 HD
ENDBRANCH   2   6
BRANCH   5  14
HETATM   14  C3  UNL     1      -3.978   2.531  11.517  1.00  0.00     0.053 C 
HETATM   15  C4  UNL     1      -2.775   1.676  11.803  1.00  0.00     0.012 C 
HETATM   16  C5  UNL     1      -2.002   1.525  10.523  1.00  0.00     0.001 C 
HETATM   17  C6  UNL     1      -1.117   2.679  10.221  1.00  0.00     0.000 C 
HETATM   18  C7  UNL     1      -1.182   3.798  11.211  1.00  0.00     0.002 C 
HETATM   19  C8  UNL     1      -2.442   4.527  11.315  1.00  0.00     0.032 C 
HETATM   20  C9  UNL     1      -3.694   3.837  10.900  1.00  0.00     0.127 C 
BRANCH  20  21
HETATM   21  O2  UNL     1      -3.784   3.772   9.500  1.00  0.00    -0.395 OA
ATOM     22  H2  UNL     1      -2.952   3.971   9.089  1.00  0.00     0.210 HD
ENDBRANCH  20  21
ENDBRANCH   5  14
TORSDOF 3
ENDMDL
MODEL 2
REMARK VINA RESULT: -7.042672284      1.969      2.584
REMARK  3 active torsions:
REMARK  status: ('A' for Active; 'I' for Inactive)
REMARK       I    between atoms: C1_2  and  N1_3 
REMARK    1  A    between atoms: C1_2  and  C10_15 
REMARK    2  A    between atoms: C2_5  and  C3_6 
REMARK    3  A    between atoms: C9_12  and  O2_13 
ROOT
HETATM    1  O1  UNL     1      -2.485   2.315  16.363  1.00  0.00    -0.273 OA
HETATM    2  C1  UNL     1      -3.549   1.924  15.846  1.00  0.00     0.227 C 
HETATM    3  N1  UNL     1      -3.561   1.469  14.513  1.00  0.00    -0.340 N 
ATOM      4  H1  UNL     1      -2.745   0.982  14.140  1.00  0.00     0.167 HD
HETATM    5  C2  UNL     1      -4.579   1.657  13.767  1.00  0.00     0.071 C 
ENDROOT
BRANCH   2   6
HETATM    6  C10 UNL     1      -4.790   1.944  16.644  1.00  0.00     0.104 C 
HETATM    7  C11 UNL     1      -5.487   0.610  16.667  1.00  0.00     0.017 C 
HETATM    8  C12 UNL     1      -6.754   0.787  17.497  1.00  0.00     0.028 C 
HETATM    9  C13 UNL     1      -7.617   1.814  16.774  1.00  0.00     0.232 C 
HETATM   10  N2  UNL     1      -6.917   3.081  16.822  1.00  0.00    -0.074 N 
HETATM   11  C14 UNL     1      -5.718   2.962  16.014  1.00  0.00     0.246 C 
ATOM     12  H22 UNL     1      -7.506   3.867  16.544  1.00  0.00     0.277 HD
ATOM     13  H21 UNL     1      -6.722   3.388  17.775  1.00  0.00     0.277 HD
ENDBRANCH   2   6
BRANCH   5  14
HETATM   14  C3  UNL     1      -4.654   1.203  12.354  1.00  0.00     0.053 C 
HETATM   15  C4  UNL     1      -4.174  -0.221  12.301  1.00  0.00     0.012 C 
HETATM   16  C5  UNL     1      -4.335  -0.710  10.890  1.00  0.00     0.001 C 
HETATM   17  C6  UNL     1      -3.231  -0.297   9.986  1.00  0.00     0.000 C 
HETATM   18  C7  UNL     1      -2.184   0.560  10.622  1.00  0.00     0.002 C 
HETATM   19  C8  UNL     1      -2.589   1.889  11.069  1.00  0.00     0.032 C 
HETATM   20  C9  UNL     1      -4.025   2.119  11.389  1.00  0.00     0.127 C 
BRANCH  20  21
HETATM   21  O2  UNL     1      -4.784   2.225  10.213  1.00  0.00    -0.395 OA
ATOM     22  H2  UNL     1      -4.814   3.121   9.899  1.00  0.00     0.210 HD
ENDBRANCH  20  21
ENDBRANCH   5  14
TORSDOF 3
ENDMDL
MODEL 3
REMARK VINA RESULT: -7.015453581      1.498      1.742
REMARK  3 active torsions:
REMARK  status: ('A' for Active; 'I' for Inactive)
REMARK       I    between atoms: C1_2  and  N1_3 
REMARK    1  A    between atoms: C1_2  and  C10_15 
REMARK    2  A    between atoms: C2_5  and  C3_6 
REMARK    3  A    between atoms: C9_12  and  O2_13 
ROOT
HETATM    1  O1  UNL     1      -2.891   1.502  16.171  1.00  0.00    -0.273 OA
HETATM    2  C1  UNL     1      -3.716   1.673  15.253  1.00  0.00     0.227 C 
HETATM    3  N1  UNL     1      -3.280   1.727  13.915  1.00  0.00    -0.340 N 
ATOM      4  H1  UNL     1      -2.483   1.162  13.621  1.00  0.00     0.167 HD
HETATM    5  C2  UNL     1      -3.871   2.473  13.065  1.00  0.00     0.071 C 
ENDROOT
BRANCH   2   6
HETATM    6  C10 UNL     1      -5.146   1.817  15.585  1.00  0.00     0.104 C 
HETATM    7  C11 UNL     1      -5.466   3.153  16.201  1.00  0.00     0.017 C 
HETATM    8  C12 UNL     1      -6.959   3.149  16.513  1.00  0.00     0.028 C 
HETATM    9  C13 UNL     1      -7.196   2.036  17.527  1.00  0.00     0.232 C 
HETATM   10  N2  UNL     1      -6.914   0.779  16.867  1.00  0.00    -0.074 N 
HETATM   11  C14 UNL     1      -5.492   0.730  16.582  1.00  0.00     0.246 C 
ATOM     12  H22 UNL     1      -7.238  -0.028  17.401  1.00  0.00     0.277 HD
ATOM     13  H21 UNL     1      -7.488   0.632  16.036  1.00  0.00     0.277 HD
ENDBRANCH   2   6
BRANCH   5  14
HETATM   14  C3  UNL     1      -3.463   2.575  11.640  1.00  0.00     0.053 C 
HETATM   15  C4  UNL     1      -2.014   2.185  11.546  1.00  0.00     0.012 C 
HETATM   16  C5  UNL     1      -1.624   2.201  10.095  1.00  0.00     0.001 C 
HETATM   17  C6  UNL     1      -1.299   3.556   9.580  1.00  0.00     0.000 C 
HETATM   18  C7  UNL     1      -1.456   4.662  10.574  1.00  0.00     0.002 C 
HETATM   19  C8  UNL     1      -2.805   4.944  11.053  1.00  0.00     0.032 C 
HETATM   20  C9  UNL     1      -3.816   3.853  10.999  1.00  0.00     0.127 C 
BRANCH  20  21
HETATM   21  O2  UNL     1      -4.266   3.659   9.683  1.00  0.00    -0.395 OA
ATOM     22  H2  UNL     1      -4.565   2.768   9.546  1.00  0.00     0.210 HD
ENDBRANCH  20  21
ENDBRANCH   5  14
TORSDOF 3
ENDMDL
MODEL 4
REMARK VINA RESULT: -6.701632419      1.855      2.245
REMARK  3 active torsions:
REMARK  status: ('A' for Active; 'I' for Inactive)
REMARK       I    between atoms: C1_2  and  N1_3 
REMARK    1  A    between atoms: C1_2  and  C10_15 
REMARK    2  A    between atoms: C2_5  and  C3_6 
REMARK    3  A    between atoms: C9_12  and  O2_13 
ROOT
HETATM    1  O1  UNL     1      -4.695  -0.597  15.187  1.00  0.00    -0.273 OA
HETATM    2  C1  UNL     1      -4.654   0.607  14.871  1.00  0.00     0.227 C 
HETATM    3  N1  UNL     1      -4.223   0.984  13.584  1.00  0.00    -0.340 N 
ATOM      4  H1  UNL     1      -4.425   0.380  12.788  1.00  0.00     0.167 HD
HETATM    5  C2  UNL     1      -3.583   2.074  13.402  1.00  0.00     0.071 C 
ENDROOT
BRANCH   2   6
HETATM    6  C10 UNL     1      -5.061   1.627  15.856  1.00  0.00     0.104 C 
HETATM    7  C11 UNL     1      -5.758   1.033  17.051  1.00  0.00     0.017 C 
HETATM    8  C12 UNL     1      -6.140   2.195  17.962  1.00  0.00     0.028 C 
HETATM    9  C13 UNL     1      -7.108   3.072  17.177  1.00  0.00     0.232 C 
HETATM   10  N2  UNL     1      -6.373   3.647  16.070  1.00  0.00    -0.074 N 
HETATM   11  C14 UNL     1      -6.018   2.573  15.161  1.00  0.00     0.246 C 
ATOM     12  H22 UNL     1      -6.880   4.403  15.610  1.00  0.00     0.277 HD
ATOM     13  H21 UNL     1      -5.564   4.191  16.373  1.00  0.00     0.277 HD
ENDBRANCH   2   6
BRANCH   5  14
HETATM   14  C3  UNL     1      -3.101   2.529  12.073  1.00  0.00     0.053 C 
HETATM   15  C4  UNL     1      -2.107   1.518  11.571  1.00  0.00     0.012 C 
HETATM   16  C5  UNL     1      -1.687   1.930  10.189  1.00  0.00     0.001 C 
HETATM   17  C6  UNL     1      -0.637   2.980  10.173  1.00  0.00     0.000 C 
HETATM   18  C7  UNL     1      -0.215   3.469  11.521  1.00  0.00     0.002 C 
HETATM   19  C8  UNL     1      -1.208   4.187  12.313  1.00  0.00     0.032 C 
HETATM   20  C9  UNL     1      -2.650   3.930  12.040  1.00  0.00     0.127 C 
BRANCH  20  21
HETATM   21  O2  UNL     1      -3.051   4.570  10.856  1.00  0.00    -0.395 OA
ATOM     22  H2  UNL     1      -2.799   5.486  10.854  1.00  0.00     0.210 HD
ENDBRANCH  20  21
ENDBRANCH   5  14
TORSDOF 3
ENDMDL
MODEL 5
REMARK VINA RESULT: -6.668462738      0.911      1.176
REMARK  3 active torsions:
REMARK  status: ('A' for Active; 'I' for Inactive)
REMARK       I    between atoms: C1_2  and  N1_3 
REMARK    1  A    between atoms: C1_2  and  C10_15 
REMARK    2  A    between atoms: C2_5  and  C3_6 
REMARK    3  A    between atoms: C9_12  and  O2_13 
ROOT
HETATM    1  O1  UNL     1      -6.158   4.844  15.602  1.00  0.00    -0.273 OA
HETATM    2  C1  UNL     1      -5.645   3.856  15.043  1.00  0.00     0.227 C 
HETATM    3  N1  UNL     1      -4.761   4.037  13.961  1.00  0.00    -0.340 N 
ATOM      4  H1  UNL     1      -4.153   4.855  13.939  1.00  0.00     0.167 HD
HETATM    5  C2  UNL     1      -4.714   3.190  13.007  1.00  0.00     0.071 C 
ENDROOT
BRANCH   2   6
HETATM    6  C10 UNL     1      -5.975   2.502  15.525  1.00  0.00     0.104 C 
HETATM    7  C11 UNL     1      -7.001   2.512  16.627  1.00  0.00     0.017 C 
HETATM    8  C12 UNL     1      -7.220   1.061  17.041  1.00  0.00     0.028 C 
HETATM    9  C13 UNL     1      -5.889   0.547  17.573  1.00  0.00     0.232 C 
HETATM   10  N2  UNL     1      -4.958   0.518  16.464  1.00  0.00    -0.074 N 
HETATM   11  C14 UNL     1      -4.698   1.888  16.062  1.00  0.00     0.246 C 
ATOM     12  H22 UNL     1      -4.106  -0.000  16.678  1.00  0.00     0.277 HD
ATOM     13  H21 UNL     1      -5.282  -0.065  15.692  1.00  0.00     0.277 HD
ENDBRANCH   2   6
BRANCH   5  14
HETATM   14  C3  UNL     1      -3.805   3.322  11.839  1.00  0.00     0.053 C 
HETATM   15  C4  UNL     1      -2.404   3.480  12.359  1.00  0.00     0.012 C 
HETATM   16  C5  UNL     1      -1.475   3.523  11.180  1.00  0.00     0.001 C 
HETATM   17  C6  UNL     1      -1.392   4.858  10.534  1.00  0.00     0.000 C 
HETATM   18  C7  UNL     1      -2.271   5.905  11.139  1.00  0.00     0.002 C 
HETATM   19  C8  UNL     1      -3.713   5.714  11.028  1.00  0.00     0.032 C 
HETATM   20  C9  UNL     1      -4.230   4.329  10.853  1.00  0.00     0.127 C 
BRANCH  20  21
HETATM   21  O2  UNL     1      -4.015   3.882   9.538  1.00  0.00    -0.395 OA
ATOM     22  H2  UNL     1      -4.826   3.852   9.045  1.00  0.00     0.210 HD
ENDBRANCH  20  21
ENDBRANCH   5  14
TORSDOF 3
ENDMDL
