MODEL 1
REMARK VINA RESULT: -5.793388870      0.000      0.000
REMARK  4 active torsions:
REMARK  status: ('A' for Active; 'I' for Inactive)
REMARK    1  A    between atoms: C2_2  and  C3_3 
REMARK    2  A    between atoms: C3_3  and  C4_4 
REMARK    3  A    between atoms: C4_4  and  N1_5 
REMARK    4  A    between atoms: C8_12  and  N3_13 
ROOT
HETATM    1  N1  UNL     1      94.643 -39.410  13.804  1.00  0.00    -0.066 N 
HETATM    2  C5  UNL     1      95.582 -40.496  13.503  1.00  0.00     0.272 C 
HETATM    3  C6  UNL     1      93.743 -39.917  14.816  1.00  0.00     0.264 C 
HETATM    4  C7  UNL     1      92.760 -40.907  14.225  1.00  0.00     0.262 C 
HETATM    5  N2  UNL     1      92.014 -40.377  13.126  1.00  0.00    -0.043 N 
ATOM      6  H21 UNL     1      91.010 -40.402  13.300  1.00  0.00     0.279 HD
ATOM      7  H22 UNL     1      92.042 -40.994  12.314  1.00  0.00     0.279 HD
HETATM    8  C8  UNL     1      92.482 -39.021  12.803  1.00  0.00     0.406 C 
HETATM    9  C9  UNL     1      93.970 -39.098  12.562  1.00  0.00     0.299 C 
ENDROOT
BRANCH   1  10
HETATM   10  C4  UNL     1      95.358 -38.262  14.312  1.00  0.00     0.237 C 
BRANCH  10  11
HETATM   11  C3  UNL     1      96.617 -38.710  14.985  1.00  0.00     0.027 C 
BRANCH  11  12
HETATM   12  C2  UNL     1      97.348 -37.608  15.673  1.00  0.00    -0.003 C 
HETATM   13  C1  UNL     1      98.829 -37.756  15.694  1.00  0.00     0.005 C 
ENDBRANCH  11  12
ENDBRANCH  10  11
ENDBRANCH   1  10
BRANCH   8  14
HETATM   14  N3  UNL     1      91.751 -38.597  11.654  1.00  0.00    -0.049 N 
ATOM     15  H33 UNL     1      91.963 -39.142  10.818  1.00  0.00     0.276 HD
ATOM     16  H32 UNL     1      90.757 -38.821  11.705  1.00  0.00     0.276 HD
ATOM     17  H31 UNL     1      91.934 -37.600  11.541  1.00  0.00     0.276 HD
ENDBRANCH   8  14
TORSDOF 4
ENDMDL
MODEL 2
REMARK VINA RESULT: -5.760320809      1.496      1.774
REMARK  4 active torsions:
REMARK  status: ('A' for Active; 'I' for Inactive)
REMARK    1  A    between atoms: C2_2  and  C3_3 
REMARK    2  A    between atoms: C3_3  and  C4_4 
REMARK    3  A    between atoms: C4_4  and  N1_5 
REMARK    4  A    between atoms: C8_12  and  N3_13 
ROOT
HETATM    1  N1  UNL     1      95.865 -40.016  14.843  1.00  0.00    -0.066 N 
HETATM    2  C5  UNL     1      96.587 -40.845  13.872  1.00  0.00     0.272 C 
HETATM    3  C6  UNL     1      94.882 -40.877  15.463  1.00  0.00     0.264 C 
HETATM    4  C7  UNL     1      93.734 -41.165  14.517  1.00  0.00     0.262 C 
HETATM    5  N2  UNL     1      93.105 -39.983  14.014  1.00  0.00    -0.043 N 
ATOM      6  H21 UNL     1      92.112 -39.952  14.247  1.00  0.00     0.279 HD
ATOM      7  H22 UNL     1      93.021 -39.999  12.998  1.00  0.00     0.279 HD
HETATM    8  C8  UNL     1      93.818 -38.788  14.488  1.00  0.00     0.406 C 
HETATM    9  C9  UNL     1      95.267 -38.934  14.091  1.00  0.00     0.299 C 
ENDROOT
BRANCH   1  10
HETATM   10  C4  UNL     1      96.779 -39.513  15.842  1.00  0.00     0.237 C 
BRANCH  10  11
HETATM   11  C3  UNL     1      97.197 -38.120  15.488  1.00  0.00     0.027 C 
BRANCH  11  12
HETATM   12  C2  UNL     1      98.665 -37.891  15.607  1.00  0.00    -0.003 C 
HETATM   13  C1  UNL     1      99.512 -39.072  15.286  1.00  0.00     0.005 C 
ENDBRANCH  11  12
ENDBRANCH  10  11
ENDBRANCH   1  10
BRANCH   8  14
HETATM   14  N3  UNL     1      93.184 -37.663  13.883  1.00  0.00    -0.049 N 
ATOM     15  H33 UNL     1      93.842 -36.945  13.579  1.00  0.00     0.276 HD
ATOM     16  H32 UNL     1      92.788 -37.871  12.966  1.00  0.00     0.276 HD
ATOM     17  H31 UNL     1      92.494 -37.319  14.551  1.00  0.00     0.276 HD
ENDBRANCH   8  14
TORSDOF 4
ENDMDL
MODEL 3
REMARK VINA RESULT: -5.555769801      1.518      2.213
REMARK  4 active torsions:
REMARK  status: ('A' for Active; 'I' for Inactive)
REMARK    1  A    between atoms: C2_2  and  C3_3 
REMARK    2  A    between atoms: C3_3  and  C4_4 
REMARK    3  A    between atoms: C4_4  and  N1_5 
REMARK    4  A    between atoms: C8_12  and  N3_13 
ROOT
HETATM    1  N1  UNL     1      93.502 -40.829  13.253  1.00  0.00    -0.066 N 
HETATM    2  C5  UNL     1      93.827 -41.909  12.315  1.00  0.00     0.272 C 
HETATM    3  C6  UNL     1      92.075 -40.900  13.478  1.00  0.00     0.264 C 
HETATM    4  C7  UNL     1      91.308 -40.390  12.275  1.00  0.00     0.262 C 
HETATM    5  N2  UNL     1      91.679 -39.065  11.887  1.00  0.00    -0.043 N 
ATOM      6  H21 UNL     1      90.885 -38.425  11.908  1.00  0.00     0.279 HD
ATOM      7  H22 UNL     1      91.893 -39.005  10.892  1.00  0.00     0.279 HD
HETATM    8  C8  UNL     1      92.792 -38.586  12.719  1.00  0.00     0.406 C 
HETATM    9  C9  UNL     1      93.908 -39.597  12.614  1.00  0.00     0.299 C 
ENDROOT
BRANCH   1  10
HETATM   10  C4  UNL     1      94.207 -41.026  14.499  1.00  0.00     0.237 C 
BRANCH  10  11
HETATM   11  C3  UNL     1      95.640 -40.626  14.336  1.00  0.00     0.027 C 
BRANCH  11  12
HETATM   12  C2  UNL     1      96.394 -40.579  15.622  1.00  0.00    -0.003 C 
HETATM   13  C1  UNL     1      97.575 -39.673  15.622  1.00  0.00     0.005 C 
ENDBRANCH  11  12
ENDBRANCH  10  11
ENDBRANCH   1  10
BRANCH   8  14
HETATM   14  N3  UNL     1      93.155 -37.300  12.220  1.00  0.00    -0.049 N 
ATOM     15  H33 UNL     1      93.842 -36.822  12.803  1.00  0.00     0.276 HD
ATOM     16  H32 UNL     1      93.716 -37.343  11.369  1.00  0.00     0.276 HD
ATOM     17  H31 UNL     1      92.289 -36.774  12.105  1.00  0.00     0.276 HD
ENDBRANCH   8  14
TORSDOF 4
ENDMDL
MODEL 4
REMARK VINA RESULT: -5.552318654      1.644      1.908
REMARK  4 active torsions:
REMARK  status: ('A' for Active; 'I' for Inactive)
REMARK    1  A    between atoms: C2_2  and  C3_3 
REMARK    2  A    between atoms: C3_3  and  C4_4 
REMARK    3  A    between atoms: C4_4  and  N1_5 
REMARK    4  A    between atoms: C8_12  and  N3_13 
ROOT
HETATM    1  N1  UNL     1      94.974 -40.099  14.525  1.00  0.00    -0.066 N 
HETATM    2  C5  UNL     1      95.732 -40.805  15.565  1.00  0.00     0.272 C 
HETATM    3  C6  UNL     1      93.638 -39.918  15.047  1.00  0.00     0.264 C 
HETATM    4  C7  UNL     1      92.868 -41.223  15.038  1.00  0.00     0.262 C 
HETATM    5  N2  UNL     1      92.813 -41.839  13.749  1.00  0.00    -0.043 N 
ATOM      6  H21 UNL     1      91.853 -41.968  13.429  1.00  0.00     0.279 HD
ATOM      7  H22 UNL     1      93.093 -42.819  13.783  1.00  0.00     0.279 HD
HETATM    8  C8  UNL     1      93.615 -41.071  12.786  1.00  0.00     0.406 C 
HETATM    9  C9  UNL     1      95.008 -40.943  13.351  1.00  0.00     0.299 C 
ENDROOT
BRANCH   1  10
HETATM   10  C4  UNL     1      95.577 -38.812  14.260  1.00  0.00     0.237 C 
BRANCH  10  11
HETATM   11  C3  UNL     1      96.855 -38.687  15.028  1.00  0.00     0.027 C 
BRANCH  11  12
HETATM   12  C2  UNL     1      97.146 -37.294  15.475  1.00  0.00    -0.003 C 
HETATM   13  C1  UNL     1      96.261 -36.251  14.889  1.00  0.00     0.005 C 
ENDBRANCH  11  12
ENDBRANCH  10  11
ENDBRANCH   1  10
BRANCH   8  14
HETATM   14  N3  UNL     1      93.576 -41.788  11.554  1.00  0.00    -0.049 N 
ATOM     15  H33 UNL     1      93.608 -42.801  11.676  1.00  0.00     0.276 HD
ATOM     16  H32 UNL     1      92.667 -41.744  11.091  1.00  0.00     0.276 HD
ATOM     17  H31 UNL     1      94.338 -41.429  10.979  1.00  0.00     0.276 HD
ENDBRANCH   8  14
TORSDOF 4
ENDMDL
MODEL 5
REMARK VINA RESULT: -5.540067773      1.906      4.563
REMARK  4 active torsions:
REMARK  status: ('A' for Active; 'I' for Inactive)
REMARK    1  A    between atoms: C2_2  and  C3_3 
REMARK    2  A    between atoms: C3_3  and  C4_4 
REMARK    3  A    between atoms: C4_4  and  N1_5 
REMARK    4  A    between atoms: C8_12  and  N3_13 
ROOT
HETATM    1  N1  UNL     1      94.855 -40.378  14.240  1.00  0.00    -0.066 N 
HETATM    2  C5  UNL     1      94.848 -41.092  15.522  1.00  0.00     0.272 C 
HETATM    3  C6  UNL     1      96.227 -39.990  13.997  1.00  0.00     0.264 C 
HETATM    4  C7  UNL     1      96.635 -38.841  14.896  1.00  0.00     0.262 C 
HETATM    5  N2  UNL     1      95.776 -37.703  14.786  1.00  0.00    -0.043 N 
ATOM      6  H21 UNL     1      96.285 -36.867  14.498  1.00  0.00     0.279 HD
ATOM      7  H22 UNL     1      95.457 -37.378  15.698  1.00  0.00     0.279 HD
HETATM    8  C8  UNL     1      94.654 -38.001  13.884  1.00  0.00     0.406 C 
HETATM    9  C9  UNL     1      93.972 -39.244  14.400  1.00  0.00     0.299 C 
ENDROOT
BRANCH   1  10
HETATM   10  C4  UNL     1      94.396 -41.252  13.184  1.00  0.00     0.237 C 
BRANCH  10  11
HETATM   11  C3  UNL     1      93.000 -41.704  13.476  1.00  0.00     0.027 C 
BRANCH  11  12
HETATM   12  C2  UNL     1      92.124 -41.747  12.270  1.00  0.00    -0.003 C 
HETATM   13  C1  UNL     1      91.195 -40.594  12.129  1.00  0.00     0.005 C 
ENDBRANCH  11  12
ENDBRANCH  10  11
ENDBRANCH   1  10
BRANCH   8  14
HETATM   14  N3  UNL     1      93.805 -36.855  13.891  1.00  0.00    -0.049 N 
ATOM     15  H33 UNL     1      93.079 -36.896  14.606  1.00  0.00     0.276 HD
ATOM     16  H32 UNL     1      94.271 -36.012  14.230  1.00  0.00     0.276 HD
ATOM     17  H31 UNL     1      93.434 -36.757  12.946  1.00  0.00     0.276 HD
ENDBRANCH   8  14
TORSDOF 4
ENDMDL
