MODEL 1
REMARK VINA RESULT: -6.748028310      0.000      0.000
REMARK  3 active torsions:
REMARK  status: ('A' for Active; 'I' for Inactive)
REMARK    1  A    between atoms: C2_2  and  C3_3 
REMARK    2  A    between atoms: C8_9  and  N2_10 
REMARK    3  A    between atoms: N2_10  and  N3_12 
ROOT
HETATM    1  C3  UNL     1      95.688 -38.617  14.203  1.00  0.00     0.049 C 
HETATM    2  C4  UNL     1      96.709 -38.074  15.213  1.00  0.00     0.102 C 
HETATM    3  C5  UNL     1      97.916 -38.873  15.189  1.00  0.00     0.064 C 
HETATM    4  N1  UNL     1      98.871 -39.522  15.170  1.00  0.00    -0.197 NA
HETATM    5  C6  UNL     1      96.892 -36.685  14.682  1.00  0.00     0.022 C 
HETATM    6  C7  UNL     1      95.425 -36.237  14.598  1.00  0.00     0.029 C 
HETATM    7  C8  UNL     1      94.837 -37.419  13.843  1.00  0.00     0.109 C 
ENDROOT
BRANCH   1   8
HETATM    8  C2  UNL     1      94.923 -39.737  14.763  1.00  0.00    -0.029 C 
HETATM    9  C1  UNL     1      94.861 -40.903  14.134  1.00  0.00     0.007 C 
ENDBRANCH   1   8
BRANCH   7  10
HETATM   10  N2  UNL     1      93.442 -37.614  14.111  1.00  0.00    -0.317 N 
ATOM     11  H2  UNL     1      93.095 -37.630  15.070  1.00  0.00     0.182 HD
BRANCH  10  12
HETATM   12  N3  UNL     1      92.572 -37.782  13.045  1.00  0.00    -0.253 N 
HETATM   13  N4  UNL     1      92.914 -38.367  11.974  1.00  0.00    -0.331 N 
ATOM     14  H42 UNL     1      93.868 -38.723  11.910  1.00  0.00     0.178 HD
ATOM     15  H41 UNL     1      92.274 -38.491  11.189  1.00  0.00     0.178 HD
ATOM     16  H3  UNL     1      91.622 -37.420  13.125  1.00  0.00     0.207 HD
ENDBRANCH  10  12
ENDBRANCH   7  10
TORSDOF 3
ENDMDL
MODEL 2
REMARK VINA RESULT: -6.688210300      1.104      2.696
REMARK  3 active torsions:
REMARK  status: ('A' for Active; 'I' for Inactive)
REMARK    1  A    between atoms: C2_2  and  C3_3 
REMARK    2  A    between atoms: C8_9  and  N2_10 
REMARK    3  A    between atoms: N2_10  and  N3_12 
ROOT
HETATM    1  C3  UNL     1      95.328 -38.763  14.557  1.00  0.00     0.049 C 
HETATM    2  C4  UNL     1      96.063 -39.854  13.764  1.00  0.00     0.102 C 
HETATM    3  C5  UNL     1      97.317 -40.187  14.406  1.00  0.00     0.064 C 
HETATM    4  N1  UNL     1      98.319 -40.439  14.921  1.00  0.00    -0.197 NA
HETATM    5  C6  UNL     1      95.044 -40.951  13.819  1.00  0.00     0.022 C 
HETATM    6  C7  UNL     1      93.807 -40.191  13.317  1.00  0.00     0.029 C 
HETATM    7  C8  UNL     1      93.867 -38.972  14.225  1.00  0.00     0.109 C 
ENDROOT
BRANCH   1   8
HETATM    8  C2  UNL     1      95.825 -37.425  14.216  1.00  0.00    -0.029 C 
HETATM    9  C1  UNL     1      96.574 -36.738  15.069  1.00  0.00     0.007 C 
ENDBRANCH   1   8
BRANCH   7  10
HETATM   10  N2  UNL     1      93.246 -37.815  13.648  1.00  0.00    -0.317 N 
ATOM     11  H2  UNL     1      93.372 -36.895  14.070  1.00  0.00     0.182 HD
BRANCH  10  12
HETATM   12  N3  UNL     1      92.474 -37.968  12.508  1.00  0.00    -0.253 N 
HETATM   13  N4  UNL     1      91.206 -37.995  12.544  1.00  0.00    -0.331 N 
ATOM     14  H42 UNL     1      90.754 -37.898  13.453  1.00  0.00     0.178 HD
ATOM     15  H41 UNL     1      90.637 -38.106  11.704  1.00  0.00     0.178 HD
ATOM     16  H3  UNL     1      92.942 -38.063  11.607  1.00  0.00     0.207 HD
ENDBRANCH  10  12
ENDBRANCH   7  10
TORSDOF 3
ENDMDL
MODEL 3
REMARK VINA RESULT: -6.647417565      0.993      2.657
REMARK  3 active torsions:
REMARK  status: ('A' for Active; 'I' for Inactive)
REMARK    1  A    between atoms: C2_2  and  C3_3 
REMARK    2  A    between atoms: C8_9  and  N2_10 
REMARK    3  A    between atoms: N2_10  and  N3_12 
ROOT
HETATM    1  C3  UNL     1      96.034 -38.788  14.869  1.00  0.00     0.049 C 
HETATM    2  C4  UNL     1      96.992 -39.661  14.044  1.00  0.00     0.102 C 
HETATM    3  C5  UNL     1      98.347 -39.527  14.536  1.00  0.00     0.064 C 
HETATM    4  N1  UNL     1      99.425 -39.407  14.930  1.00  0.00    -0.197 NA
HETATM    5  C6  UNL     1      96.391 -41.012  14.285  1.00  0.00     0.022 C 
HETATM    6  C7  UNL     1      94.929 -40.724  13.908  1.00  0.00     0.029 C 
HETATM    7  C8  UNL     1      94.691 -39.472  14.737  1.00  0.00     0.109 C 
ENDROOT
BRANCH   1   8
HETATM    8  C2  UNL     1      96.036 -37.398  14.399  1.00  0.00    -0.029 C 
HETATM    9  C1  UNL     1      96.622 -36.440  15.107  1.00  0.00     0.007 C 
ENDBRANCH   1   8
BRANCH   7  10
HETATM   10  N2  UNL     1      93.674 -38.623  14.187  1.00  0.00    -0.317 N 
ATOM     11  H2  UNL     1      93.484 -37.709  14.598  1.00  0.00     0.182 HD
BRANCH  10  12
HETATM   12  N3  UNL     1      92.955 -39.065  13.089  1.00  0.00    -0.253 N 
HETATM   13  N4  UNL     1      92.931 -38.431  11.991  1.00  0.00    -0.331 N 
ATOM     14  H42 UNL     1      93.467 -37.565  11.930  1.00  0.00     0.178 HD
ATOM     15  H41 UNL     1      92.402 -38.757  11.182  1.00  0.00     0.178 HD
ATOM     16  H3  UNL     1      92.424 -39.932  13.167  1.00  0.00     0.207 HD
ENDBRANCH  10  12
ENDBRANCH   7  10
TORSDOF 3
ENDMDL
MODEL 4
REMARK VINA RESULT: -6.560919821      1.086      1.105
REMARK  3 active torsions:
REMARK  status: ('A' for Active; 'I' for Inactive)
REMARK    1  A    between atoms: C2_2  and  C3_3 
REMARK    2  A    between atoms: C8_9  and  N2_10 
REMARK    3  A    between atoms: N2_10  and  N3_12 
ROOT
HETATM    1  C3  UNL     1      94.936 -39.243  14.074  1.00  0.00     0.049 C 
HETATM    2  C4  UNL     1      96.077 -38.813  15.009  1.00  0.00     0.102 C 
HETATM    3  C5  UNL     1      97.076 -39.856  15.100  1.00  0.00     0.064 C 
HETATM    4  N1  UNL     1      97.863 -40.698  15.174  1.00  0.00    -0.197 NA
HETATM    5  C6  UNL     1      96.550 -37.582  14.297  1.00  0.00     0.022 C 
HETATM    6  C7  UNL     1      95.217 -36.834  14.145  1.00  0.00     0.029 C 
HETATM    7  C8  UNL     1      94.364 -37.944  13.552  1.00  0.00     0.109 C 
ENDROOT
BRANCH   1   8
HETATM    8  C2  UNL     1      93.956 -40.080  14.776  1.00  0.00    -0.029 C 
HETATM    9  C1  UNL     1      93.607 -41.268  14.298  1.00  0.00     0.007 C 
ENDBRANCH   1   8
BRANCH   7  10
HETATM   10  N2  UNL     1      92.967 -37.787  13.835  1.00  0.00    -0.317 N 
ATOM     11  H2  UNL     1      92.643 -37.668  14.795  1.00  0.00     0.182 HD
BRANCH  10  12
HETATM   12  N3  UNL     1      92.065 -37.800  12.784  1.00  0.00    -0.253 N 
HETATM   13  N4  UNL     1      91.357 -38.816  12.507  1.00  0.00    -0.331 N 
ATOM     14  H42 UNL     1      91.468 -39.645  13.090  1.00  0.00     0.178 HD
ATOM     15  H41 UNL     1      90.692 -38.825  11.733  1.00  0.00     0.178 HD
ATOM     16  H3  UNL     1      91.967 -36.963  12.211  1.00  0.00     0.207 HD
ENDBRANCH  10  12
ENDBRANCH   7  10
TORSDOF 3
ENDMDL
MODEL 5
REMARK VINA RESULT: -6.531635696      1.197      2.842
REMARK  3 active torsions:
REMARK  status: ('A' for Active; 'I' for Inactive)
REMARK    1  A    between atoms: C2_2  and  C3_3 
REMARK    2  A    between atoms: C8_9  and  N2_10 
REMARK    3  A    between atoms: N2_10  and  N3_12 
ROOT
HETATM    1  C3  UNL     1      96.527 -38.621  14.957  1.00  0.00     0.049 C 
HETATM    2  C4  UNL     1      97.826 -39.318  14.528  1.00  0.00     0.102 C 
HETATM    3  C5  UNL     1      98.952 -38.790  15.269  1.00  0.00     0.064 C 
HETATM    4  N1  UNL     1      99.844 -38.355  15.858  1.00  0.00    -0.197 NA
HETATM    5  C6  UNL     1      97.489 -40.737  14.871  1.00  0.00     0.022 C 
HETATM    6  C7  UNL     1      96.143 -40.875  14.142  1.00  0.00     0.029 C 
HETATM    7  C8  UNL     1      95.439 -39.631  14.663  1.00  0.00     0.109 C 
ENDROOT
BRANCH   1   8
HETATM    8  C2  UNL     1      96.349 -37.343  14.258  1.00  0.00    -0.029 C 
HETATM    9  C1  UNL     1      96.248 -36.205  14.933  1.00  0.00     0.007 C 
ENDBRANCH   1   8
BRANCH   7  10
HETATM   10  N2  UNL     1      94.437 -39.138  13.764  1.00  0.00    -0.317 N 
ATOM     11  H2  UNL     1      94.588 -39.164  12.755  1.00  0.00     0.182 HD
BRANCH  10  12
HETATM   12  N3  UNL     1      93.261 -38.627  14.288  1.00  0.00    -0.253 N 
HETATM   13  N4  UNL     1      92.802 -37.493  13.951  1.00  0.00    -0.331 N 
ATOM     14  H42 UNL     1      93.331 -36.951  13.268  1.00  0.00     0.178 HD
ATOM     15  H41 UNL     1      91.936 -37.117  14.336  1.00  0.00     0.178 HD
ATOM     16  H3  UNL     1      92.745 -39.182  14.970  1.00  0.00     0.207 HD
ENDBRANCH  10  12
ENDBRANCH   7  10
TORSDOF 3
ENDMDL
