MODEL 1
REMARK VINA RESULT: -5.323438796      0.000      0.000
REMARK  4 active torsions:
REMARK  status: ('A' for Active; 'I' for Inactive)
REMARK    1  A    between atoms: N1_2  and  C2_3 
REMARK    2  A    between atoms: C2_3  and  C3_4 
REMARK    3  A    between atoms: C3_4  and  C4_5 
REMARK    4  A    between atoms: C4_5  and  N2_6 
ROOT
HETATM    1  C1  UNL     1      96.596 -40.633  13.819  1.00  0.00     0.273 C 
HETATM    2  N1  UNL     1      96.252 -39.903  15.050  1.00  0.00    -0.065 N 
HETATM    3  C5  UNL     1      95.701 -38.612  14.686  1.00  0.00     0.257 C 
HETATM    4  C6  UNL     1      94.398 -38.769  13.981  1.00  0.00     0.146 C 
HETATM    5  N3  UNL     1      93.468 -39.519  14.734  1.00  0.00    -0.399 N 
ATOM      6  H3  UNL     1      92.487 -39.243  14.777  1.00  0.00     0.158 HD
HETATM    7  C7  UNL     1      93.929 -40.653  15.421  1.00  0.00     0.083 C 
HETATM    8  C8  UNL     1      95.355 -40.722  15.792  1.00  0.00     0.281 C 
ENDROOT
BRANCH   2   9
HETATM    9  C2  UNL     1      97.439 -39.624  15.840  1.00  0.00     0.239 C 
BRANCH   9  10
HETATM   10  C3  UNL     1      97.755 -38.163  15.912  1.00  0.00     0.055 C 
BRANCH  10  11
HETATM   11  C4  UNL     1      99.247 -38.004  15.713  1.00  0.00     0.231 C 
BRANCH  11  12
HETATM   12  N2  UNL     1      99.650 -36.619  15.800  1.00  0.00    -0.079 N 
ATOM     13  H23 UNL     1     100.271 -36.362  15.033  1.00  0.00     0.274 HD
ATOM     14  H22 UNL     1      98.874 -35.990  15.592  1.00  0.00     0.274 HD
ATOM     15  H21 UNL     1     100.069 -36.407  16.705  1.00  0.00     0.274 HD
ENDBRANCH  11  12
ENDBRANCH  10  11
ENDBRANCH   9  10
ENDBRANCH   2   9
TORSDOF 4
ENDMDL
MODEL 2
REMARK VINA RESULT: -5.168072838      1.340      4.295
REMARK  4 active torsions:
REMARK  status: ('A' for Active; 'I' for Inactive)
REMARK    1  A    between atoms: N1_2  and  C2_3 
REMARK    2  A    between atoms: C2_3  and  C3_4 
REMARK    3  A    between atoms: C3_4  and  C4_5 
REMARK    4  A    between atoms: C4_5  and  N2_6 
ROOT
HETATM    1  C1  UNL     1      96.388 -40.558  15.942  1.00  0.00     0.273 C 
HETATM    2  N1  UNL     1      96.651 -39.773  14.726  1.00  0.00    -0.065 N 
HETATM    3  C5  UNL     1      96.618 -38.364  15.067  1.00  0.00     0.257 C 
HETATM    4  C6  UNL     1      97.743 -38.010  15.979  1.00  0.00     0.146 C 
HETATM    5  N3  UNL     1      98.999 -38.369  15.444  1.00  0.00    -0.399 N 
ATOM      6  H3  UNL     1      99.803 -37.746  15.534  1.00  0.00     0.158 HD
HETATM    7  C7  UNL     1      99.115 -39.604  14.786  1.00  0.00     0.083 C 
HETATM    8  C8  UNL     1      97.902 -40.208  14.203  1.00  0.00     0.281 C 
ENDROOT
BRANCH   2   9
HETATM    9  C2  UNL     1      95.604 -39.971  13.739  1.00  0.00     0.239 C 
BRANCH   9  10
HETATM   10  C3  UNL     1      94.236 -39.709  14.287  1.00  0.00     0.055 C 
BRANCH  10  11
HETATM   11  C4  UNL     1      93.525 -38.780  13.327  1.00  0.00     0.231 C 
BRANCH  11  12
HETATM   12  N2  UNL     1      93.121 -37.553  13.975  1.00  0.00    -0.079 N 
ATOM     13  H23 UNL     1      92.136 -37.576  14.236  1.00  0.00     0.274 HD
ATOM     14  H22 UNL     1      93.530 -37.471  14.906  1.00  0.00     0.274 HD
ATOM     15  H21 UNL     1      93.336 -36.738  13.401  1.00  0.00     0.274 HD
ENDBRANCH  11  12
ENDBRANCH  10  11
ENDBRANCH   9  10
ENDBRANCH   2   9
TORSDOF 4
ENDMDL
MODEL 3
REMARK VINA RESULT: -5.101726677      1.397      2.197
REMARK  4 active torsions:
REMARK  status: ('A' for Active; 'I' for Inactive)
REMARK    1  A    between atoms: N1_2  and  C2_3 
REMARK    2  A    between atoms: C2_3  and  C3_4 
REMARK    3  A    between atoms: C3_4  and  C4_5 
REMARK    4  A    between atoms: C4_5  and  N2_6 
ROOT
HETATM    1  C1  UNL     1      95.475 -38.709  14.448  1.00  0.00     0.273 C 
HETATM    2  N1  UNL     1      95.492 -40.159  14.199  1.00  0.00    -0.065 N 
HETATM    3  C5  UNL     1      94.971 -40.837  15.370  1.00  0.00     0.257 C 
HETATM    4  C6  UNL     1      93.529 -40.521  15.572  1.00  0.00     0.146 C 
HETATM    5  N3  UNL     1      92.751 -40.816  14.432  1.00  0.00    -0.399 N 
ATOM      6  H3  UNL     1      91.833 -41.251  14.524  1.00  0.00     0.158 HD
HETATM    7  C7  UNL     1      93.273 -40.496  13.168  1.00  0.00     0.083 C 
HETATM    8  C8  UNL     1      94.737 -40.395  13.015  1.00  0.00     0.281 C 
ENDROOT
BRANCH   2   9
HETATM    9  C2  UNL     1      96.851 -40.643  14.026  1.00  0.00     0.239 C 
BRANCH   9  10
HETATM   10  C3  UNL     1      97.704 -40.416  15.235  1.00  0.00     0.055 C 
BRANCH  10  11
HETATM   11  C4  UNL     1      98.979 -39.741  14.779  1.00  0.00     0.231 C 
BRANCH  11  12
HETATM   12  N2  UNL     1      99.227 -38.521  15.514  1.00  0.00    -0.079 N 
ATOM     13  H23 UNL     1      98.384 -38.192  15.985  1.00  0.00     0.274 HD
ATOM     14  H22 UNL     1      99.810 -38.692  16.334  1.00  0.00     0.274 HD
ATOM     15  H21 UNL     1      99.626 -37.798  14.917  1.00  0.00     0.274 HD
ENDBRANCH  11  12
ENDBRANCH  10  11
ENDBRANCH   9  10
ENDBRANCH   2   9
TORSDOF 4
ENDMDL
MODEL 4
REMARK VINA RESULT: -5.097536390      1.598      2.392
REMARK  4 active torsions:
REMARK  status: ('A' for Active; 'I' for Inactive)
REMARK    1  A    between atoms: N1_2  and  C2_3 
REMARK    2  A    between atoms: C2_3  and  C3_4 
REMARK    3  A    between atoms: C3_4  and  C4_5 
REMARK    4  A    between atoms: C4_5  and  N2_6 
ROOT
HETATM    1  C1  UNL     1      93.820 -40.278  15.319  1.00  0.00     0.273 C 
HETATM    2  N1  UNL     1      94.950 -39.792  14.512  1.00  0.00    -0.065 N 
HETATM    3  C5  UNL     1      95.157 -40.705  13.405  1.00  0.00     0.257 C 
HETATM    4  C6  UNL     1      94.001 -40.674  12.465  1.00  0.00     0.146 C 
HETATM    5  N3  UNL     1      93.725 -39.371  11.998  1.00  0.00    -0.399 N 
ATOM      6  H3  UNL     1      93.481 -39.206  11.021  1.00  0.00     0.158 HD
HETATM    7  C7  UNL     1      93.795 -38.307  12.912  1.00  0.00     0.083 C 
HETATM    8  C8  UNL     1      94.643 -38.461  14.110  1.00  0.00     0.281 C 
ENDROOT
BRANCH   2   9
HETATM    9  C2  UNL     1      96.183 -39.806  15.280  1.00  0.00     0.239 C 
BRANCH   9  10
HETATM   10  C3  UNL     1      97.280 -39.025  14.626  1.00  0.00     0.055 C 
BRANCH  10  11
HETATM   11  C4  UNL     1      97.960 -38.200  15.697  1.00  0.00     0.231 C 
BRANCH  11  12
HETATM   12  N2  UNL     1      97.569 -36.810  15.623  1.00  0.00    -0.079 N 
ATOM     13  H23 UNL     1      97.285 -36.552  14.678  1.00  0.00     0.274 HD
ATOM     14  H22 UNL     1      96.685 -36.645  16.105  1.00  0.00     0.274 HD
ATOM     15  H21 UNL     1      98.304 -36.195  15.972  1.00  0.00     0.274 HD
ENDBRANCH  11  12
ENDBRANCH  10  11
ENDBRANCH   9  10
ENDBRANCH   2   9
TORSDOF 4
ENDMDL
MODEL 5
REMARK VINA RESULT: -5.084888049      1.189      4.308
REMARK  4 active torsions:
REMARK  status: ('A' for Active; 'I' for Inactive)
REMARK    1  A    between atoms: N1_2  and  C2_3 
REMARK    2  A    between atoms: C2_3  and  C3_4 
REMARK    3  A    between atoms: C3_4  and  C4_5 
REMARK    4  A    between atoms: C4_5  and  N2_6 
ROOT
HETATM    1  C1  UNL     1      97.752 -39.774  13.780  1.00  0.00     0.273 C 
HETATM    2  N1  UNL     1      96.890 -39.421  14.919  1.00  0.00    -0.065 N 
HETATM    3  C5  UNL     1      97.725 -39.222  16.088  1.00  0.00     0.257 C 
HETATM    4  C6  UNL     1      98.606 -38.033  15.918  1.00  0.00     0.146 C 
HETATM    5  N3  UNL     1      97.875 -36.863  15.616  1.00  0.00    -0.399 N 
ATOM      6  H3  UNL     1      98.119 -35.969  16.043  1.00  0.00     0.158 HD
HETATM    7  C7  UNL     1      96.804 -36.962  14.713  1.00  0.00     0.083 C 
HETATM    8  C8  UNL     1      96.142 -38.269  14.545  1.00  0.00     0.281 C 
ENDROOT
BRANCH   2   9
HETATM    9  C2  UNL     1      95.990 -40.512  15.250  1.00  0.00     0.239 C 
BRANCH   9  10
HETATM   10  C3  UNL     1      95.096 -40.889  14.111  1.00  0.00     0.055 C 
BRANCH  10  11
HETATM   11  C4  UNL     1      93.710 -41.126  14.672  1.00  0.00     0.231 C 
BRANCH  11  12
HETATM   12  N2  UNL     1      93.234 -39.979  15.412  1.00  0.00    -0.079 N 
ATOM     13  H23 UNL     1      93.334 -40.116  16.417  1.00  0.00     0.274 HD
ATOM     14  H22 UNL     1      93.855 -39.178  15.299  1.00  0.00     0.274 HD
ATOM     15  H21 UNL     1      92.273 -39.745  15.162  1.00  0.00     0.274 HD
ENDBRANCH  11  12
ENDBRANCH  10  11
ENDBRANCH   9  10
ENDBRANCH   2   9
TORSDOF 4
ENDMDL
