MODEL 1
REMARK VINA RESULT: -5.289492174      0.000      0.000
REMARK  3 active torsions:
REMARK  status: ('A' for Active; 'I' for Inactive)
REMARK    1  A    between atoms: N1_2  and  C4_5 
REMARK    2  A    between atoms: C4_5  and  C5_6 
REMARK    3  A    between atoms: C8_10  and  N2_11 
ROOT
HETATM    1  C5  UNL     1      94.466 -40.068  14.547  1.00  0.00     0.068 C 
HETATM    2  C6  UNL     1      93.748 -40.754  15.655  1.00  0.00     0.176 C 
HETATM    3  O1  UNL     1      92.564 -41.291  15.120  1.00  0.00    -0.389 OA
HETATM    4  C7  UNL     1      92.935 -41.644  13.801  1.00  0.00     0.200 C 
HETATM    5  C8  UNL     1      93.559 -40.337  13.367  1.00  0.00     0.214 C 
ENDROOT
BRANCH   1   6
HETATM    6  C4  UNL     1      95.844 -40.580  14.262  1.00  0.00     0.245 C 
BRANCH   6   7
HETATM    7  N1  UNL     1      96.917 -39.728  14.658  1.00  0.00    -0.078 N 
HETATM    8  C1  UNL     1      98.100 -39.843  13.866  1.00  0.00     0.271 C 
HETATM    9  C2  UNL     1      96.447 -38.334  14.578  1.00  0.00     0.271 C 
HETATM   10  C3  UNL     1      97.317 -39.905  16.049  1.00  0.00     0.271 C 
ENDBRANCH   6   7
ENDBRANCH   1   6
BRANCH   5  11
HETATM   11  N2  UNL     1      94.263 -40.427  12.123  1.00  0.00    -0.072 N 
ATOM     12  H23 UNL     1      93.851 -39.805  11.427  1.00  0.00     0.274 HD
ATOM     13  H22 UNL     1      95.188 -40.005  12.198  1.00  0.00     0.274 HD
ATOM     14  H21 UNL     1      94.327 -41.380  11.765  1.00  0.00     0.274 HD
ENDBRANCH   5  11
TORSDOF 3
ENDMDL
MODEL 2
REMARK VINA RESULT: -5.279107487      0.061      1.222
REMARK  3 active torsions:
REMARK  status: ('A' for Active; 'I' for Inactive)
REMARK    1  A    between atoms: N1_2  and  C4_5 
REMARK    2  A    between atoms: C4_5  and  C5_6 
REMARK    3  A    between atoms: C8_10  and  N2_11 
ROOT
HETATM    1  C5  UNL     1      94.446 -40.057  14.560  1.00  0.00     0.068 C 
HETATM    2  C6  UNL     1      93.720 -40.751  15.658  1.00  0.00     0.176 C 
HETATM    3  O1  UNL     1      92.550 -41.301  15.107  1.00  0.00    -0.389 OA
HETATM    4  C7  UNL     1      92.943 -41.651  13.793  1.00  0.00     0.200 C 
HETATM    5  C8  UNL     1      93.558 -40.337  13.368  1.00  0.00     0.214 C 
ENDROOT
BRANCH   1   6
HETATM    6  C4  UNL     1      95.833 -40.554  14.295  1.00  0.00     0.245 C 
BRANCH   6   7
HETATM    7  N1  UNL     1      96.891 -39.695  14.717  1.00  0.00    -0.078 N 
HETATM    8  C1  UNL     1      97.326 -39.893  16.063  1.00  0.00     0.271 C 
HETATM    9  C2  UNL     1      98.043 -39.917  13.826  1.00  0.00     0.271 C 
HETATM   10  C3  UNL     1      96.579 -38.277  14.576  1.00  0.00     0.271 C 
ENDBRANCH   6   7
ENDBRANCH   1   6
BRANCH   5  11
HETATM   11  N2  UNL     1      94.281 -40.419  12.133  1.00  0.00    -0.072 N 
ATOM     12  H23 UNL     1      95.110 -39.825  12.158  1.00  0.00     0.274 HD
ATOM     13  H22 UNL     1      94.729 -41.329  12.035  1.00  0.00     0.274 HD
ATOM     14  H21 UNL     1      93.707 -40.207  11.317  1.00  0.00     0.274 HD
ENDBRANCH   5  11
TORSDOF 3
ENDMDL
MODEL 3
REMARK VINA RESULT: -5.272937665      0.054      1.218
REMARK  3 active torsions:
REMARK  status: ('A' for Active; 'I' for Inactive)
REMARK    1  A    between atoms: N1_2  and  C4_5 
REMARK    2  A    between atoms: C4_5  and  C5_6 
REMARK    3  A    between atoms: C8_10  and  N2_11 
ROOT
HETATM    1  C5  UNL     1      94.435 -40.056  14.562  1.00  0.00     0.068 C 
HETATM    2  C6  UNL     1      93.701 -40.750  15.654  1.00  0.00     0.176 C 
HETATM    3  O1  UNL     1      92.535 -41.300  15.094  1.00  0.00    -0.389 OA
HETATM    4  C7  UNL     1      92.938 -41.648  13.783  1.00  0.00     0.200 C 
HETATM    5  C8  UNL     1      93.557 -40.335  13.363  1.00  0.00     0.214 C 
ENDROOT
BRANCH   1   6
HETATM    6  C4  UNL     1      95.824 -40.553  14.307  1.00  0.00     0.245 C 
BRANCH   6   7
HETATM    7  N1  UNL     1      96.878 -39.657  14.655  1.00  0.00    -0.078 N 
HETATM    8  C1  UNL     1      96.538 -38.271  14.582  1.00  0.00     0.271 C 
HETATM    9  C2  UNL     1      97.293 -39.954  16.037  1.00  0.00     0.271 C 
HETATM   10  C3  UNL     1      98.085 -39.840  13.857  1.00  0.00     0.271 C 
ENDBRANCH   6   7
ENDBRANCH   1   6
BRANCH   5  11
HETATM   11  N2  UNL     1      94.288 -40.416  12.134  1.00  0.00    -0.072 N 
ATOM     12  H23 UNL     1      93.910 -41.149  11.534  1.00  0.00     0.274 HD
ATOM     13  H22 UNL     1      94.102 -39.605  11.546  1.00  0.00     0.274 HD
ATOM     14  H21 UNL     1      95.292 -40.541  12.271  1.00  0.00     0.274 HD
ENDBRANCH   5  11
TORSDOF 3
ENDMDL
MODEL 4
REMARK VINA RESULT: -5.228926844      2.046      2.386
REMARK  3 active torsions:
REMARK  status: ('A' for Active; 'I' for Inactive)
REMARK    1  A    between atoms: N1_2  and  C4_5 
REMARK    2  A    between atoms: C4_5  and  C5_6 
REMARK    3  A    between atoms: C8_10  and  N2_11 
ROOT
HETATM    1  C5  UNL     1      94.783 -39.223  14.133  1.00  0.00     0.068 C 
HETATM    2  C6  UNL     1      94.704 -40.243  13.053  1.00  0.00     0.176 C 
HETATM    3  O1  UNL     1      93.597 -39.920  12.250  1.00  0.00    -0.389 OA
HETATM    4  C7  UNL     1      93.566 -38.506  12.292  1.00  0.00     0.200 C 
HETATM    5  C8  UNL     1      93.629 -38.308  13.789  1.00  0.00     0.214 C 
ENDROOT
BRANCH   1   6
HETATM    6  C4  UNL     1      96.059 -38.442  14.186  1.00  0.00     0.245 C 
BRANCH   6   7
HETATM    7  N1  UNL     1      97.109 -39.020  14.960  1.00  0.00    -0.078 N 
HETATM    8  C1  UNL     1      98.219 -39.503  14.202  1.00  0.00     0.271 C 
HETATM    9  C2  UNL     1      97.605 -37.994  15.895  1.00  0.00     0.271 C 
HETATM   10  C3  UNL     1      96.666 -40.117  15.812  1.00  0.00     0.271 C 
ENDBRANCH   6   7
ENDBRANCH   1   6
BRANCH   5  11
HETATM   11  N2  UNL     1      93.854 -36.947  14.175  1.00  0.00    -0.072 N 
ATOM     12  H23 UNL     1      94.227 -36.895  15.124  1.00  0.00     0.274 HD
ATOM     13  H22 UNL     1      94.641 -36.550  13.664  1.00  0.00     0.274 HD
ATOM     14  H21 UNL     1      93.025 -36.360  14.078  1.00  0.00     0.274 HD
ENDBRANCH   5  11
TORSDOF 3
ENDMDL
MODEL 5
REMARK VINA RESULT: -5.223329173      2.028      2.553
REMARK  3 active torsions:
REMARK  status: ('A' for Active; 'I' for Inactive)
REMARK    1  A    between atoms: N1_2  and  C4_5 
REMARK    2  A    between atoms: C4_5  and  C5_6 
REMARK    3  A    between atoms: C8_10  and  N2_11 
ROOT
HETATM    1  C5  UNL     1      94.766 -39.284  14.106  1.00  0.00     0.068 C 
HETATM    2  C6  UNL     1      94.663 -40.293  13.017  1.00  0.00     0.176 C 
HETATM    3  O1  UNL     1      93.556 -39.946  12.224  1.00  0.00    -0.389 OA
HETATM    4  C7  UNL     1      93.549 -38.531  12.279  1.00  0.00     0.200 C 
HETATM    5  C8  UNL     1      93.625 -38.348  13.777  1.00  0.00     0.214 C 
ENDROOT
BRANCH   1   6
HETATM    6  C4  UNL     1      96.055 -38.525  14.156  1.00  0.00     0.245 C 
BRANCH   6   7
HETATM    7  N1  UNL     1      97.056 -39.059  15.021  1.00  0.00    -0.078 N 
HETATM    8  C1  UNL     1      96.635 -40.170  15.815  1.00  0.00     0.271 C 
HETATM    9  C2  UNL     1      98.193 -39.495  14.190  1.00  0.00     0.271 C 
HETATM   10  C3  UNL     1      97.620 -38.073  15.936  1.00  0.00     0.271 C 
ENDBRANCH   6   7
ENDBRANCH   1   6
BRANCH   5  11
HETATM   11  N2  UNL     1      93.875 -36.994  14.174  1.00  0.00    -0.072 N 
ATOM     12  H23 UNL     1      93.036 -36.570  14.570  1.00  0.00     0.274 HD
ATOM     13  H22 UNL     1      94.482 -36.961  14.992  1.00  0.00     0.274 HD
ATOM     14  H21 UNL     1      94.251 -36.417  13.420  1.00  0.00     0.274 HD
ENDBRANCH   5  11
TORSDOF 3
ENDMDL
