MODEL 1
REMARK VINA RESULT: -7.377929487      0.000      0.000
REMARK  14 active torsions:
REMARK  status: ('A' for Active; 'I' for Inactive)
REMARK    1  A    between atoms: C2_2  and  N1_3 
REMARK    2  A    between atoms: N1_3  and  C3_4 
REMARK       I    between atoms: N1_3  and  C21_36 
REMARK    3  A    between atoms: C3_4  and  C4_5 
REMARK    4  A    between atoms: C4_5  and  O1_6 
REMARK    5  A    between atoms: O1_6  and  N2_7 
REMARK    6  A    between atoms: C5_9  and  C6_10 
REMARK    7  A    between atoms: C10_17  and  N4_18 
REMARK    8  A    between atoms: N4_18  and  C12_20 
REMARK    9  A    between atoms: C12_20  and  C13_21 
REMARK   10  A    between atoms: C16_24  and  N5_25 
REMARK   11  A    between atoms: N5_25  and  C17_27 
REMARK   12  A    between atoms: C21_36  and  C22_38 
REMARK   13  A    between atoms: C22_38  and  O3_39 
REMARK   14  A    between atoms: C22_38  and  C23_41 
ROOT
HETATM    1  C6  UNL     1      35.843 -20.003  23.922  1.00  0.00     0.035 A 
HETATM    2  C7  UNL     1      35.747 -18.951  22.985  1.00  0.00     0.144 A 
HETATM    3  F1  UNL     1      34.978 -19.139  21.860  1.00  0.00    -0.204 F 
HETATM    4  C8  UNL     1      36.385 -17.776  23.161  1.00  0.00     0.131 A 
HETATM    5  N3  UNL     1      37.120 -17.586  24.227  1.00  0.00    -0.360 N 
ATOM      6  H3  UNL     1      37.593 -16.689  24.338  1.00  0.00     0.165 HD
HETATM    7  C9  UNL     1      37.281 -18.509  25.174  1.00  0.00     0.075 A 
HETATM    8  C10 UNL     1      38.055 -18.219  26.269  1.00  0.00     0.102 A 
HETATM    9  C16 UNL     1      38.168 -19.224  27.241  1.00  0.00     0.136 A 
HETATM   10  N7  UNL     1      37.544 -20.395  27.086  1.00  0.00    -0.349 N 
ATOM     11  H7  UNL     1      37.651 -21.100  27.816  1.00  0.00     0.166 HD
HETATM   12  C19 UNL     1      36.780 -20.692  26.014  1.00  0.00     0.104 A 
HETATM   13  C20 UNL     1      36.629 -19.748  25.024  1.00  0.00     0.023 A 
ENDROOT
BRANCH   1  14
HETATM   14  C5  UNL     1      35.141 -21.234  23.673  1.00  0.00     0.129 C 
HETATM   15  N2  UNL     1      34.882 -21.860  22.612  1.00  0.00    -0.277 N 
ATOM     16  H2  UNL     1      35.208 -21.465  21.730  1.00  0.00     0.193 HD
BRANCH  15  17
HETATM   17  O1  UNL     1      34.194 -23.030  22.572  1.00  0.00    -0.279 OA
BRANCH  17  18
HETATM   18  C4  UNL     1      34.435 -24.154  23.376  1.00  0.00     0.221 C 
BRANCH  18  19
HETATM   19  C3  UNL     1      35.782 -24.794  23.055  1.00  0.00     0.154 C 
BRANCH  19  20
HETATM   20  N1  UNL     1      36.102 -25.838  23.994  1.00  0.00    -0.348 N 
HETATM   21  C21 UNL     1      35.428 -27.061  24.049  1.00  0.00     0.249 C 
HETATM   22  O2  UNL     1      35.686 -27.857  25.014  1.00  0.00    -0.270 OA
BRANCH  20  23
HETATM   23  C2  UNL     1      37.155 -25.584  25.002  1.00  0.00     0.121 C 
HETATM   24  C1  UNL     1      37.652 -24.159  24.883  1.00  0.00     0.026 C 
ENDBRANCH  20  23
BRANCH  21  25
HETATM   25  C22 UNL     1      34.423 -27.539  23.086  1.00  0.00     0.217 C 
BRANCH  25  26
HETATM   26  O3  UNL     1      33.657 -28.589  23.710  1.00  0.00    -0.385 OA
ATOM     27  H3  UNL     1      33.224 -29.090  23.029  1.00  0.00     0.210 HD
ENDBRANCH  25  26
BRANCH  25  28
HETATM   28  C23 UNL     1      35.107 -28.334  21.951  1.00  0.00    -0.017 C 
HETATM   29  C24 UNL     1      36.570 -28.164  22.019  1.00  0.00     0.017 C 
HETATM   30  C25 UNL     1      34.743 -29.802  22.151  1.00  0.00     0.017 C 
HETATM   31  C26 UNL     1      34.509 -27.846  20.649  1.00  0.00     0.017 C 
ENDBRANCH  25  28
ENDBRANCH  21  25
ENDBRANCH  19  20
ENDBRANCH  18  19
ENDBRANCH  17  18
ENDBRANCH  15  17
ENDBRANCH   1  14
BRANCH   8  32
HETATM   32  N4  UNL     1      38.777 -17.038  26.494  1.00  0.00    -0.380 N 
HETATM   33  C11 UNL     1      39.993 -16.839  25.690  1.00  0.00     0.150 C 
BRANCH  32  34
HETATM   34  C12 UNL     1      38.351 -15.989  27.343  1.00  0.00     0.126 C 
BRANCH  34  35
HETATM   35  C13 UNL     1      36.923 -15.749  27.601  1.00  0.00    -0.005 C 
HETATM   36  C14 UNL     1      36.313 -16.287  28.833  1.00  0.00     0.011 C 
HETATM   37  C15 UNL     1      36.583 -14.244  27.559  1.00  0.00     0.011 C 
ENDBRANCH  34  35
ENDBRANCH  32  34
ENDBRANCH   8  32
BRANCH   9  38
HETATM   38  N5  UNL     1      38.870 -19.022  28.283  1.00  0.00    -0.331 N 
ATOM     39  H5  UNL     1      38.600 -18.246  28.887  1.00  0.00     0.168 HD
BRANCH  38  40
HETATM   40  C17 UNL     1      39.988 -19.783  28.667  1.00  0.00     0.072 C 
HETATM   41  C18 UNL     1      41.111 -19.973  27.717  1.00  0.00     0.088 C 
HETATM   42  N6  UNL     1      39.987 -20.296  29.854  1.00  0.00    -0.389 N 
ATOM     43  H62 UNL     1      39.215 -20.165  30.508  1.00  0.00     0.157 HD
ATOM     44  H61 UNL     1      40.798 -20.848  30.133  1.00  0.00     0.157 HD
ENDBRANCH  38  40
ENDBRANCH   9  38
TORSDOF 14
ENDMDL
MODEL 2
REMARK VINA RESULT: -7.286284345      1.015      1.861
REMARK  14 active torsions:
REMARK  status: ('A' for Active; 'I' for Inactive)
REMARK    1  A    between atoms: C2_2  and  N1_3 
REMARK    2  A    between atoms: N1_3  and  C3_4 
REMARK       I    between atoms: N1_3  and  C21_36 
REMARK    3  A    between atoms: C3_4  and  C4_5 
REMARK    4  A    between atoms: C4_5  and  O1_6 
REMARK    5  A    between atoms: O1_6  and  N2_7 
REMARK    6  A    between atoms: C5_9  and  C6_10 
REMARK    7  A    between atoms: C10_17  and  N4_18 
REMARK    8  A    between atoms: N4_18  and  C12_20 
REMARK    9  A    between atoms: C12_20  and  C13_21 
REMARK   10  A    between atoms: C16_24  and  N5_25 
REMARK   11  A    between atoms: N5_25  and  C17_27 
REMARK   12  A    between atoms: C21_36  and  C22_38 
REMARK   13  A    between atoms: C22_38  and  O3_39 
REMARK   14  A    between atoms: C22_38  and  C23_41 
ROOT
HETATM    1  C6  UNL     1      36.076 -20.140  23.324  1.00  0.00     0.035 A 
HETATM    2  C7  UNL     1      36.197 -19.302  22.194  1.00  0.00     0.144 A 
HETATM    3  F1  UNL     1      35.735 -19.759  20.982  1.00  0.00    -0.204 F 
HETATM    4  C8  UNL     1      36.750 -18.074  22.269  1.00  0.00     0.131 A 
HETATM    5  N3  UNL     1      37.195 -17.628  23.417  1.00  0.00    -0.360 N 
ATOM      6  H3  UNL     1      37.609 -16.697  23.449  1.00  0.00     0.165 HD
HETATM    7  C9  UNL     1      37.131 -18.334  24.546  1.00  0.00     0.075 A 
HETATM    8  C10 UNL     1      37.605 -17.782  25.709  1.00  0.00     0.102 A 
HETATM    9  C16 UNL     1      37.490 -18.566  26.867  1.00  0.00     0.136 A 
HETATM   10  N7  UNL     1      36.946 -19.785  26.814  1.00  0.00    -0.349 N 
ATOM     11  H7  UNL     1      36.880 -20.324  27.677  1.00  0.00     0.166 HD
HETATM   12  C19 UNL     1      36.477 -20.339  25.676  1.00  0.00     0.104 A 
HETATM   13  C20 UNL     1      36.559 -19.620  24.505  1.00  0.00     0.023 A 
ENDROOT
BRANCH   1  14
HETATM   14  C5  UNL     1      35.479 -21.441  23.176  1.00  0.00     0.129 C 
HETATM   15  N2  UNL     1      34.394 -21.820  22.663  1.00  0.00    -0.277 N 
ATOM     16  H2  UNL     1      33.781 -21.111  22.260  1.00  0.00     0.193 HD
BRANCH  15  17
HETATM   17  O1  UNL     1      33.991 -23.115  22.614  1.00  0.00    -0.279 OA
BRANCH  17  18
HETATM   18  C4  UNL     1      34.363 -24.127  23.511  1.00  0.00     0.221 C 
BRANCH  18  19
HETATM   19  C3  UNL     1      35.689 -24.768  23.115  1.00  0.00     0.154 C 
BRANCH  19  20
HETATM   20  N1  UNL     1      36.051 -25.826  24.023  1.00  0.00    -0.348 N 
HETATM   21  C21 UNL     1      35.408 -27.065  24.060  1.00  0.00     0.249 C 
HETATM   22  O2  UNL     1      35.702 -27.877  25.001  1.00  0.00    -0.270 OA
BRANCH  20  23
HETATM   23  C2  UNL     1      37.116 -25.570  25.017  1.00  0.00     0.121 C 
HETATM   24  C1  UNL     1      37.577 -24.131  24.924  1.00  0.00     0.026 C 
ENDBRANCH  20  23
BRANCH  21  25
HETATM   25  C22 UNL     1      34.397 -27.544  23.104  1.00  0.00     0.217 C 
BRANCH  25  26
HETATM   26  O3  UNL     1      33.645 -28.605  23.728  1.00  0.00    -0.385 OA
ATOM     27  H3  UNL     1      32.788 -28.645  23.321  1.00  0.00     0.210 HD
ENDBRANCH  25  26
BRANCH  25  28
HETATM   28  C23 UNL     1      35.076 -28.326  21.957  1.00  0.00    -0.017 C 
HETATM   29  C24 UNL     1      36.537 -28.135  22.004  1.00  0.00     0.017 C 
HETATM   30  C25 UNL     1      34.735 -29.800  22.157  1.00  0.00     0.017 C 
HETATM   31  C26 UNL     1      34.452 -27.843  20.665  1.00  0.00     0.017 C 
ENDBRANCH  25  28
ENDBRANCH  21  25
ENDBRANCH  19  20
ENDBRANCH  18  19
ENDBRANCH  17  18
ENDBRANCH  15  17
ENDBRANCH   1  14
BRANCH   8  32
HETATM   32  N4  UNL     1      38.227 -16.533  25.850  1.00  0.00    -0.380 N 
HETATM   33  C11 UNL     1      37.353 -15.386  26.143  1.00  0.00     0.150 C 
BRANCH  32  34
HETATM   34  C12 UNL     1      39.627 -16.331  25.848  1.00  0.00     0.126 C 
BRANCH  34  35
HETATM   35  C13 UNL     1      40.397 -16.346  24.595  1.00  0.00    -0.005 C 
HETATM   36  C14 UNL     1      40.644 -17.633  23.915  1.00  0.00     0.011 C 
HETATM   37  C15 UNL     1      39.785 -15.399  23.541  1.00  0.00     0.011 C 
ENDBRANCH  34  35
ENDBRANCH  32  34
ENDBRANCH   8  32
BRANCH   9  38
HETATM   38  N5  UNL     1      37.908 -18.116  27.981  1.00  0.00    -0.331 N 
ATOM     39  H5  UNL     1      37.336 -17.411  28.447  1.00  0.00     0.168 HD
BRANCH  38  40
HETATM   40  C17 UNL     1      39.095 -18.512  28.621  1.00  0.00     0.072 C 
HETATM   41  C18 UNL     1      40.107 -19.299  27.876  1.00  0.00     0.088 C 
HETATM   42  N6  UNL     1      39.256 -18.167  29.857  1.00  0.00    -0.389 N 
ATOM     43  H62 UNL     1      38.560 -17.625  30.370  1.00  0.00     0.157 HD
ATOM     44  H61 UNL     1      40.118 -18.454  30.322  1.00  0.00     0.157 HD
ENDBRANCH  38  40
ENDBRANCH   9  38
TORSDOF 14
ENDMDL
MODEL 3
REMARK VINA RESULT: -7.271529258      1.391      2.697
REMARK  14 active torsions:
REMARK  status: ('A' for Active; 'I' for Inactive)
REMARK    1  A    between atoms: C2_2  and  N1_3 
REMARK    2  A    between atoms: N1_3  and  C3_4 
REMARK       I    between atoms: N1_3  and  C21_36 
REMARK    3  A    between atoms: C3_4  and  C4_5 
REMARK    4  A    between atoms: C4_5  and  O1_6 
REMARK    5  A    between atoms: O1_6  and  N2_7 
REMARK    6  A    between atoms: C5_9  and  C6_10 
REMARK    7  A    between atoms: C10_17  and  N4_18 
REMARK    8  A    between atoms: N4_18  and  C12_20 
REMARK    9  A    between atoms: C12_20  and  C13_21 
REMARK   10  A    between atoms: C16_24  and  N5_25 
REMARK   11  A    between atoms: N5_25  and  C17_27 
REMARK   12  A    between atoms: C21_36  and  C22_38 
REMARK   13  A    between atoms: C22_38  and  O3_39 
REMARK   14  A    between atoms: C22_38  and  C23_41 
ROOT
HETATM    1  C6  UNL     1      35.716 -20.331  23.413  1.00  0.00     0.035 A 
HETATM    2  C7  UNL     1      35.514 -19.180  22.621  1.00  0.00     0.144 A 
HETATM    3  F1  UNL     1      34.810 -19.304  21.446  1.00  0.00    -0.204 F 
HETATM    4  C8  UNL     1      35.988 -17.970  22.982  1.00  0.00     0.131 A 
HETATM    5  N3  UNL     1      36.661 -17.839  24.098  1.00  0.00    -0.360 N 
ATOM      6  H3  UNL     1      37.010 -16.914  24.349  1.00  0.00     0.165 HD
HETATM    7  C9  UNL     1      36.910 -18.857  24.920  1.00  0.00     0.075 A 
HETATM    8  C10 UNL     1      37.607 -18.628  26.080  1.00  0.00     0.102 A 
HETATM    9  C16 UNL     1      37.819 -19.735  26.914  1.00  0.00     0.136 A 
HETATM   10  N7  UNL     1      37.357 -20.942  26.575  1.00  0.00    -0.349 N 
ATOM     11  H7  UNL     1      37.532 -21.722  27.209  1.00  0.00     0.166 HD
HETATM   12  C19 UNL     1      36.671 -21.181  25.438  1.00  0.00     0.104 A 
HETATM   13  C20 UNL     1      36.429 -20.135  24.576  1.00  0.00     0.023 A 
ENDROOT
BRANCH   1  14
HETATM   14  C5  UNL     1      35.187 -21.594  22.970  1.00  0.00     0.129 C 
HETATM   15  N2  UNL     1      34.009 -22.001  22.795  1.00  0.00    -0.277 N 
ATOM     16  H2  UNL     1      33.244 -21.355  22.989  1.00  0.00     0.193 HD
BRANCH  15  17
HETATM   17  O1  UNL     1      33.696 -23.250  22.364  1.00  0.00    -0.279 OA
BRANCH  17  18
HETATM   18  C4  UNL     1      34.613 -24.255  22.020  1.00  0.00     0.221 C 
BRANCH  18  19
HETATM   19  C3  UNL     1      34.725 -25.311  23.115  1.00  0.00     0.154 C 
BRANCH  19  20
HETATM   20  N1  UNL     1      35.509 -26.437  22.679  1.00  0.00    -0.348 N 
HETATM   21  C21 UNL     1      36.905 -26.470  22.723  1.00  0.00     0.249 C 
HETATM   22  O2  UNL     1      37.510 -27.451  22.172  1.00  0.00    -0.270 OA
BRANCH  20  23
HETATM   23  C2  UNL     1      34.809 -27.599  22.087  1.00  0.00     0.121 C 
HETATM   24  C1  UNL     1      34.411 -28.572  23.176  1.00  0.00     0.026 C 
ENDBRANCH  20  23
BRANCH  21  25
HETATM   25  C22 UNL     1      37.774 -25.463  23.354  1.00  0.00     0.217 C 
BRANCH  25  26
HETATM   26  O3  UNL     1      39.082 -25.550  22.753  1.00  0.00    -0.385 OA
ATOM     27  H3  UNL     1      39.014 -26.069  21.960  1.00  0.00     0.210 HD
ENDBRANCH  25  26
BRANCH  25  28
HETATM   28  C23 UNL     1      38.109 -25.881  24.803  1.00  0.00    -0.017 C 
HETATM   29  C24 UNL     1      37.068 -26.784  25.328  1.00  0.00     0.017 C 
HETATM   30  C25 UNL     1      39.454 -26.602  24.762  1.00  0.00     0.017 C 
HETATM   31  C26 UNL     1      38.253 -24.606  25.606  1.00  0.00     0.017 C 
ENDBRANCH  25  28
ENDBRANCH  21  25
ENDBRANCH  19  20
ENDBRANCH  18  19
ENDBRANCH  17  18
ENDBRANCH  15  17
ENDBRANCH   1  14
BRANCH   8  32
HETATM   32  N4  UNL     1      38.162 -17.408  26.494  1.00  0.00    -0.380 N 
HETATM   33  C11 UNL     1      39.582 -17.184  26.179  1.00  0.00     0.150 C 
BRANCH  32  34
HETATM   34  C12 UNL     1      37.426 -16.350  27.078  1.00  0.00     0.126 C 
BRANCH  34  35
HETATM   35  C13 UNL     1      36.807 -16.493  28.404  1.00  0.00    -0.005 C 
HETATM   36  C14 UNL     1      37.673 -16.623  29.593  1.00  0.00     0.011 C 
HETATM   37  C15 UNL     1      35.822 -15.342  28.697  1.00  0.00     0.011 C 
ENDBRANCH  34  35
ENDBRANCH  32  34
ENDBRANCH   8  32
BRANCH   9  38
HETATM   38  N5  UNL     1      38.457 -19.593  28.005  1.00  0.00    -0.331 N 
ATOM     39  H5  UNL     1      38.081 -18.934  28.687  1.00  0.00     0.168 HD
BRANCH  38  40
HETATM   40  C17 UNL     1      39.639 -20.272  28.347  1.00  0.00     0.072 C 
HETATM   41  C18 UNL     1      40.837 -20.149  27.481  1.00  0.00     0.088 C 
HETATM   42  N6  UNL     1      39.631 -20.991  29.422  1.00  0.00    -0.389 N 
ATOM     43  H62 UNL     1      38.808 -21.076  30.018  1.00  0.00     0.157 HD
ATOM     44  H61 UNL     1      40.489 -21.484  29.670  1.00  0.00     0.157 HD
ENDBRANCH  38  40
ENDBRANCH   9  38
TORSDOF 14
ENDMDL
MODEL 4
REMARK VINA RESULT: -7.231338571      1.810      2.593
REMARK  14 active torsions:
REMARK  status: ('A' for Active; 'I' for Inactive)
REMARK    1  A    between atoms: C2_2  and  N1_3 
REMARK    2  A    between atoms: N1_3  and  C3_4 
REMARK       I    between atoms: N1_3  and  C21_36 
REMARK    3  A    between atoms: C3_4  and  C4_5 
REMARK    4  A    between atoms: C4_5  and  O1_6 
REMARK    5  A    between atoms: O1_6  and  N2_7 
REMARK    6  A    between atoms: C5_9  and  C6_10 
REMARK    7  A    between atoms: C10_17  and  N4_18 
REMARK    8  A    between atoms: N4_18  and  C12_20 
REMARK    9  A    between atoms: C12_20  and  C13_21 
REMARK   10  A    between atoms: C16_24  and  N5_25 
REMARK   11  A    between atoms: N5_25  and  C17_27 
REMARK   12  A    between atoms: C21_36  and  C22_38 
REMARK   13  A    between atoms: C22_38  and  O3_39 
REMARK   14  A    between atoms: C22_38  and  C23_41 
ROOT
HETATM    1  C6  UNL     1      35.818 -20.161  23.952  1.00  0.00     0.035 A 
HETATM    2  C7  UNL     1      35.711 -19.133  22.990  1.00  0.00     0.144 A 
HETATM    3  F1  UNL     1      34.935 -19.352  21.876  1.00  0.00    -0.204 F 
HETATM    4  C8  UNL     1      36.345 -17.952  23.132  1.00  0.00     0.131 A 
HETATM    5  N3  UNL     1      37.088 -17.732  24.187  1.00  0.00    -0.360 N 
ATOM      6  H3  UNL     1      37.558 -16.831  24.272  1.00  0.00     0.165 HD
HETATM    7  C9  UNL     1      37.259 -18.631  25.156  1.00  0.00     0.075 A 
HETATM    8  C10 UNL     1      38.040 -18.311  26.238  1.00  0.00     0.102 A 
HETATM    9  C16 UNL     1      38.164 -19.290  27.234  1.00  0.00     0.136 A 
HETATM   10  N7  UNL     1      37.543 -20.467  27.113  1.00  0.00    -0.349 N 
ATOM     11  H7  UNL     1      37.658 -21.153  27.859  1.00  0.00     0.166 HD
HETATM   12  C19 UNL     1      36.773 -20.794  26.054  1.00  0.00     0.104 A 
HETATM   13  C20 UNL     1      36.610 -19.876  25.042  1.00  0.00     0.023 A 
ENDROOT
BRANCH   1  14
HETATM   14  C5  UNL     1      35.118 -21.401  23.740  1.00  0.00     0.129 C 
HETATM   15  N2  UNL     1      34.404 -21.816  22.791  1.00  0.00    -0.277 N 
ATOM     16  H2  UNL     1      34.259 -21.197  21.992  1.00  0.00     0.193 HD
BRANCH  15  17
HETATM   17  O1  UNL     1      33.814 -23.039  22.766  1.00  0.00    -0.279 OA
BRANCH  17  18
HETATM   18  C4  UNL     1      34.047 -24.045  21.816  1.00  0.00     0.221 C 
BRANCH  18  19
HETATM   19  C3  UNL     1      35.095 -25.042  22.299  1.00  0.00     0.154 C 
BRANCH  19  20
HETATM   20  N1  UNL     1      36.427 -24.514  22.150  1.00  0.00    -0.348 N 
HETATM   21  C21 UNL     1      37.310 -24.332  23.217  1.00  0.00     0.249 C 
HETATM   22  O2  UNL     1      38.409 -23.717  23.001  1.00  0.00    -0.270 OA
BRANCH  20  23
HETATM   23  C2  UNL     1      36.868 -24.078  20.807  1.00  0.00     0.121 C 
HETATM   24  C1  UNL     1      37.256 -25.280  19.973  1.00  0.00     0.026 C 
ENDBRANCH  20  23
BRANCH  21  25
HETATM   25  C22 UNL     1      37.098 -24.783  24.602  1.00  0.00     0.217 C 
BRANCH  25  26
HETATM   26  O3  UNL     1      38.006 -24.064  25.460  1.00  0.00    -0.385 OA
ATOM     27  H3  UNL     1      38.086 -23.174  25.135  1.00  0.00     0.210 HD
ENDBRANCH  25  26
BRANCH  25  28
HETATM   28  C23 UNL     1      37.632 -26.222  24.780  1.00  0.00    -0.017 C 
HETATM   29  C24 UNL     1      38.284 -26.683  23.541  1.00  0.00     0.017 C 
HETATM   30  C25 UNL     1      38.644 -26.186  25.922  1.00  0.00     0.017 C 
HETATM   31  C26 UNL     1      36.454 -27.081  25.189  1.00  0.00     0.017 C 
ENDBRANCH  25  28
ENDBRANCH  21  25
ENDBRANCH  19  20
ENDBRANCH  18  19
ENDBRANCH  17  18
ENDBRANCH  15  17
ENDBRANCH   1  14
BRANCH   8  32
HETATM   32  N4  UNL     1      38.759 -17.121  26.427  1.00  0.00    -0.380 N 
HETATM   33  C11 UNL     1      39.936 -16.912  25.569  1.00  0.00     0.150 C 
BRANCH  32  34
HETATM   34  C12 UNL     1      38.360 -16.075  27.292  1.00  0.00     0.126 C 
BRANCH  34  35
HETATM   35  C13 UNL     1      36.939 -15.789  27.539  1.00  0.00    -0.005 C 
HETATM   36  C14 UNL     1      36.314 -16.267  28.788  1.00  0.00     0.011 C 
HETATM   37  C15 UNL     1      36.638 -14.278  27.443  1.00  0.00     0.011 C 
ENDBRANCH  34  35
ENDBRANCH  32  34
ENDBRANCH   8  32
BRANCH   9  38
HETATM   38  N5  UNL     1      38.872 -19.060  28.265  1.00  0.00    -0.331 N 
ATOM     39  H5  UNL     1      38.604 -18.270  28.852  1.00  0.00     0.168 HD
BRANCH  38  40
HETATM   40  C17 UNL     1      39.997 -19.806  28.659  1.00  0.00     0.072 C 
HETATM   41  C18 UNL     1      41.122 -19.998  27.713  1.00  0.00     0.088 C 
HETATM   42  N6  UNL     1      40.000 -20.303  29.853  1.00  0.00    -0.389 N 
ATOM     43  H62 UNL     1      39.226 -20.171  30.504  1.00  0.00     0.157 HD
ATOM     44  H61 UNL     1      40.816 -20.845  30.139  1.00  0.00     0.157 HD
ENDBRANCH  38  40
ENDBRANCH   9  38
TORSDOF 14
ENDMDL
MODEL 5
REMARK VINA RESULT: -7.216038178      1.607      3.237
REMARK  14 active torsions:
REMARK  status: ('A' for Active; 'I' for Inactive)
REMARK    1  A    between atoms: C2_2  and  N1_3 
REMARK    2  A    between atoms: N1_3  and  C3_4 
REMARK       I    between atoms: N1_3  and  C21_36 
REMARK    3  A    between atoms: C3_4  and  C4_5 
REMARK    4  A    between atoms: C4_5  and  O1_6 
REMARK    5  A    between atoms: O1_6  and  N2_7 
REMARK    6  A    between atoms: C5_9  and  C6_10 
REMARK    7  A    between atoms: C10_17  and  N4_18 
REMARK    8  A    between atoms: N4_18  and  C12_20 
REMARK    9  A    between atoms: C12_20  and  C13_21 
REMARK   10  A    between atoms: C16_24  and  N5_25 
REMARK   11  A    between atoms: N5_25  and  C17_27 
REMARK   12  A    between atoms: C21_36  and  C22_38 
REMARK   13  A    between atoms: C22_38  and  O3_39 
REMARK   14  A    between atoms: C22_38  and  C23_41 
ROOT
HETATM    1  C6  UNL     1      35.921 -20.128  23.328  1.00  0.00     0.035 A 
HETATM    2  C7  UNL     1      36.083 -19.343  22.166  1.00  0.00     0.144 A 
HETATM    3  F1  UNL     1      35.570 -19.810  20.978  1.00  0.00    -0.204 F 
HETATM    4  C8  UNL     1      36.721 -18.155  22.188  1.00  0.00     0.131 A 
HETATM    5  N3  UNL     1      37.214 -17.700  23.313  1.00  0.00    -0.360 N 
ATOM      6  H3  UNL     1      37.694 -16.800  23.304  1.00  0.00     0.165 HD
HETATM    7  C9  UNL     1      37.119 -18.358  24.468  1.00  0.00     0.075 A 
HETATM    8  C10 UNL     1      37.648 -17.799  25.603  1.00  0.00     0.102 A 
HETATM    9  C16 UNL     1      37.498 -18.530  26.791  1.00  0.00     0.136 A 
HETATM   10  N7  UNL     1      36.868 -19.708  26.791  1.00  0.00    -0.349 N 
ATOM     11  H7  UNL     1      36.779 -20.209  27.675  1.00  0.00     0.166 HD
HETATM   12  C19 UNL     1      36.344 -20.269  25.680  1.00  0.00     0.104 A 
HETATM   13  C20 UNL     1      36.458 -19.601  24.482  1.00  0.00     0.023 A 
ENDROOT
BRANCH   1  14
HETATM   14  C5  UNL     1      35.232 -21.389  23.237  1.00  0.00     0.129 C 
HETATM   15  N2  UNL     1      34.084 -21.696  22.821  1.00  0.00    -0.277 N 
ATOM     16  H2  UNL     1      33.485 -20.949  22.470  1.00  0.00     0.193 HD
BRANCH  15  17
HETATM   17  O1  UNL     1      33.597 -22.963  22.812  1.00  0.00    -0.279 OA
BRANCH  17  18
HETATM   18  C4  UNL     1      34.211 -24.077  22.220  1.00  0.00     0.221 C 
BRANCH  18  19
HETATM   19  C3  UNL     1      34.543 -25.149  23.253  1.00  0.00     0.154 C 
BRANCH  19  20
HETATM   20  N1  UNL     1      35.340 -26.201  22.678  1.00  0.00    -0.348 N 
HETATM   21  C21 UNL     1      36.737 -26.207  22.691  1.00  0.00     0.249 C 
HETATM   22  O2  UNL     1      37.350 -27.106  22.022  1.00  0.00    -0.270 OA
BRANCH  20  23
HETATM   23  C2  UNL     1      34.652 -27.306  21.974  1.00  0.00     0.121 C 
HETATM   24  C1  UNL     1      34.338 -28.423  22.946  1.00  0.00     0.026 C 
ENDBRANCH  20  23
BRANCH  21  25
HETATM   25  C22 UNL     1      37.599 -25.257  23.413  1.00  0.00     0.217 C 
BRANCH  25  26
HETATM   26  O3  UNL     1      38.877 -25.203  22.746  1.00  0.00    -0.385 OA
ATOM     27  H3  UNL     1      39.463 -24.664  23.263  1.00  0.00     0.210 HD
ENDBRANCH  25  26
BRANCH  25  28
HETATM   28  C23 UNL     1      38.024 -25.852  24.775  1.00  0.00    -0.017 C 
HETATM   29  C24 UNL     1      37.005 -26.801  25.258  1.00  0.00     0.017 C 
HETATM   30  C25 UNL     1      39.349 -26.576  24.553  1.00  0.00     0.017 C 
HETATM   31  C26 UNL     1      38.246 -24.686  25.714  1.00  0.00     0.017 C 
ENDBRANCH  25  28
ENDBRANCH  21  25
ENDBRANCH  19  20
ENDBRANCH  18  19
ENDBRANCH  17  18
ENDBRANCH  15  17
ENDBRANCH   1  14
BRANCH   8  32
HETATM   32  N4  UNL     1      38.359 -16.593  25.689  1.00  0.00    -0.380 N 
HETATM   33  C11 UNL     1      37.576 -15.380  25.976  1.00  0.00     0.150 C 
BRANCH  32  34
HETATM   34  C12 UNL     1      39.769 -16.488  25.637  1.00  0.00     0.126 C 
BRANCH  34  35
HETATM   35  C13 UNL     1      40.487 -16.494  24.353  1.00  0.00    -0.005 C 
HETATM   36  C14 UNL     1      40.649 -17.767  23.623  1.00  0.00     0.011 C 
HETATM   37  C15 UNL     1      39.875 -15.486  23.356  1.00  0.00     0.011 C 
ENDBRANCH  34  35
ENDBRANCH  32  34
ENDBRANCH   8  32
BRANCH   9  38
HETATM   38  N5  UNL     1      37.964 -18.070  27.881  1.00  0.00    -0.331 N 
ATOM     39  H5  UNL     1      37.463 -17.294  28.315  1.00  0.00     0.168 HD
BRANCH  38  40
HETATM   40  C17 UNL     1      39.113 -18.545  28.537  1.00  0.00     0.072 C 
HETATM   41  C18 UNL     1      40.107 -19.353  27.788  1.00  0.00     0.088 C 
HETATM   42  N6  UNL     1      39.256 -18.254  29.788  1.00  0.00    -0.389 N 
ATOM     43  H62 UNL     1      38.573 -17.699  30.303  1.00  0.00     0.157 HD
ATOM     44  H61 UNL     1      40.090 -18.599  30.263  1.00  0.00     0.157 HD
ENDBRANCH  38  40
ENDBRANCH   9  38
TORSDOF 14
ENDMDL
