MODEL 1
REMARK VINA RESULT: -7.684962094      0.000      0.000
REMARK  12 active torsions:
REMARK  status: ('A' for Active; 'I' for Inactive)
REMARK    1  A    between atoms: C2_2  and  C3_3 
REMARK    2  A    between atoms: C3_3  and  O1_4 
REMARK    3  A    between atoms: O1_4  and  C4_5 
REMARK    4  A    between atoms: C6_7  and  N1_8 
REMARK    5  A    between atoms: N1_8  and  C7_10 
REMARK    6  A    between atoms: C10_15  and  N3_16 
REMARK    7  A    between atoms: C19_30  and  O2_31 
REMARK    8  A    between atoms: O2_31  and  C20_32 
REMARK    9  A    between atoms: C20_32  and  C21_33 
REMARK   10  A    between atoms: C21_33  and  C22_34 
REMARK   11  A    between atoms: C22_34  and  N5_35 
REMARK   12  A    between atoms: C27_41  and  O4_42 
ROOT
HETATM    1  C4  UNL     1      39.542 -23.149  26.855  1.00  0.00     0.107 A 
HETATM    2  C5  UNL     1      39.747 -22.065  27.670  1.00  0.00     0.070 A 
HETATM    3  C6  UNL     1      38.985 -20.945  27.444  1.00  0.00     0.054 A 
HETATM    4  C18 UNL     1      38.031 -20.917  26.411  1.00  0.00     0.070 A 
HETATM    5  C19 UNL     1      37.838 -22.012  25.603  1.00  0.00     0.107 A 
HETATM    6  C27 UNL     1      38.622 -23.157  25.841  1.00  0.00     0.135 A 
ENDROOT
BRANCH   3   7
HETATM    7  N1  UNL     1      39.178 -19.810  28.275  1.00  0.00    -0.191 N 
ATOM      8  H1  UNL     1      39.485 -19.935  29.239  1.00  0.00     0.184 HD
BRANCH   7   9
HETATM    9  C7  UNL     1      38.966 -18.622  27.820  1.00  0.00     0.684 A 
HETATM   10  N2  UNL     1      37.947 -17.876  28.293  1.00  0.00    -0.190 N 
HETATM   11  C8  UNL     1      37.685 -16.629  27.847  1.00  0.00     0.073 A 
ATOM     12  H2  UNL     1      37.348 -18.271  29.018  1.00  0.00     0.184 HD
HETATM   13  C9  UNL     1      38.515 -16.134  26.870  1.00  0.00     0.018 A 
HETATM   14  C17 UNL     1      36.680 -15.625  28.169  1.00  0.00     0.037 A 
HETATM   15  C10 UNL     1      39.570 -16.875  26.363  1.00  0.00     0.123 A 
HETATM   16  C11 UNL     1      38.058 -14.776  26.535  1.00  0.00     0.084 A 
HETATM   17  N4  UNL     1      39.758 -18.108  26.863  1.00  0.00    -0.176 N 
ATOM     18  H4  UNL     1      40.528 -18.674  26.504  1.00  0.00     0.186 HD
HETATM   19  C12 UNL     1      36.899 -14.517  27.386  1.00  0.00    -0.038 A 
HETATM   20  C13 UNL     1      36.095 -13.385  27.466  1.00  0.00     0.008 A 
HETATM   21  C14 UNL     1      35.053 -13.387  28.359  1.00  0.00     0.004 A 
HETATM   22  C15 UNL     1      34.817 -14.507  29.163  1.00  0.00     0.043 A 
HETATM   23  C16 UNL     1      35.632 -15.613  29.060  1.00  0.00     0.129 A 
HETATM   24  F1  UNL     1      35.395 -16.672  29.832  1.00  0.00    -0.205 F 
BRANCH  15  25
HETATM   25  N3  UNL     1      40.365 -16.444  25.450  1.00  0.00    -0.385 N 
ATOM     26  H32 UNL     1      40.457 -16.972  24.582  1.00  0.00     0.157 HD
ATOM     27  H31 UNL     1      40.919 -15.593  25.543  1.00  0.00     0.157 HD
ENDBRANCH  15  25
ENDBRANCH   7   9
ENDBRANCH   3   7
BRANCH   1  28
HETATM   28  O1  UNL     1      40.328 -24.291  27.096  1.00  0.00    -0.348 OA
BRANCH  28  29
HETATM   29  C3  UNL     1      40.011 -25.227  28.087  1.00  0.00     0.175 C 
BRANCH  29  30
HETATM   30  C2  UNL     1      40.319 -26.605  27.507  1.00  0.00     0.022 C 
HETATM   31  C1  UNL     1      40.643 -27.598  28.574  1.00  0.00     0.007 C 
ENDBRANCH  29  30
ENDBRANCH  28  29
ENDBRANCH   1  28
BRANCH   5  32
HETATM   32  O2  UNL     1      36.959 -22.086  24.590  1.00  0.00    -0.348 OA
BRANCH  32  33
HETATM   33  C20 UNL     1      35.594 -21.919  24.488  1.00  0.00     0.177 C 
BRANCH  33  34
HETATM   34  C21 UNL     1      35.222 -21.120  23.290  1.00  0.00     0.057 C 
BRANCH  34  35
HETATM   35  C22 UNL     1      36.449 -20.905  22.431  1.00  0.00     0.274 C 
BRANCH  35  36
HETATM   36  N5  UNL     1      36.658 -19.554  22.061  1.00  0.00     0.092 N 
HETATM   37  C23 UNL     1      38.016 -19.240  21.767  1.00  0.00     0.298 C 
HETATM   38  C24 UNL     1      38.802 -19.139  23.029  1.00  0.00     0.198 C 
HETATM   39  O3  UNL     1      38.288 -18.316  23.986  1.00  0.00    -0.388 OA
HETATM   40  C25 UNL     1      36.953 -18.215  24.110  1.00  0.00     0.198 C 
HETATM   41  C26 UNL     1      36.122 -18.559  22.922  1.00  0.00     0.298 C 
ENDBRANCH  35  36
ENDBRANCH  34  35
ENDBRANCH  33  34
ENDBRANCH  32  33
ENDBRANCH   5  32
BRANCH   6  42
HETATM   42  O4  UNL     1      38.449 -24.265  25.049  1.00  0.00    -0.351 OA
HETATM   43  C28 UNL     1      37.540 -25.302  25.327  1.00  0.00     0.210 C 
ENDBRANCH   6  42
TORSDOF 12
ENDMDL
MODEL 2
REMARK VINA RESULT: -7.595324299      4.439      6.987
REMARK  12 active torsions:
REMARK  status: ('A' for Active; 'I' for Inactive)
REMARK    1  A    between atoms: C2_2  and  C3_3 
REMARK    2  A    between atoms: C3_3  and  O1_4 
REMARK    3  A    between atoms: O1_4  and  C4_5 
REMARK    4  A    between atoms: C6_7  and  N1_8 
REMARK    5  A    between atoms: N1_8  and  C7_10 
REMARK    6  A    between atoms: C10_15  and  N3_16 
REMARK    7  A    between atoms: C19_30  and  O2_31 
REMARK    8  A    between atoms: O2_31  and  C20_32 
REMARK    9  A    between atoms: C20_32  and  C21_33 
REMARK   10  A    between atoms: C21_33  and  C22_34 
REMARK   11  A    between atoms: C22_34  and  N5_35 
REMARK   12  A    between atoms: C27_41  and  O4_42 
ROOT
HETATM    1  C4  UNL     1      40.821 -23.129  29.759  1.00  0.00     0.107 A 
HETATM    2  C5  UNL     1      39.734 -22.662  29.064  1.00  0.00     0.070 A 
HETATM    3  C6  UNL     1      39.813 -21.397  28.534  1.00  0.00     0.054 A 
HETATM    4  C18 UNL     1      40.969 -20.615  28.701  1.00  0.00     0.070 A 
HETATM    5  C19 UNL     1      42.049 -21.099  29.400  1.00  0.00     0.107 A 
HETATM    6  C27 UNL     1      41.962 -22.396  29.941  1.00  0.00     0.135 A 
ENDROOT
BRANCH   3   7
HETATM    7  N1  UNL     1      38.701 -20.891  27.809  1.00  0.00    -0.191 N 
ATOM      8  H1  UNL     1      37.885 -21.482  27.656  1.00  0.00     0.184 HD
BRANCH   7   9
HETATM    9  C7  UNL     1      38.717 -19.689  27.344  1.00  0.00     0.684 A 
HETATM   10  N2  UNL     1      37.917 -18.738  27.869  1.00  0.00    -0.190 N 
HETATM   11  C8  UNL     1      37.899 -17.466  27.415  1.00  0.00     0.073 A 
ATOM     12  H2  UNL     1      37.301 -18.990  28.641  1.00  0.00     0.184 HD
HETATM   13  C9  UNL     1      38.744 -17.168  26.373  1.00  0.00     0.018 A 
HETATM   14  C17 UNL     1      37.158 -16.267  27.782  1.00  0.00     0.037 A 
HETATM   15  C10 UNL     1      39.578 -18.122  25.812  1.00  0.00     0.123 A 
HETATM   16  C11 UNL     1      38.566 -15.745  26.041  1.00  0.00     0.084 A 
HETATM   17  N4  UNL     1      39.532 -19.363  26.325  1.00  0.00    -0.176 N 
ATOM     18  H4  UNL     1      40.135 -20.084  25.927  1.00  0.00     0.186 HD
HETATM   19  C12 UNL     1      37.553 -15.237  26.963  1.00  0.00    -0.038 A 
HETATM   20  C13 UNL     1      37.018 -13.958  27.072  1.00  0.00     0.008 A 
HETATM   21  C14 UNL     1      36.066 -13.730  28.034  1.00  0.00     0.004 A 
HETATM   22  C15 UNL     1      35.653 -14.768  28.875  1.00  0.00     0.043 A 
HETATM   23  C16 UNL     1      36.202 -16.024  28.741  1.00  0.00     0.129 A 
HETATM   24  F1  UNL     1      35.799 -17.003  29.551  1.00  0.00    -0.205 F 
BRANCH  15  25
HETATM   25  N3  UNL     1      40.380 -17.878  24.839  1.00  0.00    -0.385 N 
ATOM     26  H32 UNL     1      40.350 -16.963  24.389  1.00  0.00     0.157 HD
ATOM     27  H31 UNL     1      41.056 -18.555  24.484  1.00  0.00     0.157 HD
ENDBRANCH  15  25
ENDBRANCH   7   9
ENDBRANCH   3   7
BRANCH   1  28
HETATM   28  O1  UNL     1      40.728 -24.426  30.297  1.00  0.00    -0.348 OA
BRANCH  28  29
HETATM   29  C3  UNL     1      40.210 -25.506  29.573  1.00  0.00     0.175 C 
BRANCH  29  30
HETATM   30  C2  UNL     1      41.400 -26.236  28.956  1.00  0.00     0.022 C 
HETATM   31  C1  UNL     1      41.078 -27.659  28.643  1.00  0.00     0.007 C 
ENDBRANCH  29  30
ENDBRANCH  28  29
ENDBRANCH   1  28
BRANCH   5  32
HETATM   32  O2  UNL     1      43.195 -20.432  29.619  1.00  0.00    -0.348 OA
BRANCH  32  33
HETATM   33  C20 UNL     1      44.473 -20.525  29.113  1.00  0.00     0.177 C 
BRANCH  33  34
HETATM   34  C21 UNL     1      45.478 -19.918  30.027  1.00  0.00     0.057 C 
BRANCH  34  35
HETATM   35  C22 UNL     1      46.301 -21.016  30.665  1.00  0.00     0.274 C 
BRANCH  35  36
HETATM   36  N5  UNL     1      47.668 -20.996  30.291  1.00  0.00     0.092 N 
HETATM   37  C23 UNL     1      47.958 -21.761  29.126  1.00  0.00     0.298 C 
HETATM   38  C24 UNL     1      47.947 -23.215  29.453  1.00  0.00     0.198 C 
HETATM   39  O3  UNL     1      48.719 -23.592  30.511  1.00  0.00    -0.388 OA
HETATM   40  C25 UNL     1      48.853 -22.752  31.551  1.00  0.00     0.198 C 
HETATM   41  C26 UNL     1      48.617 -21.302  31.302  1.00  0.00     0.298 C 
ENDBRANCH  35  36
ENDBRANCH  34  35
ENDBRANCH  33  34
ENDBRANCH  32  33
ENDBRANCH   5  32
BRANCH   6  42
HETATM   42  O4  UNL     1      43.027 -22.903  30.643  1.00  0.00    -0.351 OA
HETATM   43  C28 UNL     1      43.930 -23.854  30.133  1.00  0.00     0.210 C 
ENDBRANCH   6  42
TORSDOF 12
ENDMDL
MODEL 3
REMARK VINA RESULT: -7.561964746      1.344      1.637
REMARK  12 active torsions:
REMARK  status: ('A' for Active; 'I' for Inactive)
REMARK    1  A    between atoms: C2_2  and  C3_3 
REMARK    2  A    between atoms: C3_3  and  O1_4 
REMARK    3  A    between atoms: O1_4  and  C4_5 
REMARK    4  A    between atoms: C6_7  and  N1_8 
REMARK    5  A    between atoms: N1_8  and  C7_10 
REMARK    6  A    between atoms: C10_15  and  N3_16 
REMARK    7  A    between atoms: C19_30  and  O2_31 
REMARK    8  A    between atoms: O2_31  and  C20_32 
REMARK    9  A    between atoms: C20_32  and  C21_33 
REMARK   10  A    between atoms: C21_33  and  C22_34 
REMARK   11  A    between atoms: C22_34  and  N5_35 
REMARK   12  A    between atoms: C27_41  and  O4_42 
ROOT
HETATM    1  C4  UNL     1      38.779 -23.504  25.740  1.00  0.00     0.107 A 
HETATM    2  C5  UNL     1      39.108 -22.475  26.586  1.00  0.00     0.070 A 
HETATM    3  C6  UNL     1      38.194 -21.461  26.739  1.00  0.00     0.054 A 
HETATM    4  C18 UNL     1      36.968 -21.483  26.051  1.00  0.00     0.070 A 
HETATM    5  C19 UNL     1      36.655 -22.522  25.207  1.00  0.00     0.107 A 
HETATM    6  C27 UNL     1      37.595 -23.558  25.054  1.00  0.00     0.135 A 
ENDROOT
BRANCH   3   7
HETATM    7  N1  UNL     1      38.510 -20.384  27.611  1.00  0.00    -0.191 N 
ATOM      8  H1  UNL     1      38.772 -20.576  28.577  1.00  0.00     0.184 HD
BRANCH   7   9
HETATM    9  C7  UNL     1      38.466 -19.167  27.188  1.00  0.00     0.684 A 
HETATM   10  N2  UNL     1      37.640 -18.269  27.762  1.00  0.00    -0.190 N 
HETATM   11  C8  UNL     1      37.559 -16.984  27.354  1.00  0.00     0.073 A 
ATOM     12  H2  UNL     1      37.051 -18.574  28.537  1.00  0.00     0.184 HD
HETATM   13  C9  UNL     1      38.370 -16.615  26.307  1.00  0.00     0.018 A 
HETATM   14  C17 UNL     1      36.778 -15.831  27.778  1.00  0.00     0.037 A 
HETATM   15  C10 UNL     1      39.229 -17.514  25.696  1.00  0.00     0.123 A 
HETATM   16  C11 UNL     1      38.126 -15.191  26.029  1.00  0.00     0.084 A 
HETATM   17  N4  UNL     1      39.245 -18.773  26.165  1.00  0.00    -0.176 N 
ATOM     18  H4  UNL     1      39.869 -19.453  25.730  1.00  0.00     0.186 HD
HETATM   19  C12 UNL     1      37.113 -14.757  26.989  1.00  0.00    -0.038 A 
HETATM   20  C13 UNL     1      36.529 -13.507  27.154  1.00  0.00     0.008 A 
HETATM   21  C14 UNL     1      35.588 -13.352  28.142  1.00  0.00     0.004 A 
HETATM   22  C15 UNL     1      35.236 -14.435  28.954  1.00  0.00     0.043 A 
HETATM   23  C16 UNL     1      35.834 -15.661  28.765  1.00  0.00     0.129 A 
HETATM   24  F1  UNL     1      35.488 -16.684  29.547  1.00  0.00    -0.205 F 
BRANCH  15  25
HETATM   25  N3  UNL     1      40.000 -17.203  24.716  1.00  0.00    -0.385 N 
ATOM     26  H32 UNL     1      39.833 -17.623  23.802  1.00  0.00     0.157 HD
ATOM     27  H31 UNL     1      40.780 -16.552  24.799  1.00  0.00     0.157 HD
ENDBRANCH  15  25
ENDBRANCH   7   9
ENDBRANCH   3   7
BRANCH   1  28
HETATM   28  O1  UNL     1      39.723 -24.537  25.590  1.00  0.00    -0.348 OA
BRANCH  28  29
HETATM   29  C3  UNL     1      40.019 -25.439  26.618  1.00  0.00     0.175 C 
BRANCH  29  30
HETATM   30  C2  UNL     1      40.449 -26.743  25.950  1.00  0.00     0.022 C 
HETATM   31  C1  UNL     1      40.294 -26.686  24.466  1.00  0.00     0.007 C 
ENDBRANCH  29  30
ENDBRANCH  28  29
ENDBRANCH   1  28
BRANCH   5  32
HETATM   32  O2  UNL     1      35.516 -22.635  24.503  1.00  0.00    -0.348 OA
BRANCH  32  33
HETATM   33  C20 UNL     1      35.147 -22.314  23.214  1.00  0.00     0.177 C 
BRANCH  33  34
HETATM   34  C21 UNL     1      34.647 -20.917  23.112  1.00  0.00     0.057 C 
BRANCH  34  35
HETATM   35  C22 UNL     1      35.538 -20.134  22.171  1.00  0.00     0.274 C 
BRANCH  35  36
HETATM   36  N5  UNL     1      35.563 -18.742  22.434  1.00  0.00     0.092 N 
HETATM   37  C23 UNL     1      35.096 -17.943  21.352  1.00  0.00     0.298 C 
HETATM   38  C24 UNL     1      36.129 -17.879  20.280  1.00  0.00     0.198 C 
HETATM   39  O3  UNL     1      37.378 -17.509  20.680  1.00  0.00    -0.388 OA
HETATM   40  C25 UNL     1      37.810 -17.882  21.897  1.00  0.00     0.198 C 
HETATM   41  C26 UNL     1      36.780 -18.201  22.926  1.00  0.00     0.298 C 
ENDBRANCH  35  36
ENDBRANCH  34  35
ENDBRANCH  33  34
ENDBRANCH  32  33
ENDBRANCH   5  32
BRANCH   6  42
HETATM   42  O4  UNL     1      37.307 -24.607  24.218  1.00  0.00    -0.351 OA
HETATM   43  C28 UNL     1      36.666 -25.792  24.626  1.00  0.00     0.210 C 
ENDBRANCH   6  42
TORSDOF 12
ENDMDL
MODEL 4
REMARK VINA RESULT: -7.548309100      2.567      4.527
REMARK  12 active torsions:
REMARK  status: ('A' for Active; 'I' for Inactive)
REMARK    1  A    between atoms: C2_2  and  C3_3 
REMARK    2  A    between atoms: C3_3  and  O1_4 
REMARK    3  A    between atoms: O1_4  and  C4_5 
REMARK    4  A    between atoms: C6_7  and  N1_8 
REMARK    5  A    between atoms: N1_8  and  C7_10 
REMARK    6  A    between atoms: C10_15  and  N3_16 
REMARK    7  A    between atoms: C19_30  and  O2_31 
REMARK    8  A    between atoms: O2_31  and  C20_32 
REMARK    9  A    between atoms: C20_32  and  C21_33 
REMARK   10  A    between atoms: C21_33  and  C22_34 
REMARK   11  A    between atoms: C22_34  and  N5_35 
REMARK   12  A    between atoms: C27_41  and  O4_42 
ROOT
HETATM    1  C4  UNL     1      41.835 -21.400  29.051  1.00  0.00     0.107 A 
HETATM    2  C5  UNL     1      40.683 -20.677  28.871  1.00  0.00     0.070 A 
HETATM    3  C6  UNL     1      39.649 -21.285  28.201  1.00  0.00     0.054 A 
HETATM    4  C18 UNL     1      39.774 -22.600  27.720  1.00  0.00     0.070 A 
HETATM    5  C19 UNL     1      40.936 -23.310  27.909  1.00  0.00     0.107 A 
HETATM    6  C27 UNL     1      41.991 -22.682  28.597  1.00  0.00     0.135 A 
ENDROOT
BRANCH   3   7
HETATM    7  N1  UNL     1      38.445 -20.558  28.002  1.00  0.00    -0.191 N 
ATOM      8  H1  UNL     1      37.552 -20.979  28.257  1.00  0.00     0.184 HD
BRANCH   7   9
HETATM    9  C7  UNL     1      38.474 -19.370  27.502  1.00  0.00     0.684 A 
HETATM   10  N2  UNL     1      37.661 -18.404  27.977  1.00  0.00    -0.190 N 
HETATM   11  C8  UNL     1      37.656 -17.146  27.486  1.00  0.00     0.073 A 
ATOM     12  H2  UNL     1      37.025 -18.634  28.741  1.00  0.00     0.184 HD
HETATM   13  C9  UNL     1      38.528 -16.879  26.458  1.00  0.00     0.018 A 
HETATM   14  C17 UNL     1      36.906 -15.937  27.798  1.00  0.00     0.037 A 
HETATM   15  C10 UNL     1      39.375 -17.850  25.947  1.00  0.00     0.123 A 
HETATM   16  C11 UNL     1      38.359 -15.467  26.080  1.00  0.00     0.084 A 
HETATM   17  N4  UNL     1      39.315 -19.075  26.495  1.00  0.00    -0.176 N 
ATOM     18  H4  UNL     1      39.928 -19.807  26.135  1.00  0.00     0.186 HD
HETATM   19  C12 UNL     1      37.324 -14.932  26.960  1.00  0.00    -0.038 A 
HETATM   20  C13 UNL     1      36.787 -13.650  27.017  1.00  0.00     0.008 A 
HETATM   21  C14 UNL     1      35.810 -13.394  27.947  1.00  0.00     0.004 A 
HETATM   22  C15 UNL     1      35.374 -14.407  28.807  1.00  0.00     0.043 A 
HETATM   23  C16 UNL     1      35.926 -15.666  28.725  1.00  0.00     0.129 A 
HETATM   24  F1  UNL     1      35.501 -16.620  29.552  1.00  0.00    -0.205 F 
BRANCH  15  25
HETATM   25  N3  UNL     1      40.203 -17.634  24.989  1.00  0.00    -0.385 N 
ATOM     26  H32 UNL     1      41.186 -17.476  25.209  1.00  0.00     0.157 HD
ATOM     27  H31 UNL     1      39.931 -17.612  24.006  1.00  0.00     0.157 HD
ENDBRANCH  15  25
ENDBRANCH   7   9
ENDBRANCH   3   7
BRANCH   1  28
HETATM   28  O1  UNL     1      42.888 -20.768  29.739  1.00  0.00    -0.348 OA
BRANCH  28  29
HETATM   29  C3  UNL     1      44.069 -20.368  29.103  1.00  0.00     0.175 C 
BRANCH  29  30
HETATM   30  C2  UNL     1      45.116 -20.178  30.197  1.00  0.00     0.022 C 
HETATM   31  C1  UNL     1      44.935 -21.150  31.317  1.00  0.00     0.007 C 
ENDBRANCH  29  30
ENDBRANCH  28  29
ENDBRANCH   1  28
BRANCH   5  32
HETATM   32  O2  UNL     1      41.157 -24.566  27.486  1.00  0.00    -0.348 OA
BRANCH  32  33
HETATM   33  C20 UNL     1      40.441 -25.742  27.551  1.00  0.00     0.177 C 
BRANCH  33  34
HETATM   34  C21 UNL     1      39.944 -26.163  26.213  1.00  0.00     0.057 C 
BRANCH  34  35
HETATM   35  C22 UNL     1      38.531 -25.656  26.022  1.00  0.00     0.274 C 
BRANCH  35  36
HETATM   36  N5  UNL     1      38.256 -25.213  24.705  1.00  0.00     0.092 N 
HETATM   37  C23 UNL     1      38.314 -23.799  24.548  1.00  0.00     0.298 C 
HETATM   38  C24 UNL     1      37.101 -23.168  25.139  1.00  0.00     0.198 C 
HETATM   39  O3  UNL     1      35.906 -23.675  24.724  1.00  0.00    -0.388 OA
HETATM   40  C25 UNL     1      35.815 -24.986  24.445  1.00  0.00     0.198 C 
HETATM   41  C26 UNL     1      37.073 -25.705  24.093  1.00  0.00     0.298 C 
ENDBRANCH  35  36
ENDBRANCH  34  35
ENDBRANCH  33  34
ENDBRANCH  32  33
ENDBRANCH   5  32
BRANCH   6  42
HETATM   42  O4  UNL     1      43.162 -23.369  28.799  1.00  0.00    -0.351 OA
HETATM   43  C28 UNL     1      43.420 -24.179  29.921  1.00  0.00     0.210 C 
ENDBRANCH   6  42
TORSDOF 12
ENDMDL
MODEL 5
REMARK VINA RESULT: -7.496823518      1.972      5.328
REMARK  12 active torsions:
REMARK  status: ('A' for Active; 'I' for Inactive)
REMARK    1  A    between atoms: C2_2  and  C3_3 
REMARK    2  A    between atoms: C3_3  and  O1_4 
REMARK    3  A    between atoms: O1_4  and  C4_5 
REMARK    4  A    between atoms: C6_7  and  N1_8 
REMARK    5  A    between atoms: N1_8  and  C7_10 
REMARK    6  A    between atoms: C10_15  and  N3_16 
REMARK    7  A    between atoms: C19_30  and  O2_31 
REMARK    8  A    between atoms: O2_31  and  C20_32 
REMARK    9  A    between atoms: C20_32  and  C21_33 
REMARK   10  A    between atoms: C21_33  and  C22_34 
REMARK   11  A    between atoms: C22_34  and  N5_35 
REMARK   12  A    between atoms: C27_41  and  O4_42 
ROOT
HETATM    1  C4  UNL     1      37.103 -21.988  25.608  1.00  0.00     0.107 A 
HETATM    2  C5  UNL     1      37.435 -20.919  26.402  1.00  0.00     0.070 A 
HETATM    3  C6  UNL     1      38.611 -20.993  27.110  1.00  0.00     0.054 A 
HETATM    4  C18 UNL     1      39.437 -22.127  27.020  1.00  0.00     0.070 A 
HETATM    5  C19 UNL     1      39.089 -23.189  26.221  1.00  0.00     0.107 A 
HETATM    6  C27 UNL     1      37.884 -23.107  25.497  1.00  0.00     0.135 A 
ENDROOT
BRANCH   3   7
HETATM    7  N1  UNL     1      38.978 -19.899  27.937  1.00  0.00    -0.191 N 
ATOM      8  H1  UNL     1      39.369 -20.073  28.863  1.00  0.00     0.184 HD
BRANCH   7   9
HETATM    9  C7  UNL     1      38.819 -18.687  27.527  1.00  0.00     0.684 A 
HETATM   10  N2  UNL     1      37.847 -17.908  28.044  1.00  0.00    -0.190 N 
HETATM   11  C8  UNL     1      37.642 -16.634  27.646  1.00  0.00     0.073 A 
ATOM     12  H2  UNL     1      37.242 -18.298  28.767  1.00  0.00     0.184 HD
HETATM   13  C9  UNL     1      38.479 -16.148  26.671  1.00  0.00     0.018 A 
HETATM   14  C17 UNL     1      36.695 -15.593  28.021  1.00  0.00     0.037 A 
HETATM   15  C10 UNL     1      39.487 -16.923  26.119  1.00  0.00     0.123 A 
HETATM   16  C11 UNL     1      38.086 -14.757  26.392  1.00  0.00     0.084 A 
HETATM   17  N4  UNL     1      39.620 -18.180  26.573  1.00  0.00    -0.176 N 
ATOM     18  H4  UNL     1      40.354 -18.771  26.181  1.00  0.00     0.186 HD
HETATM   19  C12 UNL     1      36.957 -14.470  27.273  1.00  0.00    -0.038 A 
HETATM   20  C13 UNL     1      36.213 -13.303  27.407  1.00  0.00     0.008 A 
HETATM   21  C14 UNL     1      35.188 -13.284  28.319  1.00  0.00     0.004 A 
HETATM   22  C15 UNL     1      34.909 -14.418  29.087  1.00  0.00     0.043 A 
HETATM   23  C16 UNL     1      35.664 -15.559  28.931  1.00  0.00     0.129 A 
HETATM   24  F1  UNL     1      35.387 -16.632  29.672  1.00  0.00    -0.205 F 
BRANCH  15  25
HETATM   25  N3  UNL     1      40.287 -16.500  25.208  1.00  0.00    -0.385 N 
ATOM     26  H32 UNL     1      39.910 -15.960  24.429  1.00  0.00     0.157 HD
ATOM     27  H31 UNL     1      41.292 -16.675  25.216  1.00  0.00     0.157 HD
ENDBRANCH  15  25
ENDBRANCH   7   9
ENDBRANCH   3   7
BRANCH   1  28
HETATM   28  O1  UNL     1      35.897 -21.901  24.888  1.00  0.00    -0.348 OA
BRANCH  28  29
HETATM   29  C3  UNL     1      35.574 -20.795  24.094  1.00  0.00     0.175 C 
BRANCH  29  30
HETATM   30  C2  UNL     1      35.109 -21.340  22.745  1.00  0.00     0.022 C 
HETATM   31  C1  UNL     1      34.492 -22.693  22.875  1.00  0.00     0.007 C 
ENDBRANCH  29  30
ENDBRANCH  28  29
ENDBRANCH   1  28
BRANCH   5  32
HETATM   32  O2  UNL     1      39.805 -24.316  26.069  1.00  0.00    -0.348 OA
BRANCH  32  33
HETATM   33  C20 UNL     1      41.140 -24.631  26.200  1.00  0.00     0.177 C 
BRANCH  33  34
HETATM   34  C21 UNL     1      41.471 -25.084  27.578  1.00  0.00     0.057 C 
BRANCH  34  35
HETATM   35  C22 UNL     1      42.389 -24.073  28.230  1.00  0.00     0.274 C 
BRANCH  35  36
HETATM   36  N5  UNL     1      42.317 -24.065  29.645  1.00  0.00     0.092 N 
HETATM   37  C23 UNL     1      41.202 -23.344  30.160  1.00  0.00     0.298 C 
HETATM   38  C24 UNL     1      41.443 -21.878  30.046  1.00  0.00     0.198 C 
HETATM   39  O3  UNL     1      42.620 -21.427  30.564  1.00  0.00    -0.388 OA
HETATM   40  C25 UNL     1      43.707 -22.214  30.491  1.00  0.00     0.198 C 
HETATM   41  C26 UNL     1      43.490 -23.681  30.348  1.00  0.00     0.298 C 
ENDBRANCH  35  36
ENDBRANCH  34  35
ENDBRANCH  33  34
ENDBRANCH  32  33
ENDBRANCH   5  32
BRANCH   6  42
HETATM   42  O4  UNL     1      37.513 -24.154  24.691  1.00  0.00    -0.351 OA
HETATM   43  C28 UNL     1      37.850 -24.261  23.328  1.00  0.00     0.210 C 
ENDBRANCH   6  42
TORSDOF 12
ENDMDL
