MODEL 1
REMARK VINA RESULT: -7.642714257      0.000      0.000
REMARK  12 active torsions:
REMARK  status: ('A' for Active; 'I' for Inactive)
REMARK    1  A    between atoms: C7_7  and  O1_9 
REMARK    2  A    between atoms: O1_9  and  C9_10 
REMARK    3  A    between atoms: C9_10  and  C10_12 
REMARK    4  A    between atoms: C15_19  and  N1_20 
REMARK    5  A    between atoms: N1_20  and  C16_22 
REMARK    6  A    between atoms: C16_22  and  C17_23 
REMARK    7  A    between atoms: C16_22  and  C21_27 
REMARK    8  A    between atoms: C17_23  and  C18_24 
REMARK       I    between atoms: C21_27  and  N2_29 
REMARK    9  A    between atoms: N2_29  and  C22_31 
REMARK   10  A    between atoms: C22_31  and  C23_32 
REMARK   11  A    between atoms: C23_32  and  C24_33 
REMARK   12  A    between atoms: C24_33  and  O5_34 
ROOT
HETATM    1  C1  UNL     1      35.910 -19.530  20.928  1.00  0.00     0.043 C 
HETATM    2  C2  UNL     1      36.175 -20.485  21.998  1.00  0.00    -0.085 C 
HETATM    3  C3  UNL     1      36.922 -21.548  21.801  1.00  0.00    -0.019 C 
HETATM    4  C4  UNL     1      37.153 -22.484  22.929  1.00  0.00     0.021 C 
HETATM    5  C5  UNL     1      38.133 -23.560  22.546  1.00  0.00     0.012 C 
HETATM    6  C6  UNL     1      38.213 -24.675  23.496  1.00  0.00     0.039 C 
HETATM    7  C7  UNL     1      36.980 -25.078  24.236  1.00  0.00     0.067 C 
HETATM    8  C8  UNL     1      37.474 -26.169  25.205  1.00  0.00     0.047 C 
HETATM    9  C11 UNL     1      36.189 -24.077  24.922  1.00  0.00     0.039 C 
HETATM   10  C12 UNL     1      36.748 -22.771  25.312  1.00  0.00     0.017 C 
HETATM   11  C13 UNL     1      37.360 -21.908  24.259  1.00  0.00     0.009 C 
HETATM   12  C14 UNL     1      38.826 -21.716  24.684  1.00  0.00     0.191 C 
HETATM   13  O3  UNL     1      38.955 -20.554  25.492  1.00  0.00    -0.322 OA
HETATM   14  C15 UNL     1      37.883 -20.083  26.235  1.00  0.00     0.216 C 
HETATM   15  N3  UNL     1      36.734 -20.044  25.593  1.00  0.00    -0.351 N 
ATOM     16  H3  UNL     1      35.865 -19.720  26.019  1.00  0.00     0.163 HD
HETATM   17  C25 UNL     1      36.823 -20.497  24.251  1.00  0.00     0.100 C 
HETATM   18  C26 UNL     1      35.631 -20.287  23.369  1.00  0.00     0.059 C 
ENDROOT
BRANCH  14  19
HETATM   19  N1  UNL     1      37.970 -19.663  27.589  1.00  0.00    -0.343 N 
ATOM     20  H1  UNL     1      37.265 -19.906  28.285  1.00  0.00     0.164 HD
BRANCH  19  21
HETATM   21  C16 UNL     1      39.172 -18.842  27.917  1.00  0.00     0.177 C 
BRANCH  21  22
HETATM   22  C17 UNL     1      39.807 -19.466  29.124  1.00  0.00     0.038 C 
BRANCH  22  23
HETATM   23  C18 UNL     1      40.894 -20.432  28.849  1.00  0.00    -0.020 C 
HETATM   24  C19 UNL     1      41.555 -20.161  27.489  1.00  0.00     0.009 C 
HETATM   25  C20 UNL     1      40.299 -21.853  28.663  1.00  0.00     0.009 C 
ENDBRANCH  22  23
ENDBRANCH  21  22
BRANCH  21  26
HETATM   26  C21 UNL     1      38.720 -17.473  28.238  1.00  0.00     0.240 C 
HETATM   27  O4  UNL     1      39.339 -16.530  27.629  1.00  0.00    -0.271 OA
HETATM   28  N2  UNL     1      37.700 -17.108  29.132  1.00  0.00    -0.359 N 
ATOM     29  H2  UNL     1      37.173 -17.809  29.653  1.00  0.00     0.162 HD
BRANCH  28  30
HETATM   30  C22 UNL     1      37.421 -15.667  29.284  1.00  0.00     0.125 C 
BRANCH  30  31
HETATM   31  C23 UNL     1      36.119 -15.288  28.645  1.00  0.00     0.046 C 
BRANCH  31  32
HETATM   32  C24 UNL     1      36.361 -14.113  27.725  1.00  0.00     0.165 C 
BRANCH  32  33
HETATM   33  O5  UNL     1      35.948 -12.920  28.325  1.00  0.00    -0.401 OA
ATOM     34  H5  UNL     1      35.376 -12.432  27.744  1.00  0.00     0.209 HD
ENDBRANCH  32  33
ENDBRANCH  31  32
ENDBRANCH  30  31
ENDBRANCH  28  30
ENDBRANCH  21  26
ENDBRANCH  19  21
ENDBRANCH  14  19
BRANCH   7  35
HETATM   35  O1  UNL     1      36.175 -25.785  23.284  1.00  0.00    -0.310 OA
BRANCH  35  36
HETATM   36  C9  UNL     1      34.853 -25.578  23.062  1.00  0.00     0.273 C 
HETATM   37  O2  UNL     1      34.003 -26.058  23.816  1.00  0.00    -0.264 OA
BRANCH  36  38
HETATM   38  C10 UNL     1      34.419 -24.765  21.901  1.00  0.00     0.225 C 
HETATM   39 CL1  UNL     1      33.636 -23.271  22.419  1.00  0.00    -0.120 Cl
ENDBRANCH  36  38
ENDBRANCH  35  36
ENDBRANCH   7  35
TORSDOF 12
ENDMDL
MODEL 2
REMARK VINA RESULT: -7.589314740      3.781      6.621
REMARK  12 active torsions:
REMARK  status: ('A' for Active; 'I' for Inactive)
REMARK    1  A    between atoms: C7_7  and  O1_9 
REMARK    2  A    between atoms: O1_9  and  C9_10 
REMARK    3  A    between atoms: C9_10  and  C10_12 
REMARK    4  A    between atoms: C15_19  and  N1_20 
REMARK    5  A    between atoms: N1_20  and  C16_22 
REMARK    6  A    between atoms: C16_22  and  C17_23 
REMARK    7  A    between atoms: C16_22  and  C21_27 
REMARK    8  A    between atoms: C17_23  and  C18_24 
REMARK       I    between atoms: C21_27  and  N2_29 
REMARK    9  A    between atoms: N2_29  and  C22_31 
REMARK   10  A    between atoms: C22_31  and  C23_32 
REMARK   11  A    between atoms: C23_32  and  C24_33 
REMARK   12  A    between atoms: C24_33  and  O5_34 
ROOT
HETATM    1  C1  UNL     1      44.537 -21.084  30.974  1.00  0.00     0.043 C 
HETATM    2  C2  UNL     1      43.549 -21.628  30.047  1.00  0.00    -0.085 C 
HETATM    3  C3  UNL     1      42.830 -22.685  30.353  1.00  0.00    -0.019 C 
HETATM    4  C4  UNL     1      41.844 -23.193  29.368  1.00  0.00     0.021 C 
HETATM    5  C5  UNL     1      41.033 -24.319  29.947  1.00  0.00     0.012 C 
HETATM    6  C6  UNL     1      40.229 -25.057  28.966  1.00  0.00     0.039 C 
HETATM    7  C7  UNL     1      40.756 -25.213  27.578  1.00  0.00     0.067 C 
HETATM    8  C8  UNL     1      39.610 -25.916  26.827  1.00  0.00     0.047 C 
HETATM    9  C11 UNL     1      41.235 -24.054  26.852  1.00  0.00     0.039 C 
HETATM   10  C12 UNL     1      40.832 -22.683  27.214  1.00  0.00     0.017 C 
HETATM   11  C13 UNL     1      41.074 -22.207  28.607  1.00  0.00     0.009 C 
HETATM   12  C14 UNL     1      39.685 -21.862  29.172  1.00  0.00     0.191 C 
HETATM   13  O3  UNL     1      39.379 -20.497  28.923  1.00  0.00    -0.322 OA
HETATM   14  C15 UNL     1      39.949 -19.824  27.853  1.00  0.00     0.216 C 
HETATM   15  N3  UNL     1      41.243 -20.017  27.700  1.00  0.00    -0.351 N 
ATOM     16  H3  UNL     1      41.788 -19.585  26.954  1.00  0.00     0.163 HD
HETATM   17  C25 UNL     1      41.802 -20.886  28.672  1.00  0.00     0.100 C 
HETATM   18  C26 UNL     1      43.294 -20.997  28.724  1.00  0.00     0.059 C 
ENDROOT
BRANCH  14  19
HETATM   19  N1  UNL     1      39.232 -18.980  26.964  1.00  0.00    -0.343 N 
ATOM     20  H1  UNL     1      39.665 -18.552  26.146  1.00  0.00     0.164 HD
BRANCH  19  21
HETATM   21  C16 UNL     1      37.797 -18.769  27.317  1.00  0.00     0.177 C 
BRANCH  21  22
HETATM   22  C17 UNL     1      37.027 -18.793  26.030  1.00  0.00     0.038 C 
BRANCH  22  23
HETATM   23  C18 UNL     1      37.121 -20.047  25.251  1.00  0.00    -0.020 C 
HETATM   24  C19 UNL     1      36.590 -19.862  23.821  1.00  0.00     0.009 C 
HETATM   25  C20 UNL     1      36.152 -21.107  25.841  1.00  0.00     0.009 C 
ENDBRANCH  22  23
ENDBRANCH  21  22
BRANCH  21  26
HETATM   26  C21 UNL     1      37.671 -17.443  27.953  1.00  0.00     0.240 C 
HETATM   27  O4  UNL     1      38.700 -16.685  27.858  1.00  0.00    -0.271 OA
HETATM   28  N2  UNL     1      36.557 -16.939  28.645  1.00  0.00    -0.359 N 
ATOM     29  H2  UNL     1      35.709 -17.494  28.764  1.00  0.00     0.162 HD
BRANCH  28  30
HETATM   30  C22 UNL     1      36.664 -15.574  29.193  1.00  0.00     0.125 C 
BRANCH  30  31
HETATM   31  C23 UNL     1      35.847 -14.597  28.401  1.00  0.00     0.046 C 
BRANCH  31  32
HETATM   32  C24 UNL     1      34.638 -14.209  29.221  1.00  0.00     0.165 C 
BRANCH  32  33
HETATM   33  O5  UNL     1      33.771 -15.295  29.369  1.00  0.00    -0.401 OA
ATOM     34  H5  UNL     1      33.794 -15.626  30.259  1.00  0.00     0.209 HD
ENDBRANCH  32  33
ENDBRANCH  31  32
ENDBRANCH  30  31
ENDBRANCH  28  30
ENDBRANCH  21  26
ENDBRANCH  19  21
ENDBRANCH  14  19
BRANCH   7  35
HETATM   35  O1  UNL     1      41.785 -26.206  27.667  1.00  0.00    -0.310 OA
BRANCH  35  36
HETATM   36  C9  UNL     1      43.054 -26.071  27.206  1.00  0.00     0.273 C 
HETATM   37  O2  UNL     1      43.310 -26.217  26.008  1.00  0.00    -0.264 OA
BRANCH  36  38
HETATM   38  C10 UNL     1      44.150 -25.743  28.149  1.00  0.00     0.225 C 
HETATM   39 CL1  UNL     1      44.921 -24.213  27.730  1.00  0.00    -0.120 Cl
ENDBRANCH  36  38
ENDBRANCH  35  36
ENDBRANCH   7  35
TORSDOF 12
ENDMDL
MODEL 3
REMARK VINA RESULT: -7.491930173      1.980      2.509
REMARK  12 active torsions:
REMARK  status: ('A' for Active; 'I' for Inactive)
REMARK    1  A    between atoms: C7_7  and  O1_9 
REMARK    2  A    between atoms: O1_9  and  C9_10 
REMARK    3  A    between atoms: C9_10  and  C10_12 
REMARK    4  A    between atoms: C15_19  and  N1_20 
REMARK    5  A    between atoms: N1_20  and  C16_22 
REMARK    6  A    between atoms: C16_22  and  C17_23 
REMARK    7  A    between atoms: C16_22  and  C21_27 
REMARK    8  A    between atoms: C17_23  and  C18_24 
REMARK       I    between atoms: C21_27  and  N2_29 
REMARK    9  A    between atoms: N2_29  and  C22_31 
REMARK   10  A    between atoms: C22_31  and  C23_32 
REMARK   11  A    between atoms: C23_32  and  C24_33 
REMARK   12  A    between atoms: C24_33  and  O5_34 
ROOT
HETATM    1  C1  UNL     1      36.277 -19.190  18.418  1.00  0.00     0.043 C 
HETATM    2  C2  UNL     1      36.276 -19.661  19.799  1.00  0.00    -0.085 C 
HETATM    3  C3  UNL     1      36.890 -20.770  20.147  1.00  0.00    -0.019 C 
HETATM    4  C4  UNL     1      36.850 -21.198  21.567  1.00  0.00     0.021 C 
HETATM    5  C5  UNL     1      37.713 -22.409  21.790  1.00  0.00     0.012 C 
HETATM    6  C6  UNL     1      37.524 -23.061  23.091  1.00  0.00     0.039 C 
HETATM    7  C7  UNL     1      36.166 -23.041  23.712  1.00  0.00     0.067 C 
HETATM    8  C8  UNL     1      36.383 -23.695  25.090  1.00  0.00     0.047 C 
HETATM    9  C11 UNL     1      35.440 -21.792  23.825  1.00  0.00     0.039 C 
HETATM   10  C12 UNL     1      36.121 -20.486  23.777  1.00  0.00     0.017 C 
HETATM   11  C13 UNL     1      36.969 -20.161  22.593  1.00  0.00     0.009 C 
HETATM   12  C14 UNL     1      38.384 -19.930  23.151  1.00  0.00     0.191 C 
HETATM   13  O3  UNL     1      38.569 -18.557  23.468  1.00  0.00    -0.322 OA
HETATM   14  C15 UNL     1      37.489 -17.749  23.787  1.00  0.00     0.216 C 
HETATM   15  N3  UNL     1      36.444 -17.879  22.996  1.00  0.00    -0.351 N 
ATOM     16  H3  UNL     1      35.582 -17.346  23.116  1.00  0.00     0.163 HD
HETATM   17  C25 UNL     1      36.634 -18.831  21.961  1.00  0.00     0.100 C 
HETATM   18  C26 UNL     1      35.600 -18.895  20.881  1.00  0.00     0.059 C 
ENDROOT
BRANCH  14  19
HETATM   19  N1  UNL     1      37.465 -16.836  24.874  1.00  0.00    -0.343 N 
ATOM     20  H1  UNL     1      36.975 -15.943  24.830  1.00  0.00     0.164 HD
BRANCH  19  21
HETATM   21  C16 UNL     1      38.213 -17.283  26.087  1.00  0.00     0.177 C 
BRANCH  21  22
HETATM   22  C17 UNL     1      37.632 -18.606  26.490  1.00  0.00     0.038 C 
BRANCH  22  23
HETATM   23  C18 UNL     1      38.567 -19.538  27.158  1.00  0.00    -0.020 C 
HETATM   24  C19 UNL     1      40.012 -19.327  26.677  1.00  0.00     0.009 C 
HETATM   25  C20 UNL     1      38.268 -20.994  26.711  1.00  0.00     0.009 C 
ENDBRANCH  22  23
ENDBRANCH  21  22
BRANCH  21  26
HETATM   26  C21 UNL     1      37.989 -16.290  27.156  1.00  0.00     0.240 C 
HETATM   27  O4  UNL     1      39.016 -15.602  27.494  1.00  0.00    -0.271 OA
HETATM   28  N2  UNL     1      36.784 -16.032  27.832  1.00  0.00    -0.359 N 
ATOM     29  H2  UNL     1      35.932 -16.549  27.617  1.00  0.00     0.162 HD
BRANCH  28  30
HETATM   30  C22 UNL     1      36.804 -14.981  28.867  1.00  0.00     0.125 C 
BRANCH  30  31
HETATM   31  C23 UNL     1      35.755 -13.939  28.613  1.00  0.00     0.046 C 
BRANCH  31  32
HETATM   32  C24 UNL     1      36.053 -13.273  27.288  1.00  0.00     0.165 C 
BRANCH  32  33
HETATM   33  O5  UNL     1      37.397 -12.897  27.215  1.00  0.00    -0.401 OA
ATOM     34  H5  UNL     1      37.630 -12.333  27.944  1.00  0.00     0.209 HD
ENDBRANCH  32  33
ENDBRANCH  31  32
ENDBRANCH  30  31
ENDBRANCH  28  30
ENDBRANCH  21  26
ENDBRANCH  19  21
ENDBRANCH  14  19
BRANCH   7  35
HETATM   35  O1  UNL     1      35.395 -24.002  22.980  1.00  0.00    -0.310 OA
BRANCH  35  36
HETATM   36  C9  UNL     1      34.940 -25.184  23.467  1.00  0.00     0.273 C 
HETATM   37  O2  UNL     1      33.938 -25.227  24.185  1.00  0.00    -0.264 OA
BRANCH  36  38
HETATM   38  C10 UNL     1      35.651 -26.441  23.134  1.00  0.00     0.225 C 
HETATM   39 CL1  UNL     1      36.137 -27.310  24.591  1.00  0.00    -0.120 Cl
ENDBRANCH  36  38
ENDBRANCH  35  36
ENDBRANCH   7  35
TORSDOF 12
ENDMDL
MODEL 4
REMARK VINA RESULT: -7.413807609      2.188      4.005
REMARK  12 active torsions:
REMARK  status: ('A' for Active; 'I' for Inactive)
REMARK    1  A    between atoms: C7_7  and  O1_9 
REMARK    2  A    between atoms: O1_9  and  C9_10 
REMARK    3  A    between atoms: C9_10  and  C10_12 
REMARK    4  A    between atoms: C15_19  and  N1_20 
REMARK    5  A    between atoms: N1_20  and  C16_22 
REMARK    6  A    between atoms: C16_22  and  C17_23 
REMARK    7  A    between atoms: C16_22  and  C21_27 
REMARK    8  A    between atoms: C17_23  and  C18_24 
REMARK       I    between atoms: C21_27  and  N2_29 
REMARK    9  A    between atoms: N2_29  and  C22_31 
REMARK   10  A    between atoms: C22_31  and  C23_32 
REMARK   11  A    between atoms: C23_32  and  C24_33 
REMARK   12  A    between atoms: C24_33  and  O5_34 
ROOT
HETATM    1  C1  UNL     1      35.531 -18.110  19.588  1.00  0.00     0.043 C 
HETATM    2  C2  UNL     1      35.755 -18.866  20.816  1.00  0.00    -0.085 C 
HETATM    3  C3  UNL     1      36.355 -20.035  20.802  1.00  0.00    -0.019 C 
HETATM    4  C4  UNL     1      36.552 -20.757  22.083  1.00  0.00     0.021 C 
HETATM    5  C5  UNL     1      37.367 -22.005  21.881  1.00  0.00     0.012 C 
HETATM    6  C6  UNL     1      37.381 -22.916  23.031  1.00  0.00     0.039 C 
HETATM    7  C7  UNL     1      36.164 -23.003  23.892  1.00  0.00     0.067 C 
HETATM    8  C8  UNL     1      36.592 -23.941  25.037  1.00  0.00     0.047 C 
HETATM    9  C11 UNL     1      35.548 -21.793  24.398  1.00  0.00     0.039 C 
HETATM   10  C12 UNL     1      36.285 -20.521  24.491  1.00  0.00     0.017 C 
HETATM   11  C13 UNL     1      36.920 -19.966  23.259  1.00  0.00     0.009 C 
HETATM   12  C14 UNL     1      38.424 -19.888  23.570  1.00  0.00     0.191 C 
HETATM   13  O3  UNL     1      38.747 -18.619  24.122  1.00  0.00    -0.322 OA
HETATM   14  C15 UNL     1      37.794 -17.877  24.802  1.00  0.00     0.216 C 
HETATM   15  N3  UNL     1      36.615 -17.814  24.219  1.00  0.00    -0.351 N 
ATOM     16  H3  UNL     1      35.824 -17.303  24.610  1.00  0.00     0.163 HD
HETATM   17  C25 UNL     1      36.555 -18.525  22.992  1.00  0.00     0.100 C 
HETATM   18  C26 UNL     1      35.338 -18.337  22.142  1.00  0.00     0.059 C 
ENDROOT
BRANCH  14  19
HETATM   19  N1  UNL     1      38.026 -17.218  26.039  1.00  0.00    -0.343 N 
ATOM     20  H1  UNL     1      38.632 -16.402  26.120  1.00  0.00     0.164 HD
BRANCH  19  21
HETATM   21  C16 UNL     1      37.316 -17.811  27.211  1.00  0.00     0.177 C 
BRANCH  21  22
HETATM   22  C17 UNL     1      37.197 -16.726  28.239  1.00  0.00     0.038 C 
BRANCH  22  23
HETATM   23  C18 UNL     1      36.521 -15.489  27.790  1.00  0.00    -0.020 C 
HETATM   24  C19 UNL     1      37.513 -14.322  27.658  1.00  0.00     0.009 C 
HETATM   25  C20 UNL     1      35.551 -14.989  28.894  1.00  0.00     0.009 C 
ENDBRANCH  22  23
ENDBRANCH  21  22
BRANCH  21  26
HETATM   26  C21 UNL     1      38.141 -18.915  27.738  1.00  0.00     0.240 C 
HETATM   27  O4  UNL     1      37.628 -20.085  27.637  1.00  0.00    -0.271 OA
HETATM   28  N2  UNL     1      39.410 -18.813  28.334  1.00  0.00    -0.359 N 
ATOM     29  H2  UNL     1      39.871 -17.911  28.451  1.00  0.00     0.162 HD
BRANCH  28  30
HETATM   30  C22 UNL     1      40.047 -20.065  28.782  1.00  0.00     0.125 C 
BRANCH  30  31
HETATM   31  C23 UNL     1      41.393 -20.256  28.149  1.00  0.00     0.046 C 
BRANCH  31  32
HETATM   32  C24 UNL     1      41.190 -20.668  26.708  1.00  0.00     0.165 C 
BRANCH  32  33
HETATM   33  O5  UNL     1      41.048 -19.545  25.888  1.00  0.00    -0.401 OA
ATOM     34  H5  UNL     1      40.130 -19.336  25.759  1.00  0.00     0.209 HD
ENDBRANCH  32  33
ENDBRANCH  31  32
ENDBRANCH  30  31
ENDBRANCH  28  30
ENDBRANCH  21  26
ENDBRANCH  19  21
ENDBRANCH  14  19
BRANCH   7  35
HETATM   35  O1  UNL     1      35.215 -23.770  23.139  1.00  0.00    -0.310 OA
BRANCH  35  36
HETATM   36  C9  UNL     1      34.846 -25.048  23.405  1.00  0.00     0.273 C 
HETATM   37  O2  UNL     1      33.995 -25.293  24.264  1.00  0.00    -0.264 OA
BRANCH  36  38
HETATM   38  C10 UNL     1      35.468 -26.166  22.657  1.00  0.00     0.225 C 
HETATM   39 CL1  UNL     1      36.203 -27.340  23.750  1.00  0.00    -0.120 Cl
ENDBRANCH  36  38
ENDBRANCH  35  36
ENDBRANCH   7  35
TORSDOF 12
ENDMDL
MODEL 5
REMARK VINA RESULT: -7.387027878      1.303      1.466
REMARK  12 active torsions:
REMARK  status: ('A' for Active; 'I' for Inactive)
REMARK    1  A    between atoms: C7_7  and  O1_9 
REMARK    2  A    between atoms: O1_9  and  C9_10 
REMARK    3  A    between atoms: C9_10  and  C10_12 
REMARK    4  A    between atoms: C15_19  and  N1_20 
REMARK    5  A    between atoms: N1_20  and  C16_22 
REMARK    6  A    between atoms: C16_22  and  C17_23 
REMARK    7  A    between atoms: C16_22  and  C21_27 
REMARK    8  A    between atoms: C17_23  and  C18_24 
REMARK       I    between atoms: C21_27  and  N2_29 
REMARK    9  A    between atoms: N2_29  and  C22_31 
REMARK   10  A    between atoms: C22_31  and  C23_32 
REMARK   11  A    between atoms: C23_32  and  C24_33 
REMARK   12  A    between atoms: C24_33  and  O5_34 
ROOT
HETATM    1  C1  UNL     1      35.162 -18.781  21.598  1.00  0.00     0.043 C 
HETATM    2  C2  UNL     1      35.582 -19.872  22.470  1.00  0.00    -0.085 C 
HETATM    3  C3  UNL     1      36.300 -20.876  22.017  1.00  0.00    -0.019 C 
HETATM    4  C4  UNL     1      36.695 -21.957  22.953  1.00  0.00     0.021 C 
HETATM    5  C5  UNL     1      37.616 -22.941  22.284  1.00  0.00     0.012 C 
HETATM    6  C6  UNL     1      37.838 -24.178  23.040  1.00  0.00     0.039 C 
HETATM    7  C7  UNL     1      36.725 -24.715  23.879  1.00  0.00     0.067 C 
HETATM    8  C8  UNL     1      37.359 -25.921  24.600  1.00  0.00     0.047 C 
HETATM    9  C11 UNL     1      36.035 -23.844  24.808  1.00  0.00     0.039 C 
HETATM   10  C12 UNL     1      36.637 -22.592  25.301  1.00  0.00     0.017 C 
HETATM   11  C13 UNL     1      37.087 -21.572  24.310  1.00  0.00     0.009 C 
HETATM   12  C14 UNL     1      38.597 -21.404  24.548  1.00  0.00     0.191 C 
HETATM   13  O3  UNL     1      38.834 -20.368  25.490  1.00  0.00    -0.322 OA
HETATM   14  C15 UNL     1      37.877 -20.036  26.437  1.00  0.00     0.216 C 
HETATM   15  N3  UNL     1      36.647 -19.936  25.975  1.00  0.00    -0.351 N 
ATOM     16  H3  UNL     1      35.847 -19.699  26.562  1.00  0.00     0.163 HD
HETATM   17  C25 UNL     1      36.546 -20.189  24.583  1.00  0.00     0.100 C 
HETATM   18  C26 UNL     1      35.239 -19.887  23.917  1.00  0.00     0.059 C 
ENDROOT
BRANCH  14  19
HETATM   19  N1  UNL     1      38.154 -19.812  27.812  1.00  0.00    -0.343 N 
ATOM     20  H1  UNL     1      37.608 -20.242  28.559  1.00  0.00     0.164 HD
BRANCH  19  21
HETATM   21  C16 UNL     1      39.306 -18.902  28.081  1.00  0.00     0.177 C 
BRANCH  21  22
HETATM   22  C17 UNL     1      40.019 -19.449  29.282  1.00  0.00     0.038 C 
BRANCH  22  23
HETATM   23  C18 UNL     1      40.608 -20.796  29.118  1.00  0.00    -0.020 C 
HETATM   24  C19 UNL     1      40.726 -21.526  30.465  1.00  0.00     0.009 C 
HETATM   25  C20 UNL     1      42.088 -20.672  28.666  1.00  0.00     0.009 C 
ENDBRANCH  22  23
ENDBRANCH  21  22
BRANCH  21  26
HETATM   26  C21 UNL     1      38.770 -17.560  28.384  1.00  0.00     0.240 C 
HETATM   27  O4  UNL     1      39.298 -16.594  27.728  1.00  0.00    -0.271 OA
HETATM   28  N2  UNL     1      37.759 -17.241  29.306  1.00  0.00    -0.359 N 
ATOM     29  H2  UNL     1      37.303 -17.962  29.865  1.00  0.00     0.162 HD
BRANCH  28  30
HETATM   30  C22 UNL     1      37.385 -15.820  29.432  1.00  0.00     0.125 C 
BRANCH  30  31
HETATM   31  C23 UNL     1      36.174 -15.495  28.609  1.00  0.00     0.046 C 
BRANCH  31  32
HETATM   32  C24 UNL     1      36.541 -14.406  27.626  1.00  0.00     0.165 C 
BRANCH  32  33
HETATM   33  O5  UNL     1      36.973 -14.957  26.417  1.00  0.00    -0.401 OA
ATOM     34  H5  UNL     1      36.807 -14.359  25.696  1.00  0.00     0.209 HD
ENDBRANCH  32  33
ENDBRANCH  31  32
ENDBRANCH  30  31
ENDBRANCH  28  30
ENDBRANCH  21  26
ENDBRANCH  19  21
ENDBRANCH  14  19
BRANCH   7  35
HETATM   35  O1  UNL     1      35.796 -25.299  22.958  1.00  0.00    -0.310 OA
BRANCH  35  36
HETATM   36  C9  UNL     1      34.760 -26.109  23.290  1.00  0.00     0.273 C 
HETATM   37  O2  UNL     1      33.916 -25.750  24.115  1.00  0.00    -0.264 OA
BRANCH  36  38
HETATM   38  C10 UNL     1      34.635 -27.444  22.657  1.00  0.00     0.225 C 
HETATM   39 CL1  UNL     1      34.707 -28.735  23.858  1.00  0.00    -0.120 Cl
ENDBRANCH  36  38
ENDBRANCH  35  36
ENDBRANCH   7  35
TORSDOF 12
ENDMDL
