MODEL 1
REMARK VINA RESULT: -9.444055418      0.000      0.000
REMARK  12 active torsions:
REMARK  status: ('A' for Active; 'I' for Inactive)
REMARK    1  A    between atoms: C7_7  and  O1_8 
REMARK    2  A    between atoms: N1_11  and  C9_12 
REMARK    3  A    between atoms: C16_20  and  C17_21 
REMARK    4  A    between atoms: C17_21  and  C18_22 
REMARK    5  A    between atoms: C19_24  and  C20_25 
REMARK    6  A    between atoms: C22_27  and  C23_28 
REMARK    7  A    between atoms: C23_28  and  O4_29 
REMARK    8  A    between atoms: C23_28  and  C26_33 
REMARK    9  A    between atoms: O4_29  and  C24_30 
REMARK   10  A    between atoms: C24_30  and  C25_31 
REMARK   11  A    between atoms: C26_33  and  O5_34 
REMARK   12  A    between atoms: N2_36  and  O6_38 
ROOT
HETATM    1  C9  UNL     1      37.411 -21.895  24.812  1.00  0.00     0.038 A 
HETATM    2  C10 UNL     1      37.209 -20.685  24.225  1.00  0.00     0.032 A 
HETATM    3  C11 UNL     1      37.992 -19.614  24.596  1.00  0.00     0.040 A 
HETATM    4  C12 UNL     1      38.994 -19.690  25.550  1.00  0.00     0.084 A 
HETATM    5  C13 UNL     1      39.182 -20.925  26.132  1.00  0.00     0.048 A 
HETATM    6  C14 UNL     1      38.413 -22.015  25.781  1.00  0.00     0.048 A 
HETATM    7  C15 UNL     1      40.273 -20.721  27.079  1.00  0.00     0.196 C 
HETATM    8  O2  UNL     1      40.964 -21.597  27.635  1.00  0.00    -0.289 OA
HETATM    9  C16 UNL     1      40.409 -19.252  27.260  1.00  0.00     0.239 C 
HETATM   10  O7  UNL     1      39.879 -18.751  26.059  1.00  0.00    -0.332 OA
ENDROOT
BRANCH   9  11
HETATM   11  C17 UNL     1      39.423 -18.886  28.356  1.00  0.00     0.015 C 
HETATM   12  C19 UNL     1      38.500 -17.998  28.120  1.00  0.00     0.019 C 
BRANCH  11  13
HETATM   13  C18 UNL     1      39.566 -19.555  29.628  1.00  0.00     0.268 C 
HETATM   14  O3  UNL     1      39.919 -19.023  30.687  1.00  0.00    -0.302 OA
ENDBRANCH  11  13
BRANCH  12  15
HETATM   15  C20 UNL     1      37.506 -17.591  29.134  1.00  0.00     0.212 C 
HETATM   16  C21 UNL     1      37.825 -16.248  29.716  1.00  0.00     0.073 C 
HETATM   17  C22 UNL     1      36.690 -15.621  28.937  1.00  0.00     0.225 C 
HETATM   18  N3  UNL     1      36.312 -16.975  28.539  1.00  0.00    -0.060 N 
ATOM     19  H32 UNL     1      36.116 -17.153  27.554  1.00  0.00     0.278 HD
ATOM     20  H31 UNL     1      35.396 -17.324  28.819  1.00  0.00     0.278 HD
BRANCH  17  21
HETATM   21  C23 UNL     1      37.071 -14.846  27.720  1.00  0.00     0.228 C 
BRANCH  21  22
HETATM   22  O4  UNL     1      36.762 -15.544  26.542  1.00  0.00    -0.373 OA
BRANCH  22  23
HETATM   23  C24 UNL     1      37.766 -15.470  25.610  1.00  0.00     0.200 C 
BRANCH  23  24
HETATM   24  C25 UNL     1      39.125 -15.339  26.241  1.00  0.00     0.248 C 
HETATM   25  F1  UNL     1      40.096 -15.752  25.318  1.00  0.00    -0.253 F 
ENDBRANCH  23  24
ENDBRANCH  22  23
ENDBRANCH  21  22
BRANCH  21  26
HETATM   26  C26 UNL     1      36.587 -13.466  27.672  1.00  0.00     0.167 C 
HETATM   27  N2  UNL     1      35.452 -13.095  28.026  1.00  0.00    -0.249 N 
ATOM     28  H2  UNL     1      35.321 -12.091  27.911  1.00  0.00     0.196 HD
BRANCH  26  29
HETATM   29  O5  UNL     1      37.483 -12.504  27.186  1.00  0.00    -0.346 OA
ATOM     30  H5  UNL     1      37.105 -11.687  26.883  1.00  0.00     0.219 HD
ENDBRANCH  26  29
BRANCH  27  31
HETATM   31  O6  UNL     1      34.372 -13.691  28.517  1.00  0.00    -0.288 OA
ATOM     32  H6  UNL     1      33.700 -13.463  29.148  1.00  0.00     0.244 HD
ENDBRANCH  27  31
ENDBRANCH  21  26
ENDBRANCH  17  21
ENDBRANCH  12  15
ENDBRANCH   9  11
BRANCH   1  33
HETATM   33  N1  UNL     1      36.635 -23.027  24.470  1.00  0.00    -0.315 N 
HETATM   34  C8  UNL     1      35.263 -22.829  24.108  1.00  0.00     0.164 C 
HETATM   35  C7  UNL     1      34.830 -23.994  23.235  1.00  0.00     0.141 C 
HETATM   36  C6  UNL     1      34.910 -25.305  23.985  1.00  0.00     0.029 C 
HETATM   37  C5  UNL     1      34.593 -26.400  23.000  1.00  0.00     0.008 C 
HETATM   38  C28 UNL     1      36.214 -25.468  24.693  1.00  0.00     0.088 C 
HETATM   39  C4  UNL     1      34.670 -27.736  23.663  1.00  0.00     0.001 C 
HETATM   40  C3  UNL     1      35.826 -27.875  24.617  1.00  0.00     0.005 C 
HETATM   41  C2  UNL     1      36.866 -26.809  24.439  1.00  0.00    -0.005 C 
HETATM   42  C1  UNL     1      37.562 -26.902  23.126  1.00  0.00     0.011 C 
HETATM   43  C27 UNL     1      37.158 -24.349  24.468  1.00  0.00     0.229 C 
HETATM   44  O8  UNL     1      38.402 -24.500  24.276  1.00  0.00    -0.273 OA
BRANCH  35  45
HETATM   45  O1  UNL     1      33.522 -23.719  22.833  1.00  0.00    -0.394 OA
ATOM     46  H1  UNL     1      33.252 -22.850  23.109  1.00  0.00     0.210 HD
ENDBRANCH  35  45
ENDBRANCH   1  33
TORSDOF 12
ENDMDL
MODEL 2
REMARK VINA RESULT: -8.967817052      0.894      1.070
REMARK  12 active torsions:
REMARK  status: ('A' for Active; 'I' for Inactive)
REMARK    1  A    between atoms: C7_7  and  O1_8 
REMARK    2  A    between atoms: N1_11  and  C9_12 
REMARK    3  A    between atoms: C16_20  and  C17_21 
REMARK    4  A    between atoms: C17_21  and  C18_22 
REMARK    5  A    between atoms: C19_24  and  C20_25 
REMARK    6  A    between atoms: C22_27  and  C23_28 
REMARK    7  A    between atoms: C23_28  and  O4_29 
REMARK    8  A    between atoms: C23_28  and  C26_33 
REMARK    9  A    between atoms: O4_29  and  C24_30 
REMARK   10  A    between atoms: C24_30  and  C25_31 
REMARK   11  A    between atoms: C26_33  and  O5_34 
REMARK   12  A    between atoms: N2_36  and  O6_38 
ROOT
HETATM    1  C9  UNL     1      37.831 -22.201  24.601  1.00  0.00     0.038 A 
HETATM    2  C10 UNL     1      37.476 -21.024  24.020  1.00  0.00     0.032 A 
HETATM    3  C11 UNL     1      38.130 -19.867  24.382  1.00  0.00     0.040 A 
HETATM    4  C12 UNL     1      39.148 -19.822  25.320  1.00  0.00     0.084 A 
HETATM    5  C13 UNL     1      39.493 -21.026  25.896  1.00  0.00     0.048 A 
HETATM    6  C14 UNL     1      38.856 -22.200  25.554  1.00  0.00     0.048 A 
HETATM    7  C15 UNL     1      40.566 -20.693  26.826  1.00  0.00     0.196 C 
HETATM    8  O2  UNL     1      41.367 -21.479  27.369  1.00  0.00    -0.289 OA
HETATM    9  C16 UNL     1      40.528 -19.218  27.009  1.00  0.00     0.239 C 
HETATM   10  O7  UNL     1      39.922 -18.783  25.818  1.00  0.00    -0.332 OA
ENDROOT
BRANCH   9  11
HETATM   11  C17 UNL     1      39.522 -18.975  28.121  1.00  0.00     0.015 C 
HETATM   12  C19 UNL     1      38.576 -18.096  27.952  1.00  0.00     0.019 C 
BRANCH  11  13
HETATM   13  C18 UNL     1      39.674 -19.746  29.334  1.00  0.00     0.268 C 
HETATM   14  O3  UNL     1      40.039 -19.303  30.429  1.00  0.00    -0.302 OA
ENDBRANCH  11  13
BRANCH  12  15
HETATM   15  C20 UNL     1      37.563 -17.805  28.986  1.00  0.00     0.212 C 
HETATM   16  C21 UNL     1      37.828 -16.500  29.672  1.00  0.00     0.073 C 
HETATM   17  C22 UNL     1      36.675 -15.857  28.935  1.00  0.00     0.225 C 
HETATM   18  N3  UNL     1      36.350 -17.189  28.430  1.00  0.00    -0.060 N 
ATOM     19  H32 UNL     1      36.165 -17.298  27.433  1.00  0.00     0.278 HD
ATOM     20  H31 UNL     1      35.446 -17.592  28.675  1.00  0.00     0.278 HD
BRANCH  17  21
HETATM   21  C23 UNL     1      37.033 -14.977  27.783  1.00  0.00     0.228 C 
BRANCH  21  22
HETATM   22  O4  UNL     1      36.762 -15.596  26.553  1.00  0.00    -0.373 OA
BRANCH  22  23
HETATM   23  C24 UNL     1      37.725 -15.333  25.611  1.00  0.00     0.200 C 
BRANCH  23  24
HETATM   24  C25 UNL     1      39.117 -15.405  26.178  1.00  0.00     0.248 C 
HETATM   25  F1  UNL     1      40.025 -15.602  25.129  1.00  0.00    -0.253 F 
ENDBRANCH  23  24
ENDBRANCH  22  23
ENDBRANCH  21  22
BRANCH  21  26
HETATM   26  C26 UNL     1      36.493 -13.618  27.835  1.00  0.00     0.167 C 
HETATM   27  N2  UNL     1      35.367 -13.314  28.268  1.00  0.00    -0.249 N 
ATOM     28  H2  UNL     1      35.190 -12.311  28.214  1.00  0.00     0.196 HD
BRANCH  26  29
HETATM   29  O5  UNL     1      37.323 -12.596  27.351  1.00  0.00    -0.346 OA
ATOM     30  H5  UNL     1      37.457 -11.852  27.926  1.00  0.00     0.219 HD
ENDBRANCH  26  29
BRANCH  27  31
HETATM   31  O6  UNL     1      34.341 -13.979  28.785  1.00  0.00    -0.288 OA
ATOM     32  H6  UNL     1      33.444 -13.768  29.015  1.00  0.00     0.244 HD
ENDBRANCH  27  31
ENDBRANCH  21  26
ENDBRANCH  17  21
ENDBRANCH  12  15
ENDBRANCH   9  11
BRANCH   1  33
HETATM   33  N1  UNL     1      37.192 -23.419  24.268  1.00  0.00    -0.315 N 
HETATM   34  C8  UNL     1      35.990 -23.770  24.964  1.00  0.00     0.164 C 
HETATM   35  C7  UNL     1      35.191 -24.715  24.084  1.00  0.00     0.141 C 
HETATM   36  C6  UNL     1      35.949 -25.998  23.821  1.00  0.00     0.029 C 
HETATM   37  C5  UNL     1      35.136 -26.800  22.838  1.00  0.00     0.008 C 
HETATM   38  C28 UNL     1      37.356 -25.742  23.397  1.00  0.00     0.088 C 
HETATM   39  C4  UNL     1      35.830 -28.081  22.512  1.00  0.00     0.001 C 
HETATM   40  C3  UNL     1      37.318 -27.940  22.339  1.00  0.00     0.005 C 
HETATM   41  C2  UNL     1      37.756 -26.516  22.161  1.00  0.00    -0.005 C 
HETATM   42  C1  UNL     1      37.260 -25.921  20.889  1.00  0.00     0.011 C 
HETATM   43  C27 UNL     1      37.690 -24.304  23.274  1.00  0.00     0.229 C 
HETATM   44  O8  UNL     1      38.392 -23.818  22.337  1.00  0.00    -0.273 OA
BRANCH  35  45
HETATM   45  O1  UNL     1      33.994 -24.961  24.757  1.00  0.00    -0.394 OA
ATOM     46  H1  UNL     1      34.001 -24.576  25.626  1.00  0.00     0.210 HD
ENDBRANCH  35  45
ENDBRANCH   1  33
TORSDOF 12
ENDMDL
MODEL 3
REMARK VINA RESULT: -8.715216284      1.438      1.949
REMARK  12 active torsions:
REMARK  status: ('A' for Active; 'I' for Inactive)
REMARK    1  A    between atoms: C7_7  and  O1_8 
REMARK    2  A    between atoms: N1_11  and  C9_12 
REMARK    3  A    between atoms: C16_20  and  C17_21 
REMARK    4  A    between atoms: C17_21  and  C18_22 
REMARK    5  A    between atoms: C19_24  and  C20_25 
REMARK    6  A    between atoms: C22_27  and  C23_28 
REMARK    7  A    between atoms: C23_28  and  O4_29 
REMARK    8  A    between atoms: C23_28  and  C26_33 
REMARK    9  A    between atoms: O4_29  and  C24_30 
REMARK   10  A    between atoms: C24_30  and  C25_31 
REMARK   11  A    between atoms: C26_33  and  O5_34 
REMARK   12  A    between atoms: N2_36  and  O6_38 
ROOT
HETATM    1  C9  UNL     1      38.464 -22.069  23.919  1.00  0.00     0.038 A 
HETATM    2  C10 UNL     1      37.743 -20.983  23.532  1.00  0.00     0.032 A 
HETATM    3  C11 UNL     1      38.114 -19.733  23.974  1.00  0.00     0.040 A 
HETATM    4  C12 UNL     1      39.198 -19.503  24.806  1.00  0.00     0.084 A 
HETATM    5  C13 UNL     1      39.915 -20.617  25.185  1.00  0.00     0.048 A 
HETATM    6  C14 UNL     1      39.567 -21.881  24.758  1.00  0.00     0.048 A 
HETATM    7  C15 UNL     1      40.975 -20.095  26.040  1.00  0.00     0.196 C 
HETATM    8  O2  UNL     1      42.016 -20.682  26.397  1.00  0.00    -0.289 OA
HETATM    9  C16 UNL     1      40.578 -18.713  26.415  1.00  0.00     0.239 C 
HETATM   10  O7  UNL     1      39.732 -18.346  25.355  1.00  0.00    -0.332 OA
ENDROOT
BRANCH   9  11
HETATM   11  C17 UNL     1      39.696 -18.864  27.643  1.00  0.00     0.015 C 
HETATM   12  C19 UNL     1      38.701 -18.042  27.825  1.00  0.00     0.019 C 
BRANCH  11  13
HETATM   13  C18 UNL     1      40.015 -19.931  28.562  1.00  0.00     0.268 C 
HETATM   14  O3  UNL     1      40.748 -19.834  29.553  1.00  0.00    -0.302 OA
ENDBRANCH  11  13
BRANCH  12  15
HETATM   15  C20 UNL     1      37.801 -18.126  28.993  1.00  0.00     0.212 C 
HETATM   16  C21 UNL     1      37.926 -16.925  29.878  1.00  0.00     0.073 C 
HETATM   17  C22 UNL     1      36.591 -16.406  29.394  1.00  0.00     0.225 C 
HETATM   18  N3  UNL     1      36.437 -17.675  28.686  1.00  0.00    -0.060 N 
ATOM     19  H32 UNL     1      36.142 -17.652  27.710  1.00  0.00     0.278 HD
ATOM     20  H31 UNL     1      35.657 -18.280  28.942  1.00  0.00     0.278 HD
BRANCH  17  21
HETATM   21  C23 UNL     1      36.635 -15.297  28.396  1.00  0.00     0.228 C 
BRANCH  21  22
HETATM   22  O4  UNL     1      36.530 -15.777  27.081  1.00  0.00    -0.373 OA
BRANCH  22  23
HETATM   23  C24 UNL     1      37.233 -15.011  26.186  1.00  0.00     0.200 C 
BRANCH  23  24
HETATM   24  C25 UNL     1      38.716 -15.061  26.429  1.00  0.00     0.248 C 
HETATM   25  F1  UNL     1      39.380 -15.033  25.194  1.00  0.00    -0.253 F 
ENDBRANCH  23  24
ENDBRANCH  22  23
ENDBRANCH  21  22
BRANCH  21  26
HETATM   26  C26 UNL     1      35.710 -14.189  28.641  1.00  0.00     0.167 C 
HETATM   27  N2  UNL     1      34.534 -14.314  29.028  1.00  0.00    -0.249 N 
ATOM     28  H2  UNL     1      34.065 -13.415  29.136  1.00  0.00     0.196 HD
BRANCH  26  29
HETATM   29  O5  UNL     1      36.207 -12.898  28.415  1.00  0.00    -0.346 OA
ATOM     30  H5  UNL     1      36.820 -12.561  29.058  1.00  0.00     0.219 HD
ENDBRANCH  26  29
BRANCH  27  31
HETATM   31  O6  UNL     1      33.741 -15.335  29.333  1.00  0.00    -0.288 OA
ATOM     32  H6  UNL     1      32.858 -15.430  29.669  1.00  0.00     0.244 HD
ENDBRANCH  27  31
ENDBRANCH  21  26
ENDBRANCH  17  21
ENDBRANCH  12  15
ENDBRANCH   9  11
BRANCH   1  33
HETATM   33  N1  UNL     1      38.127 -23.377  23.495  1.00  0.00    -0.315 N 
HETATM   34  C8  UNL     1      38.695 -23.864  22.273  1.00  0.00     0.164 C 
HETATM   35  C7  UNL     1      38.711 -25.381  22.329  1.00  0.00     0.141 C 
HETATM   36  C6  UNL     1      37.310 -25.944  22.429  1.00  0.00     0.029 C 
HETATM   37  C5  UNL     1      37.443 -27.433  22.614  1.00  0.00     0.008 C 
HETATM   38  C28 UNL     1      36.503 -25.259  23.481  1.00  0.00     0.088 C 
HETATM   39  C4  UNL     1      36.095 -28.065  22.740  1.00  0.00     0.001 C 
HETATM   40  C3  UNL     1      35.128 -27.272  23.577  1.00  0.00     0.005 C 
HETATM   41  C2  UNL     1      35.798 -26.221  24.411  1.00  0.00    -0.005 C 
HETATM   42  C1  UNL     1      36.682 -26.801  25.460  1.00  0.00     0.011 C 
HETATM   43  C27 UNL     1      37.254 -24.224  24.228  1.00  0.00     0.229 C 
HETATM   44  O8  UNL     1      37.163 -24.049  25.480  1.00  0.00    -0.273 OA
BRANCH  35  45
HETATM   45  O1  UNL     1      39.349 -25.811  21.165  1.00  0.00    -0.394 OA
ATOM     46  H1  UNL     1      40.228 -25.455  21.102  1.00  0.00     0.210 HD
ENDBRANCH  35  45
ENDBRANCH   1  33
TORSDOF 12
ENDMDL
MODEL 4
REMARK VINA RESULT: -8.687968450      3.497      5.337
REMARK  12 active torsions:
REMARK  status: ('A' for Active; 'I' for Inactive)
REMARK    1  A    between atoms: C7_7  and  O1_8 
REMARK    2  A    between atoms: N1_11  and  C9_12 
REMARK    3  A    between atoms: C16_20  and  C17_21 
REMARK    4  A    between atoms: C17_21  and  C18_22 
REMARK    5  A    between atoms: C19_24  and  C20_25 
REMARK    6  A    between atoms: C22_27  and  C23_28 
REMARK    7  A    between atoms: C23_28  and  O4_29 
REMARK    8  A    between atoms: C23_28  and  C26_33 
REMARK    9  A    between atoms: O4_29  and  C24_30 
REMARK   10  A    between atoms: C24_30  and  C25_31 
REMARK   11  A    between atoms: C26_33  and  O5_34 
REMARK   12  A    between atoms: N2_36  and  O6_38 
ROOT
HETATM    1  C9  UNL     1      39.265 -21.767  26.894  1.00  0.00     0.038 A 
HETATM    2  C10 UNL     1      38.372 -21.272  27.792  1.00  0.00     0.032 A 
HETATM    3  C11 UNL     1      37.386 -20.412  27.362  1.00  0.00     0.040 A 
HETATM    4  C12 UNL     1      37.240 -20.010  26.044  1.00  0.00     0.084 A 
HETATM    5  C13 UNL     1      38.154 -20.524  25.150  1.00  0.00     0.048 A 
HETATM    6  C14 UNL     1      39.153 -21.387  25.553  1.00  0.00     0.048 A 
HETATM    7  C15 UNL     1      37.776 -19.946  23.866  1.00  0.00     0.196 C 
HETATM    8  O2  UNL     1      38.137 -20.320  22.732  1.00  0.00    -0.289 OA
HETATM    9  C16 UNL     1      36.865 -18.809  24.163  1.00  0.00     0.239 C 
HETATM   10  O7  UNL     1      36.334 -19.169  25.413  1.00  0.00    -0.332 OA
ENDROOT
BRANCH   9  11
HETATM   11  C17 UNL     1      37.773 -17.616  24.405  1.00  0.00     0.015 C 
HETATM   12  C19 UNL     1      37.560 -16.843  25.432  1.00  0.00     0.019 C 
BRANCH  11  13
HETATM   13  C18 UNL     1      38.844 -17.395  23.461  1.00  0.00     0.268 C 
HETATM   14  O3  UNL     1      38.740 -16.811  22.376  1.00  0.00    -0.302 OA
ENDBRANCH  11  13
BRANCH  12  15
HETATM   15  C20 UNL     1      38.400 -15.666  25.732  1.00  0.00     0.212 C 
HETATM   16  C21 UNL     1      37.573 -14.438  25.960  1.00  0.00     0.073 C 
HETATM   17  C22 UNL     1      37.845 -14.507  27.446  1.00  0.00     0.225 C 
HETATM   18  N3  UNL     1      38.780 -15.591  27.150  1.00  0.00    -0.060 N 
ATOM     19  H32 UNL     1      38.729 -16.441  27.710  1.00  0.00     0.278 HD
ATOM     20  H31 UNL     1      39.764 -15.458  27.381  1.00  0.00     0.278 HD
BRANCH  17  21
HETATM   21  C23 UNL     1      36.741 -15.039  28.297  1.00  0.00     0.228 C 
BRANCH  21  22
HETATM   22  O4  UNL     1      37.232 -15.673  29.450  1.00  0.00    -0.373 OA
BRANCH  22  23
HETATM   23  C24 UNL     1      37.121 -17.039  29.384  1.00  0.00     0.200 C 
BRANCH  23  24
HETATM   24  C25 UNL     1      38.395 -17.737  29.772  1.00  0.00     0.248 C 
HETATM   25  F1  UNL     1      39.136 -18.007  28.613  1.00  0.00    -0.253 F 
ENDBRANCH  23  24
ENDBRANCH  22  23
ENDBRANCH  21  22
BRANCH  21  26
HETATM   26  C26 UNL     1      35.675 -14.088  28.617  1.00  0.00     0.167 C 
HETATM   27  N2  UNL     1      34.557 -14.395  29.069  1.00  0.00    -0.249 N 
ATOM     28  H2  UNL     1      33.965 -13.579  29.221  1.00  0.00     0.196 HD
BRANCH  26  29
HETATM   29  O5  UNL     1      35.955 -12.734  28.385  1.00  0.00    -0.346 OA
ATOM     30  H5  UNL     1      35.209 -12.168  28.226  1.00  0.00     0.219 HD
ENDBRANCH  26  29
BRANCH  27  31
HETATM   31  O6  UNL     1      33.949 -15.527  29.402  1.00  0.00    -0.288 OA
ATOM     32  H6  UNL     1      34.146 -16.452  29.316  1.00  0.00     0.244 HD
ENDBRANCH  27  31
ENDBRANCH  21  26
ENDBRANCH  17  21
ENDBRANCH  12  15
ENDBRANCH   9  11
BRANCH   1  33
HETATM   33  N1  UNL     1      40.298 -22.653  27.282  1.00  0.00    -0.315 N 
HETATM   34  C8  UNL     1      41.408 -22.123  28.017  1.00  0.00     0.164 C 
HETATM   35  C7  UNL     1      42.030 -23.254  28.816  1.00  0.00     0.141 C 
HETATM   36  C6  UNL     1      42.569 -24.340  27.910  1.00  0.00     0.029 C 
HETATM   37  C5  UNL     1      43.037 -25.465  28.795  1.00  0.00     0.008 C 
HETATM   38  C28 UNL     1      41.580 -24.743  26.868  1.00  0.00     0.088 C 
HETATM   39  C4  UNL     1      43.569 -26.591  27.970  1.00  0.00     0.001 C 
HETATM   40  C3  UNL     1      42.758 -26.875  26.734  1.00  0.00     0.005 C 
HETATM   41  C2  UNL     1      41.400 -26.241  26.765  1.00  0.00    -0.005 C 
HETATM   42  C1  UNL     1      40.524 -26.816  27.824  1.00  0.00     0.011 C 
HETATM   43  C27 UNL     1      40.280 -24.040  26.975  1.00  0.00     0.229 C 
HETATM   44  O8  UNL     1      39.156 -24.602  26.810  1.00  0.00    -0.273 OA
BRANCH  35  45
HETATM   45  O1  UNL     1      43.047 -22.682  29.581  1.00  0.00    -0.394 OA
ATOM     46  H1  UNL     1      43.904 -22.946  29.270  1.00  0.00     0.210 HD
ENDBRANCH  35  45
ENDBRANCH   1  33
TORSDOF 12
ENDMDL
MODEL 5
REMARK VINA RESULT: -8.664365944      2.609      3.404
REMARK  12 active torsions:
REMARK  status: ('A' for Active; 'I' for Inactive)
REMARK    1  A    between atoms: C7_7  and  O1_8 
REMARK    2  A    between atoms: N1_11  and  C9_12 
REMARK    3  A    between atoms: C16_20  and  C17_21 
REMARK    4  A    between atoms: C17_21  and  C18_22 
REMARK    5  A    between atoms: C19_24  and  C20_25 
REMARK    6  A    between atoms: C22_27  and  C23_28 
REMARK    7  A    between atoms: C23_28  and  O4_29 
REMARK    8  A    between atoms: C23_28  and  C26_33 
REMARK    9  A    between atoms: O4_29  and  C24_30 
REMARK   10  A    between atoms: C24_30  and  C25_31 
REMARK   11  A    between atoms: C26_33  and  O5_34 
REMARK   12  A    between atoms: N2_36  and  O6_38 
ROOT
HETATM    1  C9  UNL     1      38.416 -22.669  25.366  1.00  0.00     0.038 A 
HETATM    2  C10 UNL     1      39.219 -21.999  24.497  1.00  0.00     0.032 A 
HETATM    3  C11 UNL     1      40.194 -21.159  24.989  1.00  0.00     0.040 A 
HETATM    4  C12 UNL     1      40.416 -20.947  26.340  1.00  0.00     0.084 A 
HETATM    5  C13 UNL     1      39.591 -21.636  27.203  1.00  0.00     0.048 A 
HETATM    6  C14 UNL     1      38.606 -22.483  26.740  1.00  0.00     0.048 A 
HETATM    7  C15 UNL     1      40.034 -21.233  28.533  1.00  0.00     0.196 C 
HETATM    8  O2  UNL     1      39.772 -21.788  29.618  1.00  0.00    -0.289 OA
HETATM    9  C16 UNL     1      40.870 -20.017  28.352  1.00  0.00     0.239 C 
HETATM   10  O7  UNL     1      41.326 -20.160  27.031  1.00  0.00    -0.332 OA
ENDROOT
BRANCH   9  11
HETATM   11  C17 UNL     1      39.895 -18.852  28.351  1.00  0.00     0.015 C 
HETATM   12  C19 UNL     1      39.710 -18.168  27.257  1.00  0.00     0.019 C 
BRANCH  11  13
HETATM   13  C18 UNL     1      39.212 -18.557  29.589  1.00  0.00     0.268 C 
HETATM   14  O3  UNL     1      39.709 -18.623  30.720  1.00  0.00    -0.302 OA
ENDBRANCH  11  13
BRANCH  12  15
HETATM   15  C20 UNL     1      38.780 -17.025  27.179  1.00  0.00     0.212 C 
HETATM   16  C21 UNL     1      39.085 -16.139  26.010  1.00  0.00     0.073 C 
HETATM   17  C22 UNL     1      37.871 -16.659  25.274  1.00  0.00     0.225 C 
HETATM   18  N3  UNL     1      37.520 -17.367  26.504  1.00  0.00    -0.060 N 
ATOM     19  H32 UNL     1      37.258 -18.351  26.438  1.00  0.00     0.278 HD
ATOM     20  H31 UNL     1      36.643 -17.130  26.965  1.00  0.00     0.278 HD
BRANCH  17  21
HETATM   21  C23 UNL     1      38.128 -17.659  24.196  1.00  0.00     0.228 C 
BRANCH  21  22
HETATM   22  O4  UNL     1      36.950 -17.998  23.510  1.00  0.00    -0.373 OA
BRANCH  22  23
HETATM   23  C24 UNL     1      36.689 -19.344  23.552  1.00  0.00     0.200 C 
BRANCH  23  24
HETATM   24  C25 UNL     1      35.826 -19.796  22.405  1.00  0.00     0.248 C 
HETATM   25  F1  UNL     1      34.563 -20.149  22.899  1.00  0.00    -0.253 F 
ENDBRANCH  23  24
ENDBRANCH  22  23
ENDBRANCH  21  22
BRANCH  21  26
HETATM   26  C26 UNL     1      39.214 -17.327  23.272  1.00  0.00     0.167 C 
HETATM   27  N2  UNL     1      39.115 -16.551  22.305  1.00  0.00    -0.249 N 
ATOM     28  H2  UNL     1      39.991 -16.460  21.792  1.00  0.00     0.196 HD
BRANCH  26  29
HETATM   29  O5  UNL     1      40.450 -17.943  23.513  1.00  0.00    -0.346 OA
ATOM     30  H5  UNL     1      40.686 -18.659  22.936  1.00  0.00     0.219 HD
ENDBRANCH  26  29
BRANCH  27  31
HETATM   31  O6  UNL     1      38.144 -15.812  21.779  1.00  0.00    -0.288 OA
ATOM     32  H6  UNL     1      38.100 -15.096  21.157  1.00  0.00     0.244 HD
ENDBRANCH  27  31
ENDBRANCH  21  26
ENDBRANCH  17  21
ENDBRANCH  12  15
ENDBRANCH   9  11
BRANCH   1  33
HETATM   33  N1  UNL     1      37.398 -23.543  24.917  1.00  0.00    -0.315 N 
HETATM   34  C8  UNL     1      36.094 -23.001  24.674  1.00  0.00     0.164 C 
HETATM   35  C7  UNL     1      35.386 -23.899  23.675  1.00  0.00     0.141 C 
HETATM   36  C6  UNL     1      35.197 -25.296  24.225  1.00  0.00     0.029 C 
HETATM   37  C5  UNL     1      34.615 -26.135  23.117  1.00  0.00     0.008 C 
HETATM   38  C28 UNL     1      36.452 -25.840  24.819  1.00  0.00     0.088 C 
HETATM   39  C4  UNL     1      34.413 -27.541  23.579  1.00  0.00     0.001 C 
HETATM   40  C3  UNL     1      35.537 -28.068  24.430  1.00  0.00     0.005 C 
HETATM   41  C2  UNL     1      36.782 -27.236  24.339  1.00  0.00    -0.005 C 
HETATM   42  C1  UNL     1      37.400 -27.277  22.985  1.00  0.00     0.011 C 
HETATM   43  C27 UNL     1      37.614 -24.930  24.696  1.00  0.00     0.229 C 
HETATM   44  O8  UNL     1      38.787 -25.314  24.407  1.00  0.00    -0.273 OA
BRANCH  35  45
HETATM   45  O1  UNL     1      34.161 -23.292  23.399  1.00  0.00    -0.394 OA
ATOM     46  H1  UNL     1      34.167 -22.875  22.545  1.00  0.00     0.210 HD
ENDBRANCH  35  45
ENDBRANCH   1  33
TORSDOF 12
ENDMDL
