MODEL 1
REMARK VINA RESULT: -7.629152917      0.000      0.000
REMARK  5 active torsions:
REMARK  status: ('A' for Active; 'I' for Inactive)
REMARK    1  A    between atoms: C3_7  and  N3_8 
REMARK    2  A    between atoms: C4_10  and  C5_11 
REMARK    3  A    between atoms: C5_11  and  C6_12 
REMARK    4  A    between atoms: C6_12  and  N4_13 
REMARK    5  A    between atoms: C12_20  and  C13_21 
ROOT
HETATM    1  C1  UNL     1      -3.254  -1.705  11.469  1.00  0.00     0.165 C 
HETATM    2  N1  UNL     1      -3.937  -0.525  11.833  1.00  0.00    -0.230 N 
ATOM      3  H1  UNL     1      -4.878  -0.632  12.214  1.00  0.00     0.177 HD
HETATM    4  C2  UNL     1      -3.487   0.659  11.729  1.00  0.00     0.679 A 
HETATM    5  N2  UNL     1      -4.349   1.633  12.151  1.00  0.00    -0.175 N 
ATOM      6  H2  UNL     1      -5.267   1.400  12.528  1.00  0.00     0.186 HD
HETATM    7  C3  UNL     1      -3.940   2.902  12.051  1.00  0.00     0.140 A 
HETATM    8  C11 UNL     1      -2.644   3.161  11.514  1.00  0.00     0.077 A 
HETATM    9  S1  UNL     1      -1.765   4.597  11.218  1.00  0.00    -0.088 SA
HETATM   10  C12 UNL     1      -0.343   3.913  10.573  1.00  0.00    -0.007 A 
HETATM   11  C17 UNL     1      -0.604   2.570  10.610  1.00  0.00     0.047 A 
HETATM   12  C18 UNL     1      -1.806   2.187  11.103  1.00  0.00     0.071 A 
HETATM   13  N5  UNL     1      -2.279   0.900  11.229  1.00  0.00    -0.190 N 
ATOM     14  H5  UNL     1      -1.692   0.119  10.934  1.00  0.00     0.184 HD
ENDROOT
BRANCH   7  15
HETATM   15  N3  UNL     1      -4.554   3.921  12.381  1.00  0.00    -0.354 N 
HETATM   16  C4  UNL     1      -4.608   4.817  13.411  1.00  0.00     0.064 C 
ATOM     17  H3  UNL     1      -5.230   4.173  11.660  1.00  0.00     0.166 HD
BRANCH  16  18
HETATM   18  C5  UNL     1      -4.625   4.355  14.844  1.00  0.00     0.074 C 
BRANCH  18  19
HETATM   19  C6  UNL     1      -5.785   3.478  15.164  1.00  0.00     0.277 C 
BRANCH  19  20
HETATM   20  N4  UNL     1      -5.744   2.925  16.495  1.00  0.00     0.088 N 
HETATM   21  C7  UNL     1      -4.965   1.709  16.567  1.00  0.00     0.272 C 
HETATM   22  C8  UNL     1      -5.879   0.572  16.862  1.00  0.00     0.032 C 
HETATM   23  C9  UNL     1      -7.243   1.166  17.094  1.00  0.00     0.032 C 
HETATM   24  C10 UNL     1      -7.005   2.662  17.094  1.00  0.00     0.272 C 
ENDBRANCH  19  20
ENDBRANCH  18  19
ENDBRANCH  16  18
ENDBRANCH   7  15
BRANCH  10  25
HETATM   25  C13 UNL     1       0.914   4.582  10.069  1.00  0.00    -0.018 C 
HETATM   26  C14 UNL     1       1.995   4.473  11.094  1.00  0.00     0.020 C 
HETATM   27  C15 UNL     1       1.324   3.947   8.789  1.00  0.00     0.020 C 
HETATM   28  C16 UNL     1       0.555   6.042   9.876  1.00  0.00     0.020 C 
ENDBRANCH  10  25
TORSDOF 5
ENDMDL
MODEL 2
REMARK VINA RESULT: -7.474084863      0.540      1.294
REMARK  5 active torsions:
REMARK  status: ('A' for Active; 'I' for Inactive)
REMARK    1  A    between atoms: C3_7  and  N3_8 
REMARK    2  A    between atoms: C4_10  and  C5_11 
REMARK    3  A    between atoms: C5_11  and  C6_12 
REMARK    4  A    between atoms: C6_12  and  N4_13 
REMARK    5  A    between atoms: C12_20  and  C13_21 
ROOT
HETATM    1  C1  UNL     1      -3.180  -1.594  11.435  1.00  0.00     0.165 C 
HETATM    2  N1  UNL     1      -3.873  -0.416  11.787  1.00  0.00    -0.230 N 
ATOM      3  H1  UNL     1      -4.818  -0.527  12.157  1.00  0.00     0.177 HD
HETATM    4  C2  UNL     1      -3.427   0.769  11.686  1.00  0.00     0.679 A 
HETATM    5  N2  UNL     1      -4.299   1.740  12.095  1.00  0.00    -0.175 N 
ATOM      6  H2  UNL     1      -5.221   1.504  12.460  1.00  0.00     0.186 HD
HETATM    7  C3  UNL     1      -3.895   3.011  11.997  1.00  0.00     0.140 A 
HETATM    8  C11 UNL     1      -2.593   3.274  11.476  1.00  0.00     0.077 A 
HETATM    9  S1  UNL     1      -1.717   4.714  11.187  1.00  0.00    -0.088 SA
HETATM   10  C12 UNL     1      -0.284   4.035  10.562  1.00  0.00    -0.007 A 
HETATM   11  C17 UNL     1      -0.539   2.691  10.600  1.00  0.00     0.047 A 
HETATM   12  C18 UNL     1      -1.746   2.303  11.078  1.00  0.00     0.071 A 
HETATM   13  N5  UNL     1      -2.213   1.015  11.201  1.00  0.00    -0.190 N 
ATOM     14  H5  UNL     1      -1.620   0.236  10.916  1.00  0.00     0.184 HD
ENDROOT
BRANCH   7  15
HETATM   15  N3  UNL     1      -4.518   4.028  12.316  1.00  0.00    -0.354 N 
HETATM   16  C4  UNL     1      -4.555   4.955  13.319  1.00  0.00     0.064 C 
ATOM     17  H3  UNL     1      -5.224   4.243  11.611  1.00  0.00     0.166 HD
BRANCH  16  18
HETATM   18  C5  UNL     1      -4.512   4.540  14.765  1.00  0.00     0.074 C 
BRANCH  18  19
HETATM   19  C6  UNL     1      -5.860   4.468  15.394  1.00  0.00     0.277 C 
BRANCH  19  20
HETATM   20  N4  UNL     1      -6.333   3.121  15.600  1.00  0.00     0.088 N 
HETATM   21  C7  UNL     1      -6.983   2.951  16.880  1.00  0.00     0.272 C 
HETATM   22  C8  UNL     1      -6.147   2.055  17.725  1.00  0.00     0.032 C 
HETATM   23  C9  UNL     1      -5.013   1.580  16.856  1.00  0.00     0.032 C 
HETATM   24  C10 UNL     1      -5.356   2.098  15.475  1.00  0.00     0.272 C 
ENDBRANCH  19  20
ENDBRANCH  18  19
ENDBRANCH  16  18
ENDBRANCH   7  15
BRANCH  10  25
HETATM   25  C13 UNL     1       0.977   4.709  10.074  1.00  0.00    -0.018 C 
HETATM   26  C14 UNL     1       1.461   4.044   8.827  1.00  0.00     0.020 C 
HETATM   27  C15 UNL     1       0.697   6.150   9.837  1.00  0.00     0.020 C 
HETATM   28  C16 UNL     1       2.001   4.515  11.174  1.00  0.00     0.020 C 
ENDBRANCH  10  25
TORSDOF 5
ENDMDL
MODEL 3
REMARK VINA RESULT: -7.469292352      1.960      7.348
REMARK  5 active torsions:
REMARK  status: ('A' for Active; 'I' for Inactive)
REMARK    1  A    between atoms: C3_7  and  N3_8 
REMARK    2  A    between atoms: C4_10  and  C5_11 
REMARK    3  A    between atoms: C5_11  and  C6_12 
REMARK    4  A    between atoms: C6_12  and  N4_13 
REMARK    5  A    between atoms: C12_20  and  C13_21 
ROOT
HETATM    1  C1  UNL     1      -2.936  -0.875  11.155  1.00  0.00     0.165 C 
HETATM    2  N1  UNL     1      -2.657   0.505  11.241  1.00  0.00    -0.230 N 
ATOM      3  H1  UNL     1      -2.026   0.896  10.540  1.00  0.00     0.177 HD
HETATM    4  C2  UNL     1      -3.120   1.307  12.112  1.00  0.00     0.679 A 
HETATM    5  N2  UNL     1      -2.694   2.599  11.977  1.00  0.00    -0.175 N 
ATOM      6  H2  UNL     1      -2.067   2.874  11.222  1.00  0.00     0.186 HD
HETATM    7  C3  UNL     1      -3.133   3.488  12.874  1.00  0.00     0.140 A 
HETATM    8  C11 UNL     1      -4.009   3.039  13.907  1.00  0.00     0.077 A 
HETATM    9  S1  UNL     1      -4.772   3.827  15.219  1.00  0.00    -0.088 SA
HETATM   10  C12 UNL     1      -5.599   2.495  15.887  1.00  0.00    -0.007 A 
HETATM   11  C17 UNL     1      -5.249   1.466  15.054  1.00  0.00     0.047 A 
HETATM   12  C18 UNL     1      -4.419   1.759  14.025  1.00  0.00     0.071 A 
HETATM   13  N5  UNL     1      -3.937   0.888  13.074  1.00  0.00    -0.190 N 
ATOM     14  H5  UNL     1      -4.210  -0.094  13.109  1.00  0.00     0.184 HD
ENDROOT
BRANCH   7  15
HETATM   15  N3  UNL     1      -2.879   4.695  12.928  1.00  0.00    -0.354 N 
HETATM   16  C4  UNL     1      -2.540   5.726  12.097  1.00  0.00     0.064 C 
ATOM     17  H3  UNL     1      -2.942   5.025  13.891  1.00  0.00     0.166 HD
BRANCH  16  18
HETATM   18  C5  UNL     1      -1.479   5.560  11.042  1.00  0.00     0.074 C 
BRANCH  18  19
HETATM   19  C6  UNL     1      -0.108   5.427  11.605  1.00  0.00     0.277 C 
BRANCH  19  20
HETATM   20  N4  UNL     1       0.583   4.236  11.176  1.00  0.00     0.088 N 
HETATM   21  C7  UNL     1       2.008   4.438  11.046  1.00  0.00     0.272 C 
HETATM   22  C8  UNL     1       2.376   4.343   9.607  1.00  0.00     0.032 C 
HETATM   23  C9  UNL     1       1.124   3.948   8.869  1.00  0.00     0.032 C 
HETATM   24  C10 UNL     1       0.120   3.657   9.964  1.00  0.00     0.272 C 
ENDBRANCH  19  20
ENDBRANCH  18  19
ENDBRANCH  16  18
ENDBRANCH   7  15
BRANCH  10  25
HETATM   25  C13 UNL     1      -6.503   2.420  17.095  1.00  0.00    -0.018 C 
HETATM   26  C14 UNL     1      -5.720   1.989  18.292  1.00  0.00     0.020 C 
HETATM   27  C15 UNL     1      -7.130   3.749  17.317  1.00  0.00     0.020 C 
HETATM   28  C16 UNL     1      -7.540   1.363  16.770  1.00  0.00     0.020 C 
ENDBRANCH  10  25
TORSDOF 5
ENDMDL
MODEL 4
REMARK VINA RESULT: -7.418753292      2.975      5.486
REMARK  5 active torsions:
REMARK  status: ('A' for Active; 'I' for Inactive)
REMARK    1  A    between atoms: C3_7  and  N3_8 
REMARK    2  A    between atoms: C4_10  and  C5_11 
REMARK    3  A    between atoms: C5_11  and  C6_12 
REMARK    4  A    between atoms: C6_12  and  N4_13 
REMARK    5  A    between atoms: C12_20  and  C13_21 
ROOT
HETATM    1  C1  UNL     1       1.187   4.328  10.699  1.00  0.00     0.165 C 
HETATM    2  N1  UNL     1       0.399   4.086  11.844  1.00  0.00    -0.230 N 
ATOM      3  H1  UNL     1       0.813   3.512  12.580  1.00  0.00     0.177 HD
HETATM    4  C2  UNL     1      -0.780   4.517  12.042  1.00  0.00     0.679 A 
HETATM    5  N2  UNL     1      -1.328   4.140  13.236  1.00  0.00    -0.175 N 
ATOM      6  H2  UNL     1      -0.808   3.569  13.902  1.00  0.00     0.186 HD
HETATM    7  C3  UNL     1      -2.575   4.547  13.497  1.00  0.00     0.140 A 
HETATM    8  C11 UNL     1      -3.250   5.343  12.524  1.00  0.00     0.077 A 
HETATM    9  S1  UNL     1      -4.807   6.046  12.462  1.00  0.00    -0.088 SA
HETATM   10  C12 UNL     1      -4.705   6.790  10.932  1.00  0.00    -0.007 A 
HETATM   11  C17 UNL     1      -3.444   6.462  10.514  1.00  0.00     0.047 A 
HETATM   12  C18 UNL     1      -2.692   5.707  11.350  1.00  0.00     0.071 A 
HETATM   13  N5  UNL     1      -1.408   5.259  11.135  1.00  0.00    -0.190 N 
ATOM     14  H5  UNL     1      -0.932   5.500  10.266  1.00  0.00     0.184 HD
ENDROOT
BRANCH   7  15
HETATM   15  N3  UNL     1      -3.246   4.327  14.510  1.00  0.00    -0.354 N 
HETATM   16  C4  UNL     1      -3.929   3.304  15.104  1.00  0.00     0.064 C 
ATOM     17  H3  UNL     1      -3.309   5.171  15.080  1.00  0.00     0.166 HD
BRANCH  16  18
HETATM   18  C5  UNL     1      -4.856   2.421  14.312  1.00  0.00     0.074 C 
BRANCH  18  19
HETATM   19  C6  UNL     1      -4.206   1.172  13.831  1.00  0.00     0.277 C 
BRANCH  19  20
HETATM   20  N4  UNL     1      -4.303   0.979  12.405  1.00  0.00     0.088 N 
HETATM   21  C7  UNL     1      -4.259  -0.417  12.029  1.00  0.00     0.272 C 
HETATM   22  C8  UNL     1      -2.995  -0.672  11.287  1.00  0.00     0.032 C 
HETATM   23  C9  UNL     1      -2.321   0.662  11.113  1.00  0.00     0.032 C 
HETATM   24  C10 UNL     1      -3.337   1.664  11.621  1.00  0.00     0.272 C 
ENDBRANCH  19  20
ENDBRANCH  18  19
ENDBRANCH  16  18
ENDBRANCH   7  15
BRANCH  10  25
HETATM   25  C13 UNL     1      -5.727   7.613  10.183  1.00  0.00    -0.018 C 
HETATM   26  C14 UNL     1      -7.011   7.649  10.944  1.00  0.00     0.020 C 
HETATM   27  C15 UNL     1      -5.189   8.984   9.975  1.00  0.00     0.020 C 
HETATM   28  C16 UNL     1      -5.947   6.897   8.865  1.00  0.00     0.020 C 
ENDBRANCH  10  25
TORSDOF 5
ENDMDL
MODEL 5
REMARK VINA RESULT: -7.363957881      3.156      7.166
REMARK  5 active torsions:
REMARK  status: ('A' for Active; 'I' for Inactive)
REMARK    1  A    between atoms: C3_7  and  N3_8 
REMARK    2  A    between atoms: C4_10  and  C5_11 
REMARK    3  A    between atoms: C5_11  and  C6_12 
REMARK    4  A    between atoms: C6_12  and  N4_13 
REMARK    5  A    between atoms: C12_20  and  C13_21 
ROOT
HETATM    1  C1  UNL     1      -1.760   0.495  11.098  1.00  0.00     0.165 C 
HETATM    2  N1  UNL     1      -2.212   1.828  11.192  1.00  0.00    -0.230 N 
ATOM      3  H1  UNL     1      -1.874   2.484  10.488  1.00  0.00     0.177 HD
HETATM    4  C2  UNL     1      -3.002   2.286  12.076  1.00  0.00     0.679 A 
HETATM    5  N2  UNL     1      -3.286   3.617  11.948  1.00  0.00    -0.175 N 
ATOM      6  H2  UNL     1      -2.893   4.172  11.188  1.00  0.00     0.186 HD
HETATM    7  C3  UNL     1      -4.099   4.164  12.859  1.00  0.00     0.140 A 
HETATM    8  C11 UNL     1      -4.614   3.333  13.898  1.00  0.00     0.077 A 
HETATM    9  S1  UNL     1      -5.651   3.628  15.226  1.00  0.00    -0.088 SA
HETATM   10  C12 UNL     1      -5.686   2.059  15.891  1.00  0.00    -0.007 A 
HETATM   11  C17 UNL     1      -4.879   1.348  15.045  1.00  0.00     0.047 A 
HETATM   12  C18 UNL     1      -4.324   2.021  14.008  1.00  0.00     0.071 A 
HETATM   13  N5  UNL     1      -3.484   1.512  13.045  1.00  0.00    -0.190 N 
ATOM     14  H5  UNL     1      -3.225   0.525  13.074  1.00  0.00     0.184 HD
ENDROOT
BRANCH   7  15
HETATM   15  N3  UNL     1      -4.485   5.335  12.920  1.00  0.00    -0.354 N 
HETATM   16  C4  UNL     1      -4.006   6.574  13.235  1.00  0.00     0.064 C 
ATOM     17  H3  UNL     1      -5.468   5.395  12.653  1.00  0.00     0.166 HD
BRANCH  16  18
HETATM   18  C5  UNL     1      -3.169   6.797  14.467  1.00  0.00     0.074 C 
BRANCH  18  19
HETATM   19  C6  UNL     1      -1.752   7.131  14.160  1.00  0.00     0.277 C 
BRANCH  19  20
HETATM   20  N4  UNL     1      -1.548   8.507  13.782  1.00  0.00     0.088 N 
HETATM   21  C7  UNL     1      -0.274   8.722  13.133  1.00  0.00     0.272 C 
HETATM   22  C8  UNL     1       0.581   9.555  14.022  1.00  0.00     0.032 C 
HETATM   23  C9  UNL     1      -0.275   9.949  15.196  1.00  0.00     0.032 C 
HETATM   24  C10 UNL     1      -1.660   9.459  14.830  1.00  0.00     0.272 C 
ENDBRANCH  19  20
ENDBRANCH  18  19
ENDBRANCH  16  18
ENDBRANCH   7  15
BRANCH  10  25
HETATM   25  C13 UNL     1      -6.411   1.538  17.110  1.00  0.00    -0.018 C 
HETATM   26  C14 UNL     1      -5.880   0.192  17.482  1.00  0.00     0.020 C 
HETATM   27  C15 UNL     1      -6.245   2.506  18.226  1.00  0.00     0.020 C 
HETATM   28  C16 UNL     1      -7.865   1.405  16.700  1.00  0.00     0.020 C 
ENDBRANCH  10  25
TORSDOF 5
ENDMDL
