MODEL 1
REMARK VINA RESULT: -7.862376967      0.000      0.000
REMARK  4 active torsions:
REMARK  status: ('A' for Active; 'I' for Inactive)
REMARK    1  A    between atoms: C3_5  and  C4_6 
REMARK    2  A    between atoms: C4_6  and  N2_7 
REMARK    3  A    between atoms: C8_12  and  C9_13 
REMARK       I    between atoms: C9_13  and  N3_15 
REMARK    4  A    between atoms: N3_15  and  C10_17 
ROOT
HETATM    1  N2  UNL     1      -1.189   4.389  10.998  1.00  0.00    -0.344 N 
HETATM    2  C5  UNL     1      -1.179   3.799   9.727  1.00  0.00     0.070 C 
HETATM    3  C6  UNL     1      -1.284   2.306   9.655  1.00  0.00     0.071 C 
HETATM    4  C7  UNL     1      -1.009   1.709  10.990  1.00  0.00     0.174 C 
HETATM    5  O1  UNL     1      -2.252   1.509  11.614  1.00  0.00    -0.371 OA
HETATM    6  C8  UNL     1      -2.879   2.727  11.714  1.00  0.00     0.252 C 
HETATM    7  C17 UNL     1      -1.943   3.847  12.045  1.00  0.00     0.110 C 
ENDROOT
BRANCH   6   8
HETATM    8  C9  UNL     1      -4.039   2.647  12.610  1.00  0.00     0.252 C 
HETATM    9  O2  UNL     1      -5.179   2.897  12.147  1.00  0.00    -0.270 OA
HETATM   10  N3  UNL     1      -3.951   2.301  13.986  1.00  0.00    -0.354 N 
ATOM     11  H3  UNL     1      -3.029   2.098  14.370  1.00  0.00     0.162 HD
BRANCH  10  12
HETATM   12  C10 UNL     1      -5.076   2.220  14.866  1.00  0.00     0.084 C 
HETATM   13  C11 UNL     1      -5.232   3.475  15.717  1.00  0.00     0.025 C 
HETATM   14  C12 UNL     1      -6.616   3.460  16.313  1.00  0.00     0.002 C 
HETATM   15  C13 UNL     1      -6.591   2.990  17.764  1.00  0.00     0.000 C 
HETATM   16  C14 UNL     1      -6.482   1.476  17.713  1.00  0.00     0.000 C 
HETATM   17  C15 UNL     1      -5.092   1.169  17.150  1.00  0.00     0.002 C 
HETATM   18  C16 UNL     1      -5.111   0.964  15.672  1.00  0.00     0.025 C 
ENDBRANCH  10  12
ENDBRANCH   6   8
BRANCH   1  19
HETATM   19  C4  UNL     1       0.011   5.045  11.339  1.00  0.00     0.143 C 
BRANCH  19  20
HETATM   20  C3  UNL     1       1.079   5.014  10.321  1.00  0.00     0.121 A 
HETATM   21  N1  UNL     1       1.926   4.013  10.052  1.00  0.00    -0.343 N 
HETATM   22  C2  UNL     1       2.741   4.387   9.057  1.00  0.00     0.029 A 
ATOM     23  H1  UNL     1       1.947   3.111  10.527  1.00  0.00     0.167 HD
HETATM   24  C1  UNL     1       3.849   3.583   8.426  1.00  0.00     0.070 C 
HETATM   25  C18 UNL     1       2.399   5.648   8.692  1.00  0.00     0.029 A 
HETATM   26  N4  UNL     1       1.374   6.021   9.480  1.00  0.00    -0.343 N 
HETATM   27  C19 UNL     1       3.068   6.432   7.612  1.00  0.00     0.070 C 
ATOM     28  H4  UNL     1       0.898   6.922   9.445  1.00  0.00     0.167 HD
ENDBRANCH  19  20
ENDBRANCH   1  19
TORSDOF 4
ENDMDL
MODEL 2
REMARK VINA RESULT: -7.859748063      2.387      3.629
REMARK  4 active torsions:
REMARK  status: ('A' for Active; 'I' for Inactive)
REMARK    1  A    between atoms: C3_5  and  C4_6 
REMARK    2  A    between atoms: C4_6  and  N2_7 
REMARK    3  A    between atoms: C8_12  and  C9_13 
REMARK       I    between atoms: C9_13  and  N3_15 
REMARK    4  A    between atoms: N3_15  and  C10_17 
ROOT
HETATM    1  N2  UNL     1      -1.199   5.009  11.230  1.00  0.00    -0.344 N 
HETATM    2  C5  UNL     1      -1.093   4.579   9.901  1.00  0.00     0.070 C 
HETATM    3  C6  UNL     1      -1.037   3.102   9.653  1.00  0.00     0.071 C 
HETATM    4  C7  UNL     1      -0.735   2.382  10.919  1.00  0.00     0.174 C 
HETATM    5  O1  UNL     1      -1.966   1.983  11.468  1.00  0.00    -0.371 OA
HETATM    6  C8  UNL     1      -2.721   3.110  11.684  1.00  0.00     0.252 C 
HETATM    7  C17 UNL     1      -1.918   4.273  12.178  1.00  0.00     0.110 C 
ENDROOT
BRANCH   6   8
HETATM    8  C9  UNL     1      -3.890   2.806  12.519  1.00  0.00     0.252 C 
HETATM    9  O2  UNL     1      -5.016   2.713  11.971  1.00  0.00    -0.270 OA
HETATM   10  N3  UNL     1      -3.825   2.608  13.925  1.00  0.00    -0.354 N 
ATOM     11  H3  UNL     1      -2.913   2.683  14.376  1.00  0.00     0.162 HD
BRANCH  10  12
HETATM   12  C10 UNL     1      -4.958   2.310  14.746  1.00  0.00     0.084 C 
HETATM   13  C11 UNL     1      -5.238   3.412  15.762  1.00  0.00     0.025 C 
HETATM   14  C12 UNL     1      -6.627   3.200  16.302  1.00  0.00     0.002 C 
HETATM   15  C13 UNL     1      -6.595   2.529  17.671  1.00  0.00     0.000 C 
HETATM   16  C14 UNL     1      -6.357   1.052  17.410  1.00  0.00     0.000 C 
HETATM   17  C15 UNL     1      -4.934   0.942  16.855  1.00  0.00     0.002 C 
HETATM   18  C16 UNL     1      -4.904   0.952  15.364  1.00  0.00     0.025 C 
ENDBRANCH  10  12
ENDBRANCH   6   8
BRANCH   1  19
HETATM   19  C4  UNL     1      -0.084   5.739  11.691  1.00  0.00     0.143 C 
BRANCH  19  20
HETATM   20  C3  UNL     1      -0.380   6.882  12.577  1.00  0.00     0.121 A 
HETATM   21  N1  UNL     1      -1.387   7.003  13.451  1.00  0.00    -0.343 N 
HETATM   22  C2  UNL     1      -1.297   8.194  14.057  1.00  0.00     0.029 A 
ATOM     23  H1  UNL     1      -2.106   6.301  13.627  1.00  0.00     0.167 HD
HETATM   24  C1  UNL     1      -2.215   8.759  15.111  1.00  0.00     0.070 C 
HETATM   25  C18 UNL     1      -0.212   8.834  13.555  1.00  0.00     0.029 A 
HETATM   26  N4  UNL     1       0.343   8.014  12.645  1.00  0.00    -0.343 N 
HETATM   27  C19 UNL     1       0.239  10.196  13.970  1.00  0.00     0.070 C 
ATOM     28  H4  UNL     1       1.177   8.218  12.095  1.00  0.00     0.167 HD
ENDBRANCH  19  20
ENDBRANCH   1  19
TORSDOF 4
ENDMDL
MODEL 3
REMARK VINA RESULT: -7.819401441      2.506      3.865
REMARK  4 active torsions:
REMARK  status: ('A' for Active; 'I' for Inactive)
REMARK    1  A    between atoms: C3_5  and  C4_6 
REMARK    2  A    between atoms: C4_6  and  N2_7 
REMARK    3  A    between atoms: C8_12  and  C9_13 
REMARK       I    between atoms: C9_13  and  N3_15 
REMARK    4  A    between atoms: N3_15  and  C10_17 
ROOT
HETATM    1  N2  UNL     1      -1.481   5.195  10.905  1.00  0.00    -0.344 N 
HETATM    2  C5  UNL     1      -1.284   4.610   9.648  1.00  0.00     0.070 C 
HETATM    3  C6  UNL     1      -1.042   3.133   9.601  1.00  0.00     0.071 C 
HETATM    4  C7  UNL     1      -0.694   2.628  10.957  1.00  0.00     0.174 C 
HETATM    5  O1  UNL     1      -1.883   2.156  11.537  1.00  0.00    -0.371 OA
HETATM    6  C8  UNL     1      -2.776   3.199  11.588  1.00  0.00     0.252 C 
HETATM    7  C17 UNL     1      -2.135   4.507  11.933  1.00  0.00     0.110 C 
ENDROOT
BRANCH   6   8
HETATM    8  C9  UNL     1      -3.924   2.865  12.441  1.00  0.00     0.252 C 
HETATM    9  O2  UNL     1      -5.060   2.769  11.914  1.00  0.00    -0.270 OA
HETATM   10  N3  UNL     1      -3.828   2.640  13.841  1.00  0.00    -0.354 N 
ATOM     11  H3  UNL     1      -2.909   2.717  14.276  1.00  0.00     0.162 HD
BRANCH  10  12
HETATM   12  C10 UNL     1      -4.941   2.313  14.678  1.00  0.00     0.084 C 
HETATM   13  C11 UNL     1      -5.228   3.403  15.705  1.00  0.00     0.025 C 
HETATM   14  C12 UNL     1      -6.604   3.158  16.266  1.00  0.00     0.002 C 
HETATM   15  C13 UNL     1      -6.535   2.480  17.631  1.00  0.00     0.000 C 
HETATM   16  C14 UNL     1      -6.269   1.010  17.357  1.00  0.00     0.000 C 
HETATM   17  C15 UNL     1      -4.854   0.934  16.779  1.00  0.00     0.002 C 
HETATM   18  C16 UNL     1      -4.847   0.954  15.287  1.00  0.00     0.025 C 
ENDBRANCH  10  12
ENDBRANCH   6   8
BRANCH   1  19
HETATM   19  C4  UNL     1      -0.478   6.112  11.280  1.00  0.00     0.143 C 
BRANCH  19  20
HETATM   20  C3  UNL     1      -0.909   7.229  12.142  1.00  0.00     0.121 A 
HETATM   21  N1  UNL     1      -1.322   8.445  11.765  1.00  0.00    -0.343 N 
HETATM   22  C2  UNL     1      -1.621   9.162  12.855  1.00  0.00     0.029 A 
ATOM     23  H1  UNL     1      -1.397   8.772  10.802  1.00  0.00     0.167 HD
HETATM   24  C1  UNL     1      -2.125  10.581  12.911  1.00  0.00     0.070 C 
HETATM   25  C18 UNL     1      -1.394   8.381  13.941  1.00  0.00     0.029 A 
HETATM   26  N4  UNL     1      -0.955   7.193  13.486  1.00  0.00    -0.343 N 
HETATM   27  C19 UNL     1      -1.606   8.809  15.356  1.00  0.00     0.070 C 
ATOM     28  H4  UNL     1      -0.699   6.395  14.067  1.00  0.00     0.167 HD
ENDBRANCH  19  20
ENDBRANCH   1  19
TORSDOF 4
ENDMDL
MODEL 4
REMARK VINA RESULT: -7.801784087      4.357      8.357
REMARK  4 active torsions:
REMARK  status: ('A' for Active; 'I' for Inactive)
REMARK    1  A    between atoms: C3_5  and  C4_6 
REMARK    2  A    between atoms: C4_6  and  N2_7 
REMARK    3  A    between atoms: C8_12  and  C9_13 
REMARK       I    between atoms: C9_13  and  N3_15 
REMARK    4  A    between atoms: N3_15  and  C10_17 
ROOT
HETATM    1  N2  UNL     1      -3.456   3.171  12.159  1.00  0.00    -0.344 N 
HETATM    2  C5  UNL     1      -2.164   3.581  12.513  1.00  0.00     0.070 C 
HETATM    3  C6  UNL     1      -1.137   3.650  11.425  1.00  0.00     0.071 C 
HETATM    4  C7  UNL     1      -1.611   2.909  10.226  1.00  0.00     0.174 C 
HETATM    5  O1  UNL     1      -2.207   3.851   9.370  1.00  0.00    -0.371 OA
HETATM    6  C8  UNL     1      -3.241   4.448  10.048  1.00  0.00     0.252 C 
HETATM    7  C17 UNL     1      -4.006   3.496  10.913  1.00  0.00     0.110 C 
ENDROOT
BRANCH   6   8
HETATM    8  C9  UNL     1      -4.090   5.223   9.134  1.00  0.00     0.252 C 
HETATM    9  O2  UNL     1      -4.074   4.941   7.911  1.00  0.00    -0.270 OA
HETATM   10  N3  UNL     1      -4.938   6.284   9.553  1.00  0.00    -0.354 N 
ATOM     11  H3  UNL     1      -4.955   6.519  10.545  1.00  0.00     0.162 HD
BRANCH  10  12
HETATM   12  C10 UNL     1      -5.767   7.043   8.669  1.00  0.00     0.084 C 
HETATM   13  C11 UNL     1      -5.486   8.539   8.759  1.00  0.00     0.025 C 
HETATM   14  C12 UNL     1      -6.112   9.199   7.558  1.00  0.00     0.002 C 
HETATM   15  C13 UNL     1      -7.441   9.857   7.915  1.00  0.00     0.000 C 
HETATM   16  C14 UNL     1      -8.464   8.736   7.965  1.00  0.00     0.000 C 
HETATM   17  C15 UNL     1      -8.089   7.870   9.169  1.00  0.00     0.002 C 
HETATM   18  C16 UNL     1      -7.219   6.718   8.792  1.00  0.00     0.025 C 
ENDBRANCH  10  12
ENDBRANCH   6   8
BRANCH   1  19
HETATM   19  C4  UNL     1      -3.856   1.951  12.742  1.00  0.00     0.143 C 
BRANCH  19  20
HETATM   20  C3  UNL     1      -4.606   2.053  14.008  1.00  0.00     0.121 A 
HETATM   21  N1  UNL     1      -5.318   3.094  14.458  1.00  0.00    -0.343 N 
HETATM   22  C2  UNL     1      -5.842   2.781  15.650  1.00  0.00     0.029 A 
ATOM     23  H1  UNL     1      -5.443   3.981  13.971  1.00  0.00     0.167 HD
HETATM   24  C1  UNL     1      -6.713   3.645  16.526  1.00  0.00     0.070 C 
HETATM   25  C18 UNL     1      -5.452   1.518  15.957  1.00  0.00     0.029 A 
HETATM   26  N4  UNL     1      -4.691   1.083  14.936  1.00  0.00    -0.343 N 
HETATM   27  C19 UNL     1      -5.825   0.793  17.207  1.00  0.00     0.070 C 
ATOM     28  H4  UNL     1      -4.249   0.166  14.875  1.00  0.00     0.167 HD
ENDBRANCH  19  20
ENDBRANCH   1  19
TORSDOF 4
ENDMDL
MODEL 5
REMARK VINA RESULT: -7.786709273      4.354      8.251
REMARK  4 active torsions:
REMARK  status: ('A' for Active; 'I' for Inactive)
REMARK    1  A    between atoms: C3_5  and  C4_6 
REMARK    2  A    between atoms: C4_6  and  N2_7 
REMARK    3  A    between atoms: C8_12  and  C9_13 
REMARK       I    between atoms: C9_13  and  N3_15 
REMARK    4  A    between atoms: N3_15  and  C10_17 
ROOT
HETATM    1  N2  UNL     1      -3.419   3.140  12.111  1.00  0.00    -0.344 N 
HETATM    2  C5  UNL     1      -2.131   3.560  12.469  1.00  0.00     0.070 C 
HETATM    3  C6  UNL     1      -1.106   3.656  11.381  1.00  0.00     0.071 C 
HETATM    4  C7  UNL     1      -1.572   2.925  10.172  1.00  0.00     0.174 C 
HETATM    5  O1  UNL     1      -2.181   3.870   9.330  1.00  0.00    -0.371 OA
HETATM    6  C8  UNL     1      -3.221   4.446  10.017  1.00  0.00     0.252 C 
HETATM    7  C17 UNL     1      -3.974   3.474  10.870  1.00  0.00     0.110 C 
ENDROOT
BRANCH   6   8
HETATM    8  C9  UNL     1      -4.080   5.222   9.113  1.00  0.00     0.252 C 
HETATM    9  O2  UNL     1      -4.091   4.932   7.892  1.00  0.00    -0.270 OA
HETATM   10  N3  UNL     1      -4.910   6.295   9.540  1.00  0.00    -0.354 N 
ATOM     11  H3  UNL     1      -4.905   6.537  10.531  1.00  0.00     0.162 HD
BRANCH  10  12
HETATM   12  C10 UNL     1      -5.750   7.055   8.668  1.00  0.00     0.084 C 
HETATM   13  C11 UNL     1      -5.482   8.552   8.772  1.00  0.00     0.025 C 
HETATM   14  C12 UNL     1      -6.118   9.219   7.581  1.00  0.00     0.002 C 
HETATM   15  C13 UNL     1      -7.452   9.861   7.949  1.00  0.00     0.000 C 
HETATM   16  C14 UNL     1      -8.464   8.730   7.990  1.00  0.00     0.000 C 
HETATM   17  C15 UNL     1      -8.077   7.855   9.184  1.00  0.00     0.002 C 
HETATM   18  C16 UNL     1      -7.198   6.715   8.791  1.00  0.00     0.025 C 
ENDBRANCH  10  12
ENDBRANCH   6   8
BRANCH   1  19
HETATM   19  C4  UNL     1      -3.803   1.907  12.678  1.00  0.00     0.143 C 
BRANCH  19  20
HETATM   20  C3  UNL     1      -4.544   1.983  13.952  1.00  0.00     0.121 A 
HETATM   21  N1  UNL     1      -4.633   1.048  14.905  1.00  0.00    -0.343 N 
HETATM   22  C2  UNL     1      -5.402   1.511  15.899  1.00  0.00     0.029 A 
ATOM     23  H1  UNL     1      -4.188   0.130  14.879  1.00  0.00     0.167 HD
HETATM   24  C1  UNL     1      -5.777   0.803  17.176  1.00  0.00     0.070 C 
HETATM   25  C18 UNL     1      -5.802   2.764  15.566  1.00  0.00     0.029 A 
HETATM   26  N4  UNL     1      -5.266   3.040  14.364  1.00  0.00    -0.343 N 
HETATM   27  C19 UNL     1      -6.676   3.630  16.412  1.00  0.00     0.070 C 
ATOM     28  H4  UNL     1      -5.388   3.912  13.848  1.00  0.00     0.167 HD
ENDBRANCH  19  20
ENDBRANCH   1  19
TORSDOF 4
ENDMDL
