MODEL 1
REMARK VINA RESULT: -8.069425863      0.000      0.000
REMARK  5 active torsions:
REMARK  status: ('A' for Active; 'I' for Inactive)
REMARK    1  A    between atoms: C6_7  and  O2_8 
REMARK    2  A    between atoms: C8_11  and  C9_12 
REMARK    3  A    between atoms: C9_12  and  N1_13 
REMARK    4  A    between atoms: N1_13  and  C10_16 
REMARK    5  A    between atoms: N2_19  and  C13_20 
ROOT
HETATM    1  C1  UNL     1       2.235   6.700   8.776  1.00  0.00     0.020 C 
HETATM    2  C2  UNL     1       1.836   5.324   9.165  1.00  0.00     0.004 A 
HETATM    3  C3  UNL     1       2.923   4.327   8.811  1.00  0.00     0.179 A 
HETATM    4  O1  UNL     1       2.938   3.944  10.144  1.00  0.00    -0.384 OA
HETATM    5  C4  UNL     1       2.032   4.912  10.593  1.00  0.00     0.138 A 
HETATM    6  C5  UNL     1       0.747   4.222  10.984  1.00  0.00     0.048 C 
HETATM    7  C6  UNL     1      -0.245   5.101  11.651  1.00  0.00     0.125 C 
HETATM    8  C7  UNL     1      -1.491   4.303  11.891  1.00  0.00     0.038 C 
HETATM    9  C8  UNL     1      -2.012   3.549  10.720  1.00  0.00     0.014 C 
HETATM   10  C19 UNL     1      -1.102   3.121   9.667  1.00  0.00     0.011 C 
HETATM   11  C20 UNL     1       0.285   3.658   9.672  1.00  0.00    -0.004 C 
HETATM   12  C21 UNL     1       0.504   4.820   8.718  1.00  0.00     0.019 C 
ENDROOT
BRANCH   9  13
HETATM   13  C9  UNL     1      -2.741   2.337  11.308  1.00  0.00     0.237 C 
BRANCH  13  14
HETATM   14  N1  UNL     1      -4.178   2.475  11.230  1.00  0.00    -0.069 N 
ATOM     15  H12 UNL     1      -4.467   3.413  10.953  1.00  0.00     0.277 HD
ATOM     16  H11 UNL     1      -4.578   1.968  10.441  1.00  0.00     0.277 HD
BRANCH  14  17
HETATM   17  C10 UNL     1      -4.743   2.071  12.494  1.00  0.00     0.215 C 
HETATM   18  C11 UNL     1      -4.391   0.595  12.779  1.00  0.00     0.065 C 
HETATM   19  C12 UNL     1      -4.140   0.512  14.268  1.00  0.00     0.275 C 
HETATM   20  N2  UNL     1      -4.360   1.817  14.776  1.00  0.00     0.095 N 
HETATM   21  C18 UNL     1      -4.248   2.759  13.708  1.00  0.00     0.305 C 
BRANCH  20  22
HETATM   22  C13 UNL     1      -5.493   2.004  15.588  1.00  0.00     0.223 C 
HETATM   23  C14 UNL     1      -5.775   3.453  15.935  1.00  0.00     0.036 C 
HETATM   24  C15 UNL     1      -6.938   3.258  16.922  1.00  0.00     0.002 C 
HETATM   25  C16 UNL     1      -6.272   2.237  17.859  1.00  0.00     0.002 C 
HETATM   26  C17 UNL     1      -5.393   1.389  16.959  1.00  0.00     0.036 C 
ENDBRANCH  20  22
ENDBRANCH  14  17
ENDBRANCH  13  14
ENDBRANCH   9  13
BRANCH   7  27
HETATM   27  O2  UNL     1      -0.475   6.315  11.058  1.00  0.00    -0.395 OA
ATOM     28  H2  UNL     1      -0.189   6.403  10.157  1.00  0.00     0.210 HD
ENDBRANCH   7  27
TORSDOF 5
ENDMDL
MODEL 2
REMARK VINA RESULT: -7.870041648      1.417      2.070
REMARK  5 active torsions:
REMARK  status: ('A' for Active; 'I' for Inactive)
REMARK    1  A    between atoms: C6_7  and  O2_8 
REMARK    2  A    between atoms: C8_11  and  C9_12 
REMARK    3  A    between atoms: C9_12  and  N1_13 
REMARK    4  A    between atoms: N1_13  and  C10_16 
REMARK    5  A    between atoms: N2_19  and  C13_20 
ROOT
HETATM    1  C1  UNL     1       2.332   6.010   7.686  1.00  0.00     0.020 C 
HETATM    2  C2  UNL     1       1.936   4.981   8.681  1.00  0.00     0.004 A 
HETATM    3  C3  UNL     1       2.915   3.823   8.679  1.00  0.00     0.179 A 
HETATM    4  O1  UNL     1       3.108   4.048  10.033  1.00  0.00    -0.384 OA
HETATM    5  C4  UNL     1       2.321   5.203  10.112  1.00  0.00     0.138 A 
HETATM    6  C5  UNL     1       1.079   4.882  10.909  1.00  0.00     0.048 C 
HETATM    7  C6  UNL     1       0.234   6.059  11.231  1.00  0.00     0.125 C 
HETATM    8  C7  UNL     1      -0.997   5.573  11.936  1.00  0.00     0.038 C 
HETATM    9  C8  UNL     1      -1.715   4.448  11.281  1.00  0.00     0.014 C 
HETATM   10  C19 UNL     1      -0.990   3.520  10.427  1.00  0.00     0.011 C 
HETATM   11  C20 UNL     1       0.405   3.861  10.038  1.00  0.00    -0.004 C 
HETATM   12  C21 UNL     1       0.532   4.474   8.654  1.00  0.00     0.019 C 
ENDROOT
BRANCH   9  13
HETATM   13  C9  UNL     1      -2.402   3.686  12.419  1.00  0.00     0.237 C 
BRANCH  13  14
HETATM   14  N1  UNL     1      -2.011   4.182  13.719  1.00  0.00    -0.069 N 
ATOM     15  H12 UNL     1      -1.117   3.803  14.031  1.00  0.00     0.277 HD
ATOM     16  H11 UNL     1      -1.745   5.166  13.700  1.00  0.00     0.277 HD
BRANCH  14  17
HETATM   17  C10 UNL     1      -3.082   3.914  14.649  1.00  0.00     0.215 C 
HETATM   18  C11 UNL     1      -3.962   5.173  14.812  1.00  0.00     0.065 C 
HETATM   19  C12 UNL     1      -5.381   4.667  14.941  1.00  0.00     0.275 C 
HETATM   20  N2  UNL     1      -5.301   3.254  14.884  1.00  0.00     0.095 N 
HETATM   21  C18 UNL     1      -4.069   2.881  14.264  1.00  0.00     0.305 C 
BRANCH  20  22
HETATM   22  C13 UNL     1      -5.584   2.549  16.067  1.00  0.00     0.223 C 
HETATM   23  C14 UNL     1      -5.281   1.064  15.993  1.00  0.00     0.036 C 
HETATM   24  C15 UNL     1      -5.845   0.620  17.353  1.00  0.00     0.002 C 
HETATM   25  C16 UNL     1      -7.244   1.244  17.234  1.00  0.00     0.002 C 
HETATM   26  C17 UNL     1      -7.038   2.531  16.457  1.00  0.00     0.036 C 
ENDBRANCH  20  22
ENDBRANCH  14  17
ENDBRANCH  13  14
ENDBRANCH   9  13
BRANCH   7  27
HETATM   27  O2  UNL     1      -0.028   6.918  10.197  1.00  0.00    -0.395 OA
ATOM     28  H2  UNL     1      -0.942   7.030   9.964  1.00  0.00     0.210 HD
ENDBRANCH   7  27
TORSDOF 5
ENDMDL
MODEL 3
REMARK VINA RESULT: -7.641905522      2.980      8.870
REMARK  5 active torsions:
REMARK  status: ('A' for Active; 'I' for Inactive)
REMARK    1  A    between atoms: C6_7  and  O2_8 
REMARK    2  A    between atoms: C8_11  and  C9_12 
REMARK    3  A    between atoms: C9_12  and  N1_13 
REMARK    4  A    between atoms: N1_13  and  C10_16 
REMARK    5  A    between atoms: N2_19  and  C13_20 
ROOT
HETATM    1  C1  UNL     1      -6.251   2.456  18.756  1.00  0.00     0.020 C 
HETATM    2  C2  UNL     1      -5.948   1.869  17.426  1.00  0.00     0.004 A 
HETATM    3  C3  UNL     1      -6.218   0.377  17.420  1.00  0.00     0.179 A 
HETATM    4  O1  UNL     1      -7.074   0.586  16.350  1.00  0.00    -0.384 OA
HETATM    5  C4  UNL     1      -6.987   1.984  16.354  1.00  0.00     0.138 A 
HETATM    6  C5  UNL     1      -6.234   2.420  15.119  1.00  0.00     0.048 C 
HETATM    7  C6  UNL     1      -6.221   3.887  14.893  1.00  0.00     0.125 C 
HETATM    8  C7  UNL     1      -5.365   4.168  13.695  1.00  0.00     0.038 C 
HETATM    9  C8  UNL     1      -4.025   3.523  13.692  1.00  0.00     0.014 C 
HETATM   10  C19 UNL     1      -3.813   2.283  14.424  1.00  0.00     0.011 C 
HETATM   11  C20 UNL     1      -4.878   1.822  15.355  1.00  0.00    -0.004 C 
HETATM   12  C21 UNL     1      -4.618   2.159  16.813  1.00  0.00     0.019 C 
ENDROOT
BRANCH   9  13
HETATM   13  C9  UNL     1      -3.672   3.327  12.214  1.00  0.00     0.237 C 
BRANCH  13  14
HETATM   14  N1  UNL     1      -2.695   2.279  12.023  1.00  0.00    -0.069 N 
ATOM     15  H12 UNL     1      -2.247   1.996  12.894  1.00  0.00     0.277 HD
ATOM     16  H11 UNL     1      -3.121   1.383  11.789  1.00  0.00     0.277 HD
BRANCH  14  17
HETATM   17  C10 UNL     1      -1.746   2.719  11.029  1.00  0.00     0.215 C 
HETATM   18  C11 UNL     1      -2.400   3.770  10.106  1.00  0.00     0.065 C 
HETATM   19  C12 UNL     1      -1.317   4.780   9.802  1.00  0.00     0.275 C 
HETATM   20  N2  UNL     1      -0.154   4.322  10.469  1.00  0.00     0.095 N 
HETATM   21  C18 UNL     1      -0.538   3.424  11.512  1.00  0.00     0.305 C 
BRANCH  20  22
HETATM   22  C13 UNL     1       0.899   3.851   9.666  1.00  0.00     0.223 C 
HETATM   23  C14 UNL     1       2.260   4.414  10.034  1.00  0.00     0.036 C 
HETATM   24  C15 UNL     1       3.099   3.824   8.888  1.00  0.00     0.002 C 
HETATM   25  C16 UNL     1       2.236   4.298   7.707  1.00  0.00     0.002 C 
HETATM   26  C17 UNL     1       0.807   4.239   8.214  1.00  0.00     0.036 C 
ENDBRANCH  20  22
ENDBRANCH  14  17
ENDBRANCH  13  14
ENDBRANCH   9  13
BRANCH   7  27
HETATM   27  O2  UNL     1      -5.919   4.665  15.980  1.00  0.00    -0.395 OA
ATOM     28  H2  UNL     1      -5.334   5.396  15.823  1.00  0.00     0.210 HD
ENDBRANCH   7  27
TORSDOF 5
ENDMDL
MODEL 4
REMARK VINA RESULT: -7.614081203      2.849      8.683
REMARK  5 active torsions:
REMARK  status: ('A' for Active; 'I' for Inactive)
REMARK    1  A    between atoms: C6_7  and  O2_8 
REMARK    2  A    between atoms: C8_11  and  C9_12 
REMARK    3  A    between atoms: C9_12  and  N1_13 
REMARK    4  A    between atoms: N1_13  and  C10_16 
REMARK    5  A    between atoms: N2_19  and  C13_20 
ROOT
HETATM    1  C1  UNL     1      -7.424   1.689  16.351  1.00  0.00     0.020 C 
HETATM    2  C2  UNL     1      -5.987   2.053  16.261  1.00  0.00     0.004 A 
HETATM    3  C3  UNL     1      -5.249   1.647  17.522  1.00  0.00     0.179 A 
HETATM    4  O1  UNL     1      -4.388   0.910  16.722  1.00  0.00    -0.384 OA
HETATM    5  C4  UNL     1      -5.073   1.126  15.520  1.00  0.00     0.138 A 
HETATM    6  C5  UNL     1      -4.230   2.021  14.643  1.00  0.00     0.048 C 
HETATM    7  C6  UNL     1      -4.746   2.190  13.261  1.00  0.00     0.125 C 
HETATM    8  C7  UNL     1      -3.863   3.170  12.549  1.00  0.00     0.038 C 
HETATM    9  C8  UNL     1      -3.590   4.439  13.273  1.00  0.00     0.014 C 
HETATM   10  C19 UNL     1      -3.633   4.471  14.727  1.00  0.00     0.011 C 
HETATM   11  C20 UNL     1      -4.188   3.291  15.443  1.00  0.00    -0.004 C 
HETATM   12  C21 UNL     1      -5.634   3.452  15.880  1.00  0.00     0.019 C 
ENDROOT
BRANCH   9  13
HETATM   13  C9  UNL     1      -2.214   4.901  12.780  1.00  0.00     0.237 C 
BRANCH  13  14
HETATM   14  N1  UNL     1      -1.203   3.884  12.958  1.00  0.00    -0.069 N 
ATOM     15  H12 UNL     1      -0.745   3.941  13.867  1.00  0.00     0.277 HD
ATOM     16  H11 UNL     1      -1.600   2.950  13.061  1.00  0.00     0.277 HD
BRANCH  14  17
HETATM   17  C10 UNL     1      -0.271   3.973  11.860  1.00  0.00     0.215 C 
HETATM   18  C11 UNL     1      -0.631   2.931  10.779  1.00  0.00     0.065 C 
HETATM   19  C12 UNL     1      -0.353   3.601   9.453  1.00  0.00     0.275 C 
HETATM   20  N2  UNL     1       0.145   4.892   9.762  1.00  0.00     0.095 N 
HETATM   21  C18 UNL     1      -0.249   5.237  11.092  1.00  0.00     0.305 C 
BRANCH  20  22
HETATM   22  C13 UNL     1       1.501   5.137   9.484  1.00  0.00     0.223 C 
HETATM   23  C14 UNL     1       1.747   5.835   8.160  1.00  0.00     0.036 C 
HETATM   24  C15 UNL     1       3.284   5.789   8.129  1.00  0.00     0.002 C 
HETATM   25  C16 UNL     1       3.472   4.285   8.384  1.00  0.00     0.002 C 
HETATM   26  C17 UNL     1       2.344   3.900   9.324  1.00  0.00     0.036 C 
ENDBRANCH  20  22
ENDBRANCH  14  17
ENDBRANCH  13  14
ENDBRANCH   9  13
BRANCH   7  27
HETATM   27  O2  UNL     1      -6.082   2.466  13.143  1.00  0.00    -0.395 OA
ATOM     28  H2  UNL     1      -6.314   3.380  13.031  1.00  0.00     0.210 HD
ENDBRANCH   7  27
TORSDOF 5
ENDMDL
MODEL 5
REMARK VINA RESULT: -7.596747599      1.221      1.436
REMARK  5 active torsions:
REMARK  status: ('A' for Active; 'I' for Inactive)
REMARK    1  A    between atoms: C6_7  and  O2_8 
REMARK    2  A    between atoms: C8_11  and  C9_12 
REMARK    3  A    between atoms: C9_12  and  N1_13 
REMARK    4  A    between atoms: N1_13  and  C10_16 
REMARK    5  A    between atoms: N2_19  and  C13_20 
ROOT
HETATM    1  C1  UNL     1       2.720   6.299   8.259  1.00  0.00     0.020 C 
HETATM    2  C2  UNL     1       2.062   5.155   8.939  1.00  0.00     0.004 A 
HETATM    3  C3  UNL     1       3.009   3.976   9.051  1.00  0.00     0.179 A 
HETATM    4  O1  UNL     1       2.801   4.001  10.422  1.00  0.00    -0.384 OA
HETATM    5  C4  UNL     1       2.015   5.159  10.437  1.00  0.00     0.138 A 
HETATM    6  C5  UNL     1       0.598   4.773  10.789  1.00  0.00     0.048 C 
HETATM    7  C6  UNL     1      -0.312   5.921  11.022  1.00  0.00     0.125 C 
HETATM    8  C7  UNL     1      -1.691   5.384  11.266  1.00  0.00     0.038 C 
HETATM    9  C8  UNL     1      -2.181   4.388  10.277  1.00  0.00     0.014 C 
HETATM   10  C19 UNL     1      -1.232   3.564   9.542  1.00  0.00     0.011 C 
HETATM   11  C20 UNL     1       0.213   3.909   9.623  1.00  0.00    -0.004 C 
HETATM   12  C21 UNL     1       0.730   4.706   8.438  1.00  0.00     0.019 C 
ENDROOT
BRANCH   9  13
HETATM   13  C9  UNL     1      -3.161   3.498  11.047  1.00  0.00     0.237 C 
BRANCH  13  14
HETATM   14  N1  UNL     1      -4.054   4.268  11.883  1.00  0.00    -0.069 N 
ATOM     15  H12 UNL     1      -3.676   5.185  12.120  1.00  0.00     0.277 HD
ATOM     16  H11 UNL     1      -4.884   4.584  11.383  1.00  0.00     0.277 HD
BRANCH  14  17
HETATM   17  C10 UNL     1      -4.375   3.482  13.050  1.00  0.00     0.215 C 
HETATM   18  C11 UNL     1      -3.127   3.341  13.948  1.00  0.00     0.065 C 
HETATM   19  C12 UNL     1      -3.635   3.403  15.371  1.00  0.00     0.275 C 
HETATM   20  N2  UNL     1      -5.043   3.538  15.280  1.00  0.00     0.095 N 
HETATM   21  C18 UNL     1      -5.380   4.038  13.984  1.00  0.00     0.305 C 
BRANCH  20  22
HETATM   22  C13 UNL     1      -5.818   2.440  15.690  1.00  0.00     0.223 C 
HETATM   23  C14 UNL     1      -6.814   2.759  16.789  1.00  0.00     0.036 C 
HETATM   24  C15 UNL     1      -7.341   1.343  17.076  1.00  0.00     0.002 C 
HETATM   25  C16 UNL     1      -5.991   0.636  17.283  1.00  0.00     0.002 C 
HETATM   26  C17 UNL     1      -5.036   1.318  16.321  1.00  0.00     0.036 C 
ENDBRANCH  20  22
ENDBRANCH  14  17
ENDBRANCH  13  14
ENDBRANCH   9  13
BRANCH   7  27
HETATM   27  O2  UNL     1      -0.271   6.926  10.092  1.00  0.00    -0.395 OA
ATOM     28  H2  UNL     1      -0.979   6.942   9.458  1.00  0.00     0.210 HD
ENDBRANCH   7  27
TORSDOF 5
ENDMDL
