MODEL 1
REMARK VINA RESULT: -6.809813192      0.000      0.000
REMARK  3 active torsions:
REMARK  status: ('A' for Active; 'I' for Inactive)
REMARK    1  A    between atoms: C2_3  and  N1_4 
REMARK    2  A    between atoms: N1_4  and  C3_6 
REMARK    3  A    between atoms: N2_17  and  C14_18 
ROOT
HETATM    1  O1  UNL     1      -4.229   1.595  13.546  1.00  0.00    -0.271 OA
HETATM    2  C1  UNL     1      -4.561   2.774  13.904  1.00  0.00     0.242 C 
HETATM    3  C2  UNL     1      -3.911   3.809  13.109  1.00  0.00     0.170 C 
HETATM    4  C10 UNL     1      -3.833   5.164  13.698  1.00  0.00     0.034 C 
HETATM    5  C11 UNL     1      -4.590   5.399  14.949  1.00  0.00     0.004 C 
HETATM    6  C12 UNL     1      -6.049   5.105  14.684  1.00  0.00     0.020 C 
HETATM    7  C13 UNL     1      -6.310   3.807  15.430  1.00  0.00     0.126 C 
HETATM    8  N2  UNL     1      -5.477   2.743  14.981  1.00  0.00    -0.346 N 
ENDROOT
BRANCH   3   9
HETATM    9  N1  UNL     1      -2.663   3.293  12.633  1.00  0.00    -0.405 N 
ATOM     10  H1  UNL     1      -2.381   2.333  12.829  1.00  0.00     0.154 HD
BRANCH   9  11
HETATM   11  C3  UNL     1      -1.838   4.153  11.888  1.00  0.00     0.077 C 
HETATM   12  C4  UNL     1      -2.192   4.339  10.450  1.00  0.00     0.024 C 
HETATM   13  C5  UNL     1      -1.953   5.733   9.942  1.00  0.00     0.002 C 
HETATM   14  C6  UNL     1      -0.561   6.186   9.910  1.00  0.00     0.000 C 
HETATM   15  C7  UNL     1       0.342   5.636  10.977  1.00  0.00     0.000 C 
HETATM   16  C8  UNL     1       0.495   4.154  10.949  1.00  0.00     0.002 C 
HETATM   17  C9  UNL     1      -0.438   3.525  11.919  1.00  0.00     0.024 C 
ENDBRANCH   9  11
ENDBRANCH   3   9
BRANCH   8  18
HETATM   18  C14 UNL     1      -5.572   1.510  15.690  1.00  0.00     0.087 C 
HETATM   19  C15 UNL     1      -6.824   1.357  16.564  1.00  0.00     0.025 C 
HETATM   20  C16 UNL     1      -5.937   0.521  17.499  1.00  0.00     0.004 C 
HETATM   21  C17 UNL     1      -4.762   1.335  16.935  1.00  0.00     0.025 C 
ENDBRANCH   8  18
TORSDOF 3
ENDMDL
MODEL 2
REMARK VINA RESULT: -6.801112537      2.646      3.998
REMARK  3 active torsions:
REMARK  status: ('A' for Active; 'I' for Inactive)
REMARK    1  A    between atoms: C2_3  and  N1_4 
REMARK    2  A    between atoms: N1_4  and  C3_6 
REMARK    3  A    between atoms: N2_17  and  C14_18 
ROOT
HETATM    1  O1  UNL     1      -3.709   4.598  14.469  1.00  0.00    -0.271 OA
HETATM    2  C1  UNL     1      -3.935   3.662  13.632  1.00  0.00     0.242 C 
HETATM    3  C2  UNL     1      -3.680   4.063  12.254  1.00  0.00     0.170 C 
HETATM    4  C10 UNL     1      -4.331   3.269  11.188  1.00  0.00     0.034 C 
HETATM    5  C11 UNL     1      -5.020   2.025  11.600  1.00  0.00     0.004 C 
HETATM    6  C12 UNL     1      -4.012   1.127  12.281  1.00  0.00     0.020 C 
HETATM    7  C13 UNL     1      -4.407   1.168  13.748  1.00  0.00     0.126 C 
HETATM    8  N2  UNL     1      -4.373   2.486  14.285  1.00  0.00    -0.346 N 
ENDROOT
BRANCH   3   9
HETATM    9  N1  UNL     1      -3.883   5.477  12.152  1.00  0.00    -0.405 N 
ATOM     10  H1  UNL     1      -3.488   6.117  12.841  1.00  0.00     0.154 HD
BRANCH   9  11
HETATM   11  C3  UNL     1      -4.646   5.955  11.073  1.00  0.00     0.077 C 
HETATM   12  C4  UNL     1      -3.933   6.808  10.077  1.00  0.00     0.024 C 
HETATM   13  C5  UNL     1      -4.388   6.595   8.660  1.00  0.00     0.002 C 
HETATM   14  C6  UNL     1      -5.769   6.971   8.356  1.00  0.00     0.000 C 
HETATM   15  C7  UNL     1      -6.763   6.810   9.471  1.00  0.00     0.000 C 
HETATM   16  C8  UNL     1      -6.474   7.635  10.676  1.00  0.00     0.002 C 
HETATM   17  C9  UNL     1      -5.748   6.827  11.689  1.00  0.00     0.024 C 
ENDBRANCH   9  11
ENDBRANCH   3   9
BRANCH   8  18
HETATM   18  C14 UNL     1      -4.828   2.644  15.627  1.00  0.00     0.087 C 
HETATM   19  C15 UNL     1      -4.913   1.348  16.443  1.00  0.00     0.025 C 
HETATM   20  C16 UNL     1      -6.100   2.006  17.162  1.00  0.00     0.004 C 
HETATM   21  C17 UNL     1      -6.293   2.816  15.871  1.00  0.00     0.025 C 
ENDBRANCH   8  18
TORSDOF 3
ENDMDL
MODEL 3
REMARK VINA RESULT: -6.751595108      1.571      6.785
REMARK  3 active torsions:
REMARK  status: ('A' for Active; 'I' for Inactive)
REMARK    1  A    between atoms: C2_3  and  N1_4 
REMARK    2  A    between atoms: N1_4  and  C3_6 
REMARK    3  A    between atoms: N2_17  and  C14_18 
ROOT
HETATM    1  O1  UNL     1      -2.389   3.960  14.235  1.00  0.00    -0.271 OA
HETATM    2  C1  UNL     1      -2.984   3.927  13.107  1.00  0.00     0.242 C 
HETATM    3  C2  UNL     1      -4.192   3.110  13.130  1.00  0.00     0.170 C 
HETATM    4  C10 UNL     1      -4.696   2.613  11.830  1.00  0.00     0.034 C 
HETATM    5  C11 UNL     1      -4.051   3.147  10.609  1.00  0.00     0.004 C 
HETATM    6  C12 UNL     1      -4.205   4.651  10.608  1.00  0.00     0.020 C 
HETATM    7  C13 UNL     1      -2.807   5.170  10.898  1.00  0.00     0.126 C 
HETATM    8  N2  UNL     1      -2.298   4.702  12.143  1.00  0.00    -0.346 N 
ENDROOT
BRANCH   3   9
HETATM    9  N1  UNL     1      -4.033   2.101  14.133  1.00  0.00    -0.405 N 
ATOM     10  H1  UNL     1      -3.210   1.498  14.147  1.00  0.00     0.154 HD
BRANCH   9  11
HETATM   11  C3  UNL     1      -5.047   1.966  15.096  1.00  0.00     0.077 C 
HETATM   12  C4  UNL     1      -5.264   3.129  16.005  1.00  0.00     0.024 C 
HETATM   13  C5  UNL     1      -6.706   3.360  16.361  1.00  0.00     0.002 C 
HETATM   14  C6  UNL     1      -7.359   2.312  17.147  1.00  0.00     0.000 C 
HETATM   15  C7  UNL     1      -6.885   0.908  16.907  1.00  0.00     0.000 C 
HETATM   16  C8  UNL     1      -5.447   0.681  17.220  1.00  0.00     0.002 C 
HETATM   17  C9  UNL     1      -4.631   0.785  15.983  1.00  0.00     0.024 C 
ENDBRANCH   9  11
ENDBRANCH   3   9
BRANCH   8  18
HETATM   18  C14 UNL     1      -0.951   5.049  12.458  1.00  0.00     0.087 C 
HETATM   19  C15 UNL     1      -0.637   6.549  12.408  1.00  0.00     0.025 C 
HETATM   20  C16 UNL     1       0.771   6.129  11.960  1.00  0.00     0.004 C 
HETATM   21  C17 UNL     1       0.100   4.861  11.411  1.00  0.00     0.025 C 
ENDBRANCH   8  18
TORSDOF 3
ENDMDL
MODEL 4
REMARK VINA RESULT: -6.726221758      1.780      6.739
REMARK  3 active torsions:
REMARK  status: ('A' for Active; 'I' for Inactive)
REMARK    1  A    between atoms: C2_3  and  N1_4 
REMARK    2  A    between atoms: N1_4  and  C3_6 
REMARK    3  A    between atoms: N2_17  and  C14_18 
ROOT
HETATM    1  O1  UNL     1      -4.808   3.534  11.999  1.00  0.00    -0.271 OA
HETATM    2  C1  UNL     1      -4.050   4.402  12.547  1.00  0.00     0.242 C 
HETATM    3  C2  UNL     1      -4.238   4.486  13.990  1.00  0.00     0.170 C 
HETATM    4  C10 UNL     1      -3.793   5.729  14.658  1.00  0.00     0.034 C 
HETATM    5  C11 UNL     1      -3.020   6.693  13.842  1.00  0.00     0.004 C 
HETATM    6  C12 UNL     1      -1.785   5.992  13.322  1.00  0.00     0.020 C 
HETATM    7  C13 UNL     1      -2.057   5.810  11.838  1.00  0.00     0.126 C 
HETATM    8  N2  UNL     1      -3.231   5.044  11.589  1.00  0.00    -0.346 N 
ENDROOT
BRANCH   3   9
HETATM    9  N1  UNL     1      -5.583   4.096  14.292  1.00  0.00    -0.405 N 
ATOM     10  H1  UNL     1      -6.377   4.604  13.903  1.00  0.00     0.154 HD
BRANCH   9  11
HETATM   11  C3  UNL     1      -5.772   2.992  15.141  1.00  0.00     0.077 C 
HETATM   12  C4  UNL     1      -6.436   3.263  16.450  1.00  0.00     0.024 C 
HETATM   13  C5  UNL     1      -7.353   2.163  16.904  1.00  0.00     0.002 C 
HETATM   14  C6  UNL     1      -6.724   0.877  17.212  1.00  0.00     0.000 C 
HETATM   15  C7  UNL     1      -5.505   0.523  16.409  1.00  0.00     0.000 C 
HETATM   16  C8  UNL     1      -4.368   1.472  16.568  1.00  0.00     0.002 C 
HETATM   17  C9  UNL     1      -4.368   2.462  15.461  1.00  0.00     0.024 C 
ENDBRANCH   9  11
ENDBRANCH   3   9
BRANCH   8  18
HETATM   18  C14 UNL     1      -3.630   4.905  10.227  1.00  0.00     0.087 C 
HETATM   19  C15 UNL     1      -2.482   4.702   9.230  1.00  0.00     0.025 C 
HETATM   20  C16 UNL     1      -3.360   5.465   8.227  1.00  0.00     0.004 C 
HETATM   21  C17 UNL     1      -3.992   6.135   9.457  1.00  0.00     0.025 C 
ENDBRANCH   8  18
TORSDOF 3
ENDMDL
MODEL 5
REMARK VINA RESULT: -6.684657226      2.447      6.608
REMARK  3 active torsions:
REMARK  status: ('A' for Active; 'I' for Inactive)
REMARK    1  A    between atoms: C2_3  and  N1_4 
REMARK    2  A    between atoms: N1_4  and  C3_6 
REMARK    3  A    between atoms: N2_17  and  C14_18 
ROOT
HETATM    1  O1  UNL     1      -4.824   4.210  11.511  1.00  0.00    -0.271 OA
HETATM    2  C1  UNL     1      -4.147   4.893  12.350  1.00  0.00     0.242 C 
HETATM    3  C2  UNL     1      -3.568   4.073  13.408  1.00  0.00     0.170 C 
HETATM    4  C10 UNL     1      -3.180   4.761  14.659  1.00  0.00     0.034 C 
HETATM    5  C11 UNL     1      -3.227   6.241  14.657  1.00  0.00     0.004 C 
HETATM    6  C12 UNL     1      -2.314   6.745  13.562  1.00  0.00     0.020 C 
HETATM    7  C13 UNL     1      -3.262   7.270  12.497  1.00  0.00     0.126 C 
HETATM    8  N2  UNL     1      -4.148   6.266  12.012  1.00  0.00    -0.346 N 
ENDROOT
BRANCH   3   9
HETATM    9  N1  UNL     1      -4.402   2.924  13.594  1.00  0.00    -0.405 N 
ATOM     10  H1  UNL     1      -4.615   2.297  12.818  1.00  0.00     0.154 HD
BRANCH   9  11
HETATM   11  C3  UNL     1      -4.919   2.689  14.880  1.00  0.00     0.077 C 
HETATM   12  C4  UNL     1      -5.081   1.261  15.283  1.00  0.00     0.024 C 
HETATM   13  C5  UNL     1      -4.787   1.003  16.734  1.00  0.00     0.002 C 
HETATM   14  C6  UNL     1      -5.685   1.633  17.703  1.00  0.00     0.000 C 
HETATM   15  C7  UNL     1      -6.272   2.957  17.304  1.00  0.00     0.000 C 
HETATM   16  C8  UNL     1      -7.118   2.911  16.079  1.00  0.00     0.002 C 
HETATM   17  C9  UNL     1      -6.321   3.312  14.891  1.00  0.00     0.024 C 
ENDBRANCH   9  11
ENDBRANCH   3   9
BRANCH   8  18
HETATM   18  C14 UNL     1      -5.148   6.685  11.086  1.00  0.00     0.087 C 
HETATM   19  C15 UNL     1      -4.906   8.057  10.444  1.00  0.00     0.025 C 
HETATM   20  C16 UNL     1      -6.436   8.194  10.419  1.00  0.00     0.004 C 
HETATM   21  C17 UNL     1      -6.434   7.233  11.617  1.00  0.00     0.025 C 
ENDBRANCH   8  18
TORSDOF 3
ENDMDL
