MODEL 1
REMARK VINA RESULT: -6.795309871      0.000      0.000
REMARK  3 active torsions:
REMARK  status: ('A' for Active; 'I' for Inactive)
REMARK       I    between atoms: C1_2  and  N1_3 
REMARK    1  A    between atoms: C1_2  and  C6_9 
REMARK    2  A    between atoms: N1_3  and  C2_5 
REMARK    3  A    between atoms: C2_5  and  C3_6 
ROOT
HETATM    1  C6  UNL     1      -3.521   3.484  13.693  1.00  0.00     0.084 C 
HETATM    2  C7  UNL     1      -2.982   4.391  14.750  1.00  0.00     0.019 C 
HETATM    3  C8  UNL     1      -3.513   5.805  14.611  1.00  0.00    -0.013 C 
HETATM    4  C9  UNL     1      -5.014   5.675  14.478  1.00  0.00     0.010 C 
HETATM    5  C10 UNL     1      -5.274   5.187  13.068  1.00  0.00    -0.007 C 
HETATM    6  C11 UNL     1      -4.981   6.412  12.201  1.00  0.00     0.011 C 
HETATM    7  C12 UNL     1      -3.450   6.284  12.144  1.00  0.00     0.006 C 
HETATM    8  C13 UNL     1      -2.893   6.557  13.499  1.00  0.00     0.011 C 
HETATM    9  C14 UNL     1      -3.336   4.870  11.699  1.00  0.00     0.025 A 
HETATM   10  C15 UNL     1      -2.089   4.270  11.208  1.00  0.00     0.096 A 
HETATM   11  S1  UNL     1      -3.370   4.569   9.932  1.00  0.00    -0.156 SA
HETATM   12  C16 UNL     1      -4.287   4.152  12.615  1.00  0.00     0.022 C 
ENDROOT
BRANCH   1  13
HETATM   13  C1  UNL     1      -4.264   2.315  14.280  1.00  0.00     0.222 C 
HETATM   14  O1  UNL     1      -4.998   1.582  13.576  1.00  0.00    -0.273 OA
HETATM   15  N1  UNL     1      -4.162   1.997  15.662  1.00  0.00    -0.360 N 
ATOM     16  H1  UNL     1      -3.572   2.579  16.257  1.00  0.00     0.162 HD
BRANCH  15  17
HETATM   17  C2  UNL     1      -4.856   0.892  16.251  1.00  0.00     0.127 C 
BRANCH  17  18
HETATM   18  C3  UNL     1      -5.784   1.344  17.329  1.00  0.00     0.003 A 
HETATM   19  C4  UNL     1      -6.747   2.455  17.068  1.00  0.00     0.007 A 
HETATM   20  C5  UNL     1      -7.254   1.077  17.028  1.00  0.00     0.007 A 
ENDBRANCH  17  18
ENDBRANCH  15  17
ENDBRANCH   1  13
TORSDOF 3
ENDMDL
MODEL 2
REMARK VINA RESULT: -6.369210093      1.448      2.077
REMARK  3 active torsions:
REMARK  status: ('A' for Active; 'I' for Inactive)
REMARK       I    between atoms: C1_2  and  N1_3 
REMARK    1  A    between atoms: C1_2  and  C6_9 
REMARK    2  A    between atoms: N1_3  and  C2_5 
REMARK    3  A    between atoms: C2_5  and  C3_6 
ROOT
HETATM    1  C6  UNL     1      -3.982   3.982  12.587  1.00  0.00     0.084 C 
HETATM    2  C7  UNL     1      -2.560   3.551  12.433  1.00  0.00     0.019 C 
HETATM    3  C8  UNL     1      -1.589   4.640  12.849  1.00  0.00    -0.013 C 
HETATM    4  C9  UNL     1      -2.050   5.113  14.209  1.00  0.00     0.010 C 
HETATM    5  C10 UNL     1      -3.274   5.972  13.967  1.00  0.00    -0.007 C 
HETATM    6  C11 UNL     1      -2.704   7.253  13.358  1.00  0.00     0.011 C 
HETATM    7  C12 UNL     1      -2.550   6.764  11.909  1.00  0.00     0.006 C 
HETATM    8  C13 UNL     1      -1.476   5.733  11.859  1.00  0.00     0.011 C 
HETATM    9  C14 UNL     1      -3.923   6.241  11.678  1.00  0.00     0.025 A 
HETATM   10  C15 UNL     1      -4.447   5.888  10.352  1.00  0.00     0.096 A 
HETATM   11  S1  UNL     1      -5.151   7.410  11.093  1.00  0.00    -0.156 SA
HETATM   12  C16 UNL     1      -4.179   5.415  12.907  1.00  0.00     0.022 C 
ENDROOT
BRANCH   1  13
HETATM   13  C1  UNL     1      -4.747   3.080  13.515  1.00  0.00     0.222 C 
HETATM   14  O1  UNL     1      -5.992   3.154  13.627  1.00  0.00    -0.273 OA
HETATM   15  N1  UNL     1      -4.081   2.103  14.307  1.00  0.00    -0.360 N 
ATOM     16  H1  UNL     1      -3.067   2.023  14.235  1.00  0.00     0.162 HD
BRANCH  15  17
HETATM   17  C2  UNL     1      -4.779   1.230  15.200  1.00  0.00     0.127 C 
BRANCH  17  18
HETATM   18  C3  UNL     1      -4.929   1.841  16.554  1.00  0.00     0.003 A 
HETATM   19  C4  UNL     1      -6.267   2.317  17.013  1.00  0.00     0.007 A 
HETATM   20  C5  UNL     1      -5.787   1.020  17.509  1.00  0.00     0.007 A 
ENDBRANCH  17  18
ENDBRANCH  15  17
ENDBRANCH   1  13
TORSDOF 3
ENDMDL
MODEL 3
REMARK VINA RESULT: -6.266052828      1.791      2.777
REMARK  3 active torsions:
REMARK  status: ('A' for Active; 'I' for Inactive)
REMARK       I    between atoms: C1_2  and  N1_3 
REMARK    1  A    between atoms: C1_2  and  C6_9 
REMARK    2  A    between atoms: N1_3  and  C2_5 
REMARK    3  A    between atoms: C2_5  and  C3_6 
ROOT
HETATM    1  C6  UNL     1      -3.785   5.469  14.017  1.00  0.00     0.084 C 
HETATM    2  C7  UNL     1      -5.078   5.846  13.370  1.00  0.00     0.019 C 
HETATM    3  C8  UNL     1      -4.945   5.966  11.864  1.00  0.00    -0.013 C 
HETATM    4  C9  UNL     1      -4.258   4.700  11.404  1.00  0.00     0.010 C 
HETATM    5  C10 UNL     1      -2.798   4.850  11.779  1.00  0.00    -0.007 C 
HETATM    6  C11 UNL     1      -2.271   5.881  10.781  1.00  0.00     0.011 C 
HETATM    7  C12 UNL     1      -2.760   7.153  11.494  1.00  0.00     0.006 C 
HETATM    8  C13 UNL     1      -4.248   7.197  11.433  1.00  0.00     0.011 C 
HETATM    9  C14 UNL     1      -2.202   6.906  12.850  1.00  0.00     0.025 A 
HETATM   10  C15 UNL     1      -2.124   7.933  13.897  1.00  0.00     0.096 A 
HETATM   11  S1  UNL     1      -0.521   7.454  13.149  1.00  0.00    -0.156 SA
HETATM   12  C16 UNL     1      -2.602   5.484  13.125  1.00  0.00     0.022 C 
ENDROOT
BRANCH   1  13
HETATM   13  C1  UNL     1      -3.897   4.187  14.794  1.00  0.00     0.222 C 
HETATM   14  O1  UNL     1      -2.889   3.617  15.271  1.00  0.00    -0.273 OA
HETATM   15  N1  UNL     1      -5.159   3.570  15.017  1.00  0.00    -0.360 N 
ATOM     16  H1  UNL     1      -5.995   4.013  14.638  1.00  0.00     0.162 HD
BRANCH  15  17
HETATM   17  C2  UNL     1      -5.299   2.350  15.752  1.00  0.00     0.127 C 
BRANCH  17  18
HETATM   18  C3  UNL     1      -6.528   2.363  16.600  1.00  0.00     0.003 A 
HETATM   19  C4  UNL     1      -7.080   1.083  17.134  1.00  0.00     0.007 A 
HETATM   20  C5  UNL     1      -6.288   1.926  18.040  1.00  0.00     0.007 A 
ENDBRANCH  17  18
ENDBRANCH  15  17
ENDBRANCH   1  13
TORSDOF 3
ENDMDL
MODEL 4
REMARK VINA RESULT: -6.244388754      1.199      1.504
REMARK  3 active torsions:
REMARK  status: ('A' for Active; 'I' for Inactive)
REMARK       I    between atoms: C1_2  and  N1_3 
REMARK    1  A    between atoms: C1_2  and  C6_9 
REMARK    2  A    between atoms: N1_3  and  C2_5 
REMARK    3  A    between atoms: C2_5  and  C3_6 
ROOT
HETATM    1  C6  UNL     1      -3.399   4.043  13.111  1.00  0.00     0.084 C 
HETATM    2  C7  UNL     1      -2.376   4.304  14.167  1.00  0.00     0.019 C 
HETATM    3  C8  UNL     1      -1.988   5.769  14.233  1.00  0.00    -0.013 C 
HETATM    4  C9  UNL     1      -3.287   6.541  14.288  1.00  0.00     0.010 C 
HETATM    5  C10 UNL     1      -3.858   6.513  12.886  1.00  0.00    -0.007 C 
HETATM    6  C11 UNL     1      -2.952   7.466  12.106  1.00  0.00     0.011 C 
HETATM    7  C12 UNL     1      -1.788   6.498  11.835  1.00  0.00     0.006 C 
HETATM    8  C13 UNL     1      -1.106   6.192  13.124  1.00  0.00     0.011 C 
HETATM    9  C14 UNL     1      -2.545   5.360  11.248  1.00  0.00     0.025 A 
HETATM   10  C15 UNL     1      -1.912   4.239  10.543  1.00  0.00     0.096 A 
HETATM   11  S1  UNL     1      -2.843   5.407   9.481  1.00  0.00    -0.156 SA
HETATM   12  C16 UNL     1      -3.686   5.184  12.211  1.00  0.00     0.022 C 
ENDROOT
BRANCH   1  13
HETATM   13  C1  UNL     1      -4.651   3.434  13.678  1.00  0.00     0.222 C 
HETATM   14  O1  UNL     1      -5.489   2.854  12.949  1.00  0.00    -0.273 OA
HETATM   15  N1  UNL     1      -4.934   3.496  15.070  1.00  0.00    -0.360 N 
ATOM     16  H1  UNL     1      -4.269   3.964  15.685  1.00  0.00     0.162 HD
BRANCH  15  17
HETATM   17  C2  UNL     1      -6.117   2.928  15.642  1.00  0.00     0.127 C 
BRANCH  17  18
HETATM   18  C3  UNL     1      -5.787   1.832  16.600  1.00  0.00     0.003 A 
HETATM   19  C4  UNL     1      -6.229   1.927  18.023  1.00  0.00     0.007 A 
HETATM   20  C5  UNL     1      -7.005   1.074  17.114  1.00  0.00     0.007 A 
ENDBRANCH  17  18
ENDBRANCH  15  17
ENDBRANCH   1  13
TORSDOF 3
ENDMDL
MODEL 5
REMARK VINA RESULT: -6.193351703      1.759      2.504
REMARK  3 active torsions:
REMARK  status: ('A' for Active; 'I' for Inactive)
REMARK       I    between atoms: C1_2  and  N1_3 
REMARK    1  A    between atoms: C1_2  and  C6_9 
REMARK    2  A    between atoms: N1_3  and  C2_5 
REMARK    3  A    between atoms: C2_5  and  C3_6 
ROOT
HETATM    1  C6  UNL     1      -4.374   4.909  12.944  1.00  0.00     0.084 C 
HETATM    2  C7  UNL     1      -3.268   3.906  12.956  1.00  0.00     0.019 C 
HETATM    3  C8  UNL     1      -1.920   4.549  13.219  1.00  0.00    -0.013 C 
HETATM    4  C9  UNL     1      -2.106   5.423  14.439  1.00  0.00     0.010 C 
HETATM    5  C10 UNL     1      -2.863   6.649  13.972  1.00  0.00    -0.007 C 
HETATM    6  C11 UNL     1      -1.823   7.434  13.172  1.00  0.00     0.011 C 
HETATM    7  C12 UNL     1      -1.925   6.657  11.849  1.00  0.00     0.006 C 
HETATM    8  C13 UNL     1      -1.383   5.284  12.053  1.00  0.00     0.011 C 
HETATM    9  C14 UNL     1      -3.396   6.719  11.639  1.00  0.00     0.025 A 
HETATM   10  C15 UNL     1      -4.053   6.369  10.373  1.00  0.00     0.096 A 
HETATM   11  S1  UNL     1      -4.035   8.156  10.778  1.00  0.00    -0.156 SA
HETATM   12  C16 UNL     1      -3.944   6.327  12.982  1.00  0.00     0.022 C 
ENDROOT
BRANCH   1  13
HETATM   13  C1  UNL     1      -5.423   4.604  13.977  1.00  0.00     0.222 C 
HETATM   14  O1  UNL     1      -6.445   5.316  14.107  1.00  0.00    -0.273 OA
HETATM   15  N1  UNL     1      -5.293   3.489  14.850  1.00  0.00    -0.360 N 
ATOM     16  H1  UNL     1      -4.470   2.893  14.765  1.00  0.00     0.162 HD
BRANCH  15  17
HETATM   17  C2  UNL     1      -6.273   3.170  15.843  1.00  0.00     0.127 C 
BRANCH  17  18
HETATM   18  C3  UNL     1      -5.890   1.951  16.615  1.00  0.00     0.003 A 
HETATM   19  C4  UNL     1      -6.271   1.829  18.053  1.00  0.00     0.007 A 
HETATM   20  C5  UNL     1      -7.078   1.106  17.061  1.00  0.00     0.007 A 
ENDBRANCH  17  18
ENDBRANCH  15  17
ENDBRANCH   1  13
TORSDOF 3
ENDMDL
