MODEL 1
REMARK VINA RESULT: -7.495064656      0.000      0.000
REMARK  3 active torsions:
REMARK  status: ('A' for Active; 'I' for Inactive)
REMARK    1  A    between atoms: C2_3  and  C3_4 
REMARK    2  A    between atoms: C9_14  and  O1_15 
REMARK    3  A    between atoms: O1_15  and  C10_16 
ROOT
HETATM    1  N1  UNL     1     -23.280  -9.976   0.183  1.00  0.00    -0.197 NA
HETATM    2  C1  UNL     1     -24.294 -10.388   0.564  1.00  0.00     0.064 C 
HETATM    3  C2  UNL     1     -25.556 -10.885   1.055  1.00  0.00     0.176 C 
ENDROOT
BRANCH   3   4
HETATM    4  C3  UNL     1     -26.670  -9.880   0.830  1.00  0.00     0.003 C 
HETATM    5  N2  UNL     1     -26.561  -8.688   1.248  1.00  0.00    -0.362 N 
HETATM    6  C4  UNL     1     -27.589  -7.721   1.043  1.00  0.00     0.043 A 
ATOM      7  H2  UNL     1     -25.714  -8.412   1.745  1.00  0.00     0.165 HD
HETATM    8  C5  UNL     1     -27.381  -6.477   1.604  1.00  0.00     0.047 A 
HETATM    9  C8  UNL     1     -28.741  -8.058   0.368  1.00  0.00     0.013 A 
HETATM   10  C6  UNL     1     -28.405  -5.568   1.455  1.00  0.00     0.090 A 
HETATM   11  N3  UNL     1     -29.520  -5.900   0.802  1.00  0.00    -0.374 N 
HETATM   12  C7  UNL     1     -29.727  -7.104   0.254  1.00  0.00     0.099 A 
ATOM     13  H3  UNL     1     -30.255  -5.198   0.715  1.00  0.00     0.164 HD
HETATM   14  C9  UNL     1     -28.849  -9.357  -0.235  1.00  0.00     0.164 C 
HETATM   15  C20 UNL     1     -27.870 -10.383   0.171  1.00  0.00     0.090 C 
BRANCH  14  16
HETATM   16  O1  UNL     1     -30.091  -9.942  -0.240  1.00  0.00    -0.375 OA
BRANCH  16  17
HETATM   17  C10 UNL     1     -30.258 -11.078   0.478  1.00  0.00     0.127 C 
HETATM   18  C11 UNL     1     -30.967 -12.233  -0.175  1.00  0.00     0.037 C 
HETATM   19  C12 UNL     1     -31.792 -12.349   1.118  1.00  0.00    -0.005 C 
HETATM   20  C13 UNL     1     -33.187 -12.699   0.802  1.00  0.00     0.010 C 
HETATM   21  C19 UNL     1     -31.492 -10.925   1.355  1.00  0.00     0.019 C 
HETATM   22  C14 UNL     1     -34.251 -12.084   1.616  1.00  0.00    -0.013 C 
HETATM   23  C15 UNL     1     -33.816 -11.096   2.636  1.00  0.00     0.009 C 
HETATM   24  C17 UNL     1     -34.844 -10.898   0.838  1.00  0.00     0.009 C 
HETATM   25  C16 UNL     1     -33.786 -10.047   1.560  1.00  0.00    -0.013 C 
HETATM   26  C18 UNL     1     -32.541 -10.036   0.746  1.00  0.00     0.012 C 
ENDBRANCH  16  17
ENDBRANCH  14  16
ENDBRANCH   3   4
TORSDOF 3
ENDMDL
MODEL 2
REMARK VINA RESULT: -7.466506210      2.024      2.765
REMARK  3 active torsions:
REMARK  status: ('A' for Active; 'I' for Inactive)
REMARK    1  A    between atoms: C2_3  and  C3_4 
REMARK    2  A    between atoms: C9_14  and  O1_15 
REMARK    3  A    between atoms: O1_15  and  C10_16 
ROOT
HETATM    1  N1  UNL     1     -23.284  -9.936   0.133  1.00  0.00    -0.197 NA
HETATM    2  C1  UNL     1     -24.288 -10.261   0.612  1.00  0.00     0.064 C 
HETATM    3  C2  UNL     1     -25.535 -10.650   1.224  1.00  0.00     0.176 C 
ENDROOT
BRANCH   3   4
HETATM    4  C3  UNL     1     -26.632  -9.646   0.924  1.00  0.00     0.003 C 
HETATM    5  N2  UNL     1     -26.641  -8.509   1.485  1.00  0.00    -0.362 N 
HETATM    6  C4  UNL     1     -27.655  -7.544   1.215  1.00  0.00     0.043 A 
ATOM      7  H2  UNL     1     -25.901  -8.278   2.148  1.00  0.00     0.165 HD
HETATM    8  C5  UNL     1     -27.593  -6.370   1.939  1.00  0.00     0.047 A 
HETATM    9  C8  UNL     1     -28.663  -7.821   0.319  1.00  0.00     0.013 A 
HETATM   10  C6  UNL     1     -28.611  -5.469   1.719  1.00  0.00     0.090 A 
HETATM   11  N3  UNL     1     -29.586  -5.743   0.851  1.00  0.00    -0.374 N 
HETATM   12  C7  UNL     1     -29.652  -6.879   0.145  1.00  0.00     0.099 A 
ATOM     13  H3  UNL     1     -30.322  -5.050   0.717  1.00  0.00     0.164 HD
HETATM   14  C9  UNL     1     -28.619  -9.043  -0.435  1.00  0.00     0.164 C 
HETATM   15  C20 UNL     1     -27.683 -10.091   0.017  1.00  0.00     0.090 C 
BRANCH  14  16
HETATM   16  O1  UNL     1     -29.818  -9.646  -0.719  1.00  0.00    -0.375 OA
BRANCH  16  17
HETATM   17  C10 UNL     1     -30.077  -9.966  -2.009  1.00  0.00     0.127 C 
HETATM   18  C11 UNL     1     -31.484  -9.799  -2.514  1.00  0.00     0.037 C 
HETATM   19  C12 UNL     1     -31.342 -11.205  -3.122  1.00  0.00    -0.005 C 
HETATM   20  C13 UNL     1     -32.611 -11.943  -2.999  1.00  0.00     0.010 C 
HETATM   21  C19 UNL     1     -30.310 -11.467  -2.103  1.00  0.00     0.019 C 
HETATM   22  C14 UNL     1     -32.542 -13.386  -2.704  1.00  0.00    -0.013 C 
HETATM   23  C15 UNL     1     -31.186 -13.949  -2.477  1.00  0.00     0.009 C 
HETATM   24  C17 UNL     1     -32.792 -13.595  -1.203  1.00  0.00     0.009 C 
HETATM   25  C16 UNL     1     -31.266 -13.480  -1.051  1.00  0.00    -0.013 C 
HETATM   26  C18 UNL     1     -30.908 -12.049  -0.853  1.00  0.00     0.012 C 
ENDBRANCH  16  17
ENDBRANCH  14  16
ENDBRANCH   3   4
TORSDOF 3
ENDMDL
MODEL 3
REMARK VINA RESULT: -7.375287739      1.774      4.373
REMARK  3 active torsions:
REMARK  status: ('A' for Active; 'I' for Inactive)
REMARK    1  A    between atoms: C2_3  and  C3_4 
REMARK    2  A    between atoms: C9_14  and  O1_15 
REMARK    3  A    between atoms: O1_15  and  C10_16 
ROOT
HETATM    1  N1  UNL     1     -28.545  -5.411   3.170  1.00  0.00    -0.197 NA
HETATM    2  C1  UNL     1     -28.250  -5.681   2.082  1.00  0.00     0.064 C 
HETATM    3  C2  UNL     1     -27.860  -6.016   0.734  1.00  0.00     0.176 C 
ENDROOT
BRANCH   3   4
HETATM    4  C3  UNL     1     -27.366  -7.447   0.643  1.00  0.00     0.003 C 
HETATM    5  N2  UNL     1     -26.126  -7.706   0.640  1.00  0.00    -0.362 N 
HETATM    6  C4  UNL     1     -25.635  -9.042   0.563  1.00  0.00     0.043 A 
ATOM      7  H2  UNL     1     -25.459  -6.936   0.694  1.00  0.00     0.165 HD
HETATM    8  C5  UNL     1     -24.264  -9.189   0.500  1.00  0.00     0.047 A 
HETATM    9  C8  UNL     1     -26.508 -10.105   0.499  1.00  0.00     0.013 A 
HETATM   10  C6  UNL     1     -23.799 -10.478   0.363  1.00  0.00     0.090 A 
HETATM   11  N3  UNL     1     -24.649 -11.504   0.299  1.00  0.00    -0.374 N 
HETATM   12  C7  UNL     1     -25.980 -11.369   0.361  1.00  0.00     0.099 A 
ATOM     13  H3  UNL     1     -24.265 -12.443   0.197  1.00  0.00     0.164 HD
HETATM   14  C9  UNL     1     -27.918  -9.867   0.631  1.00  0.00     0.164 C 
HETATM   15  C20 UNL     1     -28.391  -8.475   0.500  1.00  0.00     0.090 C 
BRANCH  14  16
HETATM   16  O1  UNL     1     -28.758 -10.666  -0.103  1.00  0.00    -0.375 OA
BRANCH  16  17
HETATM   17  C10 UNL     1     -30.090 -10.555   0.116  1.00  0.00     0.127 C 
HETATM   18  C11 UNL     1     -30.770 -11.629   0.919  1.00  0.00     0.037 C 
HETATM   19  C12 UNL     1     -31.851 -11.646  -0.175  1.00  0.00    -0.005 C 
HETATM   20  C13 UNL     1     -32.310 -13.025  -0.416  1.00  0.00     0.010 C 
HETATM   21  C19 UNL     1     -30.832 -11.105  -1.093  1.00  0.00     0.019 C 
HETATM   22  C14 UNL     1     -32.618 -13.414  -1.804  1.00  0.00    -0.013 C 
HETATM   23  C15 UNL     1     -32.357 -12.392  -2.850  1.00  0.00     0.009 C 
HETATM   24  C17 UNL     1     -31.421 -14.188  -2.377  1.00  0.00     0.009 C 
HETATM   25  C16 UNL     1     -30.917 -12.819  -2.862  1.00  0.00    -0.013 C 
HETATM   26  C18 UNL     1     -30.084 -12.207  -1.792  1.00  0.00     0.012 C 
ENDBRANCH  16  17
ENDBRANCH  14  16
ENDBRANCH   3   4
TORSDOF 3
ENDMDL
MODEL 4
REMARK VINA RESULT: -7.367110238      2.772      7.166
REMARK  3 active torsions:
REMARK  status: ('A' for Active; 'I' for Inactive)
REMARK    1  A    between atoms: C2_3  and  C3_4 
REMARK    2  A    between atoms: C9_14  and  O1_15 
REMARK    3  A    between atoms: O1_15  and  C10_16 
ROOT
HETATM    1  N1  UNL     1     -34.530 -11.176   2.959  1.00  0.00    -0.197 NA
HETATM    2  C1  UNL     1     -33.592 -10.541   2.714  1.00  0.00     0.064 C 
HETATM    3  C2  UNL     1     -32.411  -9.767   2.415  1.00  0.00     0.176 C 
ENDROOT
BRANCH   3   4
HETATM    4  C3  UNL     1     -31.708 -10.291   1.178  1.00  0.00     0.003 C 
HETATM    5  N2  UNL     1     -31.939 -11.461   0.748  1.00  0.00    -0.362 N 
HETATM    6  C4  UNL     1     -31.298 -11.976  -0.417  1.00  0.00     0.043 A 
ATOM      7  H2  UNL     1     -32.602 -12.052   1.250  1.00  0.00     0.165 HD
HETATM    8  C5  UNL     1     -31.581 -13.286  -0.745  1.00  0.00     0.047 A 
HETATM    9  C8  UNL     1     -30.403 -11.202  -1.123  1.00  0.00     0.013 A 
HETATM   10  C6  UNL     1     -30.911 -13.796  -1.834  1.00  0.00     0.090 A 
HETATM   11  N3  UNL     1     -30.044 -13.042  -2.513  1.00  0.00    -0.374 N 
HETATM   12  C7  UNL     1     -29.765 -11.770  -2.202  1.00  0.00     0.099 A 
ATOM     13  H3  UNL     1     -29.568 -13.458  -3.314  1.00  0.00     0.164 HD
HETATM   14  C9  UNL     1     -30.212  -9.828  -0.747  1.00  0.00     0.164 C 
HETATM   15  C20 UNL     1     -30.726  -9.402   0.568  1.00  0.00     0.090 C 
BRANCH  14  16
HETATM   16  O1  UNL     1     -28.948  -9.312  -0.891  1.00  0.00    -0.375 OA
BRANCH  16  17
HETATM   17  C10 UNL     1     -28.353  -8.781   0.204  1.00  0.00     0.127 C 
HETATM   18  C11 UNL     1     -27.216  -7.819  -0.002  1.00  0.00     0.037 C 
HETATM   19  C12 UNL     1     -26.454  -8.621   1.067  1.00  0.00    -0.005 C 
HETATM   20  C13 UNL     1     -25.029  -8.719   0.710  1.00  0.00     0.010 C 
HETATM   21  C19 UNL     1     -27.316  -9.766   0.722  1.00  0.00     0.019 C 
HETATM   22  C14 UNL     1     -24.333  -9.985   1.003  1.00  0.00    -0.013 C 
HETATM   23  C15 UNL     1     -25.163 -11.082   1.563  1.00  0.00     0.009 C 
HETATM   24  C17 UNL     1     -24.253 -10.815  -0.288  1.00  0.00     0.009 C 
HETATM   25  C16 UNL     1     -25.586 -11.432   0.165  1.00  0.00    -0.013 C 
HETATM   26  C18 UNL     1     -26.704 -10.604  -0.366  1.00  0.00     0.012 C 
ENDBRANCH  16  17
ENDBRANCH  14  16
ENDBRANCH   3   4
TORSDOF 3
ENDMDL
MODEL 5
REMARK VINA RESULT: -7.329916421      0.907      1.383
REMARK  3 active torsions:
REMARK  status: ('A' for Active; 'I' for Inactive)
REMARK    1  A    between atoms: C2_3  and  C3_4 
REMARK    2  A    between atoms: C9_14  and  O1_15 
REMARK    3  A    between atoms: O1_15  and  C10_16 
ROOT
HETATM    1  N1  UNL     1     -23.181 -10.254  -0.118  1.00  0.00    -0.197 NA
HETATM    2  C1  UNL     1     -24.146 -10.604   0.420  1.00  0.00     0.064 C 
HETATM    3  C2  UNL     1     -25.344 -11.023   1.106  1.00  0.00     0.176 C 
ENDROOT
BRANCH   3   4
HETATM    4  C3  UNL     1     -26.485 -10.053   0.865  1.00  0.00     0.003 C 
HETATM    5  N2  UNL     1     -26.371  -8.829   1.175  1.00  0.00    -0.362 N 
HETATM    6  C4  UNL     1     -27.424  -7.894   0.952  1.00  0.00     0.043 A 
ATOM      7  H2  UNL     1     -25.501  -8.504   1.596  1.00  0.00     0.165 HD
HETATM    8  C5  UNL     1     -27.203  -6.605   1.395  1.00  0.00     0.047 A 
HETATM    9  C8  UNL     1     -28.608  -8.298   0.377  1.00  0.00     0.013 A 
HETATM   10  C6  UNL     1     -28.248  -5.723   1.233  1.00  0.00     0.090 A 
HETATM   11  N3  UNL     1     -29.394  -6.120   0.677  1.00  0.00    -0.374 N 
HETATM   12  C7  UNL     1     -29.614  -7.368   0.244  1.00  0.00     0.099 A 
ATOM     13  H3  UNL     1     -30.144  -5.436   0.576  1.00  0.00     0.164 HD
HETATM   14  C9  UNL     1     -28.731  -9.645  -0.108  1.00  0.00     0.164 C 
HETATM   15  C20 UNL     1     -27.713 -10.622   0.323  1.00  0.00     0.090 C 
BRANCH  14  16
HETATM   16  O1  UNL     1     -29.961 -10.241   0.009  1.00  0.00    -0.375 OA
BRANCH  16  17
HETATM   17  C10 UNL     1     -30.209 -11.336  -0.748  1.00  0.00     0.127 C 
HETATM   18  C11 UNL     1     -31.229 -11.224  -1.848  1.00  0.00     0.037 C 
HETATM   19  C12 UNL     1     -31.815 -12.546  -1.325  1.00  0.00    -0.005 C 
HETATM   20  C13 UNL     1     -33.285 -12.522  -1.414  1.00  0.00     0.010 C 
HETATM   21  C19 UNL     1     -31.214 -12.217  -0.020  1.00  0.00     0.019 C 
HETATM   22  C14 UNL     1     -34.050 -13.158  -0.327  1.00  0.00    -0.013 C 
HETATM   23  C15 UNL     1     -33.260 -13.699   0.809  1.00  0.00     0.009 C 
HETATM   24  C17 UNL     1     -34.538 -12.066   0.639  1.00  0.00     0.009 C 
HETATM   25  C16 UNL     1     -33.226 -12.318   1.401  1.00  0.00    -0.013 C 
HETATM   26  C18 UNL     1     -32.167 -11.435   0.841  1.00  0.00     0.012 C 
ENDBRANCH  16  17
ENDBRANCH  14  16
ENDBRANCH   3   4
TORSDOF 3
ENDMDL
