MODEL 1
REMARK VINA RESULT: -7.631682392      0.000      0.000
REMARK  3 active torsions:
REMARK  status: ('A' for Active; 'I' for Inactive)
REMARK    1  A    between atoms: C4_6  and  C5_7 
REMARK    2  A    between atoms: C5_7  and  N1_8 
REMARK    3  A    between atoms: N1_8  and  C6_10 
ROOT
HETATM    1  C6  UNL     1     -29.487 -10.113  -2.455  1.00  0.00     0.109 C 
HETATM    2  C7  UNL     1     -30.414  -8.960  -2.494  1.00  0.00     0.201 C 
HETATM    3  O1  UNL     1     -30.547  -8.462  -1.132  1.00  0.00    -0.349 OA
HETATM    4  C8  UNL     1     -29.342  -7.986  -0.556  1.00  0.00     0.076 A 
HETATM    5  C9  UNL     1     -29.317  -6.750  -0.060  1.00  0.00     0.039 A 
HETATM    6  C10 UNL     1     -28.085  -6.270   0.517  1.00  0.00     0.022 A 
HETATM    7  C11 UNL     1     -27.057  -7.244   0.497  1.00  0.00     0.017 A 
HETATM    8  S1  UNL     1     -25.430  -7.017   1.065  1.00  0.00    -0.093 SA
HETATM    9  C12 UNL     1     -24.819  -8.506   0.656  1.00  0.00    -0.010 A 
HETATM   10  C13 UNL     1     -25.867  -9.183   0.096  1.00  0.00    -0.033 A 
HETATM   11  C14 UNL     1     -27.074  -8.499   0.012  1.00  0.00    -0.003 A 
HETATM   12  C15 UNL     1     -28.288  -8.915  -0.568  1.00  0.00    -0.011 A 
HETATM   13  C16 UNL     1     -28.540 -10.181  -1.277  1.00  0.00     0.069 C 
HETATM   14  C17 UNL     1     -25.491 -10.621  -0.248  1.00  0.00     0.040 C 
HETATM   15  C18 UNL     1     -24.809 -11.134   1.065  1.00  0.00     0.005 C 
HETATM   16  C19 UNL     1     -23.385 -10.565   1.047  1.00  0.00     0.005 C 
HETATM   17  C20 UNL     1     -23.422  -9.113   0.745  1.00  0.00     0.046 C 
ENDROOT
BRANCH   1  18
HETATM   18  N1  UNL     1     -30.040 -11.334  -2.854  1.00  0.00    -0.391 N 
ATOM     19  H1  UNL     1     -30.487 -11.483  -3.759  1.00  0.00     0.159 HD
BRANCH  18  20
HETATM   20  C5  UNL     1     -29.910 -12.358  -1.851  1.00  0.00     0.096 C 
BRANCH  20  21
HETATM   21  C4  UNL     1     -31.129 -13.062  -1.506  1.00  0.00     0.002 A 
HETATM   22  C3  UNL     1     -31.703 -12.868  -0.245  1.00  0.00     0.047 A 
HETATM   23  C2  UNL     1     -32.719 -13.591   0.263  1.00  0.00     0.050 A 
HETATM   24 CL2  UNL     1     -31.056 -11.506   0.668  1.00  0.00    -0.083 Cl
HETATM   25  C1  UNL     1     -33.256 -14.606  -0.493  1.00  0.00     0.057 A 
HETATM   26 CL1  UNL     1     -34.573 -15.540   0.165  1.00  0.00    -0.082 Cl
HETATM   27  C22 UNL     1     -32.745 -14.859  -1.751  1.00  0.00     0.056 A 
HETATM   28  C21 UNL     1     -31.682 -14.073  -2.232  1.00  0.00     0.040 A 
HETATM   29 CL3  UNL     1     -33.400 -16.218  -2.685  1.00  0.00    -0.083 Cl
ENDBRANCH  20  21
ENDBRANCH  18  20
ENDBRANCH   1  18
TORSDOF 3
ENDMDL
MODEL 2
REMARK VINA RESULT: -7.629321789      1.712      2.109
REMARK  3 active torsions:
REMARK  status: ('A' for Active; 'I' for Inactive)
REMARK    1  A    between atoms: C4_6  and  C5_7 
REMARK    2  A    between atoms: C5_7  and  N1_8 
REMARK    3  A    between atoms: N1_8  and  C6_10 
ROOT
HETATM    1  C6  UNL     1     -30.685  -8.484  -1.390  1.00  0.00     0.109 C 
HETATM    2  C7  UNL     1     -31.235  -7.112  -1.300  1.00  0.00     0.201 C 
HETATM    3  O1  UNL     1     -30.946  -6.614   0.037  1.00  0.00    -0.349 OA
HETATM    4  C8  UNL     1     -29.566  -6.512   0.344  1.00  0.00     0.076 A 
HETATM    5  C9  UNL     1     -29.093  -5.341   0.769  1.00  0.00     0.039 A 
HETATM    6  C10 UNL     1     -27.686  -5.242   1.072  1.00  0.00     0.022 A 
HETATM    7  C11 UNL     1     -27.003  -6.470   0.898  1.00  0.00     0.017 A 
HETATM    8  S1  UNL     1     -25.298  -6.727   1.126  1.00  0.00    -0.093 SA
HETATM    9  C12 UNL     1     -25.229  -8.323   0.675  1.00  0.00    -0.010 A 
HETATM   10  C13 UNL     1     -26.516  -8.663   0.361  1.00  0.00    -0.033 A 
HETATM   11  C14 UNL     1     -27.471  -7.661   0.483  1.00  0.00    -0.003 A 
HETATM   12  C15 UNL     1     -28.844  -7.703   0.170  1.00  0.00    -0.011 A 
HETATM   13  C16 UNL     1     -29.580  -8.835  -0.417  1.00  0.00     0.069 C 
HETATM   14  C17 UNL     1     -26.640 -10.144   0.017  1.00  0.00     0.040 C 
HETATM   15  C18 UNL     1     -25.884 -10.848   1.194  1.00  0.00     0.005 C 
HETATM   16  C19 UNL     1     -24.391 -10.712   0.873  1.00  0.00     0.005 C 
HETATM   17  C20 UNL     1     -24.074  -9.307   0.518  1.00  0.00     0.046 C 
ENDROOT
BRANCH   1  18
HETATM   18  N1  UNL     1     -31.630  -9.490  -1.617  1.00  0.00    -0.391 N 
ATOM     19  H1  UNL     1     -32.459  -9.627  -1.040  1.00  0.00     0.159 HD
BRANCH  18  20
HETATM   20  C5  UNL     1     -31.305 -10.310  -2.753  1.00  0.00     0.096 C 
BRANCH  20  21
HETATM   21  C4  UNL     1     -31.438 -11.740  -2.559  1.00  0.00     0.002 A 
HETATM   22  C3  UNL     1     -30.299 -12.551  -2.598  1.00  0.00     0.047 A 
HETATM   23  C2  UNL     1     -30.307 -13.897  -2.614  1.00  0.00     0.050 A 
HETATM   24 CL2  UNL     1     -28.765 -11.684  -2.536  1.00  0.00    -0.083 Cl
HETATM   25  C1  UNL     1     -31.513 -14.556  -2.593  1.00  0.00     0.057 A 
HETATM   26 CL1  UNL     1     -31.521 -16.299  -2.614  1.00  0.00    -0.082 Cl
HETATM   27  C22 UNL     1     -32.685 -13.826  -2.553  1.00  0.00     0.056 A 
HETATM   28  C21 UNL     1     -32.619 -12.421  -2.538  1.00  0.00     0.040 A 
HETATM   29 CL3  UNL     1     -34.234 -14.688  -2.599  1.00  0.00    -0.083 Cl
ENDBRANCH  20  21
ENDBRANCH  18  20
ENDBRANCH   1  18
TORSDOF 3
ENDMDL
MODEL 3
REMARK VINA RESULT: -7.593021183      1.360      1.556
REMARK  3 active torsions:
REMARK  status: ('A' for Active; 'I' for Inactive)
REMARK    1  A    between atoms: C4_6  and  C5_7 
REMARK    2  A    between atoms: C5_7  and  N1_8 
REMARK    3  A    between atoms: N1_8  and  C6_10 
ROOT
HETATM    1  C6  UNL     1     -30.139 -11.284  -0.986  1.00  0.00     0.109 C 
HETATM    2  C7  UNL     1     -31.197 -10.252  -1.080  1.00  0.00     0.201 C 
HETATM    3  O1  UNL     1     -31.099  -9.419   0.110  1.00  0.00    -0.349 OA
HETATM    4  C8  UNL     1     -29.871  -8.722   0.245  1.00  0.00     0.076 A 
HETATM    5  C9  UNL     1     -29.902  -7.400   0.404  1.00  0.00     0.039 A 
HETATM    6  C10 UNL     1     -28.649  -6.697   0.533  1.00  0.00     0.022 A 
HETATM    7  C11 UNL     1     -27.531  -7.566   0.504  1.00  0.00     0.017 A 
HETATM    8  S1  UNL     1     -25.864  -7.080   0.590  1.00  0.00    -0.093 SA
HETATM    9  C12 UNL     1     -25.165  -8.577   0.420  1.00  0.00    -0.010 A 
HETATM   10  C13 UNL     1     -26.211  -9.452   0.311  1.00  0.00    -0.033 A 
HETATM   11  C14 UNL     1     -27.487  -8.903   0.357  1.00  0.00    -0.003 A 
HETATM   12  C15 UNL     1     -28.732  -9.543   0.206  1.00  0.00    -0.011 A 
HETATM   13  C16 UNL     1     -28.961 -10.967  -0.092  1.00  0.00     0.069 C 
HETATM   14  C17 UNL     1     -25.732 -10.899   0.247  1.00  0.00     0.040 C 
HETATM   15  C18 UNL     1     -24.724 -10.993   1.441  1.00  0.00     0.005 C 
HETATM   16  C19 UNL     1     -23.424 -10.350   0.943  1.00  0.00     0.005 C 
HETATM   17  C20 UNL     1     -23.714  -9.038   0.315  1.00  0.00     0.046 C 
ENDROOT
BRANCH   1  18
HETATM   18  N1  UNL     1     -30.600 -12.603  -0.932  1.00  0.00    -0.391 N 
ATOM     19  H1  UNL     1     -30.057 -13.376  -0.547  1.00  0.00     0.159 HD
BRANCH  18  20
HETATM   20  C5  UNL     1     -31.923 -12.752  -1.477  1.00  0.00     0.096 C 
BRANCH  20  21
HETATM   21  C4  UNL     1     -32.541 -14.050  -1.291  1.00  0.00     0.002 A 
HETATM   22  C3  UNL     1     -33.095 -14.380  -0.050  1.00  0.00     0.047 A 
HETATM   23  C2  UNL     1     -33.529 -15.603   0.304  1.00  0.00     0.050 A 
HETATM   24 CL2  UNL     1     -33.285 -13.026   1.064  1.00  0.00    -0.083 Cl
HETATM   25  C1  UNL     1     -33.435 -16.632  -0.603  1.00  0.00     0.057 A 
HETATM   26 CL1  UNL     1     -33.999 -18.215  -0.144  1.00  0.00    -0.082 Cl
HETATM   27  C22 UNL     1     -32.901 -16.387  -1.854  1.00  0.00     0.056 A 
HETATM   28  C21 UNL     1     -32.462 -15.088  -2.170  1.00  0.00     0.040 A 
HETATM   29 CL3  UNL     1     -32.719 -17.737  -2.988  1.00  0.00    -0.083 Cl
ENDBRANCH  20  21
ENDBRANCH  18  20
ENDBRANCH   1  18
TORSDOF 3
ENDMDL
MODEL 4
REMARK VINA RESULT: -7.559203506      2.065      2.693
REMARK  3 active torsions:
REMARK  status: ('A' for Active; 'I' for Inactive)
REMARK    1  A    between atoms: C4_6  and  C5_7 
REMARK    2  A    between atoms: C5_7  and  N1_8 
REMARK    3  A    between atoms: N1_8  and  C6_10 
ROOT
HETATM    1  C6  UNL     1     -31.311  -8.092  -2.536  1.00  0.00     0.109 C 
HETATM    2  C7  UNL     1     -32.199  -6.912  -2.422  1.00  0.00     0.201 C 
HETATM    3  O1  UNL     1     -32.347  -6.614  -1.004  1.00  0.00    -0.349 OA
HETATM    4  C8  UNL     1     -31.140  -6.272  -0.343  1.00  0.00     0.076 A 
HETATM    5  C9  UNL     1     -31.085  -5.124   0.330  1.00  0.00     0.039 A 
HETATM    6  C10 UNL     1     -29.852  -4.779   0.994  1.00  0.00     0.022 A 
HETATM    7  C11 UNL     1     -28.857  -5.776   0.850  1.00  0.00     0.017 A 
HETATM    8  S1  UNL     1     -27.237  -5.695   1.474  1.00  0.00    -0.093 SA
HETATM    9  C12 UNL     1     -26.666  -7.129   0.862  1.00  0.00    -0.010 A 
HETATM   10  C13 UNL     1     -27.723  -7.678   0.189  1.00  0.00    -0.033 A 
HETATM   11  C14 UNL     1     -28.904  -6.946   0.185  1.00  0.00    -0.003 A 
HETATM   12  C15 UNL     1     -30.118  -7.227  -0.472  1.00  0.00    -0.011 A 
HETATM   13  C16 UNL     1     -30.395  -8.365  -1.364  1.00  0.00     0.069 C 
HETATM   14  C17 UNL     1     -27.388  -9.063  -0.355  1.00  0.00     0.040 C 
HETATM   15  C18 UNL     1     -26.755  -9.787   0.880  1.00  0.00     0.005 C 
HETATM   16  C19 UNL     1     -25.313  -9.274   0.972  1.00  0.00     0.005 C 
HETATM   17  C20 UNL     1     -25.293  -7.794   0.886  1.00  0.00     0.046 C 
ENDROOT
BRANCH   1  18
HETATM   18  N1  UNL     1     -31.896  -9.220  -3.121  1.00  0.00    -0.391 N 
ATOM     19  H1  UNL     1     -32.903  -9.344  -3.225  1.00  0.00     0.159 HD
BRANCH  18  20
HETATM   20  C5  UNL     1     -30.924 -10.186  -3.558  1.00  0.00     0.096 C 
BRANCH  20  21
HETATM   21  C4  UNL     1     -31.174 -11.558  -3.165  1.00  0.00     0.002 A 
HETATM   22  C3  UNL     1     -30.098 -12.389  -2.839  1.00  0.00     0.047 A 
HETATM   23  C2  UNL     1     -30.179 -13.718  -2.637  1.00  0.00     0.050 A 
HETATM   24 CL2  UNL     1     -28.559 -11.561  -2.609  1.00  0.00    -0.083 Cl
HETATM   25  C1  UNL     1     -31.401 -14.336  -2.755  1.00  0.00     0.057 A 
HETATM   26 CL1  UNL     1     -31.505 -16.056  -2.492  1.00  0.00    -0.082 Cl
HETATM   27  C22 UNL     1     -32.515 -13.582  -3.073  1.00  0.00     0.056 A 
HETATM   28  C21 UNL     1     -32.373 -12.197  -3.273  1.00  0.00     0.040 A 
HETATM   29 CL3  UNL     1     -34.072 -14.403  -3.291  1.00  0.00    -0.083 Cl
ENDBRANCH  20  21
ENDBRANCH  18  20
ENDBRANCH   1  18
TORSDOF 3
ENDMDL
MODEL 5
REMARK VINA RESULT: -7.535703983      4.201      8.431
REMARK  3 active torsions:
REMARK  status: ('A' for Active; 'I' for Inactive)
REMARK    1  A    between atoms: C4_6  and  C5_7 
REMARK    2  A    between atoms: C5_7  and  N1_8 
REMARK    3  A    between atoms: N1_8  and  C6_10 
ROOT
HETATM    1  C6  UNL     1     -29.461 -10.863  -1.455  1.00  0.00     0.109 C 
HETATM    2  C7  UNL     1     -29.535  -9.572  -2.177  1.00  0.00     0.201 C 
HETATM    3  O1  UNL     1     -29.714  -9.873  -3.590  1.00  0.00    -0.349 OA
HETATM    4  C8  UNL     1     -30.908 -10.573  -3.899  1.00  0.00     0.076 A 
HETATM    5  C9  UNL     1     -31.728 -10.061  -4.816  1.00  0.00     0.039 A 
HETATM    6  C10 UNL     1     -32.944 -10.774  -5.119  1.00  0.00     0.022 A 
HETATM    7  C11 UNL     1     -33.066 -11.981  -4.388  1.00  0.00     0.017 A 
HETATM    8  S1  UNL     1     -34.411 -13.081  -4.457  1.00  0.00    -0.093 SA
HETATM    9  C12 UNL     1     -33.895 -14.169  -3.314  1.00  0.00    -0.010 A 
HETATM   10  C13 UNL     1     -32.684 -13.696  -2.889  1.00  0.00    -0.033 A 
HETATM   11  C14 UNL     1     -32.239 -12.515  -3.471  1.00  0.00    -0.003 A 
HETATM   12  C15 UNL     1     -31.079 -11.770  -3.185  1.00  0.00    -0.011 A 
HETATM   13  C16 UNL     1     -30.078 -12.060  -2.144  1.00  0.00     0.069 C 
HETATM   14  C17 UNL     1     -32.024 -14.648  -1.896  1.00  0.00     0.040 C 
HETATM   15  C18 UNL     1     -32.142 -16.040  -2.605  1.00  0.00     0.005 C 
HETATM   16  C19 UNL     1     -33.584 -16.507  -2.372  1.00  0.00     0.005 C 
HETATM   17  C20 UNL     1     -34.531 -15.416  -2.709  1.00  0.00     0.046 C 
ENDROOT
BRANCH   1  18
HETATM   18  N1  UNL     1     -28.252 -11.105  -0.794  1.00  0.00    -0.391 N 
ATOM     19  H1  UNL     1     -27.623 -11.872  -1.030  1.00  0.00     0.159 HD
BRANCH  18  20
HETATM   20  C5  UNL     1     -27.994 -10.156   0.256  1.00  0.00     0.096 C 
BRANCH  20  21
HETATM   21  C4  UNL     1     -26.600  -9.833   0.487  1.00  0.00     0.002 A 
HETATM   22  C3  UNL     1     -26.221  -8.498   0.662  1.00  0.00     0.047 A 
HETATM   23  C2  UNL     1     -24.952  -8.052   0.702  1.00  0.00     0.050 A 
HETATM   24 CL2  UNL     1     -27.553  -7.374   0.926  1.00  0.00    -0.083 Cl
HETATM   25  C1  UNL     1     -23.924  -8.955   0.563  1.00  0.00     0.057 A 
HETATM   26 CL1  UNL     1     -22.281  -8.376   0.616  1.00  0.00    -0.082 Cl
HETATM   27  C22 UNL     1     -24.217 -10.294   0.387  1.00  0.00     0.056 A 
HETATM   28  C21 UNL     1     -25.561 -10.704   0.353  1.00  0.00     0.040 A 
HETATM   29 CL3  UNL     1     -22.884 -11.436   0.137  1.00  0.00    -0.083 Cl
ENDBRANCH  20  21
ENDBRANCH  18  20
ENDBRANCH   1  18
TORSDOF 3
ENDMDL
