MODEL 1
REMARK VINA RESULT: -6.929195349      0.000      0.000
REMARK  6 active torsions:
REMARK  status: ('A' for Active; 'I' for Inactive)
REMARK    1  A    between atoms: O1_2  and  C2_3 
REMARK    2  A    between atoms: C10_12  and  C12_14 
REMARK    3  A    between atoms: C13_18  and  O3_19 
REMARK    4  A    between atoms: C13_18  and  C14_21 
REMARK    5  A    between atoms: C14_21  and  C15_22 
REMARK    6  A    between atoms: C15_22  and  C16_23 
ROOT
HETATM    1  C2  UNL     1     -31.932 -10.237  -0.664  1.00  0.00     0.131 C 
HETATM    2  C3  UNL     1     -31.509 -11.538  -0.080  1.00  0.00     0.033 C 
HETATM    3  C4  UNL     1     -30.099 -11.814   0.177  1.00  0.00     0.004 C 
HETATM    4  C5  UNL     1     -29.302 -10.722   0.821  1.00  0.00     0.015 C 
HETATM    5  C6  UNL     1     -28.929  -9.617  -0.117  1.00  0.00     0.021 C 
HETATM    6  C7  UNL     1     -28.701 -10.069  -1.516  1.00  0.00     0.021 C 
HETATM    7  C8  UNL     1     -30.036  -8.597  -0.115  1.00  0.00     0.150 C 
HETATM    8  O2  UNL     1     -29.726  -7.846   1.073  1.00  0.00    -0.345 OA
HETATM    9  C9  UNL     1     -28.352  -7.560   0.966  1.00  0.00     0.088 C 
HETATM   10  C10 UNL     1     -27.821  -6.429   1.366  1.00  0.00     0.002 C 
HETATM   11  C11 UNL     1     -26.370  -6.143   1.241  1.00  0.00     0.051 C 
HETATM   12  C13 UNL     1     -27.774  -8.779   0.342  1.00  0.00     0.116 C 
HETATM   13  C20 UNL     1     -31.427  -8.998  -0.046  1.00  0.00     0.006 C 
HETATM   14  C21 UNL     1     -32.055  -8.884   1.355  1.00  0.00     0.020 C 
HETATM   15  C22 UNL     1     -32.172  -7.875  -0.826  1.00  0.00     0.020 C 
ENDROOT
BRANCH  12  16
HETATM   16  O3  UNL     1     -27.086  -8.250  -0.777  1.00  0.00    -0.382 OA
ATOM     17  H3  UNL     1     -27.469  -7.418  -1.029  1.00  0.00     0.211 HD
ENDBRANCH  12  16
BRANCH  12  18
HETATM   18  C14 UNL     1     -26.795  -9.379   1.226  1.00  0.00     0.050 C 
BRANCH  18  19
HETATM   19  C15 UNL     1     -26.063 -10.629   0.910  1.00  0.00     0.044 C 
BRANCH  19  20
HETATM   20  C16 UNL     1     -24.643 -10.451   0.538  1.00  0.00    -0.034 A 
HETATM   21  C17 UNL     1     -23.762 -11.368   0.069  1.00  0.00     0.033 A 
HETATM   22  C18 UNL     1     -22.544 -10.738  -0.150  1.00  0.00     0.142 A 
HETATM   23  O4  UNL     1     -22.721  -9.494   0.186  1.00  0.00    -0.334 OA
HETATM   24  C19 UNL     1     -23.935  -9.262   0.598  1.00  0.00     0.148 A 
ENDBRANCH  19  20
ENDBRANCH  18  19
ENDBRANCH  12  18
BRANCH  10  25
HETATM   25  C12 UNL     1     -28.626  -5.358   1.995  1.00  0.00     0.214 C 
HETATM   26 CL1  UNL     1     -27.501  -3.982   2.266  1.00  0.00    -0.079 Cl
HETATM   27 CL2  UNL     1     -29.835  -4.749   0.782  1.00  0.00    -0.079 Cl
HETATM   28 CL3  UNL     1     -29.450  -5.762   3.478  1.00  0.00    -0.079 Cl
ENDBRANCH  10  25
BRANCH   1  29
HETATM   29  O1  UNL     1     -33.340 -10.232  -0.399  1.00  0.00    -0.390 OA
HETATM   30  C1  UNL     1     -33.967 -11.382  -0.771  1.00  0.00     0.202 C 
ENDBRANCH   1  29
TORSDOF 6
ENDMDL
MODEL 2
REMARK VINA RESULT: -6.851998442      1.078      1.261
REMARK  6 active torsions:
REMARK  status: ('A' for Active; 'I' for Inactive)
REMARK    1  A    between atoms: O1_2  and  C2_3 
REMARK    2  A    between atoms: C10_12  and  C12_14 
REMARK    3  A    between atoms: C13_18  and  O3_19 
REMARK    4  A    between atoms: C13_18  and  C14_21 
REMARK    5  A    between atoms: C14_21  and  C15_22 
REMARK    6  A    between atoms: C15_22  and  C16_23 
ROOT
HETATM    1  C2  UNL     1     -31.442 -10.221  -0.372  1.00  0.00     0.131 C 
HETATM    2  C3  UNL     1     -30.561 -11.402  -0.168  1.00  0.00     0.033 C 
HETATM    3  C4  UNL     1     -29.111 -11.245  -0.108  1.00  0.00     0.004 C 
HETATM    4  C5  UNL     1     -28.586 -10.111   0.717  1.00  0.00     0.015 C 
HETATM    5  C6  UNL     1     -28.718  -8.775   0.055  1.00  0.00     0.021 C 
HETATM    6  C7  UNL     1     -28.591  -8.824  -1.426  1.00  0.00     0.021 C 
HETATM    7  C8  UNL     1     -30.064  -8.201   0.405  1.00  0.00     0.150 C 
HETATM    8  O2  UNL     1     -29.808  -7.655   1.712  1.00  0.00    -0.345 OA
HETATM    9  C9  UNL     1     -28.619  -6.916   1.563  1.00  0.00     0.088 C 
HETATM   10  C10 UNL     1     -28.395  -5.784   2.186  1.00  0.00     0.002 C 
HETATM   11  C11 UNL     1     -27.137  -5.016   2.014  1.00  0.00     0.051 C 
HETATM   12  C13 UNL     1     -27.809  -7.718   0.610  1.00  0.00     0.116 C 
HETATM   13  C20 UNL     1     -31.240  -9.043   0.489  1.00  0.00     0.006 C 
HETATM   14  C21 UNL     1     -31.641  -9.437   1.923  1.00  0.00     0.020 C 
HETATM   15  C22 UNL     1     -32.403  -8.091   0.080  1.00  0.00     0.020 C 
ENDROOT
BRANCH  12  16
HETATM   16  O3  UNL     1     -27.500  -6.771  -0.398  1.00  0.00    -0.382 OA
ATOM     17  H3  UNL     1     -27.629  -5.891  -0.064  1.00  0.00     0.211 HD
ENDBRANCH  12  16
BRANCH  12  18
HETATM   18  C14 UNL     1     -26.567  -8.132   1.230  1.00  0.00     0.050 C 
BRANCH  18  19
HETATM   19  C15 UNL     1     -25.233  -7.912   0.620  1.00  0.00     0.044 C 
BRANCH  19  20
HETATM   20  C16 UNL     1     -24.422  -9.133   0.422  1.00  0.00    -0.034 A 
HETATM   21  C17 UNL     1     -24.835 -10.412   0.247  1.00  0.00     0.033 A 
HETATM   22  C18 UNL     1     -23.715 -11.219   0.091  1.00  0.00     0.142 A 
HETATM   23  O4  UNL     1     -22.689 -10.425   0.175  1.00  0.00    -0.334 OA
HETATM   24  C19 UNL     1     -23.040  -9.184   0.369  1.00  0.00     0.148 A 
ENDBRANCH  19  20
ENDBRANCH  18  19
ENDBRANCH  12  18
BRANCH  10  25
HETATM   25  C12 UNL     1     -29.373  -5.193   3.128  1.00  0.00     0.214 C 
HETATM   26 CL1  UNL     1     -28.685  -3.613   3.636  1.00  0.00    -0.079 Cl
HETATM   27 CL2  UNL     1     -30.887  -4.778   2.212  1.00  0.00    -0.079 Cl
HETATM   28 CL3  UNL     1     -29.790  -6.147   4.527  1.00  0.00    -0.079 Cl
ENDBRANCH  10  25
BRANCH   1  29
HETATM   29  O1  UNL     1     -32.725 -10.736   0.004  1.00  0.00    -0.390 OA
HETATM   30  C1  UNL     1     -33.017 -11.937  -0.566  1.00  0.00     0.202 C 
ENDBRANCH   1  29
TORSDOF 6
ENDMDL
MODEL 3
REMARK VINA RESULT: -6.524564863      2.076      2.778
REMARK  6 active torsions:
REMARK  status: ('A' for Active; 'I' for Inactive)
REMARK    1  A    between atoms: O1_2  and  C2_3 
REMARK    2  A    between atoms: C10_12  and  C12_14 
REMARK    3  A    between atoms: C13_18  and  O3_19 
REMARK    4  A    between atoms: C13_18  and  C14_21 
REMARK    5  A    between atoms: C14_21  and  C15_22 
REMARK    6  A    between atoms: C15_22  and  C16_23 
ROOT
HETATM    1  C2  UNL     1     -31.109 -11.018  -2.742  1.00  0.00     0.131 C 
HETATM    2  C3  UNL     1     -29.844 -11.798  -2.781  1.00  0.00     0.033 C 
HETATM    3  C4  UNL     1     -28.604 -11.231  -2.258  1.00  0.00     0.004 C 
HETATM    4  C5  UNL     1     -28.687 -10.524  -0.941  1.00  0.00     0.015 C 
HETATM    5  C6  UNL     1     -29.291  -9.157  -1.029  1.00  0.00     0.021 C 
HETATM    6  C7  UNL     1     -29.001  -8.456  -2.309  1.00  0.00     0.021 C 
HETATM    7  C8  UNL     1     -30.782  -9.286  -0.877  1.00  0.00     0.150 C 
HETATM    8  O2  UNL     1     -30.913  -9.375   0.553  1.00  0.00    -0.345 OA
HETATM    9  C9  UNL     1     -30.130  -8.317   1.050  1.00  0.00     0.088 C 
HETATM   10  C10 UNL     1     -30.462  -7.611   2.105  1.00  0.00     0.002 C 
HETATM   11  C11 UNL     1     -29.626  -6.495   2.612  1.00  0.00     0.051 C 
HETATM   12  C13 UNL     1     -28.966  -8.261   0.128  1.00  0.00     0.116 C 
HETATM   13  C20 UNL     1     -31.505 -10.394  -1.467  1.00  0.00     0.006 C 
HETATM   14  C21 UNL     1     -31.853 -11.527  -0.482  1.00  0.00     0.020 C 
HETATM   15  C22 UNL     1     -32.908  -9.795  -1.778  1.00  0.00     0.020 C 
ENDROOT
BRANCH  12  16
HETATM   16  O3  UNL     1     -28.975  -6.908  -0.292  1.00  0.00    -0.382 OA
ATOM     17  H3  UNL     1     -28.252  -6.441   0.111  1.00  0.00     0.211 HD
ENDBRANCH  12  16
BRANCH  12  18
HETATM   18  C14 UNL     1     -27.736  -8.495   0.858  1.00  0.00     0.050 C 
BRANCH  18  19
HETATM   19  C15 UNL     1     -26.394  -8.136   0.338  1.00  0.00     0.044 C 
BRANCH  19  20
HETATM   20  C16 UNL     1     -25.340  -9.147   0.564  1.00  0.00    -0.034 A 
HETATM   21  C17 UNL     1     -25.459 -10.414   1.031  1.00  0.00     0.033 A 
HETATM   22  C18 UNL     1     -24.197 -10.992   1.065  1.00  0.00     0.142 A 
HETATM   23  O4  UNL     1     -23.376 -10.082   0.630  1.00  0.00    -0.334 OA
HETATM   24  C19 UNL     1     -23.988  -8.974   0.319  1.00  0.00     0.148 A 
ENDBRANCH  19  20
ENDBRANCH  18  19
ENDBRANCH  12  18
BRANCH  10  25
HETATM   25  C12 UNL     1     -31.690  -7.888   2.886  1.00  0.00     0.214 C 
HETATM   26 CL1  UNL     1     -31.740  -6.654   4.191  1.00  0.00    -0.079 Cl
HETATM   27 CL2  UNL     1     -33.136  -7.534   1.844  1.00  0.00    -0.079 Cl
HETATM   28 CL3  UNL     1     -31.845  -9.487   3.563  1.00  0.00    -0.079 Cl
ENDBRANCH  10  25
BRANCH   1  29
HETATM   29  O1  UNL     1     -32.094 -12.030  -2.978  1.00  0.00    -0.390 OA
HETATM   30  C1  UNL     1     -32.102 -12.493  -4.259  1.00  0.00     0.202 C 
ENDBRANCH   1  29
TORSDOF 6
ENDMDL
MODEL 4
REMARK VINA RESULT: -6.498153610      4.848      7.894
REMARK  6 active torsions:
REMARK  status: ('A' for Active; 'I' for Inactive)
REMARK    1  A    between atoms: O1_2  and  C2_3 
REMARK    2  A    between atoms: C10_12  and  C12_14 
REMARK    3  A    between atoms: C13_18  and  O3_19 
REMARK    4  A    between atoms: C13_18  and  C14_21 
REMARK    5  A    between atoms: C14_21  and  C15_22 
REMARK    6  A    between atoms: C15_22  and  C16_23 
ROOT
HETATM    1  C2  UNL     1     -29.502  -9.100  -0.125  1.00  0.00     0.131 C 
HETATM    2  C3  UNL     1     -29.598  -8.267  -1.354  1.00  0.00     0.033 C 
HETATM    3  C4  UNL     1     -29.569  -8.886  -2.676  1.00  0.00     0.004 C 
HETATM    4  C5  UNL     1     -30.405 -10.114  -2.866  1.00  0.00     0.015 C 
HETATM    5  C6  UNL     1     -29.810 -11.346  -2.260  1.00  0.00     0.021 C 
HETATM    6  C7  UNL     1     -28.322 -11.368  -2.284  1.00  0.00     0.021 C 
HETATM    7  C8  UNL     1     -30.271 -11.445  -0.832  1.00  0.00     0.150 C 
HETATM    8  O2  UNL     1     -31.579 -12.019  -0.995  1.00  0.00    -0.345 OA
HETATM    9  C9  UNL     1     -31.385 -13.107  -1.867  1.00  0.00     0.088 C 
HETATM   10  C10 UNL     1     -32.038 -14.240  -1.759  1.00  0.00     0.002 C 
HETATM   11  C11 UNL     1     -31.816 -15.378  -2.685  1.00  0.00     0.051 C 
HETATM   12  C13 UNL     1     -30.347 -12.631  -2.818  1.00  0.00     0.116 C 
HETATM   13  C20 UNL     1     -30.397 -10.264  -0.000  1.00  0.00     0.006 C 
HETATM   14  C21 UNL     1     -31.836  -9.734   0.142  1.00  0.00     0.020 C 
HETATM   15  C22 UNL     1     -30.104 -10.793   1.435  1.00  0.00     0.020 C 
ENDROOT
BRANCH  12  16
HETATM   16  O3  UNL     1     -29.362 -13.645  -2.727  1.00  0.00    -0.382 OA
ATOM     17  H3  UNL     1     -28.937 -13.758  -3.569  1.00  0.00     0.211 HD
ENDBRANCH  12  16
BRANCH  12  18
HETATM   18  C14 UNL     1     -30.867 -12.632  -4.171  1.00  0.00     0.050 C 
BRANCH  18  19
HETATM   19  C15 UNL     1     -32.265 -12.276  -4.512  1.00  0.00     0.044 C 
BRANCH  19  20
HETATM   20  C16 UNL     1     -32.428 -11.471  -5.741  1.00  0.00    -0.034 A 
HETATM   21  C17 UNL     1     -31.967 -11.720  -6.992  1.00  0.00     0.033 A 
HETATM   22  C18 UNL     1     -32.375 -10.687  -7.825  1.00  0.00     0.142 A 
HETATM   23  O4  UNL     1     -33.050  -9.868  -7.074  1.00  0.00    -0.334 OA
HETATM   24  C19 UNL     1     -33.117 -10.274  -5.837  1.00  0.00     0.148 A 
ENDBRANCH  19  20
ENDBRANCH  18  19
ENDBRANCH  12  18
BRANCH  10  25
HETATM   25  C12 UNL     1     -33.066 -14.462  -0.717  1.00  0.00     0.214 C 
HETATM   26 CL1  UNL     1     -34.584 -13.739  -1.351  1.00  0.00    -0.079 Cl
HETATM   27 CL2  UNL     1     -33.402 -16.244  -0.600  1.00  0.00    -0.079 Cl
HETATM   28 CL3  UNL     1     -32.719 -13.836   0.874  1.00  0.00    -0.079 Cl
ENDBRANCH  10  25
BRANCH   1  29
HETATM   29  O1  UNL     1     -29.939  -8.189   0.890  1.00  0.00    -0.390 OA
HETATM   30  C1  UNL     1     -29.081  -7.152   1.096  1.00  0.00     0.202 C 
ENDBRANCH   1  29
TORSDOF 6
ENDMDL
MODEL 5
REMARK VINA RESULT: -6.467993234      1.129      1.584
REMARK  6 active torsions:
REMARK  status: ('A' for Active; 'I' for Inactive)
REMARK    1  A    between atoms: O1_2  and  C2_3 
REMARK    2  A    between atoms: C10_12  and  C12_14 
REMARK    3  A    between atoms: C13_18  and  O3_19 
REMARK    4  A    between atoms: C13_18  and  C14_21 
REMARK    5  A    between atoms: C14_21  and  C15_22 
REMARK    6  A    between atoms: C15_22  and  C16_23 
ROOT
HETATM    1  C2  UNL     1     -32.458  -9.085  -1.821  1.00  0.00     0.131 C 
HETATM    2  C3  UNL     1     -32.318 -10.423  -1.187  1.00  0.00     0.033 C 
HETATM    3  C4  UNL     1     -31.021 -10.881  -0.697  1.00  0.00     0.004 C 
HETATM    4  C5  UNL     1     -30.206  -9.897   0.083  1.00  0.00     0.015 C 
HETATM    5  C6  UNL     1     -29.536  -8.863  -0.766  1.00  0.00     0.021 C 
HETATM    6  C7  UNL     1     -29.136  -9.361  -2.110  1.00  0.00     0.021 C 
HETATM    7  C8  UNL     1     -30.480  -7.706  -0.942  1.00  0.00     0.150 C 
HETATM    8  O2  UNL     1     -30.279  -6.988   0.289  1.00  0.00    -0.345 OA
HETATM    9  C9  UNL     1     -28.881  -6.888   0.419  1.00  0.00     0.088 C 
HETATM   10  C10 UNL     1     -28.279  -5.834   0.915  1.00  0.00     0.002 C 
HETATM   11  C11 UNL     1     -26.803  -5.745   1.042  1.00  0.00     0.051 C 
HETATM   12  C13 UNL     1     -28.374  -8.181  -0.109  1.00  0.00     0.116 C 
HETATM   13  C20 UNL     1     -31.903  -7.917  -1.114  1.00  0.00     0.006 C 
HETATM   14  C21 UNL     1     -32.740  -7.702   0.161  1.00  0.00     0.020 C 
HETATM   15  C22 UNL     1     -32.349  -6.714  -1.998  1.00  0.00     0.020 C 
ENDROOT
BRANCH  12  16
HETATM   16  O3  UNL     1     -27.441  -7.763  -1.090  1.00  0.00    -0.382 OA
ATOM     17  H3  UNL     1     -26.951  -8.512  -1.410  1.00  0.00     0.211 HD
ENDBRANCH  12  16
BRANCH  12  18
HETATM   18  C14 UNL     1     -27.647  -8.895   0.922  1.00  0.00     0.050 C 
BRANCH  18  19
HETATM   19  C15 UNL     1     -26.897 -10.151   0.677  1.00  0.00     0.044 C 
BRANCH  19  20
HETATM   20  C16 UNL     1     -25.425 -10.017   0.687  1.00  0.00    -0.034 A 
HETATM   21  C17 UNL     1     -24.480 -10.989   0.685  1.00  0.00     0.033 A 
HETATM   22  C18 UNL     1     -23.228 -10.387   0.687  1.00  0.00     0.142 A 
HETATM   23  O4  UNL     1     -23.450  -9.105   0.690  1.00  0.00    -0.334 OA
HETATM   24  C19 UNL     1     -24.722  -8.824   0.690  1.00  0.00     0.148 A 
ENDBRANCH  19  20
ENDBRANCH  18  19
ENDBRANCH  12  18
BRANCH  10  25
HETATM   25  C12 UNL     1     -29.029  -4.656   1.409  1.00  0.00     0.214 C 
HETATM   26 CL1  UNL     1     -29.840  -5.181   2.925  1.00  0.00    -0.079 Cl
HETATM   27 CL2  UNL     1     -27.841  -3.382   1.925  1.00  0.00    -0.079 Cl
HETATM   28 CL3  UNL     1     -30.193  -3.952   0.317  1.00  0.00    -0.079 Cl
ENDBRANCH  10  25
BRANCH   1  29
HETATM   29  O1  UNL     1     -33.876  -8.889  -1.799  1.00  0.00    -0.390 OA
HETATM   30  C1  UNL     1     -34.585 -10.012  -2.102  1.00  0.00     0.202 C 
ENDBRANCH   1  29
TORSDOF 6
ENDMDL
