MODEL 1
REMARK VINA RESULT: -5.050296548      0.000      0.000
REMARK  9 active torsions:
REMARK  status: ('A' for Active; 'I' for Inactive)
REMARK    1  A    between atoms: C2_2  and  O1_3 
REMARK    2  A    between atoms: C2_2  and  C3_5 
REMARK    3  A    between atoms: C12_16  and  C13_17 
REMARK    4  A    between atoms: C13_17  and  C15_19 
REMARK    5  A    between atoms: C15_19  and  C16_20 
REMARK    6  A    between atoms: C16_20  and  O3_21 
REMARK    7  A    between atoms: C16_20  and  C17_23 
REMARK    8  A    between atoms: C17_23  and  O4_24 
REMARK    9  A    between atoms: C17_23  and  N1_26 
ROOT
HETATM    1  C3  UNL     1     -12.714 -13.724  25.765  1.00  0.00     0.028 C 
HETATM    2  C4  UNL     1     -12.253 -13.196  27.110  1.00  0.00     0.017 C 
HETATM    3  C5  UNL     1     -11.476 -11.990  27.195  1.00  0.00     0.019 C 
HETATM    4  C6  UNL     1     -12.464 -10.864  27.551  1.00  0.00     0.010 C 
HETATM    5  C7  UNL     1     -13.341 -10.549  26.429  1.00  0.00     0.016 C 
HETATM    6  C8  UNL     1     -13.133 -11.311  25.094  1.00  0.00     0.002 C 
HETATM    7  C9  UNL     1     -13.931 -10.378  24.202  1.00  0.00     0.061 C 
HETATM    8  C10 UNL     1     -14.316 -10.736  22.866  1.00  0.00     0.245 C 
HETATM    9  F1  UNL     1     -15.624 -10.227  22.625  1.00  0.00    -0.241 F 
HETATM   10  C11 UNL     1     -14.201 -12.157  22.681  1.00  0.00     0.190 C 
HETATM   11  O2  UNL     1     -14.119 -12.566  21.508  1.00  0.00    -0.289 OA
HETATM   12  C12 UNL     1     -14.166 -13.216  23.781  1.00  0.00     0.003 C 
HETATM   13  C22 UNL     1     -13.644 -12.735  25.080  1.00  0.00     0.005 C 
HETATM   14  C23 UNL     1     -14.839 -12.719  26.067  1.00  0.00     0.022 C 
HETATM   15  C24 UNL     1     -11.676 -11.142  24.884  1.00  0.00    -0.042 A 
HETATM   16  C25 UNL     1     -11.090 -10.668  23.755  1.00  0.00     0.008 A 
HETATM   17  C26 UNL     1      -9.712 -10.521  23.707  1.00  0.00     0.001 A 
HETATM   18  C27 UNL     1      -8.935 -10.846  24.785  1.00  0.00     0.001 A 
HETATM   19  C28 UNL     1      -9.482 -11.331  25.952  1.00  0.00     0.008 A 
HETATM   20  C29 UNL     1     -10.869 -11.461  25.947  1.00  0.00    -0.047 A 
ENDROOT
BRANCH  12  21
HETATM   21  C13 UNL     1     -15.353 -14.041  23.537  1.00  0.00    -0.070 C 
HETATM   22  C14 UNL     1     -15.485 -15.392  24.143  1.00  0.00     0.044 C 
BRANCH  21  23
HETATM   23  C15 UNL     1     -16.670 -13.417  23.355  1.00  0.00     0.070 C 
BRANCH  23  24
HETATM   24  C16 UNL     1     -17.623 -13.946  22.339  1.00  0.00     0.181 C 
BRANCH  24  25
HETATM   25  O3  UNL     1     -18.836 -14.404  22.790  1.00  0.00    -0.391 OA
ATOM     26  H3  UNL     1     -19.565 -14.381  22.182  1.00  0.00     0.210 HD
ENDBRANCH  24  25
BRANCH  24  27
HETATM   27  C17 UNL     1     -17.626 -13.449  20.960  1.00  0.00     0.385 C 
BRANCH  27  28
HETATM   28  O4  UNL     1     -16.529 -13.743  20.152  1.00  0.00    -0.366 OA
ATOM     29  H4  UNL     1     -15.816 -13.116  20.119  1.00  0.00     0.212 HD
ENDBRANCH  27  28
BRANCH  27  30
HETATM   30  N1  UNL     1     -17.610 -11.972  20.991  1.00  0.00     0.119 N 
HETATM   31  C18 UNL     1     -16.949 -11.372  19.891  1.00  0.00     0.276 C 
HETATM   32  C19 UNL     1     -17.699 -10.062  19.598  1.00  0.00     0.032 C 
HETATM   33  C20 UNL     1     -18.717  -9.962  20.702  1.00  0.00     0.032 C 
HETATM   34  C21 UNL     1     -18.921 -11.418  21.117  1.00  0.00     0.276 C 
ENDBRANCH  27  30
ENDBRANCH  24  27
ENDBRANCH  23  24
ENDBRANCH  21  23
ENDBRANCH  12  21
BRANCH   1  35
HETATM   35  C2  UNL     1     -11.603 -14.367  25.038  1.00  0.00     0.119 C 
HETATM   36  C1  UNL     1     -10.678 -15.163  25.964  1.00  0.00     0.040 C 
BRANCH  35  37
HETATM   37  O1  UNL     1     -11.984 -15.571  24.326  1.00  0.00    -0.396 OA
ATOM     38  H1  UNL     1     -12.374 -15.938  25.110  1.00  0.00     0.210 HD
ENDBRANCH  35  37
ENDBRANCH   1  35
TORSDOF 9
ENDMDL
MODEL 2
REMARK VINA RESULT: -4.978298635      5.585      8.987
REMARK  9 active torsions:
REMARK  status: ('A' for Active; 'I' for Inactive)
REMARK    1  A    between atoms: C2_2  and  O1_3 
REMARK    2  A    between atoms: C2_2  and  C3_5 
REMARK    3  A    between atoms: C12_16  and  C13_17 
REMARK    4  A    between atoms: C13_17  and  C15_19 
REMARK    5  A    between atoms: C15_19  and  C16_20 
REMARK    6  A    between atoms: C16_20  and  O3_21 
REMARK    7  A    between atoms: C16_20  and  C17_23 
REMARK    8  A    between atoms: C17_23  and  O4_24 
REMARK    9  A    between atoms: C17_23  and  N1_26 
ROOT
HETATM    1  C3  UNL     1      -9.332 -11.570  25.720  1.00  0.00     0.028 C 
HETATM    2  C4  UNL     1     -10.672 -11.773  26.400  1.00  0.00     0.017 C 
HETATM    3  C5  UNL     1     -11.349 -13.038  26.318  1.00  0.00     0.019 C 
HETATM    4  C6  UNL     1     -11.032 -13.784  27.627  1.00  0.00     0.010 C 
HETATM    5  C7  UNL     1      -9.639 -14.219  27.670  1.00  0.00     0.016 C 
HETATM    6  C8  UNL     1      -8.740 -13.932  26.438  1.00  0.00     0.002 C 
HETATM    7  C9  UNL     1      -7.617 -14.895  26.780  1.00  0.00     0.061 C 
HETATM    8  C10 UNL     1      -6.348 -14.863  26.110  1.00  0.00     0.245 C 
HETATM    9  F1  UNL     1      -5.329 -15.137  27.066  1.00  0.00    -0.241 F 
HETATM   10  C11 UNL     1      -6.182 -13.611  25.423  1.00  0.00     0.190 C 
HETATM   11  O2  UNL     1      -5.343 -13.582  24.504  1.00  0.00    -0.289 OA
HETATM   12  C12 UNL     1      -6.934 -12.313  25.707  1.00  0.00     0.003 C 
HETATM   13  C22 UNL     1      -8.276 -12.499  26.301  1.00  0.00     0.005 C 
HETATM   14  C23 UNL     1      -8.199 -11.983  27.760  1.00  0.00     0.022 C 
HETATM   15  C24 UNL     1      -9.579 -14.452  25.334  1.00  0.00    -0.042 A 
HETATM   16  C25 UNL     1      -9.180 -15.341  24.389  1.00  0.00     0.008 A 
HETATM   17  C26 UNL     1     -10.082 -15.778  23.433  1.00  0.00     0.001 A 
HETATM   18  C27 UNL     1     -11.374 -15.326  23.431  1.00  0.00     0.001 A 
HETATM   19  C28 UNL     1     -11.827 -14.425  24.368  1.00  0.00     0.008 A 
HETATM   20  C29 UNL     1     -10.880 -14.017  25.304  1.00  0.00    -0.047 A 
ENDROOT
BRANCH  12  21
HETATM   21  C13 UNL     1      -5.892 -11.364  26.116  1.00  0.00    -0.070 C 
HETATM   22  C14 UNL     1      -4.708 -11.815  26.892  1.00  0.00     0.044 C 
BRANCH  21  23
HETATM   23  C15 UNL     1      -5.557 -10.215  25.267  1.00  0.00     0.070 C 
BRANCH  23  24
HETATM   24  C16 UNL     1      -4.374 -10.262  24.363  1.00  0.00     0.181 C 
BRANCH  24  25
HETATM   25  O3  UNL     1      -3.549 -11.356  24.458  1.00  0.00    -0.391 OA
ATOM     26  H3  UNL     1      -3.680 -12.057  23.830  1.00  0.00     0.210 HD
ENDBRANCH  24  25
BRANCH  24  27
HETATM   27  C17 UNL     1      -4.388  -9.614  23.048  1.00  0.00     0.385 C 
BRANCH  27  28
HETATM   28  O4  UNL     1      -4.563  -8.233  22.997  1.00  0.00    -0.366 OA
ATOM     29  H4  UNL     1      -4.722  -7.832  22.150  1.00  0.00     0.212 HD
ENDBRANCH  27  28
BRANCH  27  30
HETATM   30  N1  UNL     1      -5.556 -10.110  22.292  1.00  0.00     0.119 N 
HETATM   31  C18 UNL     1      -5.912  -9.311  21.176  1.00  0.00     0.276 C 
HETATM   32  C19 UNL     1      -6.446 -10.277  20.106  1.00  0.00     0.032 C 
HETATM   33  C20 UNL     1      -6.463 -11.618  20.790  1.00  0.00     0.032 C 
HETATM   34  C21 UNL     1      -5.395 -11.466  21.872  1.00  0.00     0.276 C 
ENDBRANCH  27  30
ENDBRANCH  24  27
ENDBRANCH  23  24
ENDBRANCH  21  23
ENDBRANCH  12  21
BRANCH   1  35
HETATM   35  C2  UNL     1      -9.496 -11.407  24.262  1.00  0.00     0.119 C 
HETATM   36  C1  UNL     1     -10.682 -10.508  23.902  1.00  0.00     0.040 C 
BRANCH  35  37
HETATM   37  O1  UNL     1      -8.562 -10.474  23.665  1.00  0.00    -0.396 OA
ATOM     38  H1  UNL     1      -7.838 -10.853  24.149  1.00  0.00     0.210 HD
ENDBRANCH  35  37
ENDBRANCH   1  35
TORSDOF 9
ENDMDL
MODEL 3
REMARK VINA RESULT: -4.969494239      2.774      4.312
REMARK  9 active torsions:
REMARK  status: ('A' for Active; 'I' for Inactive)
REMARK    1  A    between atoms: C2_2  and  O1_3 
REMARK    2  A    between atoms: C2_2  and  C3_5 
REMARK    3  A    between atoms: C12_16  and  C13_17 
REMARK    4  A    between atoms: C13_17  and  C15_19 
REMARK    5  A    between atoms: C15_19  and  C16_20 
REMARK    6  A    between atoms: C16_20  and  O3_21 
REMARK    7  A    between atoms: C16_20  and  C17_23 
REMARK    8  A    between atoms: C17_23  and  O4_24 
REMARK    9  A    between atoms: C17_23  and  N1_26 
ROOT
HETATM    1  C3  UNL     1     -16.704 -12.703  24.091  1.00  0.00     0.028 C 
HETATM    2  C4  UNL     1     -16.721 -12.162  25.508  1.00  0.00     0.017 C 
HETATM    3  C5  UNL     1     -15.855 -11.079  25.888  1.00  0.00     0.019 C 
HETATM    4  C6  UNL     1     -16.711  -9.801  25.826  1.00  0.00     0.010 C 
HETATM    5  C7  UNL     1     -17.023  -9.434  24.448  1.00  0.00     0.016 C 
HETATM    6  C8  UNL     1     -16.438 -10.303  23.304  1.00  0.00     0.002 C 
HETATM    7  C9  UNL     1     -16.669  -9.323  22.168  1.00  0.00     0.061 C 
HETATM    8  C10 UNL     1     -16.560  -9.707  20.789  1.00  0.00     0.245 C 
HETATM    9  F1  UNL     1     -17.573  -9.029  20.053  1.00  0.00    -0.241 F 
HETATM   10  C11 UNL     1     -16.610 -11.139  20.667  1.00  0.00     0.190 C 
HETATM   11  O2  UNL     1     -16.148 -11.630  19.622  1.00  0.00    -0.289 OA
HETATM   12  C12 UNL     1     -17.173 -12.118  21.695  1.00  0.00     0.003 C 
HETATM   13  C22 UNL     1     -17.125 -11.635  23.093  1.00  0.00     0.005 C 
HETATM   14  C23 UNL     1     -18.590 -11.381  23.533  1.00  0.00     0.022 C 
HETATM   15  C24 UNL     1     -15.007 -10.363  23.682  1.00  0.00    -0.042 A 
HETATM   16  C25 UNL     1     -13.963 -10.054  22.873  1.00  0.00     0.008 A 
HETATM   17  C26 UNL     1     -12.669 -10.113  23.368  1.00  0.00     0.001 A 
HETATM   18  C27 UNL     1     -12.433 -10.477  24.666  1.00  0.00     0.001 A 
HETATM   19  C28 UNL     1     -13.458 -10.800  25.525  1.00  0.00     0.008 A 
HETATM   20  C29 UNL     1     -14.737 -10.727  24.977  1.00  0.00    -0.047 A 
ENDROOT
BRANCH  12  21
HETATM   21  C13 UNL     1     -18.289 -12.774  21.007  1.00  0.00    -0.070 C 
HETATM   22  C14 UNL     1     -19.305 -11.982  20.267  1.00  0.00     0.044 C 
BRANCH  21  23
HETATM   23  C15 UNL     1     -18.116 -14.101  20.403  1.00  0.00     0.070 C 
BRANCH  23  24
HETATM   24  C16 UNL     1     -17.964 -14.246  18.928  1.00  0.00     0.181 C 
BRANCH  24  25
HETATM   25  O3  UNL     1     -16.690 -14.209  18.418  1.00  0.00    -0.391 OA
ATOM     26  H3  UNL     1     -16.355 -15.004  18.021  1.00  0.00     0.210 HD
ENDBRANCH  24  25
BRANCH  24  27
HETATM   27  C17 UNL     1     -18.924 -15.015  18.131  1.00  0.00     0.385 C 
BRANCH  27  28
HETATM   28  O4  UNL     1     -18.572 -15.356  16.826  1.00  0.00    -0.366 OA
ATOM     29  H4  UNL     1     -18.993 -16.110  16.431  1.00  0.00     0.212 HD
ENDBRANCH  27  28
BRANCH  27  30
HETATM   30  N1  UNL     1     -20.134 -14.191  17.927  1.00  0.00     0.119 N 
HETATM   31  C18 UNL     1     -20.464 -13.964  16.568  1.00  0.00     0.276 C 
HETATM   32  C19 UNL     1     -22.000 -13.914  16.499  1.00  0.00     0.032 C 
HETATM   33  C20 UNL     1     -22.439 -14.002  17.936  1.00  0.00     0.032 C 
HETATM   34  C21 UNL     1     -21.271 -14.720  18.611  1.00  0.00     0.276 C 
ENDBRANCH  27  30
ENDBRANCH  24  27
ENDBRANCH  23  24
ENDBRANCH  21  23
ENDBRANCH  12  21
BRANCH   1  35
HETATM   35  C2  UNL     1     -15.515 -13.547  23.859  1.00  0.00     0.119 C 
HETATM   36  C1  UNL     1     -15.157 -14.402  25.078  1.00  0.00     0.040 C 
BRANCH  35  37
HETATM   37  O1  UNL     1     -15.780 -14.729  23.064  1.00  0.00    -0.396 OA
ATOM     38  H1  UNL     1     -14.853 -14.925  23.005  1.00  0.00     0.210 HD
ENDBRANCH  35  37
ENDBRANCH   1  35
TORSDOF 9
ENDMDL
MODEL 4
REMARK VINA RESULT: -4.960832191      4.618      6.185
REMARK  9 active torsions:
REMARK  status: ('A' for Active; 'I' for Inactive)
REMARK    1  A    between atoms: C2_2  and  O1_3 
REMARK    2  A    between atoms: C2_2  and  C3_5 
REMARK    3  A    between atoms: C12_16  and  C13_17 
REMARK    4  A    between atoms: C13_17  and  C15_19 
REMARK    5  A    between atoms: C15_19  and  C16_20 
REMARK    6  A    between atoms: C16_20  and  O3_21 
REMARK    7  A    between atoms: C16_20  and  C17_23 
REMARK    8  A    between atoms: C17_23  and  O4_24 
REMARK    9  A    between atoms: C17_23  and  N1_26 
ROOT
HETATM    1  C3  UNL     1     -12.049 -14.025  26.380  1.00  0.00     0.028 C 
HETATM    2  C4  UNL     1     -12.962 -12.818  26.274  1.00  0.00     0.017 C 
HETATM    3  C5  UNL     1     -12.478 -11.505  26.601  1.00  0.00     0.019 C 
HETATM    4  C6  UNL     1     -12.113 -10.834  25.264  1.00  0.00     0.010 C 
HETATM    5  C7  UNL     1     -10.917 -11.431  24.677  1.00  0.00     0.016 C 
HETATM    6  C8  UNL     1     -10.193 -12.555  25.463  1.00  0.00     0.002 C 
HETATM    7  C9  UNL     1      -8.881 -12.522  24.701  1.00  0.00     0.061 C 
HETATM    8  C10 UNL     1      -7.895 -13.558  24.823  1.00  0.00     0.245 C 
HETATM    9  F1  UNL     1      -7.312 -13.776  23.543  1.00  0.00    -0.241 F 
HETATM   10  C11 UNL     1      -8.483 -14.735  25.404  1.00  0.00     0.190 C 
HETATM   11  O2  UNL     1      -7.703 -15.554  25.923  1.00  0.00    -0.289 OA
HETATM   12  C12 UNL     1      -9.970 -15.079  25.449  1.00  0.00     0.003 C 
HETATM   13  C22 UNL     1     -10.872 -13.906  25.424  1.00  0.00     0.005 C 
HETATM   14  C23 UNL     1     -11.600 -13.927  24.055  1.00  0.00     0.022 C 
HETATM   15  C24 UNL     1     -10.055 -11.936  26.801  1.00  0.00    -0.042 A 
HETATM   16  C25 UNL     1      -8.900 -11.827  27.507  1.00  0.00     0.008 A 
HETATM   17  C26 UNL     1      -8.903 -11.185  28.735  1.00  0.00     0.001 A 
HETATM   18  C27 UNL     1     -10.058 -10.656  29.245  1.00  0.00     0.001 A 
HETATM   19  C28 UNL     1     -11.254 -10.740  28.568  1.00  0.00     0.008 A 
HETATM   20  C29 UNL     1     -11.196 -11.397  27.341  1.00  0.00    -0.047 A 
ENDROOT
BRANCH  12  21
HETATM   21  C13 UNL     1     -10.085 -16.321  24.677  1.00  0.00    -0.070 C 
HETATM   22  C14 UNL     1      -9.348 -16.499  23.399  1.00  0.00     0.044 C 
BRANCH  21  23
HETATM   23  C15 UNL     1     -10.273 -17.607  25.358  1.00  0.00     0.070 C 
BRANCH  23  24
HETATM   24  C16 UNL     1     -11.518 -18.399  25.148  1.00  0.00     0.181 C 
BRANCH  24  25
HETATM   25  O3  UNL     1     -11.551 -19.671  25.666  1.00  0.00    -0.391 OA
ATOM     26  H3  UNL     1     -11.926 -19.780  26.532  1.00  0.00     0.210 HD
ENDBRANCH  24  25
BRANCH  24  27
HETATM   27  C17 UNL     1     -12.827 -17.751  25.021  1.00  0.00     0.385 C 
BRANCH  27  28
HETATM   28  O4  UNL     1     -13.450 -17.294  26.181  1.00  0.00    -0.366 OA
ATOM     29  H4  UNL     1     -14.383 -17.445  26.278  1.00  0.00     0.212 HD
ENDBRANCH  27  28
BRANCH  27  30
HETATM   30  N1  UNL     1     -13.795 -18.744  24.511  1.00  0.00     0.119 N 
HETATM   31  C18 UNL     1     -15.004 -18.812  25.248  1.00  0.00     0.276 C 
HETATM   32  C19 UNL     1     -16.111 -19.137  24.232  1.00  0.00     0.032 C 
HETATM   33  C20 UNL     1     -15.375 -19.358  22.938  1.00  0.00     0.032 C 
HETATM   34  C21 UNL     1     -14.093 -18.550  23.127  1.00  0.00     0.276 C 
ENDBRANCH  27  30
ENDBRANCH  24  27
ENDBRANCH  23  24
ENDBRANCH  21  23
ENDBRANCH  12  21
BRANCH   1  35
HETATM   35  C2  UNL     1     -11.860 -14.425  27.788  1.00  0.00     0.119 C 
HETATM   36  C1  UNL     1     -13.146 -14.304  28.610  1.00  0.00     0.040 C 
BRANCH  35  37
HETATM   37  O1  UNL     1     -11.823 -15.859  27.993  1.00  0.00    -0.396 OA
ATOM     38  H1  UNL     1     -11.912 -15.751  28.932  1.00  0.00     0.210 HD
ENDBRANCH  35  37
ENDBRANCH   1  35
TORSDOF 9
ENDMDL
MODEL 5
REMARK VINA RESULT: -4.926017653      5.348      9.458
REMARK  9 active torsions:
REMARK  status: ('A' for Active; 'I' for Inactive)
REMARK    1  A    between atoms: C2_2  and  O1_3 
REMARK    2  A    between atoms: C2_2  and  C3_5 
REMARK    3  A    between atoms: C12_16  and  C13_17 
REMARK    4  A    between atoms: C13_17  and  C15_19 
REMARK    5  A    between atoms: C15_19  and  C16_20 
REMARK    6  A    between atoms: C16_20  and  O3_21 
REMARK    7  A    between atoms: C16_20  and  C17_23 
REMARK    8  A    between atoms: C17_23  and  O4_24 
REMARK    9  A    between atoms: C17_23  and  N1_26 
ROOT
HETATM    1  C3  UNL     1      -9.920 -11.304  25.394  1.00  0.00     0.028 C 
HETATM    2  C4  UNL     1     -10.964 -11.511  26.474  1.00  0.00     0.017 C 
HETATM    3  C5  UNL     1     -11.579 -12.797  26.659  1.00  0.00     0.019 C 
HETATM    4  C6  UNL     1     -10.830 -13.469  27.825  1.00  0.00     0.010 C 
HETATM    5  C7  UNL     1      -9.480 -13.863  27.437  1.00  0.00     0.016 C 
HETATM    6  C8  UNL     1      -9.032 -13.611  25.973  1.00  0.00     0.002 C 
HETATM    7  C9  UNL     1      -7.820 -14.525  25.974  1.00  0.00     0.061 C 
HETATM    8  C10 UNL     1      -6.832 -14.490  24.932  1.00  0.00     0.245 C 
HETATM    9  F1  UNL     1      -5.551 -14.689  25.523  1.00  0.00    -0.241 F 
HETATM   10  C11 UNL     1      -6.945 -13.269  24.182  1.00  0.00     0.190 C 
HETATM   11  O2  UNL     1      -6.444 -13.261  23.043  1.00  0.00    -0.289 OA
HETATM   12  C12 UNL     1      -7.621 -11.980  24.643  1.00  0.00     0.003 C 
HETATM   13  C22 UNL     1      -8.696 -12.174  25.641  1.00  0.00     0.005 C 
HETATM   14  C23 UNL     1      -8.181 -11.585  26.979  1.00  0.00     0.022 C 
HETATM   15  C24 UNL     1     -10.156 -14.208  25.215  1.00  0.00    -0.042 A 
HETATM   16  C25 UNL     1     -10.041 -15.130  24.226  1.00  0.00     0.008 A 
HETATM   17  C26 UNL     1     -11.182 -15.638  23.625  1.00  0.00     0.001 A 
HETATM   18  C27 UNL     1     -12.425 -15.223  24.019  1.00  0.00     0.001 A 
HETATM   19  C28 UNL     1     -12.594 -14.290  25.017  1.00  0.00     0.008 A 
HETATM   20  C29 UNL     1     -11.416 -13.810  25.586  1.00  0.00    -0.047 A 
ENDROOT
BRANCH  12  21
HETATM   21  C13 UNL     1      -6.544 -10.984  24.662  1.00  0.00    -0.070 C 
HETATM   22  C14 UNL     1      -5.274 -11.244  25.388  1.00  0.00     0.044 C 
BRANCH  21  23
HETATM   23  C15 UNL     1      -6.319 -10.108  23.506  1.00  0.00     0.070 C 
BRANCH  23  24
HETATM   24  C16 UNL     1      -4.961  -9.567  23.220  1.00  0.00     0.181 C 
BRANCH  24  25
HETATM   25  O3  UNL     1      -4.514  -9.635  21.924  1.00  0.00    -0.391 OA
ATOM     26  H3  UNL     1      -5.123  -9.390  21.238  1.00  0.00     0.210 HD
ENDBRANCH  24  25
BRANCH  24  27
HETATM   27  C17 UNL     1      -4.390  -8.473  24.012  1.00  0.00     0.385 C 
BRANCH  27  28
HETATM   28  O4  UNL     1      -5.252  -7.710  24.797  1.00  0.00    -0.366 OA
ATOM     29  H4  UNL     1      -4.876  -7.184  25.494  1.00  0.00     0.212 HD
ENDBRANCH  27  28
BRANCH  27  30
HETATM   30  N1  UNL     1      -3.829  -7.466  23.087  1.00  0.00     0.119 N 
HETATM   31  C18 UNL     1      -4.517  -6.227  23.085  1.00  0.00     0.276 C 
HETATM   32  C19 UNL     1      -3.454  -5.143  22.841  1.00  0.00     0.032 C 
HETATM   33  C20 UNL     1      -2.187  -5.915  22.590  1.00  0.00     0.032 C 
HETATM   34  C21 UNL     1      -2.437  -7.236  23.315  1.00  0.00     0.276 C 
ENDBRANCH  27  30
ENDBRANCH  24  27
ENDBRANCH  23  24
ENDBRANCH  21  23
ENDBRANCH  12  21
BRANCH   1  35
HETATM   35  C2  UNL     1     -10.545 -11.217  24.060  1.00  0.00     0.119 C 
HETATM   36  C1  UNL     1     -11.839 -10.397  24.071  1.00  0.00     0.040 C 
BRANCH  35  37
HETATM   37  O1  UNL     1      -9.908 -10.266  23.172  1.00  0.00    -0.396 OA
ATOM     38  H1  UNL     1      -9.049 -10.497  23.503  1.00  0.00     0.210 HD
ENDBRANCH  35  37
ENDBRANCH   1  35
TORSDOF 9
ENDMDL
