MODEL 1
REMARK VINA RESULT: -6.363508862      0.000      0.000
REMARK  7 active torsions:
REMARK  status: ('A' for Active; 'I' for Inactive)
REMARK    1  A    between atoms: O1_2  and  C2_3 
REMARK    2  A    between atoms: C7_8  and  O2_9 
REMARK    3  A    between atoms: C10_12  and  N1_13 
REMARK       I    between atoms: N1_13  and  C11_15 
REMARK    4  A    between atoms: C11_15  and  C12_17 
REMARK    5  A    between atoms: C15_20  and  C17_22 
REMARK    6  A    between atoms: C17_22  and  N2_23 
REMARK       I    between atoms: N2_23  and  C18_25 
REMARK       I    between atoms: C18_25  and  N3_27 
REMARK    7  A    between atoms: N3_27  and  C19_29 
ROOT
HETATM    1  C12 UNL     1      -7.966 -11.502  25.893  1.00  0.00     0.096 C 
HETATM    2  C13 UNL     1      -6.510 -11.356  26.299  1.00  0.00     0.017 C 
HETATM    3  C14 UNL     1      -5.705 -12.169  25.352  1.00  0.00     0.015 C 
HETATM    4  C15 UNL     1      -5.661 -11.405  24.020  1.00  0.00    -0.010 C 
HETATM    5  C16 UNL     1      -5.488 -12.516  22.968  1.00  0.00     0.021 C 
HETATM    6  C23 UNL     1      -6.905 -10.647  23.805  1.00  0.00     0.035 C 
HETATM    7  C24 UNL     1      -8.133 -11.318  24.414  1.00  0.00     0.096 C 
HETATM    8 CL1  UNL     1      -9.561 -10.359  24.031  1.00  0.00    -0.124 Cl
ENDROOT
BRANCH   1   9
HETATM    9  C11 UNL     1      -8.464 -12.782  26.406  1.00  0.00     0.223 C 
HETATM   10  N1  UNL     1      -8.345 -13.998  25.655  1.00  0.00    -0.356 N 
ATOM     11  H1  UNL     1      -7.896 -13.950  24.740  1.00  0.00     0.162 HD
HETATM   12  O3  UNL     1      -9.018 -12.867  27.526  1.00  0.00    -0.273 OA
BRANCH  10  13
HETATM   13  C10 UNL     1      -8.813 -15.269  26.099  1.00  0.00     0.089 C 
HETATM   14  C9  UNL     1      -9.299 -16.005  24.841  1.00  0.00     0.064 C 
HETATM   15  C5  UNL     1      -9.993 -17.233  25.339  1.00  0.00    -0.047 A 
HETATM   16  C4  UNL     1      -9.443 -17.898  26.396  1.00  0.00    -0.049 A 
HETATM   17  C6  UNL     1     -11.165 -17.636  24.706  1.00  0.00     0.047 A 
HETATM   18  C3  UNL     1     -10.133 -19.041  26.831  1.00  0.00     0.047 A 
HETATM   19  C26 UNL     1      -8.208 -17.474  27.052  1.00  0.00     0.041 C 
HETATM   20  C2  UNL     1     -11.295 -19.475  26.234  1.00  0.00     0.102 A 
HETATM   21  C7  UNL     1     -11.809 -18.766  25.167  1.00  0.00     0.102 A 
HETATM   22  C25 UNL     1      -7.739 -16.095  26.772  1.00  0.00     0.030 C 
BRANCH  20  23
HETATM   23  O1  UNL     1     -11.976 -20.605  26.666  1.00  0.00    -0.353 OA
HETATM   24  C1  UNL     1     -12.200 -20.743  28.055  1.00  0.00     0.210 C 
ENDBRANCH  20  23
BRANCH  21  25
HETATM   25  O2  UNL     1     -12.982 -19.233  24.589  1.00  0.00    -0.353 OA
HETATM   26  C8  UNL     1     -13.498 -18.513  23.481  1.00  0.00     0.210 C 
ENDBRANCH  21  25
ENDBRANCH  10  13
ENDBRANCH   1   9
BRANCH   4  27
HETATM   27  C17 UNL     1      -4.407 -10.602  24.054  1.00  0.00     0.075 C 
BRANCH  27  28
HETATM   28  N2  UNL     1      -4.391  -9.242  23.719  1.00  0.00    -0.322 N 
HETATM   29  C18 UNL     1      -3.398  -8.318  23.495  1.00  0.00     0.320 C 
HETATM   30  O4  UNL     1      -2.182  -8.539  23.531  1.00  0.00    -0.247 OA
HETATM   31  N3  UNL     1      -3.723  -6.925  23.178  1.00  0.00    -0.335 N 
ATOM     32  H3  UNL     1      -4.704  -6.653  23.122  1.00  0.00     0.165 HD
ATOM     33  H2  UNL     1      -5.326  -8.849  23.617  1.00  0.00     0.169 HD
BRANCH  31  34
HETATM   34  C19 UNL     1      -2.721  -5.930  22.945  1.00  0.00     0.023 C 
HETATM   35  C20 UNL     1      -3.356  -4.565  23.022  1.00  0.00     0.037 C 
HETATM   36  C21 UNL     1      -2.164  -6.129  21.547  1.00  0.00     0.037 C 
HETATM   37  C22 UNL     1      -1.607  -5.990  23.978  1.00  0.00     0.037 C 
ENDBRANCH  31  34
ENDBRANCH  27  28
ENDBRANCH   4  27
TORSDOF 7
ENDMDL
MODEL 2
REMARK VINA RESULT: -6.223782583      6.133      8.988
REMARK  7 active torsions:
REMARK  status: ('A' for Active; 'I' for Inactive)
REMARK    1  A    between atoms: O1_2  and  C2_3 
REMARK    2  A    between atoms: C7_8  and  O2_9 
REMARK    3  A    between atoms: C10_12  and  N1_13 
REMARK       I    between atoms: N1_13  and  C11_15 
REMARK    4  A    between atoms: C11_15  and  C12_17 
REMARK    5  A    between atoms: C15_20  and  C17_22 
REMARK    6  A    between atoms: C17_22  and  N2_23 
REMARK       I    between atoms: N2_23  and  C18_25 
REMARK       I    between atoms: C18_25  and  N3_27 
REMARK    7  A    between atoms: N3_27  and  C19_29 
ROOT
HETATM    1  C12 UNL     1     -13.363 -12.800  25.219  1.00  0.00     0.096 C 
HETATM    2  C13 UNL     1     -12.119 -13.638  25.459  1.00  0.00     0.017 C 
HETATM    3  C14 UNL     1     -11.005 -12.993  24.719  1.00  0.00     0.015 C 
HETATM    4  C15 UNL     1     -10.603 -11.736  25.507  1.00  0.00    -0.010 C 
HETATM    5  C16 UNL     1     -10.034 -10.796  24.428  1.00  0.00     0.021 C 
HETATM    6  C23 UNL     1     -11.770 -11.140  26.180  1.00  0.00     0.035 C 
HETATM    7  C24 UNL     1     -13.075 -11.341  25.416  1.00  0.00     0.096 C 
HETATM    8 CL1  UNL     1     -14.378 -10.528  26.280  1.00  0.00    -0.124 Cl
ENDROOT
BRANCH   1   9
HETATM    9  C11 UNL     1     -13.903 -13.139  23.899  1.00  0.00     0.223 C 
HETATM   10  N1  UNL     1     -14.774 -12.251  23.184  1.00  0.00    -0.356 N 
ATOM     11  H1  UNL     1     -15.009 -11.360  23.622  1.00  0.00     0.162 HD
HETATM   12  O3  UNL     1     -13.628 -14.224  23.339  1.00  0.00    -0.273 OA
BRANCH  10  13
HETATM   13  C10 UNL     1     -15.331 -12.528  21.901  1.00  0.00     0.089 C 
HETATM   14  C9  UNL     1     -16.690 -13.195  22.167  1.00  0.00     0.064 C 
HETATM   15  C5  UNL     1     -17.161 -13.686  20.834  1.00  0.00    -0.047 A 
HETATM   16  C4  UNL     1     -16.947 -12.893  19.744  1.00  0.00    -0.049 A 
HETATM   17  C6  UNL     1     -17.790 -14.926  20.768  1.00  0.00     0.047 A 
HETATM   18  C3  UNL     1     -17.401 -13.399  18.516  1.00  0.00     0.047 A 
HETATM   19  C26 UNL     1     -16.293 -11.589  19.821  1.00  0.00     0.041 C 
HETATM   20  C2  UNL     1     -18.027 -14.620  18.405  1.00  0.00     0.102 A 
HETATM   21  C7  UNL     1     -18.221 -15.383  19.539  1.00  0.00     0.102 A 
HETATM   22  C25 UNL     1     -15.543 -11.286  21.065  1.00  0.00     0.030 C 
BRANCH  20  23
HETATM   23  O1  UNL     1     -18.475 -15.119  17.190  1.00  0.00    -0.353 OA
HETATM   24  C1  UNL     1     -19.553 -14.449  16.565  1.00  0.00     0.210 C 
ENDBRANCH  20  23
BRANCH  21  25
HETATM   25  O2  UNL     1     -18.856 -16.608  19.391  1.00  0.00    -0.353 OA
HETATM   26  C8  UNL     1     -20.181 -16.723  19.885  1.00  0.00     0.210 C 
ENDBRANCH  21  25
ENDBRANCH  10  13
ENDBRANCH   1   9
BRANCH   4  27
HETATM   27  C17 UNL     1      -9.483 -12.154  26.395  1.00  0.00     0.075 C 
BRANCH  27  28
HETATM   28  N2  UNL     1      -8.932 -11.288  27.348  1.00  0.00    -0.322 N 
HETATM   29  C18 UNL     1      -9.300 -10.887  28.610  1.00  0.00     0.320 C 
HETATM   30  O4  UNL     1     -10.297 -11.275  29.231  1.00  0.00    -0.247 OA
HETATM   31  N3  UNL     1      -8.495  -9.918  29.357  1.00  0.00    -0.335 N 
ATOM     32  H3  UNL     1      -7.649  -9.548  28.923  1.00  0.00     0.165 HD
ATOM     33  H2  UNL     1      -8.062 -10.858  27.035  1.00  0.00     0.169 HD
BRANCH  31  34
HETATM   34  C19 UNL     1      -8.845  -9.469  30.670  1.00  0.00     0.023 C 
HETATM   35  C20 UNL     1      -7.934  -8.334  31.061  1.00  0.00     0.037 C 
HETATM   36  C21 UNL     1      -8.636 -10.617  31.642  1.00  0.00     0.037 C 
HETATM   37  C22 UNL     1     -10.278  -8.966  30.737  1.00  0.00     0.037 C 
ENDBRANCH  31  34
ENDBRANCH  27  28
ENDBRANCH   4  27
TORSDOF 7
ENDMDL
MODEL 3
REMARK VINA RESULT: -6.144180458      5.773      8.269
REMARK  7 active torsions:
REMARK  status: ('A' for Active; 'I' for Inactive)
REMARK    1  A    between atoms: O1_2  and  C2_3 
REMARK    2  A    between atoms: C7_8  and  O2_9 
REMARK    3  A    between atoms: C10_12  and  N1_13 
REMARK       I    between atoms: N1_13  and  C11_15 
REMARK    4  A    between atoms: C11_15  and  C12_17 
REMARK    5  A    between atoms: C15_20  and  C17_22 
REMARK    6  A    between atoms: C17_22  and  N2_23 
REMARK       I    between atoms: N2_23  and  C18_25 
REMARK       I    between atoms: C18_25  and  N3_27 
REMARK    7  A    between atoms: N3_27  and  C19_29 
ROOT
HETATM    1  C12 UNL     1     -13.421 -12.744  25.046  1.00  0.00     0.096 C 
HETATM    2  C13 UNL     1     -12.027 -13.343  25.107  1.00  0.00     0.017 C 
HETATM    3  C14 UNL     1     -11.139 -12.476  24.291  1.00  0.00     0.015 C 
HETATM    4  C15 UNL     1     -10.885 -11.196  25.101  1.00  0.00    -0.010 C 
HETATM    5  C16 UNL     1     -10.621 -10.128  24.023  1.00  0.00     0.021 C 
HETATM    6  C23 UNL     1     -12.056 -10.852  25.926  1.00  0.00     0.035 C 
HETATM    7  C24 UNL     1     -13.382 -11.264  25.293  1.00  0.00     0.096 C 
HETATM    8 CL1  UNL     1     -14.704 -10.740  26.332  1.00  0.00    -0.124 Cl
ENDROOT
BRANCH   1   9
HETATM    9  C11 UNL     1     -14.037 -13.131  23.773  1.00  0.00     0.223 C 
HETATM   10  N1  UNL     1     -14.813 -12.210  22.994  1.00  0.00    -0.356 N 
ATOM     11  H1  UNL     1     -14.926 -11.261  23.352  1.00  0.00     0.162 HD
HETATM   12  O3  UNL     1     -13.912 -14.288  23.311  1.00  0.00    -0.273 OA
BRANCH  10  13
HETATM   13  C10 UNL     1     -15.438 -12.530  21.753  1.00  0.00     0.089 C 
HETATM   14  C9  UNL     1     -16.749 -13.247  22.113  1.00  0.00     0.064 C 
HETATM   15  C5  UNL     1     -17.280 -13.778  20.818  1.00  0.00    -0.047 A 
HETATM   16  C4  UNL     1     -17.168 -12.994  19.707  1.00  0.00    -0.049 A 
HETATM   17  C6  UNL     1     -17.860 -15.043  20.809  1.00  0.00     0.047 A 
HETATM   18  C3  UNL     1     -17.676 -13.538  18.516  1.00  0.00     0.047 A 
HETATM   19  C26 UNL     1     -16.565 -11.663  19.725  1.00  0.00     0.041 C 
HETATM   20  C2  UNL     1     -18.257 -14.785  18.462  1.00  0.00     0.102 A 
HETATM   21  C7  UNL     1     -18.347 -15.537  19.615  1.00  0.00     0.102 A 
HETATM   22  C25 UNL     1     -15.753 -11.310  20.916  1.00  0.00     0.030 C 
BRANCH  20  23
HETATM   23  O1  UNL     1     -18.758 -15.320  17.284  1.00  0.00    -0.353 OA
HETATM   24  C1  UNL     1     -19.640 -14.518  16.523  1.00  0.00     0.210 C 
ENDBRANCH  20  23
BRANCH  21  25
HETATM   25  O2  UNL     1     -18.939 -16.789  19.524  1.00  0.00    -0.353 OA
HETATM   26  C8  UNL     1     -18.834 -17.648  20.649  1.00  0.00     0.210 C 
ENDBRANCH  21  25
ENDBRANCH  10  13
ENDBRANCH   1   9
BRANCH   4  27
HETATM   27  C17 UNL     1      -9.614 -11.428  25.842  1.00  0.00     0.075 C 
BRANCH  27  28
HETATM   28  N2  UNL     1      -8.522 -12.076  25.252  1.00  0.00    -0.322 N 
HETATM   29  C18 UNL     1      -7.443 -11.660  24.509  1.00  0.00     0.320 C 
HETATM   30  O4  UNL     1      -7.186 -10.490  24.198  1.00  0.00    -0.247 OA
HETATM   31  N3  UNL     1      -6.461 -12.621  24.002  1.00  0.00    -0.335 N 
ATOM     32  H3  UNL     1      -6.590 -13.610  24.216  1.00  0.00     0.165 HD
ATOM     33  H2  UNL     1      -8.528 -13.083  25.409  1.00  0.00     0.169 HD
BRANCH  31  34
HETATM   34  C19 UNL     1      -5.328 -12.231  23.220  1.00  0.00     0.023 C 
HETATM   35  C20 UNL     1      -4.478 -13.445  22.945  1.00  0.00     0.037 C 
HETATM   36  C21 UNL     1      -4.508 -11.237  24.024  1.00  0.00     0.037 C 
HETATM   37  C22 UNL     1      -5.736 -11.631  21.885  1.00  0.00     0.037 C 
ENDBRANCH  31  34
ENDBRANCH  27  28
ENDBRANCH   4  27
TORSDOF 7
ENDMDL
MODEL 4
REMARK VINA RESULT: -6.087370625      6.572      9.382
REMARK  7 active torsions:
REMARK  status: ('A' for Active; 'I' for Inactive)
REMARK    1  A    between atoms: O1_2  and  C2_3 
REMARK    2  A    between atoms: C7_8  and  O2_9 
REMARK    3  A    between atoms: C10_12  and  N1_13 
REMARK       I    between atoms: N1_13  and  C11_15 
REMARK    4  A    between atoms: C11_15  and  C12_17 
REMARK    5  A    between atoms: C15_20  and  C17_22 
REMARK    6  A    between atoms: C17_22  and  N2_23 
REMARK       I    between atoms: N2_23  and  C18_25 
REMARK       I    between atoms: C18_25  and  N3_27 
REMARK    7  A    between atoms: N3_27  and  C19_29 
ROOT
HETATM    1  C12 UNL     1     -12.314 -10.294  24.329  1.00  0.00     0.096 C 
HETATM    2  C13 UNL     1     -13.167 -10.365  25.584  1.00  0.00     0.017 C 
HETATM    3  C14 UNL     1     -13.277 -11.797  25.961  1.00  0.00     0.015 C 
HETATM    4  C15 UNL     1     -11.927 -12.214  26.564  1.00  0.00    -0.010 C 
HETATM    5  C16 UNL     1     -11.845 -13.723  26.266  1.00  0.00     0.021 C 
HETATM    6  C23 UNL     1     -10.818 -11.478  25.934  1.00  0.00     0.035 C 
HETATM    7  C24 UNL     1     -11.078 -11.132  24.471  1.00  0.00     0.096 C 
HETATM    8 CL1  UNL     1      -9.659 -10.321  23.811  1.00  0.00    -0.124 Cl
ENDROOT
BRANCH   1   9
HETATM    9  C11 UNL     1     -13.154 -10.640  23.179  1.00  0.00     0.223 C 
HETATM   10  N1  UNL     1     -14.453 -10.062  22.986  1.00  0.00    -0.356 N 
ATOM     11  H1  UNL     1     -14.783  -9.391  23.680  1.00  0.00     0.162 HD
HETATM   12  O3  UNL     1     -12.772 -11.459  22.313  1.00  0.00    -0.273 OA
BRANCH  10  13
HETATM   13  C10 UNL     1     -15.315 -10.363  21.891  1.00  0.00     0.089 C 
HETATM   14  C9  UNL     1     -16.072 -11.640  22.287  1.00  0.00     0.064 C 
HETATM   15  C5  UNL     1     -16.797 -12.073  21.052  1.00  0.00    -0.047 A 
HETATM   16  C4  UNL     1     -17.365 -11.111  20.269  1.00  0.00    -0.049 A 
HETATM   17  C6  UNL     1     -16.854 -13.433  20.759  1.00  0.00     0.047 A 
HETATM   18  C3  UNL     1     -18.029 -11.566  19.118  1.00  0.00     0.047 A 
HETATM   19  C26 UNL     1     -17.308  -9.686  20.585  1.00  0.00     0.041 C 
HETATM   20  C2  UNL     1     -18.110 -12.900  18.791  1.00  0.00     0.102 A 
HETATM   21  C7  UNL     1     -17.519 -13.834  19.617  1.00  0.00     0.102 A 
HETATM   22  C25 UNL     1     -16.313  -9.264  21.602  1.00  0.00     0.030 C 
BRANCH  20  23
HETATM   23  O1  UNL     1     -18.766 -13.349  17.653  1.00  0.00    -0.353 OA
HETATM   24  C1  UNL     1     -20.177 -13.425  17.699  1.00  0.00     0.210 C 
ENDBRANCH  20  23
BRANCH  21  25
HETATM   25  O2  UNL     1     -17.620 -15.171  19.257  1.00  0.00    -0.353 OA
HETATM   26  C8  UNL     1     -18.309 -16.038  20.143  1.00  0.00     0.210 C 
ENDBRANCH  21  25
ENDBRANCH  10  13
ENDBRANCH   1   9
BRANCH   4  27
HETATM   27  C17 UNL     1     -12.069 -12.042  28.037  1.00  0.00     0.075 C 
BRANCH  27  28
HETATM   28  N2  UNL     1     -11.352 -11.066  28.740  1.00  0.00    -0.322 N 
HETATM   29  C18 UNL     1     -10.106 -11.017  29.318  1.00  0.00     0.320 C 
HETATM   30  O4  UNL     1      -9.269 -11.928  29.312  1.00  0.00    -0.247 OA
HETATM   31  N3  UNL     1      -9.650  -9.817  30.024  1.00  0.00    -0.335 N 
ATOM     32  H3  UNL     1     -10.274  -9.012  30.074  1.00  0.00     0.165 HD
ATOM     33  H2  UNL     1     -11.871 -10.194  28.845  1.00  0.00     0.169 HD
BRANCH  31  34
HETATM   34  C19 UNL     1      -8.364  -9.727  30.646  1.00  0.00     0.023 C 
HETATM   35  C20 UNL     1      -8.329 -10.648  31.839  1.00  0.00     0.037 C 
HETATM   36  C21 UNL     1      -8.162  -8.302  31.127  1.00  0.00     0.037 C 
HETATM   37  C22 UNL     1      -7.244 -10.136  29.703  1.00  0.00     0.037 C 
ENDBRANCH  31  34
ENDBRANCH  27  28
ENDBRANCH   4  27
TORSDOF 7
ENDMDL
MODEL 5
REMARK VINA RESULT: -6.001766840      2.982     11.302
REMARK  7 active torsions:
REMARK  status: ('A' for Active; 'I' for Inactive)
REMARK    1  A    between atoms: O1_2  and  C2_3 
REMARK    2  A    between atoms: C7_8  and  O2_9 
REMARK    3  A    between atoms: C10_12  and  N1_13 
REMARK       I    between atoms: N1_13  and  C11_15 
REMARK    4  A    between atoms: C11_15  and  C12_17 
REMARK    5  A    between atoms: C15_20  and  C17_22 
REMARK    6  A    between atoms: C17_22  and  N2_23 
REMARK       I    between atoms: N2_23  and  C18_25 
REMARK       I    between atoms: C18_25  and  N3_27 
REMARK    7  A    between atoms: N3_27  and  C19_29 
ROOT
HETATM    1  C12 UNL     1     -10.986 -15.022  25.131  1.00  0.00     0.096 C 
HETATM    2  C13 UNL     1     -11.134 -16.105  24.077  1.00  0.00     0.017 C 
HETATM    3  C14 UNL     1     -10.289 -17.251  24.501  1.00  0.00     0.015 C 
HETATM    4  C15 UNL     1     -11.015 -17.946  25.663  1.00  0.00    -0.010 C 
HETATM    5  C16 UNL     1      -9.874 -18.583  26.478  1.00  0.00     0.021 C 
HETATM    6  C23 UNL     1     -11.775 -16.974  26.468  1.00  0.00     0.035 C 
HETATM    7  C24 UNL     1     -11.130 -15.592  26.512  1.00  0.00     0.096 C 
HETATM    8 CL1  UNL     1     -12.086 -14.543  27.556  1.00  0.00    -0.124 Cl
ENDROOT
BRANCH   1   9
HETATM    9  C11 UNL     1      -9.724 -14.314  24.895  1.00  0.00     0.223 C 
HETATM   10  N1  UNL     1      -9.303 -13.218  25.718  1.00  0.00    -0.356 N 
ATOM     11  H1  UNL     1      -9.912 -12.940  26.488  1.00  0.00     0.162 HD
HETATM   12  O3  UNL     1      -8.959 -14.637  23.958  1.00  0.00    -0.273 OA
BRANCH  10  13
HETATM   13  C10 UNL     1      -8.091 -12.491  25.534  1.00  0.00     0.089 C 
HETATM   14  C9  UNL     1      -8.395 -11.424  24.472  1.00  0.00     0.064 C 
HETATM   15  C5  UNL     1      -7.071 -10.821  24.120  1.00  0.00    -0.047 A 
HETATM   16  C4  UNL     1      -6.177 -10.602  25.127  1.00  0.00    -0.049 A 
HETATM   17  C6  UNL     1      -6.814 -10.517  22.786  1.00  0.00     0.047 A 
HETATM   18  C3  UNL     1      -4.948 -10.040  24.748  1.00  0.00     0.047 A 
HETATM   19  C26 UNL     1      -6.456 -10.916  26.527  1.00  0.00     0.041 C 
HETATM   20  C2  UNL     1      -4.651  -9.724  23.441  1.00  0.00     0.102 A 
HETATM   21  C7  UNL     1      -5.591  -9.966  22.459  1.00  0.00     0.102 A 
HETATM   22  C25 UNL     1      -7.609 -11.810  26.796  1.00  0.00     0.030 C 
BRANCH  20  23
HETATM   23  O1  UNL     1      -3.435  -9.170  23.067  1.00  0.00    -0.353 OA
HETATM   24  C1  UNL     1      -3.237  -7.793  23.325  1.00  0.00     0.210 C 
ENDBRANCH  20  23
BRANCH  21  25
HETATM   25  O2  UNL     1      -5.259  -9.634  21.153  1.00  0.00    -0.353 OA
HETATM   26  C8  UNL     1      -6.124 -10.085  20.122  1.00  0.00     0.210 C 
ENDBRANCH  21  25
ENDBRANCH  10  13
ENDBRANCH   1   9
BRANCH   4  27
HETATM   27  C17 UNL     1     -11.811 -19.044  25.047  1.00  0.00     0.075 C 
BRANCH  27  28
HETATM   28  N2  UNL     1     -13.210 -19.007  25.001  1.00  0.00    -0.322 N 
HETATM   29  C18 UNL     1     -14.131 -18.488  24.122  1.00  0.00     0.320 C 
HETATM   30  O4  UNL     1     -13.872 -17.900  23.065  1.00  0.00    -0.247 OA
HETATM   31  N3  UNL     1     -15.568 -18.598  24.384  1.00  0.00    -0.335 N 
ATOM     32  H3  UNL     1     -15.875 -19.074  25.233  1.00  0.00     0.165 HD
ATOM     33  H2  UNL     1     -13.644 -19.470  25.799  1.00  0.00     0.169 HD
BRANCH  31  34
HETATM   34  C19 UNL     1     -16.559 -18.066  23.500  1.00  0.00     0.023 C 
HETATM   35  C20 UNL     1     -16.477 -16.560  23.517  1.00  0.00     0.037 C 
HETATM   36  C21 UNL     1     -17.928 -18.483  24.006  1.00  0.00     0.037 C 
HETATM   37  C22 UNL     1     -16.354 -18.531  22.067  1.00  0.00     0.037 C 
ENDBRANCH  31  34
ENDBRANCH  27  28
ENDBRANCH   4  27
TORSDOF 7
ENDMDL
