MODEL 1
REMARK VINA RESULT: -6.376202588      0.000      0.000
REMARK  13 active torsions:
REMARK  status: ('A' for Active; 'I' for Inactive)
REMARK    1  A    between atoms: O1_2  and  C2_3 
REMARK    2  A    between atoms: C2_3  and  C3_5 
REMARK    3  A    between atoms: C3_5  and  N1_6 
REMARK    4  A    between atoms: C3_5  and  C6_11 
REMARK    5  A    between atoms: C3_5  and  C9_18 
REMARK       I    between atoms: N1_6  and  C4_8 
REMARK    6  A    between atoms: C9_18  and  N3_19 
REMARK    7  A    between atoms: C9_18  and  C20_37 
REMARK       I    between atoms: N3_19  and  C10_21 
REMARK    8  A    between atoms: C10_21  and  C11_23 
REMARK       I    between atoms: N5_27  and  C14_28 
REMARK    9  A    between atoms: C14_28  and  C15_30 
REMARK   10  A    between atoms: C15_30  and  O6_31 
REMARK   11  A    between atoms: C15_30  and  C16_33 
REMARK   12  A    between atoms: C22_41  and  N7_42 
REMARK   13  A    between atoms: C24_46  and  O7_47 
ROOT
HETATM    1  C9  UNL     1      16.380  -8.421  -0.142  1.00  0.00     0.205 C 
ENDROOT
BRANCH   1   2
HETATM    2  C3  UNL     1      15.118  -8.621  -0.885  1.00  0.00     0.198 C 
BRANCH   2   3
HETATM    3  C2  UNL     1      15.261  -9.918  -1.698  1.00  0.00     0.296 C 
HETATM    4  O2  UNL     1      14.287 -10.686  -1.798  1.00  0.00    -0.262 OA
BRANCH   3   5
HETATM    5  O1  UNL     1      16.417 -10.275  -2.330  1.00  0.00    -0.324 OA
HETATM    6  C1  UNL     1      16.661 -11.627  -2.766  1.00  0.00     0.213 C 
ENDBRANCH   3   5
ENDBRANCH   2   3
BRANCH   2   7
HETATM    7  N1  UNL     1      13.994  -8.894  -0.006  1.00  0.00    -0.335 N 
HETATM    8  C4  UNL     1      13.579  -8.277   1.153  1.00  0.00     0.215 C 
HETATM    9  C5  UNL     1      12.360  -8.795   1.879  1.00  0.00     0.117 C 
HETATM   10  O3  UNL     1      14.125  -7.309   1.674  1.00  0.00    -0.274 OA
ATOM     11  H1  UNL     1      13.412  -9.679  -0.298  1.00  0.00     0.164 HD
ENDBRANCH   2   7
BRANCH   2  12
HETATM   12  C6  UNL     1      14.802  -7.558  -1.886  1.00  0.00     0.093 A 
HETATM   13  N2  UNL     1      15.041  -7.617  -3.199  1.00  0.00    -0.359 N 
HETATM   14  C7  UNL     1      14.707  -6.635  -3.959  1.00  0.00     0.120 A 
ATOM     15  H2  UNL     1      15.489  -8.442  -3.598  1.00  0.00     0.165 HD
HETATM   16  C8  UNL     1      14.108  -5.543  -3.385  1.00  0.00     0.091 A 
HETATM   17 CL1  UNL     1      13.547  -4.066  -4.170  1.00  0.00    -0.075 Cl
HETATM   18  S1  UNL     1      14.065  -6.019  -1.749  1.00  0.00    -0.060 SA
ENDBRANCH   2  12
ENDBRANCH   1   2
BRANCH   1  19
HETATM   19  N3  UNL     1      17.552  -8.135  -0.902  1.00  0.00    -0.344 N 
HETATM   20  C10 UNL     1      18.642  -7.343  -0.348  1.00  0.00     0.243 C 
HETATM   21  O4  UNL     1      18.387  -6.924   0.817  1.00  0.00    -0.271 OA
ATOM     22  H3  UNL     1      17.628  -8.493  -1.855  1.00  0.00     0.163 HD
BRANCH  20  23
HETATM   23  C11 UNL     1      19.831  -7.129  -1.108  1.00  0.00     0.200 C 
HETATM   24  C12 UNL     1      20.631  -5.937  -0.648  1.00  0.00     0.054 C 
HETATM   25  C13 UNL     1      21.889  -6.104  -1.490  1.00  0.00     0.138 C 
HETATM   26  N4  UNL     1      21.812  -7.467  -2.048  1.00  0.00    -0.135 NA
HETATM   27  N5  UNL     1      20.850  -8.127  -1.181  1.00  0.00    -0.249 N 
HETATM   28  C14 UNL     1      21.122  -9.391  -0.688  1.00  0.00     0.265 C 
HETATM   29  O5  UNL     1      20.381 -10.077   0.098  1.00  0.00    -0.269 OA
BRANCH  28  30
HETATM   30  C15 UNL     1      22.385 -10.124  -1.047  1.00  0.00     0.218 C 
BRANCH  30  31
HETATM   31  O6  UNL     1      23.517  -9.363  -0.945  1.00  0.00    -0.385 OA
ATOM     32  H6  UNL     1      24.323  -9.851  -1.067  1.00  0.00     0.210 HD
ENDBRANCH  30  31
BRANCH  30  33
HETATM   33  C16 UNL     1      22.273 -10.866  -2.344  1.00  0.00    -0.017 C 
HETATM   34  C17 UNL     1      22.617 -12.329  -2.034  1.00  0.00     0.017 C 
HETATM   35  C18 UNL     1      20.873 -10.869  -2.890  1.00  0.00     0.017 C 
HETATM   36  C19 UNL     1      23.240 -10.411  -3.389  1.00  0.00     0.017 C 
ENDBRANCH  30  33
ENDBRANCH  28  30
ENDBRANCH  20  23
ENDBRANCH   1  19
BRANCH   1  37
HETATM   37  C20 UNL     1      16.763  -9.589   0.752  1.00  0.00     0.153 A 
HETATM   38  N6  UNL     1      17.663 -10.546   0.561  1.00  0.00    -0.333 N 
HETATM   39  C21 UNL     1      17.652 -11.381   1.638  1.00  0.00     0.115 A 
ATOM     40  H6  UNL     1      18.265 -10.641  -0.258  1.00  0.00     0.168 HD
HETATM   41  C22 UNL     1      18.317 -12.509   2.029  1.00  0.00     0.094 A 
HETATM   42  C25 UNL     1      16.701 -10.884   2.495  1.00  0.00     0.181 A 
HETATM   43  C23 UNL     1      17.986 -13.064   3.251  1.00  0.00     0.090 A 
HETATM   44  C24 UNL     1      17.026 -12.531   4.076  1.00  0.00     0.144 A 
HETATM   45  N8  UNL     1      16.382 -11.422   3.678  1.00  0.00    -0.315 N 
ATOM     46  H8  UNL     1      15.664 -10.998   4.265  1.00  0.00     0.170 HD
HETATM   47  O8  UNL     1      16.205  -9.806   1.903  1.00  0.00    -0.276 OA
BRANCH  41  48
HETATM   48  N7  UNL     1      19.300 -13.045   1.174  1.00  0.00    -0.222 N 
HETATM   49  F1  UNL     1      20.593 -12.833   1.431  1.00  0.00    -0.101 F 
ATOM     50  H7  UNL     1      19.025 -13.594   0.359  1.00  0.00     0.200 HD
ENDBRANCH  41  48
BRANCH  44  51
HETATM   51  O7  UNL     1      16.724 -13.127   5.305  1.00  0.00    -0.346 OA
ATOM     52  H7  UNL     1      16.447 -12.602   6.047  1.00  0.00     0.219 HD
ENDBRANCH  44  51
ENDBRANCH   1  37
TORSDOF 13
ENDMDL
MODEL 2
REMARK VINA RESULT: -6.284483554      1.734      2.952
REMARK  13 active torsions:
REMARK  status: ('A' for Active; 'I' for Inactive)
REMARK    1  A    between atoms: O1_2  and  C2_3 
REMARK    2  A    between atoms: C2_3  and  C3_5 
REMARK    3  A    between atoms: C3_5  and  N1_6 
REMARK    4  A    between atoms: C3_5  and  C6_11 
REMARK    5  A    between atoms: C3_5  and  C9_18 
REMARK       I    between atoms: N1_6  and  C4_8 
REMARK    6  A    between atoms: C9_18  and  N3_19 
REMARK    7  A    between atoms: C9_18  and  C20_37 
REMARK       I    between atoms: N3_19  and  C10_21 
REMARK    8  A    between atoms: C10_21  and  C11_23 
REMARK       I    between atoms: N5_27  and  C14_28 
REMARK    9  A    between atoms: C14_28  and  C15_30 
REMARK   10  A    between atoms: C15_30  and  O6_31 
REMARK   11  A    between atoms: C15_30  and  C16_33 
REMARK   12  A    between atoms: C22_41  and  N7_42 
REMARK   13  A    between atoms: C24_46  and  O7_47 
ROOT
HETATM    1  C9  UNL     1      16.335  -7.985  -0.687  1.00  0.00     0.205 C 
ENDROOT
BRANCH   1   2
HETATM    2  C3  UNL     1      15.181  -8.249  -1.572  1.00  0.00     0.198 C 
BRANCH   2   3
HETATM    3  C2  UNL     1      14.930  -6.975  -2.395  1.00  0.00     0.296 C 
HETATM    4  O2  UNL     1      15.336  -6.918  -3.571  1.00  0.00    -0.262 OA
BRANCH   3   5
HETATM    5  O1  UNL     1      14.271  -5.887  -1.900  1.00  0.00    -0.324 OA
HETATM    6  C1  UNL     1      13.433  -5.060  -2.731  1.00  0.00     0.213 C 
ENDBRANCH   3   5
ENDBRANCH   2   3
BRANCH   2   7
HETATM    7  N1  UNL     1      15.472  -9.253  -2.580  1.00  0.00    -0.335 N 
HETATM    8  C4  UNL     1      15.508 -10.628  -2.506  1.00  0.00     0.215 C 
HETATM    9  C5  UNL     1      15.863 -11.431  -3.736  1.00  0.00     0.117 C 
HETATM   10  O3  UNL     1      15.270 -11.288  -1.500  1.00  0.00    -0.274 OA
ATOM     11  H1  UNL     1      15.687  -8.874  -3.502  1.00  0.00     0.164 HD
ENDBRANCH   2   7
BRANCH   2  12
HETATM   12  C6  UNL     1      13.894  -8.522  -0.862  1.00  0.00     0.093 A 
HETATM   13  N2  UNL     1      13.626  -8.242   0.416  1.00  0.00    -0.359 N 
HETATM   14  C7  UNL     1      12.469  -8.516   0.905  1.00  0.00     0.120 A 
ATOM     15  H2  UNL     1      14.339  -7.811   1.004  1.00  0.00     0.165 HD
HETATM   16  C8  UNL     1      11.536  -9.096   0.084  1.00  0.00     0.091 A 
HETATM   17 CL1  UNL     1       9.884  -9.578   0.476  1.00  0.00    -0.075 Cl
HETATM   18  S1  UNL     1      12.412  -9.208  -1.374  1.00  0.00    -0.060 SA
ENDBRANCH   2  12
ENDBRANCH   1   2
BRANCH   1  19
HETATM   19  N3  UNL     1      17.580  -7.672  -1.308  1.00  0.00    -0.344 N 
HETATM   20  C10 UNL     1      18.698  -7.139  -0.540  1.00  0.00     0.243 C 
HETATM   21  O4  UNL     1      18.401  -6.952   0.675  1.00  0.00    -0.271 OA
ATOM     22  H3  UNL     1      17.691  -7.825  -2.310  1.00  0.00     0.163 HD
BRANCH  20  23
HETATM   23  C11 UNL     1      19.953  -6.896  -1.175  1.00  0.00     0.200 C 
HETATM   24  C12 UNL     1      20.722  -5.751  -0.567  1.00  0.00     0.054 C 
HETATM   25  C13 UNL     1      22.049  -5.886  -1.303  1.00  0.00     0.138 C 
HETATM   26  N4  UNL     1      22.007  -7.208  -1.954  1.00  0.00    -0.135 NA
HETATM   27  N5  UNL     1      20.963  -7.906  -1.222  1.00  0.00    -0.249 N 
HETATM   28  C14 UNL     1      21.175  -9.204  -0.791  1.00  0.00     0.265 C 
HETATM   29  O5  UNL     1      20.357  -9.926  -0.121  1.00  0.00    -0.269 OA
BRANCH  28  30
HETATM   30  C15 UNL     1      22.456  -9.934  -1.083  1.00  0.00     0.218 C 
BRANCH  30  31
HETATM   31  O6  UNL     1      23.583  -9.206  -0.818  1.00  0.00    -0.385 OA
ATOM     32  H6  UNL     1      24.295  -9.716  -0.451  1.00  0.00     0.210 HD
ENDBRANCH  30  31
BRANCH  30  33
HETATM   33  C16 UNL     1      22.458 -10.578  -2.437  1.00  0.00    -0.017 C 
HETATM   34  C17 UNL     1      22.793 -12.057  -2.209  1.00  0.00     0.017 C 
HETATM   35  C18 UNL     1      21.108 -10.547  -3.095  1.00  0.00     0.017 C 
HETATM   36  C19 UNL     1      23.502 -10.040  -3.362  1.00  0.00     0.017 C 
ENDBRANCH  30  33
ENDBRANCH  28  30
ENDBRANCH  20  23
ENDBRANCH   1  19
BRANCH   1  37
HETATM   37  C20 UNL     1      16.647  -9.119   0.276  1.00  0.00     0.153 A 
HETATM   38  N6  UNL     1      17.516 -10.117   0.162  1.00  0.00    -0.333 N 
HETATM   39  C21 UNL     1      17.441 -10.894   1.279  1.00  0.00     0.115 A 
ATOM     40  H6  UNL     1      18.137 -10.276  -0.632  1.00  0.00     0.168 HD
HETATM   41  C22 UNL     1      18.051 -12.024   1.747  1.00  0.00     0.094 A 
HETATM   42  C25 UNL     1      16.485 -10.319   2.080  1.00  0.00     0.181 A 
HETATM   43  C23 UNL     1      17.663 -12.503   2.984  1.00  0.00     0.090 A 
HETATM   44  C24 UNL     1      16.700 -11.893   3.751  1.00  0.00     0.144 A 
HETATM   45  N8  UNL     1      16.111 -10.783   3.277  1.00  0.00    -0.315 N 
ATOM     46  H8  UNL     1      15.392 -10.304   3.820  1.00  0.00     0.170 HD
HETATM   47  O8  UNL     1      16.048  -9.256   1.418  1.00  0.00    -0.276 OA
BRANCH  41  48
HETATM   48  N7  UNL     1      19.037 -12.639   0.951  1.00  0.00    -0.222 N 
HETATM   49  F1  UNL     1      20.315 -12.613   1.338  1.00  0.00    -0.101 F 
ATOM     50  H7  UNL     1      18.776 -13.103   0.081  1.00  0.00     0.200 HD
ENDBRANCH  41  48
BRANCH  44  51
HETATM   51  O7  UNL     1      16.340 -12.413   4.999  1.00  0.00    -0.346 OA
ATOM     52  H7  UNL     1      17.000 -12.645   5.640  1.00  0.00     0.219 HD
ENDBRANCH  44  51
ENDBRANCH   1  37
TORSDOF 13
ENDMDL
MODEL 3
REMARK VINA RESULT: -6.173856355      5.962     10.572
REMARK  13 active torsions:
REMARK  status: ('A' for Active; 'I' for Inactive)
REMARK    1  A    between atoms: O1_2  and  C2_3 
REMARK    2  A    between atoms: C2_3  and  C3_5 
REMARK    3  A    between atoms: C3_5  and  N1_6 
REMARK    4  A    between atoms: C3_5  and  C6_11 
REMARK    5  A    between atoms: C3_5  and  C9_18 
REMARK       I    between atoms: N1_6  and  C4_8 
REMARK    6  A    between atoms: C9_18  and  N3_19 
REMARK    7  A    between atoms: C9_18  and  C20_37 
REMARK       I    between atoms: N3_19  and  C10_21 
REMARK    8  A    between atoms: C10_21  and  C11_23 
REMARK       I    between atoms: N5_27  and  C14_28 
REMARK    9  A    between atoms: C14_28  and  C15_30 
REMARK   10  A    between atoms: C15_30  and  O6_31 
REMARK   11  A    between atoms: C15_30  and  C16_33 
REMARK   12  A    between atoms: C22_41  and  N7_42 
REMARK   13  A    between atoms: C24_46  and  O7_47 
ROOT
HETATM    1  C9  UNL     1       9.963  -6.980  -2.659  1.00  0.00     0.205 C 
ENDROOT
BRANCH   1   2
HETATM    2  C3  UNL     1      10.061  -5.534  -2.952  1.00  0.00     0.198 C 
BRANCH   2   3
HETATM    3  C2  UNL     1       9.044  -4.812  -2.054  1.00  0.00     0.296 C 
HETATM    4  O2  UNL     1       9.062  -5.015  -0.826  1.00  0.00    -0.262 OA
BRANCH   3   5
HETATM    5  O1  UNL     1       8.111  -3.941  -2.538  1.00  0.00    -0.324 OA
HETATM    6  C1  UNL     1       7.965  -2.608  -2.008  1.00  0.00     0.213 C 
ENDBRANCH   3   5
ENDBRANCH   2   3
BRANCH   2   7
HETATM    7  N1  UNL     1      11.336  -4.971  -2.544  1.00  0.00    -0.335 N 
HETATM    8  C4  UNL     1      12.511  -4.789  -3.239  1.00  0.00     0.215 C 
HETATM    9  C5  UNL     1      13.704  -4.179  -2.541  1.00  0.00     0.117 C 
HETATM   10  O3  UNL     1      12.689  -5.085  -4.417  1.00  0.00    -0.274 OA
ATOM     11  H1  UNL     1      11.366  -4.656  -1.574  1.00  0.00     0.164 HD
ENDBRANCH   2   7
BRANCH   2  12
HETATM   12  C6  UNL     1       9.699  -5.150  -4.350  1.00  0.00     0.093 A 
HETATM   13  N2  UNL     1       9.705  -3.913  -4.852  1.00  0.00    -0.359 N 
HETATM   14  C7  UNL     1       9.383  -3.716  -6.082  1.00  0.00     0.120 A 
ATOM     15  H2  UNL     1       9.964  -3.124  -4.261  1.00  0.00     0.165 HD
HETATM   16  C8  UNL     1       9.041  -4.802  -6.847  1.00  0.00     0.091 A 
HETATM   17 CL1  UNL     1       8.561  -4.835  -8.544  1.00  0.00    -0.075 Cl
HETATM   18  S1  UNL     1       9.209  -6.063  -5.712  1.00  0.00    -0.060 SA
ENDBRANCH   2  12
ENDBRANCH   1   2
BRANCH   1  19
HETATM   19  N3  UNL     1       8.660  -7.522  -2.455  1.00  0.00    -0.344 N 
HETATM   20  C10 UNL     1       8.239  -8.753  -3.112  1.00  0.00     0.243 C 
HETATM   21  O4  UNL     1       9.126  -9.211  -3.888  1.00  0.00    -0.271 OA
ATOM     22  H3  UNL     1       8.009  -7.038  -1.837  1.00  0.00     0.163 HD
BRANCH  20  23
HETATM   23  C11 UNL     1       6.953  -9.308  -2.839  1.00  0.00     0.200 C 
HETATM   24  C12 UNL     1       6.605 -10.481  -3.720  1.00  0.00     0.054 C 
HETATM   25  C13 UNL     1       5.317 -10.953  -3.059  1.00  0.00     0.138 C 
HETATM   26  N4  UNL     1       5.260 -10.254  -1.762  1.00  0.00    -0.135 NA
HETATM   27  N5  UNL     1       6.635  -9.833  -1.550  1.00  0.00    -0.249 N 
HETATM   28  C14 UNL     1       7.233 -10.031  -0.317  1.00  0.00     0.265 C 
HETATM   29  O5  UNL     1       8.436  -9.733   0.002  1.00  0.00    -0.269 OA
BRANCH  28  30
HETATM   30  C15 UNL     1       6.487 -10.649   0.832  1.00  0.00     0.218 C 
BRANCH  30  31
HETATM   31  O6  UNL     1       6.350  -9.823   1.914  1.00  0.00    -0.385 OA
ATOM     32  H6  UNL     1       6.532 -10.243   2.747  1.00  0.00     0.210 HD
ENDBRANCH  30  31
BRANCH  30  33
HETATM   33  C16 UNL     1       6.992 -12.017   1.180  1.00  0.00    -0.017 C 
HETATM   34  C17 UNL     1       5.811 -12.763   1.814  1.00  0.00     0.017 C 
HETATM   35  C18 UNL     1       7.390 -12.811  -0.032  1.00  0.00     0.017 C 
HETATM   36  C19 UNL     1       8.093 -12.019   2.190  1.00  0.00     0.017 C 
ENDBRANCH  30  33
ENDBRANCH  28  30
ENDBRANCH  20  23
ENDBRANCH   1  19
BRANCH   1  37
HETATM   37  C20 UNL     1      10.770  -7.422  -1.449  1.00  0.00     0.153 A 
HETATM   38  N6  UNL     1      10.363  -7.720  -0.220  1.00  0.00    -0.333 N 
HETATM   39  C21 UNL     1      11.450  -8.060   0.530  1.00  0.00     0.115 A 
ATOM     40  H6  UNL     1       9.398  -7.698   0.108  1.00  0.00     0.168 HD
HETATM   41  C22 UNL     1      11.686  -8.451   1.818  1.00  0.00     0.094 A 
HETATM   42  C25 UNL     1      12.536  -7.955  -0.303  1.00  0.00     0.181 A 
HETATM   43  C23 UNL     1      12.992  -8.709   2.186  1.00  0.00     0.090 A 
HETATM   44  C24 UNL     1      14.049  -8.591   1.317  1.00  0.00     0.144 A 
HETATM   45  N8  UNL     1      13.800  -8.207   0.054  1.00  0.00    -0.315 N 
ATOM     46  H8  UNL     1      14.561  -8.109  -0.618  1.00  0.00     0.170 HD
HETATM   47  O8  UNL     1      12.058  -7.568  -1.478  1.00  0.00    -0.276 OA
BRANCH  41  48
HETATM   48  N7  UNL     1      10.593  -8.569   2.700  1.00  0.00    -0.222 N 
HETATM   49  F1  UNL     1      10.806  -8.671   4.014  1.00  0.00    -0.101 F 
ATOM     50  H7  UNL     1       9.640  -8.578   2.335  1.00  0.00     0.200 HD
ENDBRANCH  41  48
BRANCH  44  51
HETATM   51  O7  UNL     1      15.356  -8.864   1.734  1.00  0.00    -0.346 OA
ATOM     52  H7  UNL     1      15.539  -9.580   2.330  1.00  0.00     0.219 HD
ENDBRANCH  44  51
ENDBRANCH   1  37
TORSDOF 13
ENDMDL
MODEL 4
REMARK VINA RESULT: -6.111475009      3.401      8.019
REMARK  13 active torsions:
REMARK  status: ('A' for Active; 'I' for Inactive)
REMARK    1  A    between atoms: O1_2  and  C2_3 
REMARK    2  A    between atoms: C2_3  and  C3_5 
REMARK    3  A    between atoms: C3_5  and  N1_6 
REMARK    4  A    between atoms: C3_5  and  C6_11 
REMARK    5  A    between atoms: C3_5  and  C9_18 
REMARK       I    between atoms: N1_6  and  C4_8 
REMARK    6  A    between atoms: C9_18  and  N3_19 
REMARK    7  A    between atoms: C9_18  and  C20_37 
REMARK       I    between atoms: N3_19  and  C10_21 
REMARK    8  A    between atoms: C10_21  and  C11_23 
REMARK       I    between atoms: N5_27  and  C14_28 
REMARK    9  A    between atoms: C14_28  and  C15_30 
REMARK   10  A    between atoms: C15_30  and  O6_31 
REMARK   11  A    between atoms: C15_30  and  C16_33 
REMARK   12  A    between atoms: C22_41  and  N7_42 
REMARK   13  A    between atoms: C24_46  and  O7_47 
ROOT
HETATM    1  C9  UNL     1      18.190  -9.366  -0.837  1.00  0.00     0.205 C 
ENDROOT
BRANCH   1   2
HETATM    2  C3  UNL     1      18.033 -10.804  -0.533  1.00  0.00     0.198 C 
BRANCH   2   3
HETATM    3  C2  UNL     1      16.944 -11.358  -1.466  1.00  0.00     0.296 C 
HETATM    4  O2  UNL     1      15.762 -11.382  -1.077  1.00  0.00    -0.262 OA
BRANCH   3   5
HETATM    5  O1  UNL     1      17.208 -11.826  -2.721  1.00  0.00    -0.324 OA
HETATM    6  C1  UNL     1      16.544 -11.299  -3.887  1.00  0.00     0.213 C 
ENDBRANCH   3   5
ENDBRANCH   2   3
BRANCH   2   7
HETATM    7  N1  UNL     1      19.210 -11.578  -0.887  1.00  0.00    -0.335 N 
HETATM    8  C4  UNL     1      20.473 -11.609  -0.339  1.00  0.00     0.215 C 
HETATM    9  C5  UNL     1      21.522 -12.518  -0.936  1.00  0.00     0.117 C 
HETATM   10  O3  UNL     1      20.843 -10.945   0.624  1.00  0.00    -0.274 OA
ATOM     11  H1  UNL     1      19.078 -12.206  -1.680  1.00  0.00     0.164 HD
ENDBRANCH   2   7
BRANCH   2  12
HETATM   12  C6  UNL     1      17.559 -11.106   0.852  1.00  0.00     0.093 A 
HETATM   13  N2  UNL     1      16.843 -10.293   1.633  1.00  0.00    -0.359 N 
HETATM   14  C7  UNL     1      16.484 -10.678   2.806  1.00  0.00     0.120 A 
ATOM     15  H2  UNL     1      16.580  -9.366   1.298  1.00  0.00     0.165 HD
HETATM   16  C8  UNL     1      16.855 -11.932   3.221  1.00  0.00     0.091 A 
HETATM   17 CL1  UNL     1      16.510 -12.720   4.760  1.00  0.00    -0.075 Cl
HETATM   18  S1  UNL     1      17.718 -12.482   1.857  1.00  0.00    -0.060 SA
ENDBRANCH   2  12
ENDBRANCH   1   2
BRANCH   1  19
HETATM   19  N3  UNL     1      17.101  -8.709  -1.483  1.00  0.00    -0.344 N 
HETATM   20  C10 UNL     1      16.246  -7.773  -0.765  1.00  0.00     0.243 C 
HETATM   21  O4  UNL     1      16.557  -7.678   0.457  1.00  0.00    -0.271 OA
ATOM     22  H3  UNL     1      16.917  -8.898  -2.469  1.00  0.00     0.163 HD
BRANCH  20  23
HETATM   23  C11 UNL     1      15.205  -7.080  -1.452  1.00  0.00     0.200 C 
HETATM   24  C12 UNL     1      15.172  -7.361  -2.933  1.00  0.00     0.054 C 
HETATM   25  C13 UNL     1      13.873  -6.666  -3.319  1.00  0.00     0.138 C 
HETATM   26  N4  UNL     1      13.186  -6.379  -2.046  1.00  0.00    -0.135 NA
HETATM   27  N5  UNL     1      13.834  -7.280  -1.108  1.00  0.00    -0.249 N 
HETATM   28  C14 UNL     1      13.066  -8.028  -0.232  1.00  0.00     0.265 C 
HETATM   29  O5  UNL     1      13.499  -8.873   0.627  1.00  0.00    -0.269 OA
BRANCH  28  30
HETATM   30  C15 UNL     1      11.568  -7.917  -0.200  1.00  0.00     0.218 C 
BRANCH  30  31
HETATM   31  O6  UNL     1      11.034  -7.952   1.059  1.00  0.00    -0.385 OA
ATOM     32  H6  UNL     1      10.205  -8.414   1.114  1.00  0.00     0.210 HD
ENDBRANCH  30  31
BRANCH  30  33
HETATM   33  C16 UNL     1      10.899  -8.849  -1.165  1.00  0.00    -0.017 C 
HETATM   34  C17 UNL     1       9.917  -9.691  -0.339  1.00  0.00     0.017 C 
HETATM   35  C18 UNL     1      10.074  -8.125  -2.190  1.00  0.00     0.017 C 
HETATM   36  C19 UNL     1      11.833  -9.808  -1.829  1.00  0.00     0.017 C 
ENDBRANCH  30  33
ENDBRANCH  28  30
ENDBRANCH  20  23
ENDBRANCH   1  19
BRANCH   1  37
HETATM   37  C20 UNL     1      19.408  -9.043  -1.687  1.00  0.00     0.153 A 
HETATM   38  N6  UNL     1      20.470  -8.299  -1.401  1.00  0.00    -0.333 N 
HETATM   39  C21 UNL     1      21.305  -8.295  -2.479  1.00  0.00     0.115 A 
ATOM     40  H6  UNL     1      20.635  -7.811  -0.521  1.00  0.00     0.168 HD
HETATM   41  C22 UNL     1      22.511  -7.737  -2.801  1.00  0.00     0.094 A 
HETATM   42  C25 UNL     1      20.699  -9.073  -3.434  1.00  0.00     0.181 A 
HETATM   43  C23 UNL     1      23.028  -7.995  -4.056  1.00  0.00     0.090 A 
HETATM   44  C24 UNL     1      22.385  -8.782  -4.980  1.00  0.00     0.144 A 
HETATM   45  N8  UNL     1      21.201  -9.323  -4.648  1.00  0.00    -0.315 N 
ATOM     46  H8  UNL     1      20.695  -9.913  -5.309  1.00  0.00     0.170 HD
HETATM   47  O8  UNL     1      19.562  -9.492  -2.894  1.00  0.00    -0.276 OA
BRANCH  41  48
HETATM   48  N7  UNL     1      23.161  -6.933  -1.844  1.00  0.00    -0.222 N 
HETATM   49  F1  UNL     1      22.576  -5.815  -1.407  1.00  0.00    -0.101 F 
ATOM     50  H7  UNL     1      24.076  -7.205  -1.484  1.00  0.00     0.200 HD
ENDBRANCH  41  48
BRANCH  44  51
HETATM   51  O7  UNL     1      22.947  -9.017  -6.239  1.00  0.00    -0.346 OA
ATOM     52  H7  UNL     1      22.458  -8.837  -7.033  1.00  0.00     0.219 HD
ENDBRANCH  44  51
ENDBRANCH   1  37
TORSDOF 13
ENDMDL
MODEL 5
REMARK VINA RESULT: -6.073134730      2.253      3.355
REMARK  13 active torsions:
REMARK  status: ('A' for Active; 'I' for Inactive)
REMARK    1  A    between atoms: O1_2  and  C2_3 
REMARK    2  A    between atoms: C2_3  and  C3_5 
REMARK    3  A    between atoms: C3_5  and  N1_6 
REMARK    4  A    between atoms: C3_5  and  C6_11 
REMARK    5  A    between atoms: C3_5  and  C9_18 
REMARK       I    between atoms: N1_6  and  C4_8 
REMARK    6  A    between atoms: C9_18  and  N3_19 
REMARK    7  A    between atoms: C9_18  and  C20_37 
REMARK       I    between atoms: N3_19  and  C10_21 
REMARK    8  A    between atoms: C10_21  and  C11_23 
REMARK       I    between atoms: N5_27  and  C14_28 
REMARK    9  A    between atoms: C14_28  and  C15_30 
REMARK   10  A    between atoms: C15_30  and  O6_31 
REMARK   11  A    between atoms: C15_30  and  C16_33 
REMARK   12  A    between atoms: C22_41  and  N7_42 
REMARK   13  A    between atoms: C24_46  and  O7_47 
ROOT
HETATM    1  C9  UNL     1      16.039  -8.131  -0.529  1.00  0.00     0.205 C 
ENDROOT
BRANCH   1   2
HETATM    2  C3  UNL     1      14.849  -8.247  -1.399  1.00  0.00     0.198 C 
BRANCH   2   3
HETATM    3  C2  UNL     1      14.737  -6.941  -2.202  1.00  0.00     0.296 C 
HETATM    4  O2  UNL     1      15.227  -6.883  -3.345  1.00  0.00    -0.262 OA
BRANCH   3   5
HETATM    5  O1  UNL     1      14.115  -5.824  -1.724  1.00  0.00    -0.324 OA
HETATM    6  C1  UNL     1      13.486  -4.867  -2.599  1.00  0.00     0.213 C 
ENDBRANCH   3   5
ENDBRANCH   2   3
BRANCH   2   7
HETATM    7  N1  UNL     1      15.009  -9.263  -2.424  1.00  0.00    -0.335 N 
HETATM    8  C4  UNL     1      14.373 -10.470  -2.611  1.00  0.00     0.215 C 
HETATM    9  C5  UNL     1      14.762 -11.345  -3.779  1.00  0.00     0.117 C 
HETATM   10  O3  UNL     1      13.486 -10.921  -1.892  1.00  0.00    -0.274 OA
ATOM     11  H1  UNL     1      15.714  -9.045  -3.128  1.00  0.00     0.164 HD
ENDBRANCH   2   7
BRANCH   2  12
HETATM   12  C6  UNL     1      13.550  -8.379  -0.674  1.00  0.00     0.093 A 
HETATM   13  N2  UNL     1      12.333  -8.319  -1.222  1.00  0.00    -0.359 N 
HETATM   14  C7  UNL     1      11.288  -8.463  -0.486  1.00  0.00     0.120 A 
ATOM     15  H2  UNL     1      12.233  -8.159  -2.224  1.00  0.00     0.165 HD
HETATM   16  C8  UNL     1      11.463  -8.677   0.857  1.00  0.00     0.091 A 
HETATM   17 CL1  UNL     1      10.228  -8.907   2.096  1.00  0.00    -0.075 Cl
HETATM   18  S1  UNL     1      13.164  -8.656   0.970  1.00  0.00    -0.060 SA
ENDBRANCH   2  12
ENDBRANCH   1   2
BRANCH   1  19
HETATM   19  N3  UNL     1      17.253  -7.688  -1.131  1.00  0.00    -0.344 N 
HETATM   20  C10 UNL     1      18.365  -7.199  -0.326  1.00  0.00     0.243 C 
HETATM   21  O4  UNL     1      18.090  -7.174   0.909  1.00  0.00    -0.271 OA
ATOM     22  H3  UNL     1      17.345  -7.713  -2.146  1.00  0.00     0.163 HD
BRANCH  20  23
HETATM   23  C11 UNL     1      19.592  -6.823  -0.950  1.00  0.00     0.200 C 
HETATM   24  C12 UNL     1      20.311  -5.706  -0.238  1.00  0.00     0.054 C 
HETATM   25  C13 UNL     1      21.628  -5.691  -1.003  1.00  0.00     0.138 C 
HETATM   26  N4  UNL     1      21.642  -6.939  -1.788  1.00  0.00    -0.135 NA
HETATM   27  N5  UNL     1      20.652  -7.765  -1.118  1.00  0.00    -0.249 N 
HETATM   28  C14 UNL     1      20.942  -9.088  -0.828  1.00  0.00     0.265 C 
HETATM   29  O5  UNL     1      20.178  -9.919  -0.225  1.00  0.00    -0.269 OA
BRANCH  28  30
HETATM   30  C15 UNL     1      22.253  -9.712  -1.213  1.00  0.00     0.218 C 
BRANCH  30  31
HETATM   31  O6  UNL     1      23.345  -8.948  -0.903  1.00  0.00    -0.385 OA
ATOM     32  H6  UNL     1      23.204  -8.348  -0.179  1.00  0.00     0.210 HD
ENDBRANCH  30  31
BRANCH  30  33
HETATM   33  C16 UNL     1      22.258 -10.224  -2.623  1.00  0.00    -0.017 C 
HETATM   34  C17 UNL     1      22.672 -11.698  -2.543  1.00  0.00     0.017 C 
HETATM   35  C18 UNL     1      20.893 -10.202  -3.250  1.00  0.00     0.017 C 
HETATM   36  C19 UNL     1      23.251  -9.546  -3.511  1.00  0.00     0.017 C 
ENDBRANCH  30  33
ENDBRANCH  28  30
ENDBRANCH  20  23
ENDBRANCH   1  19
BRANCH   1  37
HETATM   37  C20 UNL     1      16.402  -9.418   0.195  1.00  0.00     0.153 A 
HETATM   38  N6  UNL     1      16.294  -9.728   1.482  1.00  0.00    -0.333 N 
HETATM   39  C21 UNL     1      16.752 -10.999   1.666  1.00  0.00     0.115 A 
ATOM     40  H6  UNL     1      15.928  -9.117   2.212  1.00  0.00     0.168 HD
HETATM   41  C22 UNL     1      16.899 -11.860   2.717  1.00  0.00     0.094 A 
HETATM   42  C25 UNL     1      17.144 -11.446   0.428  1.00  0.00     0.181 A 
HETATM   43  C23 UNL     1      17.428 -13.110   2.459  1.00  0.00     0.090 A 
HETATM   44  C24 UNL     1      17.806 -13.515   1.202  1.00  0.00     0.144 A 
HETATM   45  N8  UNL     1      17.655 -12.657   0.180  1.00  0.00    -0.315 N 
ATOM     46  H8  UNL     1      17.924 -12.923  -0.767  1.00  0.00     0.170 HD
HETATM   47  O8  UNL     1      16.906 -10.447  -0.411  1.00  0.00    -0.276 OA
BRANCH  41  48
HETATM   48  N7  UNL     1      16.507 -11.433   4.001  1.00  0.00    -0.222 N 
HETATM   49  F1  UNL     1      16.472 -12.307   5.010  1.00  0.00    -0.101 F 
ATOM     50  H7  UNL     1      16.249 -10.459   4.160  1.00  0.00     0.200 HD
ENDBRANCH  41  48
BRANCH  44  51
HETATM   51  O7  UNL     1      18.337 -14.791   0.987  1.00  0.00    -0.346 OA
ATOM     52  H7  UNL     1      18.848 -14.983   0.210  1.00  0.00     0.219 HD
ENDBRANCH  44  51
ENDBRANCH   1  37
TORSDOF 13
ENDMDL
