MODEL 1
REMARK VINA RESULT: -7.213657143      0.000      0.000
REMARK  11 active torsions:
REMARK  status: ('A' for Active; 'I' for Inactive)
REMARK    1  A    between atoms: C3_5  and  N2_6 
REMARK    2  A    between atoms: C4_10  and  C5_11 
REMARK    3  A    between atoms: C5_11  and  O2_13 
REMARK    4  A    between atoms: O2_13  and  C6_14 
REMARK    5  A    between atoms: C6_14  and  C7_15 
REMARK       I    between atoms: C7_15  and  N3_17 
REMARK    6  A    between atoms: N3_17  and  C8_19 
REMARK    7  A    between atoms: C9_20  and  N4_21 
REMARK    8  A    between atoms: C11_25  and  C12_26 
REMARK       I    between atoms: C12_26  and  N5_28 
REMARK    9  A    between atoms: N5_28  and  C13_30 
REMARK   10  A    between atoms: N10_38  and  S2_39 
REMARK   11  A    between atoms: S2_39  and  C14_42 
ROOT
HETATM    1  C8  UNL     1      16.647 -10.704  -2.219  1.00  0.00     0.159 A 
HETATM    2  C9  UNL     1      17.388 -10.850  -3.361  1.00  0.00     0.150 A 
HETATM    3  C10 UNL     1      18.687 -10.465  -3.039  1.00  0.00     0.076 A 
HETATM    4  C11 UNL     1      18.721 -10.076  -1.687  1.00  0.00     0.123 A 
HETATM    5  N10 UNL     1      17.465 -10.232  -1.214  1.00  0.00    -0.212 N 
ENDROOT
BRANCH   1   6
HETATM    6  N3  UNL     1      15.308 -11.125  -1.993  1.00  0.00    -0.308 N 
HETATM    7  C7  UNL     1      14.196 -10.367  -2.401  1.00  0.00     0.247 C 
HETATM    8  O3  UNL     1      13.060 -10.730  -2.001  1.00  0.00    -0.271 OA
ATOM      9  H3  UNL     1      15.147 -12.013  -1.517  1.00  0.00     0.170 HD
BRANCH   7  10
HETATM   10  C6  UNL     1      14.311  -9.208  -3.267  1.00  0.00     0.282 C 
BRANCH  10  11
HETATM   11  O2  UNL     1      15.203  -8.219  -2.857  1.00  0.00    -0.308 OA
BRANCH  11  12
HETATM   12  C5  UNL     1      14.973  -7.204  -1.954  1.00  0.00     0.302 C 
HETATM   13  O1  UNL     1      15.940  -6.795  -1.282  1.00  0.00    -0.259 OA
BRANCH  12  14
HETATM   14  C4  UNL     1      13.619  -6.630  -1.795  1.00  0.00     0.105 A 
HETATM   15  C2  UNL     1      13.027  -5.618  -2.498  1.00  0.00     0.030 A 
HETATM   16  C1  UNL     1      13.813  -4.945  -3.618  1.00  0.00     0.070 C 
HETATM   17  N1  UNL     1      11.815  -5.282  -2.177  1.00  0.00    -0.339 N 
HETATM   18  C3  UNL     1      11.209  -5.937  -1.183  1.00  0.00     0.143 A 
ATOM     19  H1  UNL     1      11.334  -4.533  -2.674  1.00  0.00     0.168 HD
HETATM   20  S1  UNL     1      12.394  -7.059  -0.691  1.00  0.00    -0.046 SA
BRANCH  18  21
HETATM   21  N2  UNL     1       9.990  -5.737  -0.722  1.00  0.00    -0.380 N 
ATOM     22  H22 UNL     1       9.526  -4.869  -0.454  1.00  0.00     0.158 HD
ATOM     23  H21 UNL     1       9.272  -6.441  -0.546  1.00  0.00     0.158 HD
ENDBRANCH  18  21
ENDBRANCH  12  14
ENDBRANCH  11  12
ENDBRANCH  10  11
ENDBRANCH   7  10
ENDBRANCH   1   6
BRANCH   2  24
HETATM   24  N4  UNL     1      16.968 -11.202  -4.662  1.00  0.00    -0.112 N 
HETATM   25  O4  UNL     1      16.045 -11.907  -4.993  1.00  0.00    -0.532 OA
HETATM   26  O5  UNL     1      17.700 -10.631  -5.720  1.00  0.00    -0.532 OA
ENDBRANCH   2  24
BRANCH   5  27
HETATM   27  S2  UNL     1      16.892  -9.905   0.351  1.00  0.00     0.271 S 
HETATM   28  O7  UNL     1      17.618  -8.588   0.782  1.00  0.00    -0.200 OA
HETATM   29  O8  UNL     1      15.459  -9.569   0.489  1.00  0.00    -0.200 OA
BRANCH  27  30
HETATM   30  C14 UNL     1      17.308 -11.082   1.556  1.00  0.00     0.085 A 
HETATM   31  C15 UNL     1      16.567 -11.140   2.719  1.00  0.00     0.069 A 
HETATM   32  C16 UNL     1      16.875 -12.032   3.725  1.00  0.00     0.143 A 
HETATM   33  F1  UNL     1      16.143 -12.088   4.876  1.00  0.00    -0.204 F 
HETATM   34  C17 UNL     1      17.949 -12.893   3.574  1.00  0.00     0.106 A 
HETATM   35  N11 UNL     1      18.313 -13.832   4.576  1.00  0.00    -0.097 NA
HETATM   36  C18 UNL     1      18.697 -12.847   2.419  1.00  0.00     0.062 A 
HETATM   37 CL1  UNL     1      20.074 -13.929   2.194  1.00  0.00    -0.082 Cl
HETATM   38  C19 UNL     1      18.365 -11.937   1.420  1.00  0.00     0.051 A 
ENDBRANCH  27  30
ENDBRANCH   5  27
BRANCH   4  39
HETATM   39  C12 UNL     1      19.946  -9.616  -1.074  1.00  0.00     0.287 C 
HETATM   40  O6  UNL     1      20.515 -10.158  -0.141  1.00  0.00    -0.265 OA
HETATM   41  N5  UNL     1      20.566  -8.423  -1.592  1.00  0.00    -0.152 N 
ATOM     42  H5  UNL     1      21.191  -8.494  -2.395  1.00  0.00     0.188 HD
BRANCH  41  43
HETATM   43  C13 UNL     1      20.349  -7.271  -1.066  1.00  0.00     0.713 A 
HETATM   44  N6  UNL     1      19.146  -6.762  -0.752  1.00  0.00    -0.113 N 
HETATM   45  N7  UNL     1      19.275  -5.556  -0.228  1.00  0.00     0.009 NA
ATOM     46  H6  UNL     1      18.257  -7.240  -0.898  1.00  0.00     0.203 HD
HETATM   47  N8  UNL     1      20.583  -5.294  -0.211  1.00  0.00    -0.212 N 
HETATM   48  N9  UNL     1      21.235  -6.324  -0.713  1.00  0.00    -0.118 N 
ATOM     49  H8  UNL     1      21.009  -4.435   0.136  1.00  0.00     0.206 HD
ATOM     50  H9  UNL     1      22.248  -6.391  -0.817  1.00  0.00     0.207 HD
ENDBRANCH  41  43
ENDBRANCH   4  39
TORSDOF 11
ENDMDL
MODEL 2
REMARK VINA RESULT: -7.129518335      0.778      1.078
REMARK  11 active torsions:
REMARK  status: ('A' for Active; 'I' for Inactive)
REMARK    1  A    between atoms: C3_5  and  N2_6 
REMARK    2  A    between atoms: C4_10  and  C5_11 
REMARK    3  A    between atoms: C5_11  and  O2_13 
REMARK    4  A    between atoms: O2_13  and  C6_14 
REMARK    5  A    between atoms: C6_14  and  C7_15 
REMARK       I    between atoms: C7_15  and  N3_17 
REMARK    6  A    between atoms: N3_17  and  C8_19 
REMARK    7  A    between atoms: C9_20  and  N4_21 
REMARK    8  A    between atoms: C11_25  and  C12_26 
REMARK       I    between atoms: C12_26  and  N5_28 
REMARK    9  A    between atoms: N5_28  and  C13_30 
REMARK   10  A    between atoms: N10_38  and  S2_39 
REMARK   11  A    between atoms: S2_39  and  C14_42 
ROOT
HETATM    1  C8  UNL     1      16.659 -10.686  -2.213  1.00  0.00     0.159 A 
HETATM    2  C9  UNL     1      17.398 -10.832  -3.356  1.00  0.00     0.150 A 
HETATM    3  C10 UNL     1      18.699 -10.450  -3.035  1.00  0.00     0.076 A 
HETATM    4  C11 UNL     1      18.734 -10.064  -1.682  1.00  0.00     0.123 A 
HETATM    5  N10 UNL     1      17.479 -10.218  -1.209  1.00  0.00    -0.212 N 
ENDROOT
BRANCH   1   6
HETATM    6  N3  UNL     1      15.318 -11.105  -1.987  1.00  0.00    -0.308 N 
HETATM    7  C7  UNL     1      14.209 -10.334  -2.374  1.00  0.00     0.247 C 
HETATM    8  O3  UNL     1      13.073 -10.699  -1.973  1.00  0.00    -0.271 OA
ATOM      9  H3  UNL     1      15.156 -12.000  -1.525  1.00  0.00     0.170 HD
BRANCH   7  10
HETATM   10  C6  UNL     1      14.324  -9.160  -3.220  1.00  0.00     0.282 C 
BRANCH  10  11
HETATM   11  O2  UNL     1      15.301  -8.235  -2.859  1.00  0.00    -0.308 OA
BRANCH  11  12
HETATM   12  C5  UNL     1      15.144  -7.112  -2.077  1.00  0.00     0.302 C 
HETATM   13  O1  UNL     1      16.061  -6.825  -1.283  1.00  0.00    -0.259 OA
BRANCH  12  14
HETATM   14  C4  UNL     1      13.924  -6.283  -2.185  1.00  0.00     0.105 A 
HETATM   15  C2  UNL     1      12.810  -6.286  -1.392  1.00  0.00     0.030 A 
HETATM   16  C1  UNL     1      12.751  -7.250  -0.212  1.00  0.00     0.070 C 
HETATM   17  N1  UNL     1      11.854  -5.458  -1.684  1.00  0.00    -0.339 N 
HETATM   18  C3  UNL     1      12.002  -4.649  -2.736  1.00  0.00     0.143 A 
ATOM     19  H1  UNL     1      11.005  -5.426  -1.120  1.00  0.00     0.168 HD
HETATM   20  S1  UNL     1      13.543  -5.077  -3.327  1.00  0.00    -0.046 SA
BRANCH  18  21
HETATM   21  N2  UNL     1      11.146  -3.751  -3.180  1.00  0.00    -0.380 N 
ATOM     22  H22 UNL     1      11.124  -3.251  -4.068  1.00  0.00     0.158 HD
ATOM     23  H21 UNL     1      10.326  -3.385  -2.694  1.00  0.00     0.158 HD
ENDBRANCH  18  21
ENDBRANCH  12  14
ENDBRANCH  11  12
ENDBRANCH  10  11
ENDBRANCH   7  10
ENDBRANCH   1   6
BRANCH   2  24
HETATM   24  N4  UNL     1      16.975 -11.181  -4.657  1.00  0.00    -0.112 N 
HETATM   25  O4  UNL     1      16.146 -11.993  -4.990  1.00  0.00    -0.532 OA
HETATM   26  O5  UNL     1      17.576 -10.467  -5.710  1.00  0.00    -0.532 OA
ENDBRANCH   2  24
BRANCH   5  27
HETATM   27  S2  UNL     1      16.908  -9.892   0.358  1.00  0.00     0.271 S 
HETATM   28  O7  UNL     1      17.635  -8.576   0.789  1.00  0.00    -0.200 OA
HETATM   29  O8  UNL     1      15.475  -9.556   0.498  1.00  0.00    -0.200 OA
BRANCH  27  30
HETATM   30  C14 UNL     1      17.326 -11.070   1.561  1.00  0.00     0.085 A 
HETATM   31  C15 UNL     1      16.587 -11.128   2.726  1.00  0.00     0.069 A 
HETATM   32  C16 UNL     1      16.896 -12.021   3.731  1.00  0.00     0.143 A 
HETATM   33  F1  UNL     1      16.166 -12.077   4.883  1.00  0.00    -0.204 F 
HETATM   34  C17 UNL     1      17.968 -12.883   3.578  1.00  0.00     0.106 A 
HETATM   35  N11 UNL     1      18.334 -13.822   4.578  1.00  0.00    -0.097 NA
HETATM   36  C18 UNL     1      18.715 -12.836   2.420  1.00  0.00     0.062 A 
HETATM   37 CL1  UNL     1      20.090 -13.920   2.192  1.00  0.00    -0.082 Cl
HETATM   38  C19 UNL     1      18.381 -11.926   1.422  1.00  0.00     0.051 A 
ENDBRANCH  27  30
ENDBRANCH   5  27
BRANCH   4  39
HETATM   39  C12 UNL     1      19.961  -9.608  -1.070  1.00  0.00     0.287 C 
HETATM   40  O6  UNL     1      20.532 -10.155  -0.140  1.00  0.00    -0.265 OA
HETATM   41  N5  UNL     1      20.580  -8.412  -1.584  1.00  0.00    -0.152 N 
ATOM     42  H5  UNL     1      21.203  -8.480  -2.388  1.00  0.00     0.188 HD
BRANCH  41  43
HETATM   43  C13 UNL     1      20.366  -7.264  -1.051  1.00  0.00     0.713 A 
HETATM   44  N6  UNL     1      19.163  -6.755  -0.732  1.00  0.00    -0.113 N 
HETATM   45  N7  UNL     1      19.294  -5.551  -0.202  1.00  0.00     0.009 NA
ATOM     46  H6  UNL     1      18.274  -7.232  -0.879  1.00  0.00     0.203 HD
HETATM   47  N8  UNL     1      20.602  -5.291  -0.187  1.00  0.00    -0.212 N 
HETATM   48  N9  UNL     1      21.253  -6.318  -0.695  1.00  0.00    -0.118 N 
ATOM     49  H8  UNL     1      21.030  -4.434   0.164  1.00  0.00     0.206 HD
ATOM     50  H9  UNL     1      22.265  -6.385  -0.801  1.00  0.00     0.207 HD
ENDBRANCH  41  43
ENDBRANCH   4  39
TORSDOF 11
ENDMDL
MODEL 3
REMARK VINA RESULT: -7.101800362      4.315      7.802
REMARK  11 active torsions:
REMARK  status: ('A' for Active; 'I' for Inactive)
REMARK    1  A    between atoms: C3_5  and  N2_6 
REMARK    2  A    between atoms: C4_10  and  C5_11 
REMARK    3  A    between atoms: C5_11  and  O2_13 
REMARK    4  A    between atoms: O2_13  and  C6_14 
REMARK    5  A    between atoms: C6_14  and  C7_15 
REMARK       I    between atoms: C7_15  and  N3_17 
REMARK    6  A    between atoms: N3_17  and  C8_19 
REMARK    7  A    between atoms: C9_20  and  N4_21 
REMARK    8  A    between atoms: C11_25  and  C12_26 
REMARK       I    between atoms: C12_26  and  N5_28 
REMARK    9  A    between atoms: N5_28  and  C13_30 
REMARK   10  A    between atoms: N10_38  and  S2_39 
REMARK   11  A    between atoms: S2_39  and  C14_42 
ROOT
HETATM    1  C8  UNL     1      17.360 -12.596   1.490  1.00  0.00     0.159 A 
HETATM    2  C9  UNL     1      16.829 -11.529   2.165  1.00  0.00     0.150 A 
HETATM    3  C10 UNL     1      17.144 -11.717   3.509  1.00  0.00     0.076 A 
HETATM    4  C11 UNL     1      17.868 -12.916   3.638  1.00  0.00     0.123 A 
HETATM    5  N10 UNL     1      17.983 -13.429   2.394  1.00  0.00    -0.212 N 
ENDROOT
BRANCH   1   6
HETATM    6  N3  UNL     1      17.449 -12.775   0.082  1.00  0.00    -0.308 N 
HETATM    7  C7  UNL     1      18.340 -12.041  -0.720  1.00  0.00     0.247 C 
HETATM    8  O3  UNL     1      18.222 -12.138  -1.969  1.00  0.00    -0.271 OA
ATOM      9  H3  UNL     1      16.842 -13.463  -0.363  1.00  0.00     0.170 HD
BRANCH   7  10
HETATM   10  C6  UNL     1      19.387 -11.201  -0.165  1.00  0.00     0.282 C 
BRANCH  10  11
HETATM   11  O2  UNL     1      19.101  -9.840  -0.078  1.00  0.00    -0.308 OA
BRANCH  11  12
HETATM   12  C5  UNL     1      19.128  -8.910  -1.095  1.00  0.00     0.302 C 
HETATM   13  O1  UNL     1      18.085  -8.744  -1.757  1.00  0.00    -0.259 OA
BRANCH  12  14
HETATM   14  C4  UNL     1      20.359  -8.142  -1.381  1.00  0.00     0.105 A 
HETATM   15  C2  UNL     1      20.669  -6.856  -1.039  1.00  0.00     0.030 A 
HETATM   16  C1  UNL     1      19.650  -6.041  -0.250  1.00  0.00     0.070 C 
HETATM   17  N1  UNL     1      21.825  -6.391  -1.403  1.00  0.00    -0.339 N 
HETATM   18  C3  UNL     1      22.650  -7.186  -2.089  1.00  0.00     0.143 A 
ATOM     19  H1  UNL     1      22.098  -5.436  -1.170  1.00  0.00     0.168 HD
HETATM   20  S1  UNL     1      21.759  -8.633  -2.220  1.00  0.00    -0.046 SA
BRANCH  18  21
HETATM   21  N2  UNL     1      23.854  -6.890  -2.538  1.00  0.00    -0.380 N 
ATOM     22  H22 UNL     1      24.348  -5.998  -2.547  1.00  0.00     0.158 HD
ATOM     23  H21 UNL     1      24.525  -7.525  -2.972  1.00  0.00     0.158 HD
ENDBRANCH  18  21
ENDBRANCH  12  14
ENDBRANCH  11  12
ENDBRANCH  10  11
ENDBRANCH   7  10
ENDBRANCH   1   6
BRANCH   2  24
HETATM   24  N4  UNL     1      16.018 -10.479   1.683  1.00  0.00    -0.112 N 
HETATM   25  O4  UNL     1      15.920 -10.056   0.556  1.00  0.00    -0.532 OA
HETATM   26  O5  UNL     1      15.185  -9.860   2.633  1.00  0.00    -0.532 OA
ENDBRANCH   2  24
BRANCH   5  27
HETATM   27  S2  UNL     1      18.744 -14.875   1.928  1.00  0.00     0.271 S 
HETATM   28  O7  UNL     1      17.957 -16.005   2.671  1.00  0.00    -0.200 OA
HETATM   29  O8  UNL     1      18.641 -15.263   0.505  1.00  0.00    -0.200 OA
BRANCH  27  30
HETATM   30  C14 UNL     1      20.394 -15.045   2.436  1.00  0.00     0.085 A 
HETATM   31  C15 UNL     1      20.750 -16.138   3.200  1.00  0.00     0.069 A 
HETATM   32  C16 UNL     1      22.040 -16.306   3.660  1.00  0.00     0.143 A 
HETATM   33  F1  UNL     1      22.391 -17.387   4.417  1.00  0.00    -0.204 F 
HETATM   34  C17 UNL     1      23.005 -15.362   3.354  1.00  0.00     0.106 A 
HETATM   35  N11 UNL     1      24.348 -15.482   3.801  1.00  0.00    -0.097 NA
HETATM   36  C18 UNL     1      22.664 -14.266   2.593  1.00  0.00     0.062 A 
HETATM   37 CL1  UNL     1      23.870 -13.043   2.185  1.00  0.00    -0.082 Cl
HETATM   38  C19 UNL     1      21.356 -14.122   2.141  1.00  0.00     0.051 A 
ENDBRANCH  27  30
ENDBRANCH   5  27
BRANCH   4  39
HETATM   39  C12 UNL     1      18.325 -13.375   4.931  1.00  0.00     0.287 C 
HETATM   40  O6  UNL     1      19.491 -13.538   5.250  1.00  0.00    -0.265 OA
HETATM   41  N5  UNL     1      17.340 -13.667   5.941  1.00  0.00    -0.152 N 
ATOM     42  H5  UNL     1      16.982 -12.910   6.523  1.00  0.00     0.188 HD
BRANCH  41  43
HETATM   43  C13 UNL     1      16.903 -14.861   6.127  1.00  0.00     0.713 A 
HETATM   44  N6  UNL     1      16.053 -15.248   7.093  1.00  0.00    -0.113 N 
HETATM   45  N7  UNL     1      15.808 -16.544   7.004  1.00  0.00     0.009 NA
ATOM     46  H6  UNL     1      15.654 -14.628   7.798  1.00  0.00     0.203 HD
HETATM   47  N8  UNL     1      16.516 -16.986   5.964  1.00  0.00    -0.212 N 
HETATM   48  N9  UNL     1      17.176 -15.978   5.430  1.00  0.00    -0.118 N 
ATOM     49  H8  UNL     1      16.541 -17.951   5.634  1.00  0.00     0.206 HD
ATOM     50  H9  UNL     1      17.795 -16.036   4.621  1.00  0.00     0.207 HD
ENDBRANCH  41  43
ENDBRANCH   4  39
TORSDOF 11
ENDMDL
MODEL 4
REMARK VINA RESULT: -7.088827613      3.741      7.509
REMARK  11 active torsions:
REMARK  status: ('A' for Active; 'I' for Inactive)
REMARK    1  A    between atoms: C3_5  and  N2_6 
REMARK    2  A    between atoms: C4_10  and  C5_11 
REMARK    3  A    between atoms: C5_11  and  O2_13 
REMARK    4  A    between atoms: O2_13  and  C6_14 
REMARK    5  A    between atoms: C6_14  and  C7_15 
REMARK       I    between atoms: C7_15  and  N3_17 
REMARK    6  A    between atoms: N3_17  and  C8_19 
REMARK    7  A    between atoms: C9_20  and  N4_21 
REMARK    8  A    between atoms: C11_25  and  C12_26 
REMARK       I    between atoms: C12_26  and  N5_28 
REMARK    9  A    between atoms: N5_28  and  C13_30 
REMARK   10  A    between atoms: N10_38  and  S2_39 
REMARK   11  A    between atoms: S2_39  and  C14_42 
ROOT
HETATM    1  C8  UNL     1      14.831  -8.516  -3.655  1.00  0.00     0.159 A 
HETATM    2  C9  UNL     1      14.619  -7.718  -4.748  1.00  0.00     0.150 A 
HETATM    3  C10 UNL     1      13.999  -6.563  -4.278  1.00  0.00     0.076 A 
HETATM    4  C11 UNL     1      13.832  -6.677  -2.885  1.00  0.00     0.123 A 
HETATM    5  N10 UNL     1      14.347  -7.875  -2.535  1.00  0.00    -0.212 N 
ENDROOT
BRANCH   1   6
HETATM    6  N3  UNL     1      15.583  -9.722  -3.594  1.00  0.00    -0.308 N 
HETATM    7  C7  UNL     1      16.987  -9.744  -3.660  1.00  0.00     0.247 C 
HETATM    8  O3  UNL     1      17.551 -10.862  -3.779  1.00  0.00    -0.271 OA
ATOM      9  H3  UNL     1      15.083 -10.606  -3.498  1.00  0.00     0.170 HD
BRANCH   7  10
HETATM   10  C6  UNL     1      17.796  -8.541  -3.581  1.00  0.00     0.282 C 
BRANCH  10  11
HETATM   11  O2  UNL     1      17.945  -7.982  -2.314  1.00  0.00    -0.308 OA
BRANCH  11  12
HETATM   12  C5  UNL     1      18.930  -8.251  -1.389  1.00  0.00     0.302 C 
HETATM   13  O1  UNL     1      18.634  -8.983  -0.424  1.00  0.00    -0.259 OA
BRANCH  12  14
HETATM   14  C4  UNL     1      20.287  -7.684  -1.546  1.00  0.00     0.105 A 
HETATM   15  C2  UNL     1      20.801  -6.528  -1.030  1.00  0.00     0.030 A 
HETATM   16  C1  UNL     1      19.906  -5.652  -0.159  1.00  0.00     0.070 C 
HETATM   17  N1  UNL     1      22.034  -6.233  -1.306  1.00  0.00    -0.339 N 
HETATM   18  C3  UNL     1      22.737  -7.068  -2.075  1.00  0.00     0.143 A 
ATOM     19  H1  UNL     1      22.459  -5.380  -0.942  1.00  0.00     0.168 HD
HETATM   20  S1  UNL     1      21.614  -8.305  -2.415  1.00  0.00    -0.046 SA
BRANCH  18  21
HETATM   21  N2  UNL     1      23.992  -6.936  -2.458  1.00  0.00    -0.380 N 
ATOM     22  H22 UNL     1      24.855  -7.125  -1.948  1.00  0.00     0.158 HD
ATOM     23  H21 UNL     1      24.331  -6.610  -3.363  1.00  0.00     0.158 HD
ENDBRANCH  18  21
ENDBRANCH  12  14
ENDBRANCH  11  12
ENDBRANCH  10  11
ENDBRANCH   7  10
ENDBRANCH   1   6
BRANCH   2  24
HETATM   24  N4  UNL     1      14.849  -7.992  -6.113  1.00  0.00    -0.112 N 
HETATM   25  O4  UNL     1      15.140  -9.041  -6.636  1.00  0.00    -0.532 OA
HETATM   26  O5  UNL     1      14.688  -6.905  -6.993  1.00  0.00    -0.532 OA
ENDBRANCH   2  24
BRANCH   5  27
HETATM   27  S2  UNL     1      14.414  -8.569  -0.986  1.00  0.00     0.271 S 
HETATM   28  O7  UNL     1      14.937 -10.025  -1.217  1.00  0.00    -0.200 OA
HETATM   29  O8  UNL     1      15.391  -8.000  -0.033  1.00  0.00    -0.200 OA
BRANCH  27  30
HETATM   30  C14 UNL     1      12.887  -8.744  -0.183  1.00  0.00     0.085 A 
HETATM   31  C15 UNL     1      12.835  -8.623   1.191  1.00  0.00     0.069 A 
HETATM   32  C16 UNL     1      11.654  -8.787   1.885  1.00  0.00     0.143 A 
HETATM   33  F1  UNL     1      11.604  -8.669   3.244  1.00  0.00    -0.204 F 
HETATM   34  C17 UNL     1      10.489  -9.079   1.197  1.00  0.00     0.106 A 
HETATM   35  N11 UNL     1       9.245  -9.260   1.858  1.00  0.00    -0.097 NA
HETATM   36  C18 UNL     1      10.525  -9.203  -0.175  1.00  0.00     0.062 A 
HETATM   37 CL1  UNL     1       9.058  -9.576  -1.084  1.00  0.00    -0.082 Cl
HETATM   38  C19 UNL     1      11.730  -9.032  -0.850  1.00  0.00     0.051 A 
ENDBRANCH  27  30
ENDBRANCH   5  27
BRANCH   4  39
HETATM   39  C12 UNL     1      13.202  -5.622  -2.122  1.00  0.00     0.287 C 
HETATM   40  O6  UNL     1      13.582  -5.215  -1.037  1.00  0.00    -0.265 OA
HETATM   41  N5  UNL     1      12.031  -4.986  -2.669  1.00  0.00    -0.152 N 
ATOM     42  H5  UNL     1      12.144  -4.214  -3.326  1.00  0.00     0.188 HD
BRANCH  41  43
HETATM   43  C13 UNL     1      10.848  -5.368  -2.347  1.00  0.00     0.713 A 
HETATM   44  N6  UNL     1      10.415  -5.628  -1.102  1.00  0.00    -0.113 N 
HETATM   45  N7  UNL     1       9.147  -6.001  -1.120  1.00  0.00     0.009 NA
ATOM     46  H6  UNL     1      10.985  -5.548  -0.260  1.00  0.00     0.203 HD
HETATM   47  N8  UNL     1       8.770  -5.979  -2.399  1.00  0.00    -0.212 N 
HETATM   48  N9  UNL     1       9.789  -5.598  -3.143  1.00  0.00    -0.118 N 
ATOM     49  H8  UNL     1       7.841  -6.219  -2.746  1.00  0.00     0.206 HD
ATOM     50  H9  UNL     1       9.776  -5.494  -4.158  1.00  0.00     0.207 HD
ENDBRANCH  41  43
ENDBRANCH   4  39
TORSDOF 11
ENDMDL
MODEL 5
REMARK VINA RESULT: -7.040817816      3.495      7.206
REMARK  11 active torsions:
REMARK  status: ('A' for Active; 'I' for Inactive)
REMARK    1  A    between atoms: C3_5  and  N2_6 
REMARK    2  A    between atoms: C4_10  and  C5_11 
REMARK    3  A    between atoms: C5_11  and  O2_13 
REMARK    4  A    between atoms: O2_13  and  C6_14 
REMARK    5  A    between atoms: C6_14  and  C7_15 
REMARK       I    between atoms: C7_15  and  N3_17 
REMARK    6  A    between atoms: N3_17  and  C8_19 
REMARK    7  A    between atoms: C9_20  and  N4_21 
REMARK    8  A    between atoms: C11_25  and  C12_26 
REMARK       I    between atoms: C12_26  and  N5_28 
REMARK    9  A    between atoms: N5_28  and  C13_30 
REMARK   10  A    between atoms: N10_38  and  S2_39 
REMARK   11  A    between atoms: S2_39  and  C14_42 
ROOT
HETATM    1  C8  UNL     1      19.448 -12.025  -0.831  1.00  0.00     0.159 A 
HETATM    2  C9  UNL     1      20.478 -12.015   0.071  1.00  0.00     0.150 A 
HETATM    3  C10 UNL     1      21.269 -10.913  -0.248  1.00  0.00     0.076 A 
HETATM    4  C11 UNL     1      20.705 -10.260  -1.359  1.00  0.00     0.123 A 
HETATM    5  N10 UNL     1      19.599 -10.959  -1.693  1.00  0.00    -0.212 N 
ENDROOT
BRANCH   1   6
HETATM    6  N3  UNL     1      18.291 -12.853  -0.817  1.00  0.00    -0.308 N 
HETATM    7  C7  UNL     1      17.306 -12.761   0.181  1.00  0.00     0.247 C 
HETATM    8  O3  UNL     1      16.416 -13.650   0.211  1.00  0.00    -0.271 OA
ATOM      9  H3  UNL     1      18.172 -13.540  -1.562  1.00  0.00     0.170 HD
BRANCH   7  10
HETATM   10  C6  UNL     1      17.271 -11.684   1.155  1.00  0.00     0.282 C 
BRANCH  10  11
HETATM   11  O2  UNL     1      17.734 -11.994   2.432  1.00  0.00    -0.308 OA
BRANCH  11  12
HETATM   12  C5  UNL     1      17.022 -11.966   3.611  1.00  0.00     0.302 C 
HETATM   13  O1  UNL     1      16.406 -10.920   3.893  1.00  0.00    -0.259 OA
BRANCH  12  14
HETATM   14  C4  UNL     1      17.000 -13.144   4.505  1.00  0.00     0.105 A 
HETATM   15  C2  UNL     1      18.050 -13.859   5.012  1.00  0.00     0.030 A 
HETATM   16  C1  UNL     1      19.469 -13.437   4.648  1.00  0.00     0.070 C 
HETATM   17  N1  UNL     1      17.783 -14.866   5.786  1.00  0.00    -0.339 N 
HETATM   18  C3  UNL     1      16.505 -15.154   6.049  1.00  0.00     0.143 A 
ATOM     19  H1  UNL     1      18.534 -15.427   6.186  1.00  0.00     0.168 HD
HETATM   20  S1  UNL     1      15.661 -13.960   5.172  1.00  0.00    -0.046 SA
BRANCH  18  21
HETATM   21  N2  UNL     1      16.046 -16.129   6.808  1.00  0.00    -0.380 N 
ATOM     22  H22 UNL     1      16.068 -17.138   6.660  1.00  0.00     0.158 HD
ATOM     23  H21 UNL     1      15.571 -16.042   7.707  1.00  0.00     0.158 HD
ENDBRANCH  18  21
ENDBRANCH  12  14
ENDBRANCH  11  12
ENDBRANCH  10  11
ENDBRANCH   7  10
ENDBRANCH   1   6
BRANCH   2  24
HETATM   24  N4  UNL     1      20.803 -12.958   1.069  1.00  0.00    -0.112 N 
HETATM   25  O4  UNL     1      20.357 -14.068   1.235  1.00  0.00    -0.532 OA
HETATM   26  O5  UNL     1      21.804 -12.569   1.979  1.00  0.00    -0.532 OA
ENDBRANCH   2  24
BRANCH   5  27
HETATM   27  S2  UNL     1      18.517 -10.656  -2.967  1.00  0.00     0.271 S 
HETATM   28  O7  UNL     1      19.413 -10.160  -4.150  1.00  0.00    -0.200 OA
HETATM   29  O8  UNL     1      17.804 -11.818  -3.538  1.00  0.00    -0.200 OA
BRANCH  27  30
HETATM   30  C14 UNL     1      17.373  -9.383  -2.684  1.00  0.00     0.085 A 
HETATM   31  C15 UNL     1      16.943  -9.144  -1.394  1.00  0.00     0.069 A 
HETATM   32  C16 UNL     1      16.008  -8.168  -1.116  1.00  0.00     0.143 A 
HETATM   33  F1  UNL     1      15.581  -7.934   0.160  1.00  0.00    -0.204 F 
HETATM   34  C17 UNL     1      15.484  -7.406  -2.146  1.00  0.00     0.106 A 
HETATM   35  N11 UNL     1      14.519  -6.389  -1.920  1.00  0.00    -0.097 NA
HETATM   36  C18 UNL     1      15.905  -7.633  -3.438  1.00  0.00     0.062 A 
HETATM   37 CL1  UNL     1      15.257  -6.681  -4.776  1.00  0.00    -0.082 Cl
HETATM   38  C19 UNL     1      16.848  -8.624  -3.691  1.00  0.00     0.051 A 
ENDBRANCH  27  30
ENDBRANCH   5  27
BRANCH   4  39
HETATM   39  C12 UNL     1      21.322  -9.079  -1.921  1.00  0.00     0.287 C 
HETATM   40  O6  UNL     1      22.496  -8.979  -2.235  1.00  0.00    -0.265 OA
HETATM   41  N5  UNL     1      20.501  -7.915  -2.139  1.00  0.00    -0.152 N 
ATOM     42  H5  UNL     1      19.962  -7.839  -3.000  1.00  0.00     0.188 HD
BRANCH  41  43
HETATM   43  C13 UNL     1      20.435  -6.970  -1.271  1.00  0.00     0.713 A 
HETATM   44  N6  UNL     1      19.316  -6.523  -0.677  1.00  0.00    -0.113 N 
HETATM   45  N7  UNL     1      19.597  -5.541   0.162  1.00  0.00     0.009 NA
ATOM     46  H6  UNL     1      18.380  -6.890  -0.849  1.00  0.00     0.203 HD
HETATM   47  N8  UNL     1      20.916  -5.361   0.098  1.00  0.00    -0.212 N 
HETATM   48  N9  UNL     1      21.428  -6.219  -0.763  1.00  0.00    -0.118 N 
ATOM     49  H8  UNL     1      21.446  -4.670   0.629  1.00  0.00     0.206 HD
ATOM     50  H9  UNL     1      22.416  -6.300  -1.004  1.00  0.00     0.207 HD
ENDBRANCH  41  43
ENDBRANCH   4  39
TORSDOF 11
ENDMDL
