MODEL 1
REMARK VINA RESULT: -6.564582382      0.000      0.000
REMARK  14 active torsions:
REMARK  status: ('A' for Active; 'I' for Inactive)
REMARK    1  A    between atoms: O1_2  and  C2_3 
REMARK    2  A    between atoms: C2_3  and  O2_4 
REMARK    3  A    between atoms: C2_3  and  C3_6 
REMARK    4  A    between atoms: C4_7  and  O3_8 
REMARK    5  A    between atoms: C5_10  and  C6_11 
REMARK       I    between atoms: C6_11  and  N1_13 
REMARK    6  A    between atoms: N1_13  and  C7_15 
REMARK    7  A    between atoms: C8_16  and  O5_17 
REMARK    8  A    between atoms: C10_21  and  O6_22 
REMARK    9  A    between atoms: N3_24  and  N4_25 
REMARK       I    between atoms: N4_25  and  C12_27 
REMARK   10  A    between atoms: C12_27  and  C13_29 
REMARK   11  A    between atoms: C13_29  and  N5_30 
REMARK   12  A    between atoms: C15_36  and  O9_37 
REMARK   13  A    between atoms: C18_42  and  O10_43 
REMARK   14  A    between atoms: C21_47  and  O11_48 
ROOT
HETATM    1  C3  UNL     1      11.279  -3.463  -5.111  1.00  0.00     0.070 A 
HETATM    2  C4  UNL     1      12.247  -4.146  -4.315  1.00  0.00     0.100 A 
HETATM    3  C5  UNL     1      11.892  -4.859  -3.167  1.00  0.00     0.100 A 
HETATM    4  C15 UNL     1      10.562  -4.903  -2.794  1.00  0.00     0.097 A 
HETATM    5  C16 UNL     1       9.610  -4.234  -3.574  1.00  0.00     0.033 A 
HETATM    6  C17 UNL     1       8.283  -4.315  -3.145  1.00  0.00     0.060 A 
HETATM    7 BR1  UNL     1       7.835  -5.292  -1.584  1.00  0.00    -0.047 Br
HETATM    8  C18 UNL     1       7.254  -3.686  -3.846  1.00  0.00     0.111 A 
HETATM    9  C20 UNL     1       7.626  -3.000  -4.956  1.00  0.00     0.102 A 
HETATM   10 CL1  UNL     1       6.387  -2.177  -5.898  1.00  0.00    -0.078 Cl
HETATM   11  C21 UNL     1       8.946  -2.905  -5.403  1.00  0.00     0.102 A 
HETATM   12  C22 UNL     1       9.963  -3.530  -4.706  1.00  0.00     0.031 A 
ENDROOT
BRANCH   3  13
HETATM   13  C6  UNL     1      12.858  -5.555  -2.353  1.00  0.00     0.262 C 
HETATM   14  O4  UNL     1      13.626  -4.817  -1.611  1.00  0.00    -0.267 OA
HETATM   15  N1  UNL     1      13.062  -6.939  -2.271  1.00  0.00    -0.315 N 
ATOM     16  H1  UNL     1      12.494  -7.579  -2.826  1.00  0.00     0.169 HD
BRANCH  15  17
HETATM   17  C7  UNL     1      14.096  -7.451  -1.383  1.00  0.00     0.157 A 
HETATM   18  C8  UNL     1      13.752  -7.907  -0.146  1.00  0.00     0.178 A 
HETATM   19  N2  UNL     1      14.747  -8.367   0.627  1.00  0.00    -0.299 N 
HETATM   20  C10 UNL     1      16.027  -8.394   0.239  1.00  0.00     0.250 A 
ATOM     21  H2  UNL     1      14.515  -8.714   1.558  1.00  0.00     0.171 HD
HETATM   22  N3  UNL     1      16.417  -7.943  -1.001  1.00  0.00    -0.177 N 
HETATM   23  C14 UNL     1      15.428  -7.485  -1.769  1.00  0.00     0.301 A 
HETATM   24  O8  UNL     1      15.654  -7.052  -2.906  1.00  0.00    -0.263 OA
BRANCH  18  25
HETATM   25  O5  UNL     1      12.427  -7.886   0.268  1.00  0.00    -0.339 OA
HETATM   26  C9  UNL     1      12.093  -8.652   1.426  1.00  0.00     0.211 C 
ENDBRANCH  18  25
BRANCH  20  27
HETATM   27  O6  UNL     1      16.981  -8.897   1.136  1.00  0.00    -0.325 OA
HETATM   28  C11 UNL     1      16.963 -10.261   1.501  1.00  0.00     0.213 C 
ENDBRANCH  20  27
BRANCH  22  29
HETATM   29  N4  UNL     1      17.759  -8.012  -1.304  1.00  0.00    -0.256 N 
HETATM   30  C12 UNL     1      18.849  -7.192  -1.057  1.00  0.00     0.262 C 
HETATM   31  O7  UNL     1      18.818  -6.109  -0.442  1.00  0.00    -0.270 OA
ATOM     32  H4  UNL     1      18.005  -8.854  -1.826  1.00  0.00     0.191 HD
BRANCH  30  33
HETATM   33  C13 UNL     1      20.222  -7.628  -1.572  1.00  0.00     0.333 C 
BRANCH  33  34
HETATM   34  N5  UNL     1      21.258  -6.734  -1.183  1.00  0.00    -0.071 N 
ATOM     35  H53 UNL     1      21.249  -6.578  -0.175  1.00  0.00     0.274 HD
ATOM     36  H52 UNL     1      22.174  -7.173  -1.272  1.00  0.00     0.274 HD
ATOM     37  H51 UNL     1      21.224  -5.850  -1.691  1.00  0.00     0.274 HD
ENDBRANCH  33  34
ENDBRANCH  30  33
ENDBRANCH  22  29
ENDBRANCH  15  17
ENDBRANCH   3  13
BRANCH   2  38
HETATM   38  O3  UNL     1      13.515  -4.098  -4.682  1.00  0.00    -0.358 OA
ATOM     39  H3  UNL     1      13.926  -4.891  -5.004  1.00  0.00     0.217 HD
ENDBRANCH   2  38
BRANCH   4  40
HETATM   40  O9  UNL     1      10.084  -5.562  -1.700  1.00  0.00    -0.359 OA
ATOM     41  H9  UNL     1       9.303  -6.102  -1.693  1.00  0.00     0.217 HD
ENDBRANCH   4  40
BRANCH   1  42
HETATM   42  C2  UNL     1      11.757  -2.761  -6.269  1.00  0.00     0.192 C 
BRANCH  42  43
HETATM   43  O1  UNL     1      11.910  -3.008  -7.580  1.00  0.00    -0.335 OA
HETATM   44  C1  UNL     1      11.594  -4.282  -8.183  1.00  0.00     0.212 C 
ENDBRANCH  42  43
BRANCH  42  45
HETATM   45  O2  UNL     1      12.167  -1.535  -6.023  1.00  0.00    -0.340 OA
ATOM     46  H2  UNL     1      13.116  -1.520  -6.068  1.00  0.00     0.220 HD
ENDBRANCH  42  45
ENDBRANCH   1  42
BRANCH  11  47
HETATM   47  O11 UNL     1       9.202  -2.188  -6.533  1.00  0.00    -0.358 OA
ATOM     48  H11 UNL     1       9.527  -2.646  -7.298  1.00  0.00     0.217 HD
ENDBRANCH  11  47
BRANCH   8  49
HETATM   49  O10 UNL     1       5.950  -3.790  -3.388  1.00  0.00    -0.353 OA
HETATM   50  C19 UNL     1       5.463  -2.722  -2.585  1.00  0.00     0.210 C 
ENDBRANCH   8  49
TORSDOF 14
ENDMDL
MODEL 2
REMARK VINA RESULT: -6.537205065      6.311     13.369
REMARK  14 active torsions:
REMARK  status: ('A' for Active; 'I' for Inactive)
REMARK    1  A    between atoms: O1_2  and  C2_3 
REMARK    2  A    between atoms: C2_3  and  O2_4 
REMARK    3  A    between atoms: C2_3  and  C3_6 
REMARK    4  A    between atoms: C4_7  and  O3_8 
REMARK    5  A    between atoms: C5_10  and  C6_11 
REMARK       I    between atoms: C6_11  and  N1_13 
REMARK    6  A    between atoms: N1_13  and  C7_15 
REMARK    7  A    between atoms: C8_16  and  O5_17 
REMARK    8  A    between atoms: C10_21  and  O6_22 
REMARK    9  A    between atoms: N3_24  and  N4_25 
REMARK       I    between atoms: N4_25  and  C12_27 
REMARK   10  A    between atoms: C12_27  and  C13_29 
REMARK   11  A    between atoms: C13_29  and  N5_30 
REMARK   12  A    between atoms: C15_36  and  O9_37 
REMARK   13  A    between atoms: C18_42  and  O10_43 
REMARK   14  A    between atoms: C21_47  and  O11_48 
ROOT
HETATM    1  C3  UNL     1      17.981 -13.651   3.942  1.00  0.00     0.070 A 
HETATM    2  C4  UNL     1      17.320 -12.656   3.162  1.00  0.00     0.100 A 
HETATM    3  C5  UNL     1      17.928 -12.059   2.054  1.00  0.00     0.100 A 
HETATM    4  C15 UNL     1      19.208 -12.447   1.707  1.00  0.00     0.097 A 
HETATM    5  C16 UNL     1      19.859 -13.424   2.472  1.00  0.00     0.033 A 
HETATM    6  C17 UNL     1      21.151 -13.773   2.071  1.00  0.00     0.060 A 
HETATM    7 BR1  UNL     1      21.947 -12.945   0.564  1.00  0.00    -0.047 Br
HETATM    8  C18 UNL     1      21.889 -14.734   2.761  1.00  0.00     0.111 A 
HETATM    9  C20 UNL     1      21.276 -15.297   3.832  1.00  0.00     0.102 A 
HETATM   10 CL1  UNL     1      22.141 -16.520   4.758  1.00  0.00    -0.078 Cl
HETATM   11  C21 UNL     1      19.986 -14.964   4.251  1.00  0.00     0.102 A 
HETATM   12  C22 UNL     1      19.257 -14.011   3.565  1.00  0.00     0.031 A 
ENDROOT
BRANCH   3  13
HETATM   13  C6  UNL     1      17.274 -11.052   1.255  1.00  0.00     0.262 C 
HETATM   14  O4  UNL     1      16.862 -11.425   0.082  1.00  0.00    -0.267 OA
HETATM   15  N1  UNL     1      17.032  -9.716   1.600  1.00  0.00    -0.315 N 
ATOM     16  H1  UNL     1      17.329  -9.355   2.507  1.00  0.00     0.169 HD
BRANCH  15  17
HETATM   17  C7  UNL     1      16.351  -8.850   0.649  1.00  0.00     0.157 A 
HETATM   18  C8  UNL     1      17.083  -8.141  -0.255  1.00  0.00     0.178 A 
HETATM   19  N2  UNL     1      16.401  -7.360  -1.107  1.00  0.00    -0.299 N 
HETATM   20  C10 UNL     1      15.066  -7.258  -1.101  1.00  0.00     0.250 A 
ATOM     21  H2  UNL     1      16.925  -6.819  -1.793  1.00  0.00     0.171 HD
HETATM   22  N3  UNL     1      14.290  -7.957  -0.206  1.00  0.00    -0.177 N 
HETATM   23  C14 UNL     1      14.969  -8.732   0.641  1.00  0.00     0.301 A 
HETATM   24  O8  UNL     1      14.381  -9.410   1.494  1.00  0.00    -0.263 OA
BRANCH  18  25
HETATM   25  O5  UNL     1      18.467  -8.239  -0.271  1.00  0.00    -0.339 OA
HETATM   26  C9  UNL     1      19.194  -7.126  -0.793  1.00  0.00     0.211 C 
ENDBRANCH  18  25
BRANCH  20  27
HETATM   27  O6  UNL     1      14.463  -6.408  -2.041  1.00  0.00    -0.325 OA
HETATM   28  C11 UNL     1      14.477  -6.742  -3.413  1.00  0.00     0.213 C 
ENDBRANCH  20  27
BRANCH  22  29
HETATM   29  N4  UNL     1      12.926  -7.781  -0.282  1.00  0.00    -0.256 N 
HETATM   30  C12 UNL     1      11.864  -8.602  -0.625  1.00  0.00     0.262 C 
HETATM   31  O7  UNL     1      11.952  -9.797  -0.971  1.00  0.00    -0.270 OA
ATOM     32  H4  UNL     1      12.633  -6.837  -0.030  1.00  0.00     0.191 HD
BRANCH  30  33
HETATM   33  C13 UNL     1      10.450  -8.022  -0.586  1.00  0.00     0.333 C 
BRANCH  33  34
HETATM   34  N5  UNL     1      10.442  -6.600  -0.647  1.00  0.00    -0.071 N 
ATOM     35  H53 UNL     1      10.679  -6.192   0.258  1.00  0.00     0.274 HD
ATOM     36  H52 UNL     1      11.229  -6.252  -1.195  1.00  0.00     0.274 HD
ATOM     37  H51 UNL     1       9.559  -6.228  -0.996  1.00  0.00     0.274 HD
ENDBRANCH  33  34
ENDBRANCH  30  33
ENDBRANCH  22  29
ENDBRANCH  15  17
ENDBRANCH   3  13
BRANCH   2  38
HETATM   38  O3  UNL     1      16.096 -12.294   3.502  1.00  0.00    -0.358 OA
ATOM     39  H3  UNL     1      15.628 -11.688   2.941  1.00  0.00     0.217 HD
ENDBRANCH   2  38
BRANCH   4  40
HETATM   40  O9  UNL     1      19.913 -11.945   0.652  1.00  0.00    -0.359 OA
ATOM     41  H9  UNL     1      19.862 -12.274  -0.237  1.00  0.00     0.217 HD
ENDBRANCH   4  40
BRANCH   1  42
HETATM   42  C2  UNL     1      17.260 -14.196   5.059  1.00  0.00     0.192 C 
BRANCH  42  43
HETATM   43  O1  UNL     1      16.508 -15.278   5.317  1.00  0.00    -0.335 OA
HETATM   44  C1  UNL     1      16.006 -15.591   6.635  1.00  0.00     0.212 C 
ENDBRANCH  42  43
BRANCH  42  45
HETATM   45  O2  UNL     1      17.329 -13.464   6.151  1.00  0.00    -0.340 OA
ATOM     46  H2  UNL     1      18.149 -12.985   6.142  1.00  0.00     0.220 HD
ENDBRANCH  42  45
ENDBRANCH   1  42
BRANCH  11  47
HETATM   47  O11 UNL     1      19.470 -15.595   5.342  1.00  0.00    -0.358 OA
ATOM     48  H11 UNL     1      19.312 -16.530   5.294  1.00  0.00     0.217 HD
ENDBRANCH  11  47
BRANCH   8  49
HETATM   49  O10 UNL     1      23.168 -15.052   2.332  1.00  0.00    -0.353 OA
HETATM   50  C19 UNL     1      24.250 -14.426   3.011  1.00  0.00     0.210 C 
ENDBRANCH   8  49
TORSDOF 14
ENDMDL
MODEL 3
REMARK VINA RESULT: -6.247906703      4.271      9.244
REMARK  14 active torsions:
REMARK  status: ('A' for Active; 'I' for Inactive)
REMARK    1  A    between atoms: O1_2  and  C2_3 
REMARK    2  A    between atoms: C2_3  and  O2_4 
REMARK    3  A    between atoms: C2_3  and  C3_6 
REMARK    4  A    between atoms: C4_7  and  O3_8 
REMARK    5  A    between atoms: C5_10  and  C6_11 
REMARK       I    between atoms: C6_11  and  N1_13 
REMARK    6  A    between atoms: N1_13  and  C7_15 
REMARK    7  A    between atoms: C8_16  and  O5_17 
REMARK    8  A    between atoms: C10_21  and  O6_22 
REMARK    9  A    between atoms: N3_24  and  N4_25 
REMARK       I    between atoms: N4_25  and  C12_27 
REMARK   10  A    between atoms: C12_27  and  C13_29 
REMARK   11  A    between atoms: C13_29  and  N5_30 
REMARK   12  A    between atoms: C15_36  and  O9_37 
REMARK   13  A    between atoms: C18_42  and  O10_43 
REMARK   14  A    between atoms: C21_47  and  O11_48 
ROOT
HETATM    1  C3  UNL     1      14.905  -7.266  -4.161  1.00  0.00     0.070 A 
HETATM    2  C4  UNL     1      13.563  -6.780  -4.145  1.00  0.00     0.100 A 
HETATM    3  C5  UNL     1      12.812  -6.717  -2.968  1.00  0.00     0.100 A 
HETATM    4  C15 UNL     1      13.390  -7.139  -1.786  1.00  0.00     0.097 A 
HETATM    5  C16 UNL     1      14.707  -7.617  -1.799  1.00  0.00     0.033 A 
HETATM    6  C17 UNL     1      15.233  -8.029  -0.572  1.00  0.00     0.060 A 
HETATM    7 BR1  UNL     1      14.188  -7.929   1.006  1.00  0.00    -0.047 Br
HETATM    8  C18 UNL     1      16.534  -8.521  -0.471  1.00  0.00     0.111 A 
HETATM    9  C20 UNL     1      17.242  -8.572  -1.628  1.00  0.00     0.102 A 
HETATM   10 CL1  UNL     1      18.893  -9.182  -1.585  1.00  0.00    -0.078 Cl
HETATM   11  C21 UNL     1      16.735  -8.166  -2.864  1.00  0.00     0.102 A 
HETATM   12  C22 UNL     1      15.446  -7.678  -2.961  1.00  0.00     0.031 A 
ENDROOT
BRANCH   3  13
HETATM   13  C6  UNL     1      11.456  -6.227  -2.936  1.00  0.00     0.262 C 
HETATM   14  O4  UNL     1      10.653  -6.692  -3.843  1.00  0.00    -0.267 OA
HETATM   15  N1  UNL     1      10.905  -5.306  -2.034  1.00  0.00    -0.315 N 
ATOM     16  H1  UNL     1      11.479  -4.900  -1.295  1.00  0.00     0.169 HD
BRANCH  15  17
HETATM   17  C7  UNL     1       9.504  -4.936  -2.167  1.00  0.00     0.157 A 
HETATM   18  C8  UNL     1       8.544  -5.750  -1.647  1.00  0.00     0.178 A 
HETATM   19  N2  UNL     1       7.270  -5.357  -1.800  1.00  0.00    -0.299 N 
HETATM   20  C10 UNL     1       6.919  -4.228  -2.426  1.00  0.00     0.250 A 
ATOM     21  H2  UNL     1       6.532  -5.949  -1.419  1.00  0.00     0.171 HD
HETATM   22  N3  UNL     1       7.857  -3.378  -2.966  1.00  0.00    -0.177 N 
HETATM   23  C14 UNL     1       9.123  -3.769  -2.814  1.00  0.00     0.301 A 
HETATM   24  O8  UNL     1      10.057  -3.089  -3.257  1.00  0.00    -0.263 OA
BRANCH  18  25
HETATM   25  O5  UNL     1       8.894  -6.923  -0.994  1.00  0.00    -0.339 OA
HETATM   26  C9  UNL     1       8.248  -8.124  -1.419  1.00  0.00     0.211 C 
ENDBRANCH  18  25
BRANCH  20  27
HETATM   27  O6  UNL     1       5.554  -3.921  -2.525  1.00  0.00    -0.325 OA
HETATM   28  C11 UNL     1       4.936  -3.104  -1.553  1.00  0.00     0.213 C 
ENDBRANCH  20  27
BRANCH  22  29
HETATM   29  N4  UNL     1       7.394  -2.242  -3.591  1.00  0.00    -0.256 N 
HETATM   30  C12 UNL     1       7.380  -0.895  -3.262  1.00  0.00     0.262 C 
HETATM   31  O7  UNL     1       7.839  -0.399  -2.214  1.00  0.00    -0.270 OA
ATOM     32  H4  UNL     1       6.965  -2.434  -4.496  1.00  0.00     0.191 HD
BRANCH  30  33
HETATM   33  C13 UNL     1       6.754   0.091  -4.249  1.00  0.00     0.333 C 
BRANCH  33  34
HETATM   34  N5  UNL     1       5.519   0.622  -3.780  1.00  0.00    -0.071 N 
ATOM     35  H53 UNL     1       4.785  -0.086  -3.800  1.00  0.00     0.274 HD
ATOM     36  H52 UNL     1       5.552   0.796  -2.776  1.00  0.00     0.274 HD
ATOM     37  H51 UNL     1       5.236   1.459  -4.289  1.00  0.00     0.274 HD
ENDBRANCH  33  34
ENDBRANCH  30  33
ENDBRANCH  22  29
ENDBRANCH  15  17
ENDBRANCH   3  13
BRANCH   2  38
HETATM   38  O3  UNL     1      13.023  -6.378  -5.281  1.00  0.00    -0.358 OA
ATOM     39  H3  UNL     1      12.555  -5.552  -5.296  1.00  0.00     0.217 HD
ENDBRANCH   2  38
BRANCH   4  40
HETATM   40  O9  UNL     1      12.768  -7.129  -0.572  1.00  0.00    -0.359 OA
ATOM     41  H9  UNL     1      12.946  -7.742   0.131  1.00  0.00     0.217 HD
ENDBRANCH   4  40
BRANCH   1  42
HETATM   42  C2  UNL     1      15.582  -7.286  -5.427  1.00  0.00     0.192 C 
BRANCH  42  43
HETATM   43  O1  UNL     1      15.860  -8.186  -6.385  1.00  0.00    -0.335 OA
HETATM   44  C1  UNL     1      15.279  -9.508  -6.414  1.00  0.00     0.212 C 
ENDBRANCH  42  43
BRANCH  42  45
HETATM   45  O2  UNL     1      16.084  -6.124  -5.786  1.00  0.00    -0.340 OA
ATOM     46  H2  UNL     1      15.425  -5.455  -5.648  1.00  0.00     0.220 HD
ENDBRANCH  42  45
ENDBRANCH   1  42
BRANCH  11  47
HETATM   47  O11 UNL     1      17.537  -8.262  -3.961  1.00  0.00    -0.358 OA
ATOM     48  H11 UNL     1      17.172  -8.620  -4.761  1.00  0.00     0.217 HD
ENDBRANCH  11  47
BRANCH   8  49
HETATM   49  O10 UNL     1      17.021  -8.920   0.765  1.00  0.00    -0.353 OA
HETATM   50  C19 UNL     1      17.007 -10.315   1.042  1.00  0.00     0.210 C 
ENDBRANCH   8  49
TORSDOF 14
ENDMDL
MODEL 4
REMARK VINA RESULT: -6.191705287      3.288      6.865
REMARK  14 active torsions:
REMARK  status: ('A' for Active; 'I' for Inactive)
REMARK    1  A    between atoms: O1_2  and  C2_3 
REMARK    2  A    between atoms: C2_3  and  O2_4 
REMARK    3  A    between atoms: C2_3  and  C3_6 
REMARK    4  A    between atoms: C4_7  and  O3_8 
REMARK    5  A    between atoms: C5_10  and  C6_11 
REMARK       I    between atoms: C6_11  and  N1_13 
REMARK    6  A    between atoms: N1_13  and  C7_15 
REMARK    7  A    between atoms: C8_16  and  O5_17 
REMARK    8  A    between atoms: C10_21  and  O6_22 
REMARK    9  A    between atoms: N3_24  and  N4_25 
REMARK       I    between atoms: N4_25  and  C12_27 
REMARK   10  A    between atoms: C12_27  and  C13_29 
REMARK   11  A    between atoms: C13_29  and  N5_30 
REMARK   12  A    between atoms: C15_36  and  O9_37 
REMARK   13  A    between atoms: C18_42  and  O10_43 
REMARK   14  A    between atoms: C21_47  and  O11_48 
ROOT
HETATM    1  C3  UNL     1      13.462  -8.124   0.688  1.00  0.00     0.070 A 
HETATM    2  C4  UNL     1      14.846  -8.467   0.739  1.00  0.00     0.100 A 
HETATM    3  C5  UNL     1      15.719  -8.183  -0.315  1.00  0.00     0.100 A 
HETATM    4  C15 UNL     1      15.223  -7.551  -1.439  1.00  0.00     0.097 A 
HETATM    5  C16 UNL     1      13.865  -7.213  -1.492  1.00  0.00     0.033 A 
HETATM    6  C17 UNL     1      13.424  -6.576  -2.654  1.00  0.00     0.060 A 
HETATM    7 BR1  UNL     1      14.634  -6.205  -4.065  1.00  0.00    -0.047 Br
HETATM    8  C18 UNL     1      12.092  -6.196  -2.812  1.00  0.00     0.111 A 
HETATM    9  C20 UNL     1      11.266  -6.483  -1.775  1.00  0.00     0.102 A 
HETATM   10 CL1  UNL     1       9.567  -6.036  -1.896  1.00  0.00    -0.078 Cl
HETATM   11  C21 UNL     1      11.684  -7.119  -0.604  1.00  0.00     0.102 A 
HETATM   12  C22 UNL     1      13.006  -7.494  -0.450  1.00  0.00     0.031 A 
ENDROOT
BRANCH   3  13
HETATM   13  C6  UNL     1      17.121  -8.522  -0.278  1.00  0.00     0.262 C 
HETATM   14  O4  UNL     1      17.766  -8.195   0.800  1.00  0.00    -0.267 OA
HETATM   15  N1  UNL     1      17.866  -9.166  -1.275  1.00  0.00    -0.315 N 
ATOM     16  H1  UNL     1      17.424  -9.452  -2.148  1.00  0.00     0.169 HD
BRANCH  15  17
HETATM   17  C7  UNL     1      19.281  -9.422  -1.047  1.00  0.00     0.157 A 
HETATM   18  C8  UNL     1      19.669 -10.614  -0.513  1.00  0.00     0.178 A 
HETATM   19  N2  UNL     1      20.986 -10.793  -0.327  1.00  0.00    -0.299 N 
HETATM   20  C10 UNL     1      21.904  -9.870  -0.637  1.00  0.00     0.250 A 
ATOM     21  H2  UNL     1      21.303 -11.677   0.071  1.00  0.00     0.171 HD
HETATM   22  N3  UNL     1      21.555  -8.654  -1.177  1.00  0.00    -0.177 N 
HETATM   23  C14 UNL     1      20.246  -8.477  -1.362  1.00  0.00     0.301 A 
HETATM   24  O8  UNL     1      19.808  -7.423  -1.842  1.00  0.00    -0.263 OA
BRANCH  18  25
HETATM   25  O5  UNL     1      18.727 -11.579  -0.188  1.00  0.00    -0.339 OA
HETATM   26  C9  UNL     1      18.449 -11.779   1.199  1.00  0.00     0.211 C 
ENDBRANCH  18  25
BRANCH  20  27
HETATM   27  O6  UNL     1      23.253 -10.171  -0.396  1.00  0.00    -0.325 OA
HETATM   28  C11 UNL     1      23.664 -10.627   0.876  1.00  0.00     0.213 C 
ENDBRANCH  20  27
BRANCH  22  29
HETATM   29  N4  UNL     1      22.575  -7.773  -1.461  1.00  0.00    -0.256 N 
HETATM   30  C12 UNL     1      23.206  -7.369  -2.626  1.00  0.00     0.262 C 
HETATM   31  O7  UNL     1      22.939  -7.773  -3.775  1.00  0.00    -0.270 OA
ATOM     32  H4  UNL     1      22.949  -7.318  -0.628  1.00  0.00     0.191 HD
BRANCH  30  33
HETATM   33  C13 UNL     1      24.332  -6.338  -2.527  1.00  0.00     0.333 C 
BRANCH  33  34
HETATM   34  N5  UNL     1      25.280  -6.662  -1.515  1.00  0.00    -0.071 N 
ATOM     35  H53 UNL     1      24.974  -6.321  -0.603  1.00  0.00     0.274 HD
ATOM     36  H52 UNL     1      25.284  -7.663  -1.323  1.00  0.00     0.274 HD
ATOM     37  H51 UNL     1      26.217  -6.326  -1.736  1.00  0.00     0.274 HD
ENDBRANCH  33  34
ENDBRANCH  30  33
ENDBRANCH  22  29
ENDBRANCH  15  17
ENDBRANCH   3  13
BRANCH   2  38
HETATM   38  O3  UNL     1      15.309  -9.070   1.820  1.00  0.00    -0.358 OA
ATOM     39  H3  UNL     1      16.190  -8.867   2.112  1.00  0.00     0.217 HD
ENDBRANCH   2  38
BRANCH   4  40
HETATM   40  O9  UNL     1      15.966  -7.218  -2.533  1.00  0.00    -0.359 OA
ATOM     41  H9  UNL     1      15.803  -6.465  -3.088  1.00  0.00     0.217 HD
ENDBRANCH   4  40
BRANCH   1  42
HETATM   42  C2  UNL     1      12.658  -8.463   1.829  1.00  0.00     0.192 C 
BRANCH  42  43
HETATM   43  O1  UNL     1      11.555  -9.187   2.079  1.00  0.00    -0.335 OA
HETATM   44  C1  UNL     1      10.726  -8.979   3.244  1.00  0.00     0.212 C 
ENDBRANCH  42  43
BRANCH  42  45
HETATM   45  O2  UNL     1      13.084  -7.943   2.960  1.00  0.00    -0.340 OA
ATOM     46  H2  UNL     1      13.378  -7.056   2.792  1.00  0.00     0.220 HD
ENDBRANCH  42  45
ENDBRANCH   1  42
BRANCH  11  47
HETATM   47  O11 UNL     1      10.766  -7.357   0.373  1.00  0.00    -0.358 OA
ATOM     48  H11 UNL     1      10.258  -8.159   0.335  1.00  0.00     0.217 HD
ENDBRANCH  11  47
BRANCH   8  49
HETATM   49  O10 UNL     1      11.694  -5.566  -3.981  1.00  0.00    -0.353 OA
HETATM   50  C19 UNL     1      11.607  -4.147  -3.951  1.00  0.00     0.210 C 
ENDBRANCH   8  49
TORSDOF 14
ENDMDL
MODEL 5
REMARK VINA RESULT: -6.056613625      2.699      5.702
REMARK  14 active torsions:
REMARK  status: ('A' for Active; 'I' for Inactive)
REMARK    1  A    between atoms: O1_2  and  C2_3 
REMARK    2  A    between atoms: C2_3  and  O2_4 
REMARK    3  A    between atoms: C2_3  and  C3_6 
REMARK    4  A    between atoms: C4_7  and  O3_8 
REMARK    5  A    between atoms: C5_10  and  C6_11 
REMARK       I    between atoms: C6_11  and  N1_13 
REMARK    6  A    between atoms: N1_13  and  C7_15 
REMARK    7  A    between atoms: C8_16  and  O5_17 
REMARK    8  A    between atoms: C10_21  and  O6_22 
REMARK    9  A    between atoms: N3_24  and  N4_25 
REMARK       I    between atoms: N4_25  and  C12_27 
REMARK   10  A    between atoms: C12_27  and  C13_29 
REMARK   11  A    between atoms: C13_29  and  N5_30 
REMARK   12  A    between atoms: C15_36  and  O9_37 
REMARK   13  A    between atoms: C18_42  and  O10_43 
REMARK   14  A    between atoms: C21_47  and  O11_48 
ROOT
HETATM    1  C3  UNL     1      11.732  -8.050  -0.217  1.00  0.00     0.070 A 
HETATM    2  C4  UNL     1      13.075  -8.492  -0.022  1.00  0.00     0.100 A 
HETATM    3  C5  UNL     1      14.148  -7.927  -0.716  1.00  0.00     0.100 A 
HETATM    4  C15 UNL     1      13.898  -6.911  -1.618  1.00  0.00     0.097 A 
HETATM    5  C16 UNL     1      12.581  -6.476  -1.812  1.00  0.00     0.033 A 
HETATM    6  C17 UNL     1      12.393  -5.447  -2.737  1.00  0.00     0.060 A 
HETATM    7 BR1  UNL     1      13.870  -4.702  -3.661  1.00  0.00    -0.047 Br
HETATM    8  C18 UNL     1      11.123  -4.937  -3.007  1.00  0.00     0.111 A 
HETATM    9  C20 UNL     1      10.098  -5.503  -2.320  1.00  0.00     0.102 A 
HETATM   10 CL1  UNL     1       8.462  -4.917  -2.604  1.00  0.00    -0.078 Cl
HETATM   11  C21 UNL     1      10.263  -6.533  -1.391  1.00  0.00     0.102 A 
HETATM   12  C22 UNL     1      11.523  -7.035  -1.125  1.00  0.00     0.031 A 
ENDROOT
BRANCH   3  13
HETATM   13  C6  UNL     1      15.511  -8.361  -0.529  1.00  0.00     0.262 C 
HETATM   14  O4  UNL     1      16.125  -7.903   0.519  1.00  0.00    -0.267 OA
HETATM   15  N1  UNL     1      16.250  -9.223  -1.351  1.00  0.00    -0.315 N 
ATOM     16  H1  UNL     1      15.830  -9.621  -2.192  1.00  0.00     0.169 HD
BRANCH  15  17
HETATM   17  C7  UNL     1      17.623  -9.543  -0.989  1.00  0.00     0.157 A 
HETATM   18  C8  UNL     1      17.862 -10.485  -0.035  1.00  0.00     0.178 A 
HETATM   19  N2  UNL     1      19.147 -10.738   0.256  1.00  0.00    -0.299 N 
HETATM   20  C10 UNL     1      20.172 -10.117  -0.341  1.00  0.00     0.250 A 
ATOM     21  H2  UNL     1      19.354 -11.439   0.968  1.00  0.00     0.171 HD
HETATM   22  N3  UNL     1      19.974  -9.161  -1.310  1.00  0.00    -0.177 N 
HETATM   23  C14 UNL     1      18.696  -8.909  -1.598  1.00  0.00     0.301 A 
HETATM   24  O8  UNL     1      18.390  -8.068  -2.453  1.00  0.00    -0.263 OA
BRANCH  18  25
HETATM   25  O5  UNL     1      16.809 -11.136   0.591  1.00  0.00    -0.339 OA
HETATM   26  C9  UNL     1      16.742 -11.050   2.015  1.00  0.00     0.211 C 
ENDBRANCH  18  25
BRANCH  20  27
HETATM   27  O6  UNL     1      21.474 -10.465   0.048  1.00  0.00    -0.325 OA
HETATM   28  C11 UNL     1      21.825 -11.822   0.226  1.00  0.00     0.213 C 
ENDBRANCH  20  27
BRANCH  22  29
HETATM   29  N4  UNL     1      21.094  -8.581  -1.862  1.00  0.00    -0.256 N 
HETATM   30  C12 UNL     1      21.670  -7.322  -1.783  1.00  0.00     0.262 C 
HETATM   31  O7  UNL     1      21.230  -6.363  -1.118  1.00  0.00    -0.270 OA
ATOM     32  H4  UNL     1      21.616  -9.219  -2.462  1.00  0.00     0.191 HD
BRANCH  30  33
HETATM   33  C13 UNL     1      22.955  -7.056  -2.567  1.00  0.00     0.333 C 
BRANCH  33  34
HETATM   34  N5  UNL     1      23.875  -6.245  -1.846  1.00  0.00    -0.071 N 
ATOM     35  H53 UNL     1      23.410  -5.432  -1.442  1.00  0.00     0.274 HD
ATOM     36  H52 UNL     1      24.176  -6.705  -0.988  1.00  0.00     0.274 HD
ATOM     37  H51 UNL     1      24.676  -5.964  -2.413  1.00  0.00     0.274 HD
ENDBRANCH  33  34
ENDBRANCH  30  33
ENDBRANCH  22  29
ENDBRANCH  15  17
ENDBRANCH   3  13
BRANCH   2  38
HETATM   38  O3  UNL     1      13.302  -9.463   0.844  1.00  0.00    -0.358 OA
ATOM     39  H3  UNL     1      12.951 -10.327   0.661  1.00  0.00     0.217 HD
ENDBRANCH   2  38
BRANCH   4  40
HETATM   40  O9  UNL     1      14.853  -6.277  -2.357  1.00  0.00    -0.359 OA
ATOM     41  H9  UNL     1      14.675  -5.706  -3.094  1.00  0.00     0.217 HD
ENDBRANCH   4  40
BRANCH   1  42
HETATM   42  C2  UNL     1      10.707  -8.702   0.550  1.00  0.00     0.192 C 
BRANCH  42  43
HETATM   43  O1  UNL     1      10.072  -8.508   1.717  1.00  0.00    -0.335 OA
HETATM   44  C1  UNL     1      10.722  -8.655   3.000  1.00  0.00     0.212 C 
ENDBRANCH  42  43
BRANCH  42  45
HETATM   45  O2  UNL     1      10.232  -9.795  -0.008  1.00  0.00    -0.340 OA
ATOM     46  H2  UNL     1      10.877 -10.486   0.085  1.00  0.00     0.220 HD
ENDBRANCH  42  45
ENDBRANCH   1  42
BRANCH  11  47
HETATM   47  O11 UNL     1       9.161  -7.025  -0.760  1.00  0.00    -0.358 OA
ATOM     48  H11 UNL     1       9.269  -7.744  -0.150  1.00  0.00     0.217 HD
ENDBRANCH  11  47
BRANCH   8  49
HETATM   49  O10 UNL     1      10.977  -3.915  -3.932  1.00  0.00    -0.353 OA
HETATM   50  C19 UNL     1      10.599  -4.290  -5.251  1.00  0.00     0.210 C 
ENDBRANCH   8  49
TORSDOF 14
ENDMDL
