MODEL 1
REMARK VINA RESULT: -7.034501795      0.000      0.000
REMARK  8 active torsions:
REMARK  status: ('A' for Active; 'I' for Inactive)
REMARK    1  A    between atoms: C6_13  and  N5_14 
REMARK    2  A    between atoms: N5_14  and  N6_16 
REMARK    3  A    between atoms: C8_22  and  N8_23 
REMARK    4  A    between atoms: N8_23  and  C9_25 
REMARK    5  A    between atoms: C9_25  and  C10_26 
REMARK    6  A    between atoms: C10_26  and  N9_27 
REMARK    7  A    between atoms: C13_34  and  N10_35 
REMARK    8  A    between atoms: N10_35  and  C14_37 
ROOT
HETATM    1  C1  UNL     1      26.565  28.046  29.307  1.00  0.00     0.160 C 
HETATM    2  N1  UNL     1      27.792  28.574  28.774  1.00  0.00    -0.312 N 
HETATM    3  C2  UNL     1      27.741  29.832  28.296  1.00  0.00     0.112 C 
HETATM    4  C3  UNL     1      26.590  30.213  27.513  1.00  0.00     0.137 A 
HETATM    5  N2  UNL     1      26.264  31.483  27.160  1.00  0.00    -0.325 N 
ATOM      6  H2  UNL     1      26.819  32.303  27.403  1.00  0.00     0.169 HD
HETATM    7  C4  UNL     1      25.132  31.530  26.462  1.00  0.00     0.139 A 
HETATM    8  N3  UNL     1      24.399  32.531  25.892  1.00  0.00    -0.337 N 
ATOM      9  H3  UNL     1      24.712  33.499  25.966  1.00  0.00     0.168 HD
HETATM   10  C5  UNL     1      23.265  32.238  25.232  1.00  0.00     0.183 A 
HETATM   11  N4  UNL     1      22.838  30.967  25.124  1.00  0.00    -0.336 N 
ATOM     12  H4  UNL     1      21.974  30.770  24.619  1.00  0.00     0.168 HD
HETATM   13  C6  UNL     1      23.535  29.944  25.674  1.00  0.00     0.151 A 
HETATM   14  C7  UNL     1      24.714  30.228  26.362  1.00  0.00     0.124 A 
HETATM   15  N7  UNL     1      25.614  29.468  27.004  1.00  0.00    -0.334 N 
ATOM     16  H7  UNL     1      25.557  28.454  27.091  1.00  0.00     0.168 HD
HETATM   17  C8  UNL     1      28.717  30.827  28.520  1.00  0.00     0.110 C 
HETATM   18  C11 UNL     1      30.077  30.574  28.759  1.00  0.00     0.203 C 
HETATM   19  O1  UNL     1      30.781  31.547  29.048  1.00  0.00    -0.286 OA
HETATM   20  C12 UNL     1      30.721  29.330  28.702  1.00  0.00     0.092 C 
HETATM   21  C13 UNL     1      30.210  28.101  29.010  1.00  0.00     0.105 C 
HETATM   22  C18 UNL     1      28.861  27.748  28.843  1.00  0.00     0.274 C 
HETATM   23  O2  UNL     1      28.627  26.529  28.747  1.00  0.00    -0.265 OA
ENDROOT
BRANCH  17  24
HETATM   24  N8  UNL     1      28.308  32.166  28.491  1.00  0.00    -0.383 N 
ATOM     25  H8  UNL     1      28.444  32.695  27.629  1.00  0.00     0.159 HD
BRANCH  24  26
HETATM   26  C9  UNL     1      27.698  32.844  29.625  1.00  0.00     0.147 C 
BRANCH  26  27
HETATM   27  C10 UNL     1      28.172  32.285  30.934  1.00  0.00     0.249 C 
BRANCH  27  28
HETATM   28  N9  UNL     1      27.190  31.506  31.615  1.00  0.00    -0.078 N 
ATOM     29  H93 UNL     1      26.458  31.207  30.971  1.00  0.00     0.274 HD
ATOM     30  H92 UNL     1      27.570  30.596  31.875  1.00  0.00     0.274 HD
ATOM     31  H91 UNL     1      26.786  31.973  32.427  1.00  0.00     0.274 HD
ENDBRANCH  27  28
ENDBRANCH  26  27
ENDBRANCH  24  26
ENDBRANCH  17  24
BRANCH  21  32
HETATM   32  N10 UNL     1      31.071  27.105  29.486  1.00  0.00    -0.349 N 
ATOM     33  H10 UNL     1      31.150  26.269  28.907  1.00  0.00     0.166 HD
BRANCH  32  34
HETATM   34  C14 UNL     1      31.839  27.112  30.662  1.00  0.00     0.063 A 
HETATM   35  C15 UNL     1      33.197  27.001  30.704  1.00  0.00     0.119 A 
HETATM   36  N11 UNL     1      33.852  26.991  31.861  1.00  0.00    -0.360 N 
HETATM   37  C16 UNL     1      33.154  27.092  33.016  1.00  0.00     0.180 A 
ATOM     38  H11 UNL     1      34.868  26.907  31.878  1.00  0.00     0.166 HD
HETATM   39  N12 UNL     1      31.813  27.202  33.010  1.00  0.00    -0.360 N 
HETATM   40  C17 UNL     1      31.128  27.216  31.873  1.00  0.00     0.119 A 
ATOM     41  H12 UNL     1      31.313  27.277  33.896  1.00  0.00     0.166 HD
ENDBRANCH  32  34
ENDBRANCH  21  32
BRANCH  13  42
HETATM   42  N5  UNL     1      23.172  28.728  25.597  1.00  0.00    -0.290 N 
ATOM     43  H5  UNL     1      23.430  28.115  26.371  1.00  0.00     0.188 HD
BRANCH  42  44
HETATM   44  N6  UNL     1      22.460  28.164  24.561  1.00  0.00    -0.344 N 
ATOM     45  H62 UNL     1      22.533  28.635  23.661  1.00  0.00     0.176 HD
ATOM     46  H61 UNL     1      21.879  27.328  24.623  1.00  0.00     0.176 HD
ENDBRANCH  42  44
ENDBRANCH  13  42
TORSDOF 8
ENDMDL
MODEL 2
REMARK VINA RESULT: -6.982083810      1.996      2.745
REMARK  8 active torsions:
REMARK  status: ('A' for Active; 'I' for Inactive)
REMARK    1  A    between atoms: C6_13  and  N5_14 
REMARK    2  A    between atoms: N5_14  and  N6_16 
REMARK    3  A    between atoms: C8_22  and  N8_23 
REMARK    4  A    between atoms: N8_23  and  C9_25 
REMARK    5  A    between atoms: C9_25  and  C10_26 
REMARK    6  A    between atoms: C10_26  and  N9_27 
REMARK    7  A    between atoms: C13_34  and  N10_35 
REMARK    8  A    between atoms: N10_35  and  C14_37 
ROOT
HETATM    1  C1  UNL     1      25.594  28.829  28.230  1.00  0.00     0.160 C 
HETATM    2  N1  UNL     1      26.514  29.886  27.909  1.00  0.00    -0.312 N 
HETATM    3  C2  UNL     1      25.975  31.104  27.707  1.00  0.00     0.112 C 
HETATM    4  C3  UNL     1      24.753  31.185  26.944  1.00  0.00     0.137 A 
HETATM    5  N2  UNL     1      23.958  32.282  26.848  1.00  0.00    -0.325 N 
ATOM      6  H2  UNL     1      24.160  33.175  27.297  1.00  0.00     0.169 HD
HETATM    7  C4  UNL     1      22.883  32.051  26.097  1.00  0.00     0.139 A 
HETATM    8  N3  UNL     1      21.812  32.801  25.703  1.00  0.00    -0.337 N 
ATOM      9  H3  UNL     1      21.729  33.772  26.003  1.00  0.00     0.168 HD
HETATM   10  C5  UNL     1      20.865  32.256  24.918  1.00  0.00     0.183 A 
HETATM   11  N4  UNL     1      20.958  30.976  24.513  1.00  0.00    -0.336 N 
ATOM     12  H4  UNL     1      20.228  30.585  23.919  1.00  0.00     0.168 HD
HETATM   13  C6  UNL     1      22.004  30.199  24.881  1.00  0.00     0.151 A 
HETATM   14  C7  UNL     1      22.996  30.746  25.694  1.00  0.00     0.124 A 
HETATM   15  N7  UNL     1      24.130  30.261  26.222  1.00  0.00    -0.334 N 
ATOM     16  H7  UNL     1      24.468  29.308  26.087  1.00  0.00     0.168 HD
HETATM   17  C8  UNL     1      26.498  32.317  28.205  1.00  0.00     0.110 C 
HETATM   18  C11 UNL     1      27.855  32.551  28.479  1.00  0.00     0.203 C 
HETATM   19  O1  UNL     1      28.136  33.627  29.017  1.00  0.00    -0.286 OA
HETATM   20  C12 UNL     1      28.926  31.690  28.204  1.00  0.00     0.092 C 
HETATM   21  C13 UNL     1      28.932  30.323  28.207  1.00  0.00     0.105 C 
HETATM   22  C18 UNL     1      27.820  29.533  27.875  1.00  0.00     0.274 C 
HETATM   23  O2  UNL     1      28.071  28.371  27.507  1.00  0.00    -0.265 OA
ENDROOT
BRANCH  17  24
HETATM   24  N8  UNL     1      25.605  33.372  28.432  1.00  0.00    -0.383 N 
ATOM     25  H8  UNL     1      24.842  33.226  29.093  1.00  0.00     0.159 HD
BRANCH  24  26
HETATM   26  C9  UNL     1      25.710  34.667  27.776  1.00  0.00     0.147 C 
BRANCH  26  27
HETATM   27  C10 UNL     1      25.383  35.796  28.706  1.00  0.00     0.249 C 
BRANCH  27  28
HETATM   28  N9  UNL     1      25.776  35.561  30.056  1.00  0.00    -0.078 N 
ATOM     29  H93 UNL     1      25.349  36.245  30.680  1.00  0.00     0.274 HD
ATOM     30  H92 UNL     1      25.343  34.710  30.415  1.00  0.00     0.274 HD
ATOM     31  H91 UNL     1      26.787  35.534  30.191  1.00  0.00     0.274 HD
ENDBRANCH  27  28
ENDBRANCH  26  27
ENDBRANCH  24  26
ENDBRANCH  17  24
BRANCH  21  32
HETATM   32  N10 UNL     1      30.118  29.648  28.521  1.00  0.00    -0.349 N 
ATOM     33  H10 UNL     1      30.874  29.737  27.843  1.00  0.00     0.166 HD
BRANCH  32  34
HETATM   34  C14 UNL     1      30.397  28.863  29.651  1.00  0.00     0.063 A 
HETATM   35  C15 UNL     1      30.064  29.198  30.931  1.00  0.00     0.119 A 
HETATM   36  N11 UNL     1      30.386  28.411  31.954  1.00  0.00    -0.360 N 
HETATM   37  C16 UNL     1      31.055  27.259  31.718  1.00  0.00     0.180 A 
ATOM     38  H11 UNL     1      30.131  28.674  32.906  1.00  0.00     0.166 HD
HETATM   39  N12 UNL     1      31.398  26.900  30.467  1.00  0.00    -0.360 N 
HETATM   40  C17 UNL     1      31.093  27.661  29.423  1.00  0.00     0.119 A 
ATOM     41  H12 UNL     1      31.903  26.026  30.318  1.00  0.00     0.166 HD
ENDBRANCH  32  34
ENDBRANCH  21  32
BRANCH  13  42
HETATM   42  N5  UNL     1      22.135  28.985  24.522  1.00  0.00    -0.290 N 
ATOM     43  H5  UNL     1      22.998  28.511  24.789  1.00  0.00     0.188 HD
BRANCH  42  44
HETATM   44  N6  UNL     1      21.214  28.254  23.805  1.00  0.00    -0.344 N 
ATOM     45  H62 UNL     1      21.527  27.909  22.898  1.00  0.00     0.176 HD
ATOM     46  H61 UNL     1      20.265  28.034  24.103  1.00  0.00     0.176 HD
ENDBRANCH  42  44
ENDBRANCH  13  42
TORSDOF 8
ENDMDL
MODEL 3
REMARK VINA RESULT: -6.980032043      2.160      2.902
REMARK  8 active torsions:
REMARK  status: ('A' for Active; 'I' for Inactive)
REMARK    1  A    between atoms: C6_13  and  N5_14 
REMARK    2  A    between atoms: N5_14  and  N6_16 
REMARK    3  A    between atoms: C8_22  and  N8_23 
REMARK    4  A    between atoms: N8_23  and  C9_25 
REMARK    5  A    between atoms: C9_25  and  C10_26 
REMARK    6  A    between atoms: C10_26  and  N9_27 
REMARK    7  A    between atoms: C13_34  and  N10_35 
REMARK    8  A    between atoms: N10_35  and  C14_37 
ROOT
HETATM    1  C1  UNL     1      25.177  29.135  28.851  1.00  0.00     0.160 C 
HETATM    2  N1  UNL     1      26.345  29.722  28.251  1.00  0.00    -0.312 N 
HETATM    3  C2  UNL     1      26.145  30.844  27.532  1.00  0.00     0.112 C 
HETATM    4  C3  UNL     1      24.993  30.896  26.665  1.00  0.00     0.137 A 
HETATM    5  N2  UNL     1      24.513  32.014  26.061  1.00  0.00    -0.325 N 
ATOM      6  H2  UNL     1      24.938  32.937  26.148  1.00  0.00     0.169 HD
HETATM    7  C4  UNL     1      23.421  31.761  25.343  1.00  0.00     0.139 A 
HETATM    8  N3  UNL     1      22.586  32.517  24.571  1.00  0.00    -0.337 N 
ATOM      9  H3  UNL     1      22.759  33.516  24.459  1.00  0.00     0.168 HD
HETATM   10  C5  UNL     1      21.537  31.941  23.958  1.00  0.00     0.183 A 
HETATM   11  N4  UNL     1      21.295  30.625  24.094  1.00  0.00    -0.336 N 
ATOM     12  H4  UNL     1      20.493  30.212  23.620  1.00  0.00     0.168 HD
HETATM   13  C6  UNL     1      22.098  29.839  24.851  1.00  0.00     0.151 A 
HETATM   14  C7  UNL     1      23.192  30.418  25.494  1.00  0.00     0.124 A 
HETATM   15  N7  UNL     1      24.155  29.934  26.293  1.00  0.00    -0.334 N 
ATOM     16  H7  UNL     1      24.233  28.958  26.577  1.00  0.00     0.168 HD
HETATM   17  C8  UNL     1      26.963  31.993  27.576  1.00  0.00     0.110 C 
HETATM   18  C11 UNL     1      28.331  31.991  27.889  1.00  0.00     0.203 C 
HETATM   19  O1  UNL     1      28.879  33.092  27.995  1.00  0.00    -0.286 OA
HETATM   20  C12 UNL     1      29.142  30.866  28.093  1.00  0.00     0.092 C 
HETATM   21  C13 UNL     1      28.790  29.658  28.627  1.00  0.00     0.105 C 
HETATM   22  C18 UNL     1      27.512  29.088  28.504  1.00  0.00     0.274 C 
HETATM   23  O2  UNL     1      27.454  27.853  28.647  1.00  0.00    -0.265 OA
ENDROOT
BRANCH  17  24
HETATM   24  N8  UNL     1      26.375  33.229  27.274  1.00  0.00    -0.383 N 
ATOM     25  H8  UNL     1      26.269  33.487  26.292  1.00  0.00     0.159 HD
BRANCH  24  26
HETATM   26  C9  UNL     1      25.907  34.163  28.286  1.00  0.00     0.147 C 
BRANCH  26  27
HETATM   27  C10 UNL     1      24.935  35.158  27.726  1.00  0.00     0.249 C 
BRANCH  27  28
HETATM   28  N9  UNL     1      23.570  34.770  27.869  1.00  0.00    -0.078 N 
ATOM     29  H93 UNL     1      22.950  35.497  27.511  1.00  0.00     0.274 HD
ATOM     30  H92 UNL     1      23.340  34.017  27.220  1.00  0.00     0.274 HD
ATOM     31  H91 UNL     1      23.313  34.515  28.822  1.00  0.00     0.274 HD
ENDBRANCH  27  28
ENDBRANCH  26  27
ENDBRANCH  24  26
ENDBRANCH  17  24
BRANCH  21  32
HETATM   32  N10 UNL     1      29.755  28.907  29.310  1.00  0.00    -0.349 N 
ATOM     33  H10 UNL     1      29.665  28.883  30.325  1.00  0.00     0.166 HD
BRANCH  32  34
HETATM   34  C14 UNL     1      30.833  28.185  28.772  1.00  0.00     0.063 A 
HETATM   35  C15 UNL     1      30.709  27.110  27.941  1.00  0.00     0.119 A 
HETATM   36  N11 UNL     1      31.780  26.461  27.492  1.00  0.00    -0.360 N 
HETATM   37  C16 UNL     1      33.011  26.877  27.868  1.00  0.00     0.180 A 
ATOM     38  H11 UNL     1      31.674  25.658  26.871  1.00  0.00     0.166 HD
HETATM   39  N12 UNL     1      33.167  27.934  28.687  1.00  0.00    -0.360 N 
HETATM   40  C17 UNL     1      32.121  28.604  29.153  1.00  0.00     0.119 A 
ATOM     41  H12 UNL     1      34.108  28.225  28.955  1.00  0.00     0.166 HD
ENDBRANCH  32  34
ENDBRANCH  21  32
BRANCH  13  42
HETATM   42  N5  UNL     1      21.910  28.591  25.008  1.00  0.00    -0.290 N 
ATOM     43  H5  UNL     1      21.635  28.276  25.939  1.00  0.00     0.188 HD
BRANCH  42  44
HETATM   44  N6  UNL     1      22.044  27.627  24.034  1.00  0.00    -0.344 N 
ATOM     45  H62 UNL     1      21.189  27.138  23.768  1.00  0.00     0.176 HD
ATOM     46  H61 UNL     1      22.912  27.369  23.566  1.00  0.00     0.176 HD
ENDBRANCH  42  44
ENDBRANCH  13  42
TORSDOF 8
ENDMDL
MODEL 4
REMARK VINA RESULT: -6.973442215      1.878      2.560
REMARK  8 active torsions:
REMARK  status: ('A' for Active; 'I' for Inactive)
REMARK    1  A    between atoms: C6_13  and  N5_14 
REMARK    2  A    between atoms: N5_14  and  N6_16 
REMARK    3  A    between atoms: C8_22  and  N8_23 
REMARK    4  A    between atoms: N8_23  and  C9_25 
REMARK    5  A    between atoms: C9_25  and  C10_26 
REMARK    6  A    between atoms: C10_26  and  N9_27 
REMARK    7  A    between atoms: C13_34  and  N10_35 
REMARK    8  A    between atoms: N10_35  and  C14_37 
ROOT
HETATM    1  C1  UNL     1      25.417  29.126  28.618  1.00  0.00     0.160 C 
HETATM    2  N1  UNL     1      26.505  29.834  27.999  1.00  0.00    -0.312 N 
HETATM    3  C2  UNL     1      26.184  30.972  27.353  1.00  0.00     0.112 C 
HETATM    4  C3  UNL     1      24.991  30.976  26.541  1.00  0.00     0.137 A 
HETATM    5  N2  UNL     1      24.396  32.081  26.022  1.00  0.00    -0.325 N 
ATOM      6  H2  UNL     1      24.752  33.029  26.141  1.00  0.00     0.169 HD
HETATM    7  C4  UNL     1      23.294  31.778  25.340  1.00  0.00     0.139 A 
HETATM    8  N3  UNL     1      22.366  32.503  24.649  1.00  0.00    -0.337 N 
ATOM      9  H3  UNL     1      22.455  33.518  24.584  1.00  0.00     0.168 HD
HETATM   10  C5  UNL     1      21.336  31.878  24.052  1.00  0.00     0.183 A 
HETATM   11  N4  UNL     1      21.205  30.541  24.127  1.00  0.00    -0.336 N 
ATOM     12  H4  UNL     1      20.414  30.090  23.667  1.00  0.00     0.168 HD
HETATM   13  C6  UNL     1      22.102  29.785  24.803  1.00  0.00     0.151 A 
HETATM   14  C7  UNL     1      23.177  30.415  25.428  1.00  0.00     0.124 A 
HETATM   15  N7  UNL     1      24.213  29.971  26.155  1.00  0.00    -0.334 N 
ATOM     16  H7  UNL     1      24.381  28.990  26.381  1.00  0.00     0.168 HD
HETATM   17  C8  UNL     1      26.911  32.180  27.423  1.00  0.00     0.110 C 
HETATM   18  C11 UNL     1      28.290  32.271  27.674  1.00  0.00     0.203 C 
HETATM   19  O1  UNL     1      28.754  33.406  27.816  1.00  0.00    -0.286 OA
HETATM   20  C12 UNL     1      29.194  31.206  27.780  1.00  0.00     0.092 C 
HETATM   21  C13 UNL     1      28.964  29.948  28.262  1.00  0.00     0.105 C 
HETATM   22  C18 UNL     1      27.730  29.284  28.165  1.00  0.00     0.274 C 
HETATM   23  O2  UNL     1      27.774  28.043  28.242  1.00  0.00    -0.265 OA
ENDROOT
BRANCH  17  24
HETATM   24  N8  UNL     1      26.215  33.378  27.215  1.00  0.00    -0.383 N 
ATOM     25  H8  UNL     1      26.268  33.814  26.295  1.00  0.00     0.159 HD
BRANCH  24  26
HETATM   26  C9  UNL     1      25.421  34.032  28.244  1.00  0.00     0.147 C 
BRANCH  26  27
HETATM   27  C10 UNL     1      26.166  35.157  28.898  1.00  0.00     0.249 C 
BRANCH  27  28
HETATM   28  N9  UNL     1      26.940  34.755  30.026  1.00  0.00    -0.078 N 
ATOM     29  H93 UNL     1      27.912  35.039  29.916  1.00  0.00     0.274 HD
ATOM     30  H92 UNL     1      26.693  35.307  30.848  1.00  0.00     0.274 HD
ATOM     31  H91 UNL     1      26.878  33.757  30.232  1.00  0.00     0.274 HD
ENDBRANCH  27  28
ENDBRANCH  26  27
ENDBRANCH  24  26
ENDBRANCH  17  24
BRANCH  21  32
HETATM   32  N10 UNL     1      30.017  29.243  28.859  1.00  0.00    -0.349 N 
ATOM     33  H10 UNL     1      30.557  28.640  28.239  1.00  0.00     0.166 HD
BRANCH  32  34
HETATM   34  C14 UNL     1      30.421  29.263  30.203  1.00  0.00     0.063 A 
HETATM   35  C15 UNL     1      29.839  30.016  31.179  1.00  0.00     0.119 A 
HETATM   36  N11 UNL     1      30.297  30.000  32.428  1.00  0.00    -0.360 N 
HETATM   37  C16 UNL     1      31.360  29.220  32.731  1.00  0.00     0.180 A 
ATOM     38  H11 UNL     1      29.852  30.569  33.148  1.00  0.00     0.166 HD
HETATM   39  N12 UNL     1      31.958  28.464  31.792  1.00  0.00    -0.360 N 
HETATM   40  C17 UNL     1      31.526  28.457  30.536  1.00  0.00     0.119 A 
ATOM     41  H12 UNL     1      32.758  27.885  32.049  1.00  0.00     0.166 HD
ENDBRANCH  32  34
ENDBRANCH  21  32
BRANCH  13  42
HETATM   42  N5  UNL     1      22.019  28.519  24.900  1.00  0.00    -0.290 N 
ATOM     43  H5  UNL     1      21.927  28.129  25.838  1.00  0.00     0.188 HD
BRANCH  42  44
HETATM   44  N6  UNL     1      22.043  27.628  23.850  1.00  0.00    -0.344 N 
ATOM     45  H62 UNL     1      21.562  26.742  24.006  1.00  0.00     0.176 HD
ATOM     46  H61 UNL     1      22.493  27.780  22.948  1.00  0.00     0.176 HD
ENDBRANCH  42  44
ENDBRANCH  13  42
TORSDOF 8
ENDMDL
MODEL 5
REMARK VINA RESULT: -6.930378680      0.644      1.202
REMARK  8 active torsions:
REMARK  status: ('A' for Active; 'I' for Inactive)
REMARK    1  A    between atoms: C6_13  and  N5_14 
REMARK    2  A    between atoms: N5_14  and  N6_16 
REMARK    3  A    between atoms: C8_22  and  N8_23 
REMARK    4  A    between atoms: N8_23  and  C9_25 
REMARK    5  A    between atoms: C9_25  and  C10_26 
REMARK    6  A    between atoms: C10_26  and  N9_27 
REMARK    7  A    between atoms: C13_34  and  N10_35 
REMARK    8  A    between atoms: N10_35  and  C14_37 
ROOT
HETATM    1  C1  UNL     1      26.538  28.027  29.309  1.00  0.00     0.160 C 
HETATM    2  N1  UNL     1      27.765  28.574  28.795  1.00  0.00    -0.312 N 
HETATM    3  C2  UNL     1      27.704  29.836  28.325  1.00  0.00     0.112 C 
HETATM    4  C3  UNL     1      26.559  30.207  27.530  1.00  0.00     0.137 A 
HETATM    5  N2  UNL     1      26.221  31.475  27.182  1.00  0.00    -0.325 N 
ATOM      6  H2  UNL     1      26.763  32.301  27.437  1.00  0.00     0.169 HD
HETATM    7  C4  UNL     1      25.098  31.513  26.469  1.00  0.00     0.139 A 
HETATM    8  N3  UNL     1      24.359  32.508  25.896  1.00  0.00    -0.337 N 
ATOM      9  H3  UNL     1      24.659  33.480  25.982  1.00  0.00     0.168 HD
HETATM   10  C5  UNL     1      23.238  32.206  25.220  1.00  0.00     0.183 A 
HETATM   11  N4  UNL     1      22.829  30.930  25.098  1.00  0.00    -0.336 N 
ATOM     12  H4  UNL     1      21.974  30.726  24.580  1.00  0.00     0.168 HD
HETATM   13  C6  UNL     1      23.531  29.913  25.650  1.00  0.00     0.151 A 
HETATM   14  C7  UNL     1      24.698  30.207  26.355  1.00  0.00     0.124 A 
HETATM   15  N7  UNL     1      25.599  29.454  27.004  1.00  0.00    -0.334 N 
ATOM     16  H7  UNL     1      25.554  28.438  27.082  1.00  0.00     0.168 HD
HETATM   17  C8  UNL     1      28.664  30.841  28.569  1.00  0.00     0.110 C 
HETATM   18  C11 UNL     1      30.025  30.604  28.824  1.00  0.00     0.203 C 
HETATM   19  O1  UNL     1      30.712  31.583  29.128  1.00  0.00    -0.286 OA
HETATM   20  C12 UNL     1      30.685  29.369  28.766  1.00  0.00     0.092 C 
HETATM   21  C13 UNL     1      30.185  28.130  29.059  1.00  0.00     0.105 C 
HETATM   22  C18 UNL     1      28.843  27.762  28.872  1.00  0.00     0.274 C 
HETATM   23  O2  UNL     1      28.627  26.541  28.766  1.00  0.00    -0.265 OA
ENDROOT
BRANCH  17  24
HETATM   24  N8  UNL     1      28.239  32.175  28.543  1.00  0.00    -0.383 N 
ATOM     25  H8  UNL     1      28.181  32.648  27.641  1.00  0.00     0.159 HD
BRANCH  24  26
HETATM   26  C9  UNL     1      27.874  32.923  29.737  1.00  0.00     0.147 C 
BRANCH  26  27
HETATM   27  C10 UNL     1      27.493  34.338  29.418  1.00  0.00     0.249 C 
BRANCH  27  28
HETATM   28  N9  UNL     1      26.123  34.496  29.052  1.00  0.00    -0.078 N 
ATOM     29  H93 UNL     1      26.025  34.536  28.038  1.00  0.00     0.274 HD
ATOM     30  H92 UNL     1      25.600  33.641  29.241  1.00  0.00     0.274 HD
ATOM     31  H91 UNL     1      25.671  35.299  29.489  1.00  0.00     0.274 HD
ENDBRANCH  27  28
ENDBRANCH  26  27
ENDBRANCH  24  26
ENDBRANCH  17  24
BRANCH  21  32
HETATM   32  N10 UNL     1      31.053  27.142  29.540  1.00  0.00    -0.349 N 
ATOM     33  H10 UNL     1      31.163  26.319  28.949  1.00  0.00     0.166 HD
BRANCH  32  34
HETATM   34  C14 UNL     1      31.790  27.142  30.735  1.00  0.00     0.063 A 
HETATM   35  C15 UNL     1      31.245  27.150  31.985  1.00  0.00     0.119 A 
HETATM   36  N11 UNL     1      32.012  27.175  33.071  1.00  0.00    -0.360 N 
HETATM   37  C16 UNL     1      33.357  27.193  32.930  1.00  0.00     0.180 A 
ATOM     38  H11 UNL     1      31.591  27.181  34.000  1.00  0.00     0.166 HD
HETATM   39  N12 UNL     1      33.928  27.186  31.711  1.00  0.00    -0.360 N 
HETATM   40  C17 UNL     1      33.192  27.161  30.606  1.00  0.00     0.119 A 
ATOM     41  H12 UNL     1      34.945  27.200  31.634  1.00  0.00     0.166 HD
ENDBRANCH  32  34
ENDBRANCH  21  32
BRANCH  13  42
HETATM   42  N5  UNL     1      23.185  28.692  25.560  1.00  0.00    -0.290 N 
ATOM     43  H5  UNL     1      23.524  28.058  26.283  1.00  0.00     0.188 HD
BRANCH  42  44
HETATM   44  N6  UNL     1      22.391  28.151  24.573  1.00  0.00    -0.344 N 
ATOM     45  H62 UNL     1      22.883  27.734  23.783  1.00  0.00     0.176 HD
ATOM     46  H61 UNL     1      21.372  28.134  24.569  1.00  0.00     0.176 HD
ENDBRANCH  42  44
ENDBRANCH  13  42
TORSDOF 8
ENDMDL
