MODEL 1
REMARK VINA RESULT: -8.139415021      0.000      0.000
REMARK  10 active torsions:
REMARK  status: ('A' for Active; 'I' for Inactive)
REMARK    1  A    between atoms: C2_2  and  C3_3 
REMARK       I    between atoms: C3_3  and  N1_5 
REMARK    2  A    between atoms: C4_6  and  C5_7 
REMARK    3  A    between atoms: C5_7  and  S1_8 
REMARK    4  A    between atoms: S1_8  and  C6_11 
REMARK    5  A    between atoms: C6_11  and  C7_12 
REMARK       I    between atoms: C7_12  and  N2_14 
REMARK    6  A    between atoms: N2_14  and  C8_16 
REMARK    7  A    between atoms: C10_24  and  C11_25 
REMARK    8  A    between atoms: C11_25  and  O5_26 
REMARK    9  A    between atoms: C11_25  and  O6_28 
REMARK   10  A    between atoms: C13_36  and  N8_37 
ROOT
HETATM    1  C7  UNL     1      25.304  31.291  28.004  1.00  0.00     0.237 C 
HETATM    2  O4  UNL     1      24.617  30.701  28.909  1.00  0.00    -0.272 OA
HETATM    3  N2  UNL     1      25.160  30.876  26.682  1.00  0.00    -0.311 N 
ATOM      4  H2  UNL     1      25.983  30.471  26.237  1.00  0.00     0.170 HD
ENDROOT
BRANCH   1   5
HETATM    5  C6  UNL     1      26.224  32.377  28.331  1.00  0.00     0.243 C 
BRANCH   5   6
HETATM    6  S1  UNL     1      27.905  32.137  27.977  1.00  0.00     0.159 S 
HETATM    7  O2  UNL     1      28.193  32.177  26.486  1.00  0.00    -0.227 OA
HETATM    8  O3  UNL     1      28.692  33.311  28.546  1.00  0.00    -0.227 OA
BRANCH   6   9
HETATM    9  C5  UNL     1      28.659  30.680  28.596  1.00  0.00     0.219 C 
BRANCH   9  10
HETATM   10  C4  UNL     1      28.189  30.324  29.974  1.00  0.00     0.137 A 
HETATM   11  N1  UNL     1      27.713  29.195  30.470  1.00  0.00    -0.101 N 
HETATM   12  C3  UNL     1      27.671  27.887  29.880  1.00  0.00     0.244 C 
HETATM   13  C13 UNL     1      27.323  29.425  31.763  1.00  0.00     0.701 A 
HETATM   14  O1  UNL     1      27.063  26.979  30.550  1.00  0.00    -0.272 OA
HETATM   15  N7  UNL     1      27.593  30.736  32.014  1.00  0.00    -0.130 N 
HETATM   16  N6  UNL     1      28.105  31.273  30.963  1.00  0.00    -0.273 N 
ATOM     17  H7  UNL     1      27.419  31.217  32.897  1.00  0.00     0.205 HD
ATOM     18  H6  UNL     1      28.400  32.246  30.878  1.00  0.00     0.189 HD
BRANCH  12  19
HETATM   19  C2  UNL     1      28.245  27.472  28.618  1.00  0.00     0.100 C 
HETATM   20  C1  UNL     1      29.737  27.112  28.778  1.00  0.00     0.014 C 
ENDBRANCH  12  19
BRANCH  13  21
HETATM   21  N8  UNL     1      26.807  28.629  32.625  1.00  0.00    -0.233 N 
ATOM     22  H82 UNL     1      25.809  28.426  32.679  1.00  0.00     0.174 HD
ATOM     23  H81 UNL     1      27.249  28.087  33.367  1.00  0.00     0.174 HD
ENDBRANCH  13  21
ENDBRANCH   9  10
ENDBRANCH   6   9
ENDBRANCH   5   6
ENDBRANCH   1   5
BRANCH   3  24
HETATM   24  C8  UNL     1      24.080  30.952  25.957  1.00  0.00     0.135 A 
HETATM   25  N3  UNL     1      23.630  32.134  25.582  1.00  0.00    -0.321 N 
HETATM   26  C9  UNL     1      22.537  32.396  24.852  1.00  0.00     0.144 A 
ATOM     27  H3  UNL     1      24.176  32.941  25.883  1.00  0.00     0.169 HD
HETATM   28  N4  UNL     1      22.158  33.596  24.521  1.00  0.00    -0.380 N 
HETATM   29  S2  UNL     1      21.658  31.016  24.371  1.00  0.00    -0.052 SA
ATOM     30  H42 UNL     1      22.684  34.422  24.809  1.00  0.00     0.158 HD
ATOM     31  H41 UNL     1      21.327  33.796  23.964  1.00  0.00     0.158 HD
HETATM   32  C10 UNL     1      22.353  29.569  24.922  1.00  0.00     0.068 A 
HETATM   33  C12 UNL     1      23.505  29.720  25.664  1.00  0.00     0.108 A 
HETATM   34  N5  UNL     1      24.135  28.523  26.148  1.00  0.00    -0.097 NA
BRANCH  32  35
HETATM   35  C11 UNL     1      21.804  28.197  24.656  1.00  0.00     0.297 C 
BRANCH  35  36
HETATM   36  O5  UNL     1      20.513  28.325  24.202  1.00  0.00    -0.367 OA
ATOM     37  H5  UNL     1      20.337  27.619  23.591  1.00  0.00     0.213 HD
ENDBRANCH  35  36
BRANCH  35  38
HETATM   38  O6  UNL     1      22.622  27.601  23.681  1.00  0.00    -0.367 OA
ATOM     39  H6  UNL     1      23.519  27.849  23.874  1.00  0.00     0.213 HD
ENDBRANCH  35  38
ENDBRANCH  32  35
ENDBRANCH   3  24
TORSDOF 10
ENDMDL
MODEL 2
REMARK VINA RESULT: -8.085253048      2.348      3.039
REMARK  10 active torsions:
REMARK  status: ('A' for Active; 'I' for Inactive)
REMARK    1  A    between atoms: C2_2  and  C3_3 
REMARK       I    between atoms: C3_3  and  N1_5 
REMARK    2  A    between atoms: C4_6  and  C5_7 
REMARK    3  A    between atoms: C5_7  and  S1_8 
REMARK    4  A    between atoms: S1_8  and  C6_11 
REMARK    5  A    between atoms: C6_11  and  C7_12 
REMARK       I    between atoms: C7_12  and  N2_14 
REMARK    6  A    between atoms: N2_14  and  C8_16 
REMARK    7  A    between atoms: C10_24  and  C11_25 
REMARK    8  A    between atoms: C11_25  and  O5_26 
REMARK    9  A    between atoms: C11_25  and  O6_28 
REMARK   10  A    between atoms: C13_36  and  N8_37 
ROOT
HETATM    1  C7  UNL     1      26.809  28.910  27.771  1.00  0.00     0.237 C 
HETATM    2  O4  UNL     1      26.446  28.877  28.999  1.00  0.00    -0.272 OA
HETATM    3  N2  UNL     1      25.830  28.832  26.785  1.00  0.00    -0.311 N 
ATOM      4  H2  UNL     1      25.856  28.014  26.176  1.00  0.00     0.170 HD
ENDROOT
BRANCH   1   5
HETATM    5  C6  UNL     1      28.216  29.025  27.396  1.00  0.00     0.243 C 
BRANCH   5   6
HETATM    6  S1  UNL     1      29.340  27.949  28.163  1.00  0.00     0.159 S 
HETATM    7  O2  UNL     1      28.704  26.625  28.546  1.00  0.00    -0.227 OA
HETATM    8  O3  UNL     1      30.416  27.573  27.153  1.00  0.00    -0.227 OA
BRANCH   6   9
HETATM    9  C5  UNL     1      30.173  28.539  29.589  1.00  0.00     0.219 C 
BRANCH   9  10
HETATM   10  C4  UNL     1      29.603  29.825  30.105  1.00  0.00     0.137 A 
HETATM   11  N1  UNL     1      28.664  30.064  31.004  1.00  0.00    -0.101 N 
HETATM   12  C3  UNL     1      28.021  29.159  31.914  1.00  0.00     0.244 C 
HETATM   13  C13 UNL     1      28.432  31.414  31.034  1.00  0.00     0.701 A 
HETATM   14  O1  UNL     1      27.068  29.643  32.622  1.00  0.00    -0.272 OA
HETATM   15  N7  UNL     1      29.277  31.965  30.118  1.00  0.00    -0.130 N 
HETATM   16  N6  UNL     1      29.971  31.032  29.566  1.00  0.00    -0.273 N 
ATOM     17  H7  UNL     1      29.349  32.959  29.903  1.00  0.00     0.205 HD
ATOM     18  H6  UNL     1      30.679  31.169  28.845  1.00  0.00     0.189 HD
BRANCH  12  19
HETATM   19  C2  UNL     1      28.331  27.762  32.130  1.00  0.00     0.100 C 
HETATM   20  C1  UNL     1      27.210  26.854  31.582  1.00  0.00     0.014 C 
ENDBRANCH  12  19
BRANCH  13  21
HETATM   21  N8  UNL     1      27.615  32.098  31.745  1.00  0.00    -0.233 N 
ATOM     22  H82 UNL     1      27.789  32.354  32.717  1.00  0.00     0.174 HD
ATOM     23  H81 UNL     1      26.703  32.488  31.506  1.00  0.00     0.174 HD
ENDBRANCH  13  21
ENDBRANCH   9  10
ENDBRANCH   6   9
ENDBRANCH   5   6
ENDBRANCH   1   5
BRANCH   3  24
HETATM   24  C8  UNL     1      24.882  29.698  26.560  1.00  0.00     0.135 A 
HETATM   25  N3  UNL     1      24.899  30.859  27.187  1.00  0.00    -0.321 N 
HETATM   26  C9  UNL     1      24.006  31.853  27.086  1.00  0.00     0.144 A 
ATOM     27  H3  UNL     1      25.682  31.017  27.821  1.00  0.00     0.169 HD
HETATM   28  N4  UNL     1      24.094  32.974  27.739  1.00  0.00    -0.380 N 
HETATM   29  S2  UNL     1      22.717  31.541  26.012  1.00  0.00    -0.052 SA
ATOM     30  H42 UNL     1      24.865  33.160  28.381  1.00  0.00     0.158 HD
ATOM     31  H41 UNL     1      23.415  33.731  27.662  1.00  0.00     0.158 HD
HETATM   32  C10 UNL     1      22.826  30.014  25.279  1.00  0.00     0.068 A 
HETATM   33  C12 UNL     1      23.921  29.265  25.652  1.00  0.00     0.108 A 
HETATM   34  N5  UNL     1      24.062  27.967  25.054  1.00  0.00    -0.097 NA
BRANCH  32  35
HETATM   35  C11 UNL     1      21.839  29.464  24.292  1.00  0.00     0.297 C 
BRANCH  35  36
HETATM   36  O5  UNL     1      21.292  28.316  24.815  1.00  0.00    -0.367 OA
ATOM     37  H5  UNL     1      20.437  28.526  25.173  1.00  0.00     0.213 HD
ENDBRANCH  35  36
BRANCH  35  38
HETATM   38  O6  UNL     1      20.852  30.445  24.096  1.00  0.00    -0.367 OA
ATOM     39  H6  UNL     1      21.171  31.037  23.424  1.00  0.00     0.213 HD
ENDBRANCH  35  38
ENDBRANCH  32  35
ENDBRANCH   3  24
TORSDOF 10
ENDMDL
MODEL 3
REMARK VINA RESULT: -8.067677552      2.966      8.307
REMARK  10 active torsions:
REMARK  status: ('A' for Active; 'I' for Inactive)
REMARK    1  A    between atoms: C2_2  and  C3_3 
REMARK       I    between atoms: C3_3  and  N1_5 
REMARK    2  A    between atoms: C4_6  and  C5_7 
REMARK    3  A    between atoms: C5_7  and  S1_8 
REMARK    4  A    between atoms: S1_8  and  C6_11 
REMARK    5  A    between atoms: C6_11  and  C7_12 
REMARK       I    between atoms: C7_12  and  N2_14 
REMARK    6  A    between atoms: N2_14  and  C8_16 
REMARK    7  A    between atoms: C10_24  and  C11_25 
REMARK    8  A    between atoms: C11_25  and  O5_26 
REMARK    9  A    between atoms: C11_25  and  O6_28 
REMARK   10  A    between atoms: C13_36  and  N8_37 
ROOT
HETATM    1  C7  UNL     1      27.589  29.759  29.468  1.00  0.00     0.237 C 
HETATM    2  O4  UNL     1      27.278  30.158  30.644  1.00  0.00    -0.272 OA
HETATM    3  N2  UNL     1      28.931  29.766  29.096  1.00  0.00    -0.311 N 
ATOM      4  H2  UNL     1      29.192  30.389  28.333  1.00  0.00     0.170 HD
ENDROOT
BRANCH   1   5
HETATM    5  C6  UNL     1      26.572  29.304  28.524  1.00  0.00     0.243 C 
BRANCH   5   6
HETATM    6  S1  UNL     1      26.380  30.209  27.056  1.00  0.00     0.159 S 
HETATM    7  O2  UNL     1      27.367  31.359  26.953  1.00  0.00    -0.227 OA
HETATM    8  O3  UNL     1      26.730  29.305  25.881  1.00  0.00    -0.227 OA
BRANCH   6   9
HETATM    9  C5  UNL     1      24.793  30.875  26.723  1.00  0.00     0.219 C 
BRANCH   9  10
HETATM   10  C4  UNL     1      23.918  29.934  25.952  1.00  0.00     0.137 A 
HETATM   11  N1  UNL     1      22.895  30.155  25.145  1.00  0.00    -0.101 N 
HETATM   12  C3  UNL     1      22.416  31.394  24.600  1.00  0.00     0.244 C 
HETATM   13  C13 UNL     1      22.367  28.945  24.780  1.00  0.00     0.701 A 
HETATM   14  O1  UNL     1      21.336  31.333  23.911  1.00  0.00    -0.272 OA
HETATM   15  N7  UNL     1      23.123  27.997  25.401  1.00  0.00    -0.130 N 
HETATM   16  N6  UNL     1      24.040  28.573  26.095  1.00  0.00    -0.273 N 
ATOM     17  H7  UNL     1      22.984  26.989  25.328  1.00  0.00     0.205 HD
ATOM     18  H6  UNL     1      24.744  28.097  26.659  1.00  0.00     0.189 HD
BRANCH  12  19
HETATM   19  C2  UNL     1      23.016  32.704  24.734  1.00  0.00     0.100 C 
HETATM   20  C1  UNL     1      21.950  33.771  25.061  1.00  0.00     0.014 C 
ENDBRANCH  12  19
BRANCH  13  21
HETATM   21  N8  UNL     1      21.374  28.672  24.017  1.00  0.00    -0.233 N 
ATOM     22  H82 UNL     1      20.617  29.327  23.820  1.00  0.00     0.174 HD
ATOM     23  H81 UNL     1      21.156  27.821  23.500  1.00  0.00     0.174 HD
ENDBRANCH  13  21
ENDBRANCH   9  10
ENDBRANCH   6   9
ENDBRANCH   5   6
ENDBRANCH   1   5
BRANCH   3  24
HETATM   24  C8  UNL     1      29.888  29.055  29.624  1.00  0.00     0.135 A 
HETATM   25  N3  UNL     1      30.268  29.295  30.865  1.00  0.00    -0.321 N 
HETATM   26  C9  UNL     1      31.234  28.675  31.556  1.00  0.00     0.144 A 
ATOM     27  H3  UNL     1      29.768  30.037  31.355  1.00  0.00     0.169 HD
HETATM   28  N4  UNL     1      31.550  28.970  32.783  1.00  0.00    -0.380 N 
HETATM   29  S2  UNL     1      32.041  27.442  30.696  1.00  0.00    -0.052 SA
ATOM     30  H42 UNL     1      31.068  29.708  33.297  1.00  0.00     0.158 HD
ATOM     31  H41 UNL     1      32.285  28.498  33.309  1.00  0.00     0.158 HD
HETATM   32  C10 UNL     1      31.448  27.245  29.118  1.00  0.00     0.068 A 
HETATM   33  C12 UNL     1      30.420  28.096  28.770  1.00  0.00     0.108 A 
HETATM   34  N5  UNL     1      29.880  27.964  27.446  1.00  0.00    -0.097 NA
BRANCH  32  35
HETATM   35  C11 UNL     1      31.960  26.240  28.128  1.00  0.00     0.297 C 
BRANCH  35  36
HETATM   36  O5  UNL     1      30.918  25.420  27.762  1.00  0.00    -0.367 OA
ATOM     37  H5  UNL     1      31.257  24.541  27.632  1.00  0.00     0.213 HD
ENDBRANCH  35  36
BRANCH  35  38
HETATM   38  O6  UNL     1      32.449  26.953  27.021  1.00  0.00    -0.367 OA
ATOM     39  H6  UNL     1      32.593  26.327  26.321  1.00  0.00     0.213 HD
ENDBRANCH  35  38
ENDBRANCH  32  35
ENDBRANCH   3  24
TORSDOF 10
ENDMDL
MODEL 4
REMARK VINA RESULT: -7.876969562      1.909      2.365
REMARK  10 active torsions:
REMARK  status: ('A' for Active; 'I' for Inactive)
REMARK    1  A    between atoms: C2_2  and  C3_3 
REMARK       I    between atoms: C3_3  and  N1_5 
REMARK    2  A    between atoms: C4_6  and  C5_7 
REMARK    3  A    between atoms: C5_7  and  S1_8 
REMARK    4  A    between atoms: S1_8  and  C6_11 
REMARK    5  A    between atoms: C6_11  and  C7_12 
REMARK       I    between atoms: C7_12  and  N2_14 
REMARK    6  A    between atoms: N2_14  and  C8_16 
REMARK    7  A    between atoms: C10_24  and  C11_25 
REMARK    8  A    between atoms: C11_25  and  O5_26 
REMARK    9  A    between atoms: C11_25  and  O6_28 
REMARK   10  A    between atoms: C13_36  and  N8_37 
ROOT
HETATM    1  C7  UNL     1      26.719  29.101  28.072  1.00  0.00     0.237 C 
HETATM    2  O4  UNL     1      26.132  28.731  29.148  1.00  0.00    -0.272 OA
HETATM    3  N2  UNL     1      25.981  29.145  26.892  1.00  0.00    -0.311 N 
ATOM      4  H2  UNL     1      26.265  28.506  26.150  1.00  0.00     0.170 HD
ENDROOT
BRANCH   1   5
HETATM    5  C6  UNL     1      28.132  29.469  28.063  1.00  0.00     0.243 C 
BRANCH   5   6
HETATM    6  S1  UNL     1      28.591  30.907  28.919  1.00  0.00     0.159 S 
HETATM    7  O2  UNL     1      29.626  31.723  28.164  1.00  0.00    -0.227 OA
HETATM    8  O3  UNL     1      27.378  31.824  29.007  1.00  0.00    -0.227 OA
BRANCH   6   9
HETATM    9  C5  UNL     1      29.195  30.714  30.553  1.00  0.00     0.219 C 
BRANCH   9  10
HETATM   10  C4  UNL     1      28.488  29.630  31.309  1.00  0.00     0.137 A 
HETATM   11  N1  UNL     1      28.885  28.426  31.685  1.00  0.00    -0.101 N 
HETATM   12  C3  UNL     1      30.198  27.847  31.648  1.00  0.00     0.244 C 
HETATM   13  C13 UNL     1      27.820  27.782  32.256  1.00  0.00     0.701 A 
HETATM   14  O1  UNL     1      30.288  26.615  31.991  1.00  0.00    -0.272 OA
HETATM   15  N7  UNL     1      26.776  28.656  32.207  1.00  0.00    -0.130 N 
HETATM   16  N6  UNL     1      27.164  29.749  31.650  1.00  0.00    -0.273 N 
ATOM     17  H7  UNL     1      25.836  28.474  32.558  1.00  0.00     0.205 HD
ATOM     18  H6  UNL     1      26.581  30.570  31.487  1.00  0.00     0.189 HD
BRANCH  12  19
HETATM   19  C2  UNL     1      31.436  28.497  31.275  1.00  0.00     0.100 C 
HETATM   20  C1  UNL     1      31.833  28.143  29.826  1.00  0.00     0.014 C 
ENDBRANCH  12  19
BRANCH  13  21
HETATM   21  N8  UNL     1      27.737  26.606  32.758  1.00  0.00    -0.233 N 
ATOM     22  H82 UNL     1      27.618  25.760  32.199  1.00  0.00     0.174 HD
ATOM     23  H81 UNL     1      27.768  26.302  33.731  1.00  0.00     0.174 HD
ENDBRANCH  13  21
ENDBRANCH   9  10
ENDBRANCH   6   9
ENDBRANCH   5   6
ENDBRANCH   1   5
BRANCH   3  24
HETATM   24  C8  UNL     1      24.965  29.921  26.640  1.00  0.00     0.135 A 
HETATM   25  N3  UNL     1      24.888  31.103  27.220  1.00  0.00    -0.321 N 
HETATM   26  C9  UNL     1      23.916  32.016  27.086  1.00  0.00     0.144 A 
ATOM     27  H3  UNL     1      25.658  31.351  27.842  1.00  0.00     0.169 HD
HETATM   28  N4  UNL     1      23.914  33.166  27.694  1.00  0.00    -0.380 N 
HETATM   29  S2  UNL     1      22.652  31.557  26.036  1.00  0.00    -0.052 SA
ATOM     30  H42 UNL     1      24.670  33.440  28.322  1.00  0.00     0.158 HD
ATOM     31  H41 UNL     1      23.175  33.861  27.592  1.00  0.00     0.158 HD
HETATM   32  C10 UNL     1      22.884  30.015  25.364  1.00  0.00     0.068 A 
HETATM   33  C12 UNL     1      24.039  29.374  25.758  1.00  0.00     0.108 A 
HETATM   34  N5  UNL     1      24.283  28.069  25.210  1.00  0.00    -0.097 NA
BRANCH  32  35
HETATM   35  C11 UNL     1      21.941  29.347  24.406  1.00  0.00     0.297 C 
BRANCH  35  36
HETATM   36  O5  UNL     1      21.470  28.195  24.992  1.00  0.00    -0.367 OA
ATOM     37  H5  UNL     1      22.173  27.556  25.009  1.00  0.00     0.213 HD
ENDBRANCH  35  36
BRANCH  35  38
HETATM   38  O6  UNL     1      20.892  30.247  24.154  1.00  0.00    -0.367 OA
ATOM     39  H6  UNL     1      20.538  30.036  23.298  1.00  0.00     0.213 HD
ENDBRANCH  35  38
ENDBRANCH  32  35
ENDBRANCH   3  24
TORSDOF 10
ENDMDL
MODEL 5
REMARK VINA RESULT: -7.863266813      2.337      3.146
REMARK  10 active torsions:
REMARK  status: ('A' for Active; 'I' for Inactive)
REMARK    1  A    between atoms: C2_2  and  C3_3 
REMARK       I    between atoms: C3_3  and  N1_5 
REMARK    2  A    between atoms: C4_6  and  C5_7 
REMARK    3  A    between atoms: C5_7  and  S1_8 
REMARK    4  A    between atoms: S1_8  and  C6_11 
REMARK    5  A    between atoms: C6_11  and  C7_12 
REMARK       I    between atoms: C7_12  and  N2_14 
REMARK    6  A    between atoms: N2_14  and  C8_16 
REMARK    7  A    between atoms: C10_24  and  C11_25 
REMARK    8  A    between atoms: C11_25  and  O5_26 
REMARK    9  A    between atoms: C11_25  and  O6_28 
REMARK   10  A    between atoms: C13_36  and  N8_37 
ROOT
HETATM    1  C7  UNL     1      26.414  30.932  26.714  1.00  0.00     0.237 C 
HETATM    2  O4  UNL     1      26.768  32.128  26.425  1.00  0.00    -0.272 OA
HETATM    3  N2  UNL     1      25.071  30.682  26.985  1.00  0.00    -0.311 N 
ATOM      4  H2  UNL     1      24.845  30.368  27.928  1.00  0.00     0.170 HD
ENDROOT
BRANCH   1   5
HETATM    5  C6  UNL     1      27.384  29.842  26.765  1.00  0.00     0.243 C 
BRANCH   5   6
HETATM    6  S1  UNL     1      28.032  29.419  28.318  1.00  0.00     0.159 S 
HETATM    7  O2  UNL     1      29.431  29.972  28.531  1.00  0.00    -0.227 OA
HETATM    8  O3  UNL     1      27.191  30.095  29.394  1.00  0.00    -0.227 OA
BRANCH   6   9
HETATM    9  C5  UNL     1      28.096  27.715  28.727  1.00  0.00     0.219 C 
BRANCH   9  10
HETATM   10  C4  UNL     1      29.483  27.247  29.047  1.00  0.00     0.137 A 
HETATM   11  N1  UNL     1      30.187  27.304  30.164  1.00  0.00    -0.101 N 
HETATM   12  C3  UNL     1      29.769  27.670  31.488  1.00  0.00     0.244 C 
HETATM   13  C13 UNL     1      31.448  26.834  29.902  1.00  0.00     0.701 A 
HETATM   14  O1  UNL     1      30.688  27.730  32.380  1.00  0.00    -0.272 OA
HETATM   15  N7  UNL     1      31.459  26.491  28.583  1.00  0.00    -0.130 N 
HETATM   16  N6  UNL     1      30.302  26.732  28.073  1.00  0.00    -0.273 N 
ATOM     17  H7  UNL     1      32.257  26.105  28.080  1.00  0.00     0.205 HD
ATOM     18  H6  UNL     1      30.037  26.567  27.102  1.00  0.00     0.189 HD
BRANCH  12  19
HETATM   19  C2  UNL     1      28.426  27.971  31.934  1.00  0.00     0.100 C 
HETATM   20  C1  UNL     1      27.707  26.698  32.429  1.00  0.00     0.014 C 
ENDBRANCH  12  19
BRANCH  13  21
HETATM   21  N8  UNL     1      32.461  26.707  30.676  1.00  0.00    -0.233 N 
ATOM     22  H82 UNL     1      33.342  27.203  30.538  1.00  0.00     0.174 HD
ATOM     23  H81 UNL     1      32.582  26.135  31.511  1.00  0.00     0.174 HD
ENDBRANCH  13  21
ENDBRANCH   9  10
ENDBRANCH   6   9
ENDBRANCH   5   6
ENDBRANCH   1   5
BRANCH   3  24
HETATM   24  C8  UNL     1      24.074  30.810  26.156  1.00  0.00     0.135 A 
HETATM   25  N3  UNL     1      23.722  32.011  25.740  1.00  0.00    -0.321 N 
HETATM   26  C9  UNL     1      22.723  32.325  24.904  1.00  0.00     0.144 A 
ATOM     27  H3  UNL     1      24.276  32.791  26.095  1.00  0.00     0.169 HD
HETATM   28  N4  UNL     1      22.439  33.541  24.539  1.00  0.00    -0.380 N 
HETATM   29  S2  UNL     1      21.828  30.988  24.337  1.00  0.00    -0.052 SA
ATOM     30  H42 UNL     1      22.974  34.340  24.879  1.00  0.00     0.158 HD
ATOM     31  H41 UNL     1      21.678  33.780  23.903  1.00  0.00     0.158 HD
HETATM   32  C10 UNL     1      22.391  29.510  24.953  1.00  0.00     0.068 A 
HETATM   33  C12 UNL     1      23.470  29.607  25.806  1.00  0.00     0.108 A 
HETATM   34  N5  UNL     1      23.988  28.382  26.348  1.00  0.00    -0.097 NA
BRANCH  32  35
HETATM   35  C11 UNL     1      21.804  28.167  24.631  1.00  0.00     0.297 C 
BRANCH  35  36
HETATM   36  O5  UNL     1      20.543  28.355  24.117  1.00  0.00    -0.367 OA
ATOM     37  H5  UNL     1      20.191  27.509  23.865  1.00  0.00     0.213 HD
ENDBRANCH  35  36
BRANCH  35  38
HETATM   38  O6  UNL     1      22.646  27.557  23.686  1.00  0.00    -0.367 OA
ATOM     39  H6  UNL     1      23.317  28.190  23.455  1.00  0.00     0.213 HD
ENDBRANCH  35  38
ENDBRANCH  32  35
ENDBRANCH   3  24
TORSDOF 10
ENDMDL
