MODEL 1
REMARK VINA RESULT: -9.010701405      0.000      0.000
REMARK  9 active torsions:
REMARK  status: ('A' for Active; 'I' for Inactive)
REMARK    1  A    between atoms: C2_2  and  O1_4 
REMARK    2  A    between atoms: C2_2  and  C4_6 
REMARK    3  A    between atoms: C4_6  and  C12_30 
REMARK    4  A    between atoms: N1_7  and  N2_9 
REMARK    5  A    between atoms: C8_19  and  C9_20 
REMARK       I    between atoms: C9_20  and  N6_22 
REMARK    6  A    between atoms: N6_22  and  C10_24 
REMARK    7  A    between atoms: C10_24  and  C11_25 
REMARK    8  A    between atoms: C11_25  and  O3_26 
REMARK    9  A    between atoms: N10_37  and  O4_39 
ROOT
HETATM    1  N2  UNL     1      28.178  28.579  30.439  1.00  0.00    -0.132 N 
ATOM      2  H2  UNL     1      27.986  28.847  31.405  1.00  0.00     0.205 HD
HETATM    3  C5  UNL     1      29.315  28.022  30.186  1.00  0.00     0.700 A 
HETATM    4  N3  UNL     1      29.633  27.643  28.940  1.00  0.00    -0.165 N 
ATOM      5  H3  UNL     1      28.960  27.802  28.190  1.00  0.00     0.186 HD
HETATM    6  C6  UNL     1      30.810  27.059  28.647  1.00  0.00     0.204 A 
HETATM    7  C7  UNL     1      31.056  26.688  27.270  1.00  0.00     0.137 C 
HETATM    8  N4  UNL     1      31.261  26.399  26.163  1.00  0.00    -0.188 NA
HETATM    9  N5  UNL     1      31.687  26.851  29.624  1.00  0.00    -0.314 N 
ATOM     10  H5  UNL     1      32.582  26.412  29.414  1.00  0.00     0.170 HD
HETATM   11  C8  UNL     1      31.400  27.221  30.900  1.00  0.00     0.191 A 
HETATM   12  N7  UNL     1      30.214  27.801  31.154  1.00  0.00    -0.169 N 
ATOM     13  H7  UNL     1      29.994  28.081  32.110  1.00  0.00     0.186 HD
ENDROOT
BRANCH  11  14
HETATM   14  C9  UNL     1      32.392  26.973  31.934  1.00  0.00     0.286 C 
HETATM   15  O2  UNL     1      32.087  27.247  33.119  1.00  0.00    -0.264 OA
HETATM   16  N6  UNL     1      33.661  26.439  31.625  1.00  0.00    -0.352 N 
ATOM     17  H6  UNL     1      33.866  26.230  30.648  1.00  0.00     0.162 HD
BRANCH  16  18
HETATM   18  C10 UNL     1      34.686  26.171  32.600  1.00  0.00     0.149 C 
BRANCH  18  19
HETATM   19  C11 UNL     1      34.558  24.780  33.156  1.00  0.00     0.183 C 
BRANCH  19  20
HETATM   20  O3  UNL     1      35.828  24.319  33.542  1.00  0.00    -0.399 OA
ATOM     21  H3  UNL     1      35.781  23.386  33.716  1.00  0.00     0.209 HD
ENDBRANCH  19  20
ENDBRANCH  18  19
ENDBRANCH  16  18
ENDBRANCH  11  14
BRANCH   1  22
HETATM   22  N1  UNL     1      27.213  28.835  29.502  1.00  0.00    -0.285 N 
HETATM   23  C4  UNL     1      27.111  29.846  28.740  1.00  0.00     0.093 C 
ATOM     24  H1  UNL     1      26.485  28.127  29.404  1.00  0.00     0.187 HD
BRANCH  23  25
HETATM   25  C2  UNL     1      28.008  31.007  28.666  1.00  0.00     0.097 C 
HETATM   26  C1  UNL     1      27.824  31.953  29.827  1.00  0.00     0.052 C 
HETATM   27  C3  UNL     1      27.951  31.774  27.385  1.00  0.00     0.052 C 
BRANCH  25  28
HETATM   28  O1  UNL     1      29.329  30.514  28.778  1.00  0.00    -0.384 OA
ATOM     29  H1  UNL     1      29.815  31.186  29.242  1.00  0.00     0.211 HD
ENDBRANCH  25  28
ENDBRANCH  23  25
BRANCH  23  30
HETATM   30  C12 UNL     1      25.949  29.847  27.820  1.00  0.00     0.105 A 
HETATM   31  N8  UNL     1      25.527  28.883  27.024  1.00  0.00    -0.332 N 
HETATM   32  C13 UNL     1      24.480  29.065  26.282  1.00  0.00     0.156 A 
ATOM     33  H8  UNL     1      26.025  27.994  26.993  1.00  0.00     0.168 HD
HETATM   34  N9  UNL     1      23.749  28.354  25.363  1.00  0.00    -0.172 N 
HETATM   35  C15 UNL     1      23.842  30.273  26.356  1.00  0.00     0.137 A 
HETATM   36  C14 UNL     1      22.730  29.099  24.913  1.00  0.00     0.704 A 
ATOM     37  H9  UNL     1      23.953  27.400  25.066  1.00  0.00     0.186 HD
HETATM   38  N10 UNL     1      21.847  28.703  24.024  1.00  0.00    -0.098 N 
HETATM   39  N11 UNL     1      22.765  30.298  25.517  1.00  0.00    -0.180 N 
ATOM     40  H10 UNL     1      21.099  29.333  23.732  1.00  0.00     0.213 HD
ATOM     41  H11 UNL     1      22.117  31.073  25.376  1.00  0.00     0.185 HD
HETATM   42  S1  UNL     1      24.810  31.086  27.514  1.00  0.00    -0.048 SA
BRANCH  38  43
HETATM   43  O4  UNL     1      21.932  27.443  23.487  1.00  0.00    -0.276 OA
ATOM     44  H4  UNL     1      21.481  27.242  22.675  1.00  0.00     0.245 HD
ENDBRANCH  38  43
ENDBRANCH  23  30
ENDBRANCH   1  22
TORSDOF 9
ENDMDL
MODEL 2
REMARK VINA RESULT: -9.001740397      1.088      1.317
REMARK  9 active torsions:
REMARK  status: ('A' for Active; 'I' for Inactive)
REMARK    1  A    between atoms: C2_2  and  O1_4 
REMARK    2  A    between atoms: C2_2  and  C4_6 
REMARK    3  A    between atoms: C4_6  and  C12_30 
REMARK    4  A    between atoms: N1_7  and  N2_9 
REMARK    5  A    between atoms: C8_19  and  C9_20 
REMARK       I    between atoms: C9_20  and  N6_22 
REMARK    6  A    between atoms: N6_22  and  C10_24 
REMARK    7  A    between atoms: C10_24  and  C11_25 
REMARK    8  A    between atoms: C11_25  and  O3_26 
REMARK    9  A    between atoms: N10_37  and  O4_39 
ROOT
HETATM    1  N2  UNL     1      28.171  28.563  30.377  1.00  0.00    -0.132 N 
ATOM      2  H2  UNL     1      27.984  28.828  31.345  1.00  0.00     0.205 HD
HETATM    3  C5  UNL     1      29.305  28.003  30.117  1.00  0.00     0.700 A 
HETATM    4  N3  UNL     1      29.616  27.627  28.868  1.00  0.00    -0.165 N 
ATOM      5  H3  UNL     1      28.941  27.791  28.122  1.00  0.00     0.186 HD
HETATM    6  C6  UNL     1      30.789  27.041  28.568  1.00  0.00     0.204 A 
HETATM    7  C7  UNL     1      31.029  26.673  27.189  1.00  0.00     0.137 C 
HETATM    8  N4  UNL     1      31.228  26.388  26.080  1.00  0.00    -0.188 NA
HETATM    9  N5  UNL     1      31.670  26.826  29.540  1.00  0.00    -0.314 N 
ATOM     10  H5  UNL     1      32.563  26.384  29.325  1.00  0.00     0.170 HD
HETATM   11  C8  UNL     1      31.390  27.192  30.819  1.00  0.00     0.191 A 
HETATM   12  N7  UNL     1      30.207  27.775  31.081  1.00  0.00    -0.169 N 
ATOM     13  H7  UNL     1      29.992  28.052  32.038  1.00  0.00     0.186 HD
ENDROOT
BRANCH  11  14
HETATM   14  C9  UNL     1      32.385  26.936  31.848  1.00  0.00     0.286 C 
HETATM   15  O2  UNL     1      32.872  25.782  31.921  1.00  0.00    -0.264 OA
HETATM   16  N6  UNL     1      32.799  27.946  32.741  1.00  0.00    -0.352 N 
ATOM     17  H6  UNL     1      32.378  28.870  32.644  1.00  0.00     0.162 HD
BRANCH  16  18
HETATM   18  C10 UNL     1      33.778  27.758  33.779  1.00  0.00     0.149 C 
BRANCH  18  19
HETATM   19  C11 UNL     1      33.137  27.275  35.051  1.00  0.00     0.183 C 
BRANCH  19  20
HETATM   20  O3  UNL     1      33.225  28.285  36.025  1.00  0.00    -0.399 OA
ATOM     21  H3  UNL     1      34.104  28.294  36.386  1.00  0.00     0.209 HD
ENDBRANCH  19  20
ENDBRANCH  18  19
ENDBRANCH  16  18
ENDBRANCH  11  14
BRANCH   1  22
HETATM   22  N1  UNL     1      27.202  28.826  29.445  1.00  0.00    -0.285 N 
HETATM   23  C4  UNL     1      27.095  29.845  28.695  1.00  0.00     0.093 C 
ATOM     24  H1  UNL     1      26.478  28.116  29.341  1.00  0.00     0.187 HD
BRANCH  23  25
HETATM   25  C2  UNL     1      27.987  31.010  28.631  1.00  0.00     0.097 C 
HETATM   26  C1  UNL     1      27.796  31.947  29.799  1.00  0.00     0.052 C 
HETATM   27  C3  UNL     1      27.931  31.786  27.356  1.00  0.00     0.052 C 
BRANCH  25  28
HETATM   28  O1  UNL     1      29.310  30.522  28.745  1.00  0.00    -0.384 OA
ATOM     29  H1  UNL     1      29.654  30.501  27.859  1.00  0.00     0.211 HD
ENDBRANCH  25  28
ENDBRANCH  23  25
BRANCH  23  30
HETATM   30  C12 UNL     1      25.931  29.852  27.778  1.00  0.00     0.105 A 
HETATM   31  N8  UNL     1      25.500  28.889  26.985  1.00  0.00    -0.332 N 
HETATM   32  C13 UNL     1      24.452  29.076  26.245  1.00  0.00     0.156 A 
ATOM     33  H8  UNL     1      25.992  27.996  26.956  1.00  0.00     0.168 HD
HETATM   34  N9  UNL     1      23.715  28.368  25.330  1.00  0.00    -0.172 N 
HETATM   35  C15 UNL     1      23.824  30.289  26.317  1.00  0.00     0.137 A 
HETATM   36  C14 UNL     1      22.700  29.119  24.880  1.00  0.00     0.704 A 
ATOM     37  H9  UNL     1      23.910  27.412  25.035  1.00  0.00     0.186 HD
HETATM   38  N10 UNL     1      21.812  28.728  23.994  1.00  0.00    -0.098 N 
HETATM   39  N11 UNL     1      22.746  30.320  25.480  1.00  0.00    -0.180 N 
ATOM     40  H10 UNL     1      21.068  29.362  23.702  1.00  0.00     0.213 HD
ATOM     41  H11 UNL     1      22.103  31.099  25.339  1.00  0.00     0.185 HD
HETATM   42  S1  UNL     1      24.801  31.098  27.470  1.00  0.00    -0.048 SA
BRANCH  38  43
HETATM   43  O4  UNL     1      21.886  27.465  23.461  1.00  0.00    -0.276 OA
ATOM     44  H4  UNL     1      21.430  26.745  23.881  1.00  0.00     0.245 HD
ENDBRANCH  38  43
ENDBRANCH  23  30
ENDBRANCH   1  22
TORSDOF 9
ENDMDL
MODEL 3
REMARK VINA RESULT: -8.495955137      1.677      2.012
REMARK  9 active torsions:
REMARK  status: ('A' for Active; 'I' for Inactive)
REMARK    1  A    between atoms: C2_2  and  O1_4 
REMARK    2  A    between atoms: C2_2  and  C4_6 
REMARK    3  A    between atoms: C4_6  and  C12_30 
REMARK    4  A    between atoms: N1_7  and  N2_9 
REMARK    5  A    between atoms: C8_19  and  C9_20 
REMARK       I    between atoms: C9_20  and  N6_22 
REMARK    6  A    between atoms: N6_22  and  C10_24 
REMARK    7  A    between atoms: C10_24  and  C11_25 
REMARK    8  A    between atoms: C11_25  and  O3_26 
REMARK    9  A    between atoms: N10_37  and  O4_39 
ROOT
HETATM    1  N2  UNL     1      27.861  28.500  30.160  1.00  0.00    -0.132 N 
ATOM      2  H2  UNL     1      27.620  28.747  31.120  1.00  0.00     0.205 HD
HETATM    3  C5  UNL     1      29.020  27.972  29.949  1.00  0.00     0.700 A 
HETATM    4  N3  UNL     1      29.401  27.621  28.712  1.00  0.00    -0.165 N 
ATOM      5  H3  UNL     1      28.759  27.779  27.935  1.00  0.00     0.186 HD
HETATM    6  C6  UNL     1      30.602  27.068  28.462  1.00  0.00     0.204 A 
HETATM    7  C7  UNL     1      30.918  26.726  27.092  1.00  0.00     0.137 C 
HETATM    8  N4  UNL     1      31.178  26.461  25.990  1.00  0.00    -0.188 NA
HETATM    9  N5  UNL     1      31.440  26.862  29.474  1.00  0.00    -0.314 N 
ATOM     10  H5  UNL     1      32.353  26.444  29.297  1.00  0.00     0.170 HD
HETATM   11  C8  UNL     1      31.088  27.202  30.742  1.00  0.00     0.191 A 
HETATM   12  N7  UNL     1      29.880  27.753  30.953  1.00  0.00    -0.169 N 
ATOM     13  H7  UNL     1      29.611  28.011  31.902  1.00  0.00     0.186 HD
ENDROOT
BRANCH  11  14
HETATM   14  C9  UNL     1      32.038  26.957  31.815  1.00  0.00     0.286 C 
HETATM   15  O2  UNL     1      32.539  25.810  31.906  1.00  0.00    -0.264 OA
HETATM   16  N6  UNL     1      32.394  27.969  32.731  1.00  0.00    -0.352 N 
ATOM     17  H6  UNL     1      31.964  28.887  32.619  1.00  0.00     0.162 HD
BRANCH  16  18
HETATM   18  C10 UNL     1      33.326  27.791  33.813  1.00  0.00     0.149 C 
BRANCH  18  19
HETATM   19  C11 UNL     1      33.195  28.889  34.832  1.00  0.00     0.183 C 
BRANCH  19  20
HETATM   20  O3  UNL     1      33.168  28.325  36.118  1.00  0.00    -0.399 OA
ATOM     21  H3  UNL     1      33.824  28.750  36.659  1.00  0.00     0.209 HD
ENDBRANCH  19  20
ENDBRANCH  18  19
ENDBRANCH  16  18
ENDBRANCH  11  14
BRANCH   1  22
HETATM   22  N1  UNL     1      26.933  28.753  29.185  1.00  0.00    -0.285 N 
HETATM   23  C4  UNL     1      26.826  29.786  28.455  1.00  0.00     0.093 C 
ATOM     24  H1  UNL     1      26.242  28.020  29.025  1.00  0.00     0.187 HD
BRANCH  23  25
HETATM   25  C2  UNL     1      27.676  30.984  28.468  1.00  0.00     0.097 C 
HETATM   26  C1  UNL     1      27.401  31.874  29.656  1.00  0.00     0.052 C 
HETATM   27  C3  UNL     1      27.643  31.801  27.217  1.00  0.00     0.052 C 
BRANCH  25  28
HETATM   28  O1  UNL     1      29.010  30.541  28.622  1.00  0.00    -0.384 OA
ATOM     29  H1  UNL     1      29.500  30.950  27.917  1.00  0.00     0.211 HD
ENDBRANCH  25  28
ENDBRANCH  23  25
BRANCH  23  30
HETATM   30  C12 UNL     1      25.712  29.775  27.478  1.00  0.00     0.105 A 
HETATM   31  N8  UNL     1      24.755  30.668  27.308  1.00  0.00    -0.332 N 
HETATM   32  C13 UNL     1      23.854  30.489  26.393  1.00  0.00     0.156 A 
ATOM     33  H8  UNL     1      24.724  31.499  27.898  1.00  0.00     0.168 HD
HETATM   34  N9  UNL     1      22.746  31.143  25.916  1.00  0.00    -0.172 N 
HETATM   35  C15 UNL     1      23.934  29.359  25.625  1.00  0.00     0.137 A 
HETATM   36  C14 UNL     1      22.196  30.441  24.917  1.00  0.00     0.704 A 
ATOM     37  H9  UNL     1      22.394  32.032  26.270  1.00  0.00     0.186 HD
HETATM   38  N10 UNL     1      21.121  30.801  24.250  1.00  0.00    -0.098 N 
HETATM   39  N11 UNL     1      22.917  29.326  24.716  1.00  0.00    -0.180 N 
ATOM     40  H10 UNL     1      20.763  30.209  23.501  1.00  0.00     0.213 HD
ATOM     41  H11 UNL     1      22.740  28.600  24.022  1.00  0.00     0.185 HD
HETATM   42  S1  UNL     1      25.330  28.613  26.284  1.00  0.00    -0.048 SA
BRANCH  38  43
HETATM   43  O4  UNL     1      20.481  31.974  24.563  1.00  0.00    -0.276 OA
ATOM     44  H4  UNL     1      19.595  32.127  24.256  1.00  0.00     0.245 HD
ENDBRANCH  38  43
ENDBRANCH  23  30
ENDBRANCH   1  22
TORSDOF 9
ENDMDL
MODEL 4
REMARK VINA RESULT: -8.394991804      1.219      1.358
REMARK  9 active torsions:
REMARK  status: ('A' for Active; 'I' for Inactive)
REMARK    1  A    between atoms: C2_2  and  O1_4 
REMARK    2  A    between atoms: C2_2  and  C4_6 
REMARK    3  A    between atoms: C4_6  and  C12_30 
REMARK    4  A    between atoms: N1_7  and  N2_9 
REMARK    5  A    between atoms: C8_19  and  C9_20 
REMARK       I    between atoms: C9_20  and  N6_22 
REMARK    6  A    between atoms: N6_22  and  C10_24 
REMARK    7  A    between atoms: C10_24  and  C11_25 
REMARK    8  A    between atoms: C11_25  and  O3_26 
REMARK    9  A    between atoms: N10_37  and  O4_39 
ROOT
HETATM    1  N2  UNL     1      27.912  28.525  30.209  1.00  0.00    -0.132 N 
ATOM      2  H2  UNL     1      27.672  28.791  31.164  1.00  0.00     0.205 HD
HETATM    3  C5  UNL     1      29.071  27.993  30.008  1.00  0.00     0.700 A 
HETATM    4  N3  UNL     1      29.452  27.618  28.778  1.00  0.00    -0.165 N 
ATOM      5  H3  UNL     1      28.809  27.760  27.999  1.00  0.00     0.186 HD
HETATM    6  C6  UNL     1      30.653  27.061  28.539  1.00  0.00     0.204 A 
HETATM    7  C7  UNL     1      30.968  26.691  27.175  1.00  0.00     0.137 C 
HETATM    8  N4  UNL     1      31.228  26.404  26.079  1.00  0.00    -0.188 NA
HETATM    9  N5  UNL     1      31.491  26.875  29.554  1.00  0.00    -0.314 N 
ATOM     10  H5  UNL     1      32.404  26.455  29.385  1.00  0.00     0.170 HD
HETATM   11  C8  UNL     1      31.140  27.241  30.815  1.00  0.00     0.191 A 
HETATM   12  N7  UNL     1      29.932  27.795  31.015  1.00  0.00    -0.169 N 
ATOM     13  H7  UNL     1      29.663  28.073  31.959  1.00  0.00     0.186 HD
ENDROOT
BRANCH  11  14
HETATM   14  C9  UNL     1      32.091  27.018  31.892  1.00  0.00     0.286 C 
HETATM   15  O2  UNL     1      31.721  27.265  33.064  1.00  0.00    -0.264 OA
HETATM   16  N6  UNL     1      33.393  26.538  31.638  1.00  0.00    -0.352 N 
ATOM     17  H6  UNL     1      33.652  26.350  30.670  1.00  0.00     0.162 HD
BRANCH  16  18
HETATM   18  C10 UNL     1      34.381  26.297  32.657  1.00  0.00     0.149 C 
BRANCH  18  19
HETATM   19  C11 UNL     1      34.434  24.842  33.032  1.00  0.00     0.183 C 
BRANCH  19  20
HETATM   20  O3  UNL     1      35.736  24.520  33.452  1.00  0.00    -0.399 OA
ATOM     21  H3  UNL     1      35.687  23.976  34.230  1.00  0.00     0.209 HD
ENDBRANCH  19  20
ENDBRANCH  18  19
ENDBRANCH  16  18
ENDBRANCH  11  14
BRANCH   1  22
HETATM   22  N1  UNL     1      26.983  28.757  29.230  1.00  0.00    -0.285 N 
HETATM   23  C4  UNL     1      26.877  29.775  28.478  1.00  0.00     0.093 C 
ATOM     24  H1  UNL     1      26.291  28.022  29.087  1.00  0.00     0.187 HD
BRANCH  23  25
HETATM   25  C2  UNL     1      27.728  30.971  28.462  1.00  0.00     0.097 C 
HETATM   26  C1  UNL     1      27.461  31.884  29.635  1.00  0.00     0.052 C 
HETATM   27  C3  UNL     1      27.690  31.764  27.196  1.00  0.00     0.052 C 
BRANCH  25  28
HETATM   28  O1  UNL     1      29.063  30.529  28.617  1.00  0.00    -0.384 OA
ATOM     29  H1  UNL     1      29.546  30.911  27.894  1.00  0.00     0.211 HD
ENDBRANCH  25  28
ENDBRANCH  23  25
BRANCH  23  30
HETATM   30  C12 UNL     1      25.761  29.743  27.502  1.00  0.00     0.105 A 
HETATM   31  N8  UNL     1      24.819  30.644  27.298  1.00  0.00    -0.332 N 
HETATM   32  C13 UNL     1      23.915  30.444  26.391  1.00  0.00     0.156 A 
ATOM     33  H8  UNL     1      24.803  31.499  27.854  1.00  0.00     0.168 HD
HETATM   34  N9  UNL     1      22.817  31.097  25.889  1.00  0.00    -0.172 N 
HETATM   35  C15 UNL     1      23.975  29.284  25.668  1.00  0.00     0.137 A 
HETATM   36  C14 UNL     1      22.254  30.366  24.918  1.00  0.00     0.704 A 
ATOM     37  H9  UNL     1      22.481  32.006  26.207  1.00  0.00     0.186 HD
HETATM   38  N10 UNL     1      21.184  30.717  24.239  1.00  0.00    -0.098 N 
HETATM   39  N11 UNL     1      22.956  29.232  24.762  1.00  0.00    -0.180 N 
ATOM     40  H10 UNL     1      20.815  30.101  23.514  1.00  0.00     0.213 HD
ATOM     41  H11 UNL     1      22.766  28.482  24.097  1.00  0.00     0.185 HD
HETATM   42  S1  UNL     1      25.359  28.541  26.355  1.00  0.00    -0.048 SA
BRANCH  38  43
HETATM   43  O4  UNL     1      20.564  31.912  24.505  1.00  0.00    -0.276 OA
ATOM     44  H4  UNL     1      19.872  31.952  25.154  1.00  0.00     0.245 HD
ENDBRANCH  38  43
ENDBRANCH  23  30
ENDBRANCH   1  22
TORSDOF 9
ENDMDL
MODEL 5
REMARK VINA RESULT: -8.379203218      2.603      9.975
REMARK  9 active torsions:
REMARK  status: ('A' for Active; 'I' for Inactive)
REMARK    1  A    between atoms: C2_2  and  O1_4 
REMARK    2  A    between atoms: C2_2  and  C4_6 
REMARK    3  A    between atoms: C4_6  and  C12_30 
REMARK    4  A    between atoms: N1_7  and  N2_9 
REMARK    5  A    between atoms: C8_19  and  C9_20 
REMARK       I    between atoms: C9_20  and  N6_22 
REMARK    6  A    between atoms: N6_22  and  C10_24 
REMARK    7  A    between atoms: C10_24  and  C11_25 
REMARK    8  A    between atoms: C11_25  and  O3_26 
REMARK    9  A    between atoms: N10_37  and  O4_39 
ROOT
HETATM    1  N2  UNL     1      27.742  28.222  28.553  1.00  0.00    -0.132 N 
ATOM      2  H2  UNL     1      27.352  27.374  28.140  1.00  0.00     0.205 HD
HETATM    3  C5  UNL     1      27.199  29.349  28.235  1.00  0.00     0.700 A 
HETATM    4  N3  UNL     1      27.660  30.501  28.742  1.00  0.00    -0.165 N 
ATOM      5  H3  UNL     1      28.451  30.475  29.387  1.00  0.00     0.186 HD
HETATM    6  C6  UNL     1      27.114  31.691  28.429  1.00  0.00     0.204 A 
HETATM    7  C7  UNL     1      27.686  32.877  29.030  1.00  0.00     0.137 C 
HETATM    8  N4  UNL     1      28.150  33.832  29.502  1.00  0.00    -0.188 NA
HETATM    9  N5  UNL     1      26.084  31.726  27.590  1.00  0.00    -0.314 N 
ATOM     10  H5  UNL     1      25.662  32.621  27.344  1.00  0.00     0.170 HD
HETATM   11  C8  UNL     1      25.588  30.578  27.057  1.00  0.00     0.191 A 
HETATM   12  N7  UNL     1      26.159  29.409  27.393  1.00  0.00    -0.169 N 
ATOM     13  H7  UNL     1      25.792  28.544  26.995  1.00  0.00     0.186 HD
ENDROOT
BRANCH  11  14
HETATM   14  C9  UNL     1      24.460  30.668  26.144  1.00  0.00     0.286 C 
HETATM   15  O2  UNL     1      24.249  31.767  25.576  1.00  0.00    -0.264 OA
HETATM   16  N6  UNL     1      23.622  29.561  25.895  1.00  0.00    -0.352 N 
ATOM     17  H6  UNL     1      23.831  28.687  26.377  1.00  0.00     0.162 HD
BRANCH  16  18
HETATM   18  C10 UNL     1      22.491  29.585  25.005  1.00  0.00     0.149 C 
BRANCH  18  19
HETATM   19  C11 UNL     1      22.242  28.229  24.403  1.00  0.00     0.183 C 
BRANCH  19  20
HETATM   20  O3  UNL     1      20.885  28.120  24.055  1.00  0.00    -0.399 OA
ATOM     21  H3  UNL     1      20.422  27.661  24.747  1.00  0.00     0.209 HD
ENDBRANCH  19  20
ENDBRANCH  18  19
ENDBRANCH  16  18
ENDBRANCH  11  14
BRANCH   1  22
HETATM   22  N1  UNL     1      28.805  28.084  29.406  1.00  0.00    -0.285 N 
HETATM   23  C4  UNL     1      28.781  27.857  30.655  1.00  0.00     0.093 C 
ATOM     24  H1  UNL     1      29.730  28.174  28.986  1.00  0.00     0.187 HD
BRANCH  23  25
HETATM   25  C2  UNL     1      27.602  27.682  31.513  1.00  0.00     0.097 C 
HETATM   26  C1  UNL     1      27.091  28.990  32.064  1.00  0.00     0.052 C 
HETATM   27  C3  UNL     1      27.766  26.702  32.628  1.00  0.00     0.052 C 
BRANCH  25  28
HETATM   28  O1  UNL     1      26.565  27.182  30.691  1.00  0.00    -0.384 OA
ATOM     29  H1  UNL     1      26.168  27.944  30.285  1.00  0.00     0.211 HD
ENDBRANCH  25  28
ENDBRANCH  23  25
BRANCH  23  30
HETATM   30  C12 UNL     1      30.103  27.757  31.319  1.00  0.00     0.105 A 
HETATM   31  N8  UNL     1      30.923  26.724  31.374  1.00  0.00    -0.332 N 
HETATM   32  C13 UNL     1      32.050  26.822  32.006  1.00  0.00     0.156 A 
ATOM     33  H8  UNL     1      30.668  25.848  30.917  1.00  0.00     0.168 HD
HETATM   34  N9  UNL     1      33.130  26.024  32.286  1.00  0.00    -0.172 N 
HETATM   35  C15 UNL     1      32.350  28.016  32.603  1.00  0.00     0.137 A 
HETATM   36  C14 UNL     1      34.028  26.706  33.011  1.00  0.00     0.704 A 
ATOM     37  H9  UNL     1      33.235  25.055  31.987  1.00  0.00     0.186 HD
HETATM   38  N10 UNL     1      35.171  26.221  33.439  1.00  0.00    -0.098 N 
HETATM   39  N11 UNL     1      33.565  27.949  33.221  1.00  0.00    -0.180 N 
ATOM     40  H10 UNL     1      35.801  26.806  33.988  1.00  0.00     0.213 HD
ATOM     41  H11 UNL     1      34.030  28.695  33.740  1.00  0.00     0.185 HD
HETATM   42  S1  UNL     1      30.962  28.940  32.206  1.00  0.00    -0.048 SA
BRANCH  38  43
HETATM   43  O4  UNL     1      35.519  24.925  33.148  1.00  0.00    -0.276 OA
ATOM     44  H4  UNL     1      34.984  24.413  32.553  1.00  0.00     0.245 HD
ENDBRANCH  38  43
ENDBRANCH  23  30
ENDBRANCH   1  22
TORSDOF 9
ENDMDL
