MODEL 1
REMARK VINA RESULT: -4.010132722      0.000      0.000
REMARK  5 active torsions:
REMARK  status: ('A' for Active; 'I' for Inactive)
REMARK    1  A    between atoms: C2_2  and  N2_6 
REMARK    2  A    between atoms: N2_6  and  N3_8 
REMARK    3  A    between atoms: C3_10  and  C5_12 
REMARK    4  A    between atoms: N4_13  and  C6_15 
REMARK    5  A    between atoms: C6_15  and  O1_17 
ROOT
HETATM    1  N3  UNL     1      25.549   5.655  33.434  1.00  0.00    -0.303 N 
ATOM      2  H3  UNL     1      26.521   5.789  33.714  1.00  0.00     0.186 HD
HETATM    3  C3  UNL     1      25.022   4.443  33.467  1.00  0.00     0.037 C 
HETATM    4  C4  UNL     1      23.625   4.253  33.065  1.00  0.00     0.071 C 
ENDROOT
BRANCH   1   5
HETATM    5  N2  UNL     1      24.793   6.750  33.023  1.00  0.00    -0.290 N 
ATOM      6  H2  UNL     1      24.025   7.057  33.620  1.00  0.00     0.188 HD
BRANCH   5   7
HETATM    7  C2  UNL     1      25.033   7.463  31.820  1.00  0.00     0.085 C 
HETATM    8  C1  UNL     1      25.848   8.696  31.742  1.00  0.00     0.090 C 
HETATM    9  N1  UNL     1      24.511   7.007  30.744  1.00  0.00    -0.388 N 
ATOM     10  H12 UNL     1      24.684   7.520  29.878  1.00  0.00     0.157 HD
ATOM     11  H11 UNL     1      23.950   6.158  30.797  1.00  0.00     0.157 HD
ENDBRANCH   5   7
ENDBRANCH   1   5
BRANCH   3  12
HETATM   12  C5  UNL     1      25.877   3.375  33.904  1.00  0.00     0.111 C 
HETATM   13  N4  UNL     1      26.182   3.063  35.055  1.00  0.00    -0.372 N 
ATOM     14  H4  UNL     1      26.807   2.257  35.072  1.00  0.00     0.161 HD
BRANCH  13  15
HETATM   15  C6  UNL     1      25.899   3.517  36.333  1.00  0.00     0.213 C 
HETATM   16  C7  UNL     1      25.684   2.337  37.317  1.00  0.00     0.063 C 
BRANCH  15  17
HETATM   17  O1  UNL     1      26.993   4.271  36.854  1.00  0.00    -0.377 OA
ATOM     18  H1  UNL     1      26.742   5.177  36.993  1.00  0.00     0.212 HD
ENDBRANCH  15  17
ENDBRANCH  13  15
ENDBRANCH   3  12
TORSDOF 5
ENDMDL
MODEL 2
REMARK VINA RESULT: -3.994935599      3.586      6.326
REMARK  5 active torsions:
REMARK  status: ('A' for Active; 'I' for Inactive)
REMARK    1  A    between atoms: C2_2  and  N2_6 
REMARK    2  A    between atoms: N2_6  and  N3_8 
REMARK    3  A    between atoms: C3_10  and  C5_12 
REMARK    4  A    between atoms: N4_13  and  C6_15 
REMARK    5  A    between atoms: C6_15  and  O1_17 
ROOT
HETATM    1  N3  UNL     1      27.632   3.037  36.791  1.00  0.00    -0.303 N 
ATOM      2  H3  UNL     1      27.625   3.907  37.324  1.00  0.00     0.186 HD
HETATM    3  C3  UNL     1      26.876   2.926  35.713  1.00  0.00     0.037 C 
HETATM    4  C4  UNL     1      26.887   1.675  34.949  1.00  0.00     0.071 C 
ENDROOT
BRANCH   1   5
HETATM    5  N2  UNL     1      28.439   1.981  37.208  1.00  0.00    -0.290 N 
ATOM      6  H2  UNL     1      29.261   1.753  36.649  1.00  0.00     0.188 HD
BRANCH   5   7
HETATM    7  C2  UNL     1      28.179   1.204  38.367  1.00  0.00     0.085 C 
HETATM    8  C1  UNL     1      26.851   0.645  38.703  1.00  0.00     0.090 C 
HETATM    9  N1  UNL     1      29.156   0.978  39.163  1.00  0.00    -0.388 N 
ATOM     10  H12 UNL     1      28.969   0.419  39.997  1.00  0.00     0.157 HD
ATOM     11  H11 UNL     1      30.071   1.363  38.932  1.00  0.00     0.157 HD
ENDBRANCH   5   7
ENDBRANCH   1   5
BRANCH   3  12
HETATM   12  C5  UNL     1      26.076   4.066  35.360  1.00  0.00     0.111 C 
HETATM   13  N4  UNL     1      24.850   4.175  35.383  1.00  0.00    -0.372 N 
ATOM     14  H4  UNL     1      24.550   5.102  35.081  1.00  0.00     0.161 HD
BRANCH  13  15
HETATM   15  C6  UNL     1      23.771   3.372  35.712  1.00  0.00     0.213 C 
HETATM   16  C7  UNL     1      23.681   3.147  37.245  1.00  0.00     0.063 C 
BRANCH  15  17
HETATM   17  O1  UNL     1      22.544   3.991  35.331  1.00  0.00    -0.377 OA
ATOM     18  H1  UNL     1      21.899   3.339  35.085  1.00  0.00     0.212 HD
ENDBRANCH  15  17
ENDBRANCH  13  15
ENDBRANCH   3  12
TORSDOF 5
ENDMDL
MODEL 3
REMARK VINA RESULT: -3.991865848      2.739      4.521
REMARK  5 active torsions:
REMARK  status: ('A' for Active; 'I' for Inactive)
REMARK    1  A    between atoms: C2_2  and  N2_6 
REMARK    2  A    between atoms: N2_6  and  N3_8 
REMARK    3  A    between atoms: C3_10  and  C5_12 
REMARK    4  A    between atoms: N4_13  and  C6_15 
REMARK    5  A    between atoms: C6_15  and  O1_17 
ROOT
HETATM    1  N3  UNL     1      26.877   2.838  35.807  1.00  0.00    -0.303 N 
ATOM      2  H3  UNL     1      27.707   2.755  35.221  1.00  0.00     0.186 HD
HETATM    3  C3  UNL     1      26.623   1.913  36.716  1.00  0.00     0.037 C 
HETATM    4  C4  UNL     1      25.428   2.034  37.557  1.00  0.00     0.071 C 
ENDROOT
BRANCH   1   5
HETATM    5  N2  UNL     1      26.023   3.926  35.640  1.00  0.00    -0.290 N 
ATOM      6  H2  UNL     1      25.939   4.595  36.405  1.00  0.00     0.188 HD
BRANCH   5   7
HETATM    7  C2  UNL     1      25.262   4.154  34.464  1.00  0.00     0.085 C 
HETATM    8  C1  UNL     1      24.278   3.192  33.920  1.00  0.00     0.090 C 
HETATM    9  N1  UNL     1      25.443   5.259  33.842  1.00  0.00    -0.388 N 
ATOM     10  H12 UNL     1      24.896   5.423  32.997  1.00  0.00     0.157 HD
ATOM     11  H11 UNL     1      26.122   5.921  34.217  1.00  0.00     0.157 HD
ENDBRANCH   5   7
ENDBRANCH   1   5
BRANCH   3  12
HETATM   12  C5  UNL     1      27.559   0.827  36.816  1.00  0.00     0.111 C 
HETATM   13  N4  UNL     1      28.398   0.621  37.693  1.00  0.00    -0.372 N 
ATOM     14  H4  UNL     1      28.928  -0.231  37.512  1.00  0.00     0.161 HD
BRANCH  13  15
HETATM   15  C6  UNL     1      28.810   1.240  38.861  1.00  0.00     0.213 C 
HETATM   16  C7  UNL     1      29.187   0.199  39.950  1.00  0.00     0.063 C 
BRANCH  15  17
HETATM   17  O1  UNL     1      29.986   2.016  38.635  1.00  0.00    -0.377 OA
ATOM     18  H1  UNL     1      29.953   2.828  39.126  1.00  0.00     0.212 HD
ENDBRANCH  15  17
ENDBRANCH  13  15
ENDBRANCH   3  12
TORSDOF 5
ENDMDL
MODEL 4
REMARK VINA RESULT: -3.940928802      2.755      6.395
REMARK  5 active torsions:
REMARK  status: ('A' for Active; 'I' for Inactive)
REMARK    1  A    between atoms: C2_2  and  N2_6 
REMARK    2  A    between atoms: N2_6  and  N3_8 
REMARK    3  A    between atoms: C3_10  and  C5_12 
REMARK    4  A    between atoms: N4_13  and  C6_15 
REMARK    5  A    between atoms: C6_15  and  O1_17 
ROOT
HETATM    1  N3  UNL     1      27.155   3.040  36.821  1.00  0.00    -0.303 N 
ATOM      2  H3  UNL     1      26.843   3.713  37.522  1.00  0.00     0.186 HD
HETATM    3  C3  UNL     1      26.472   2.905  35.697  1.00  0.00     0.037 C 
HETATM    4  C4  UNL     1      26.921   1.937  34.692  1.00  0.00     0.071 C 
ENDROOT
BRANCH   1   5
HETATM    5  N2  UNL     1      28.294   2.276  37.060  1.00  0.00    -0.290 N 
ATOM      6  H2  UNL     1      29.136   2.487  36.525  1.00  0.00     0.188 HD
BRANCH   5   7
HETATM    7  C2  UNL     1      28.347   1.219  38.005  1.00  0.00     0.085 C 
HETATM    8  C1  UNL     1      27.441   0.049  37.985  1.00  0.00     0.090 C 
HETATM    9  N1  UNL     1      29.233   1.288  38.926  1.00  0.00    -0.388 N 
ATOM     10  H12 UNL     1      29.272   0.528  39.606  1.00  0.00     0.157 HD
ATOM     11  H11 UNL     1      29.858   2.095  38.941  1.00  0.00     0.157 HD
ENDBRANCH   5   7
ENDBRANCH   1   5
BRANCH   3  12
HETATM   12  C5  UNL     1      25.310   3.734  35.539  1.00  0.00     0.111 C 
HETATM   13  N4  UNL     1      25.052   4.521  34.628  1.00  0.00    -0.372 N 
ATOM     14  H4  UNL     1      24.151   4.978  34.771  1.00  0.00     0.161 HD
BRANCH  13  15
HETATM   15  C6  UNL     1      25.662   4.949  33.460  1.00  0.00     0.213 C 
HETATM   16  C7  UNL     1      24.924   4.408  32.206  1.00  0.00     0.063 C 
BRANCH  15  17
HETATM   17  O1  UNL     1      25.620   6.371  33.359  1.00  0.00    -0.377 OA
ATOM     18  H1  UNL     1      26.176   6.772  34.017  1.00  0.00     0.212 HD
ENDBRANCH  15  17
ENDBRANCH  13  15
ENDBRANCH   3  12
TORSDOF 5
ENDMDL
MODEL 5
REMARK VINA RESULT: -3.918086462      3.421      6.527
REMARK  5 active torsions:
REMARK  status: ('A' for Active; 'I' for Inactive)
REMARK    1  A    between atoms: C2_2  and  N2_6 
REMARK    2  A    between atoms: N2_6  and  N3_8 
REMARK    3  A    between atoms: C3_10  and  C5_12 
REMARK    4  A    between atoms: N4_13  and  C6_15 
REMARK    5  A    between atoms: C6_15  and  O1_17 
ROOT
HETATM    1  N3  UNL     1      25.598   7.745  32.305  1.00  0.00    -0.303 N 
ATOM      2  H3  UNL     1      26.276   8.135  32.961  1.00  0.00     0.186 HD
HETATM    3  C3  UNL     1      25.489   8.264  31.094  1.00  0.00     0.037 C 
HETATM    4  C4  UNL     1      24.514   7.704  30.154  1.00  0.00     0.071 C 
ENDROOT
BRANCH   1   5
HETATM    5  N2  UNL     1      24.800   6.673  32.696  1.00  0.00    -0.290 N 
ATOM      6  H2  UNL     1      23.791   6.816  32.744  1.00  0.00     0.188 HD
BRANCH   5   7
HETATM    7  C2  UNL     1      25.312   5.393  33.032  1.00  0.00     0.085 C 
HETATM    8  C1  UNL     1      25.657   4.357  32.034  1.00  0.00     0.090 C 
HETATM    9  N1  UNL     1      25.484   5.127  34.273  1.00  0.00    -0.388 N 
ATOM     10  H12 UNL     1      25.852   4.207  34.514  1.00  0.00     0.157 HD
ATOM     11  H11 UNL     1      25.246   5.842  34.961  1.00  0.00     0.157 HD
ENDBRANCH   5   7
ENDBRANCH   1   5
BRANCH   3  12
HETATM   12  C5  UNL     1      26.352   9.368  30.780  1.00  0.00     0.111 C 
HETATM   13  N4  UNL     1      27.224   9.433  29.913  1.00  0.00    -0.372 N 
ATOM     14  H4  UNL     1      27.684  10.344  29.911  1.00  0.00     0.161 HD
BRANCH  13  15
HETATM   15  C6  UNL     1      27.743   8.596  28.939  1.00  0.00     0.213 C 
HETATM   16  C7  UNL     1      27.963   9.354  27.602  1.00  0.00     0.063 C 
BRANCH  15  17
HETATM   17  O1  UNL     1      29.024   8.102  29.328  1.00  0.00    -0.377 OA
ATOM     18  H1  UNL     1      29.612   8.818  29.535  1.00  0.00     0.212 HD
ENDBRANCH  15  17
ENDBRANCH  13  15
ENDBRANCH   3  12
TORSDOF 5
ENDMDL
