MODEL 1
REMARK VINA RESULT: -4.079364239      0.000      0.000
REMARK  2 active torsions:
REMARK  status: ('A' for Active; 'I' for Inactive)
REMARK    1  A    between atoms: O1_2  and  C2_3 
REMARK    2  A    between atoms: C3_4  and  N1_5 
ROOT
HETATM    1  C2  UNL     1      24.688   6.770  30.533  1.00  0.00     0.194 C 
HETATM    2  C3  UNL     1      23.532   6.136  29.822  1.00  0.00     0.322 C 
HETATM    3  N2  UNL     1      23.170   7.054  28.759  1.00  0.00    -0.112 NA
HETATM    4  N3  UNL     1      23.571   8.321  29.185  1.00  0.00    -0.133 NA
HETATM    5  C4  UNL     1      24.831   8.134  29.879  1.00  0.00     0.076 C 
HETATM    6  C5  UNL     1      26.006   8.220  28.959  1.00  0.00     0.031 C 
HETATM    7  C6  UNL     1      27.124   8.907  29.693  1.00  0.00     0.002 C 
HETATM    8  C7  UNL     1      26.530   9.448  30.983  1.00  0.00     0.002 C 
HETATM    9  C8  UNL     1      25.048   9.233  30.864  1.00  0.00     0.031 C 
ENDROOT
BRANCH   2  10
HETATM   10  N1  UNL     1      23.954   4.899  29.199  1.00  0.00    -0.058 N 
ATOM     11  H13 UNL     1      24.970   4.821  29.152  1.00  0.00     0.276 HD
ATOM     12  H12 UNL     1      23.771   4.090  29.791  1.00  0.00     0.276 HD
ATOM     13  H11 UNL     1      23.521   4.807  28.280  1.00  0.00     0.276 HD
ENDBRANCH   2  10
BRANCH   1  14
HETATM   14  O1  UNL     1      24.559   6.852  31.891  1.00  0.00    -0.385 OA
HETATM   15  C1  UNL     1      25.405   6.039  32.612  1.00  0.00     0.202 C 
ENDBRANCH   1  14
TORSDOF 2
ENDMDL
MODEL 2
REMARK VINA RESULT: -3.729925665      7.308      8.578
REMARK  2 active torsions:
REMARK  status: ('A' for Active; 'I' for Inactive)
REMARK    1  A    between atoms: O1_2  and  C2_3 
REMARK    2  A    between atoms: C3_4  and  N1_5 
ROOT
HETATM    1  C2  UNL     1      26.240   1.903  35.781  1.00  0.00     0.194 C 
HETATM    2  C3  UNL     1      27.417   2.784  36.068  1.00  0.00     0.322 C 
HETATM    3  N2  UNL     1      26.874   3.984  36.676  1.00  0.00    -0.112 NA
HETATM    4  N3  UNL     1      25.566   4.103  36.202  1.00  0.00    -0.133 NA
HETATM    5  C4  UNL     1      25.034   2.755  36.140  1.00  0.00     0.076 C 
HETATM    6  C5  UNL     1      24.387   2.339  37.421  1.00  0.00     0.031 C 
HETATM    7  C6  UNL     1      23.184   1.502  37.087  1.00  0.00     0.002 C 
HETATM    8  C7  UNL     1      22.977   1.618  35.586  1.00  0.00     0.002 C 
HETATM    9  C8  UNL     1      23.942   2.675  35.128  1.00  0.00     0.031 C 
ENDROOT
BRANCH   2  10
HETATM   10  N1  UNL     1      28.276   2.154  37.050  1.00  0.00    -0.058 N 
ATOM     11  H13 UNL     1      27.765   1.889  37.892  1.00  0.00     0.276 HD
ATOM     12  H12 UNL     1      28.574   1.224  36.757  1.00  0.00     0.276 HD
ATOM     13  H11 UNL     1      29.069   2.762  37.259  1.00  0.00     0.276 HD
ENDBRANCH   2  10
BRANCH   1  14
HETATM   14  O1  UNL     1      26.176   1.419  34.504  1.00  0.00    -0.385 OA
HETATM   15  C1  UNL     1      27.106   1.940  33.631  1.00  0.00     0.202 C 
ENDBRANCH   1  14
TORSDOF 2
ENDMDL
MODEL 3
REMARK VINA RESULT: -3.599758819      6.284      7.586
REMARK  2 active torsions:
REMARK  status: ('A' for Active; 'I' for Inactive)
REMARK    1  A    between atoms: O1_2  and  C2_3 
REMARK    2  A    between atoms: C3_4  and  N1_5 
ROOT
HETATM    1  C2  UNL     1      26.445   2.991  35.399  1.00  0.00     0.194 C 
HETATM    2  C3  UNL     1      26.972   2.062  36.449  1.00  0.00     0.322 C 
HETATM    3  N2  UNL     1      27.282   0.823  35.762  1.00  0.00    -0.112 NA
HETATM    4  N3  UNL     1      26.445   0.776  34.646  1.00  0.00    -0.133 NA
HETATM    5  C4  UNL     1      26.361   2.135  34.145  1.00  0.00     0.076 C 
HETATM    6  C5  UNL     1      27.438   2.444  33.155  1.00  0.00     0.031 C 
HETATM    7  C6  UNL     1      26.854   3.335  32.094  1.00  0.00     0.002 C 
HETATM    8  C7  UNL     1      25.353   3.362  32.326  1.00  0.00     0.002 C 
HETATM    9  C8  UNL     1      25.092   2.332  33.388  1.00  0.00     0.031 C 
ENDROOT
BRANCH   2  10
HETATM   10  N1  UNL     1      28.213   2.580  36.987  1.00  0.00    -0.058 N 
ATOM     11  H13 UNL     1      28.144   2.780  37.985  1.00  0.00     0.276 HD
ATOM     12  H12 UNL     1      28.939   1.865  37.030  1.00  0.00     0.276 HD
ATOM     13  H11 UNL     1      28.510   3.396  36.452  1.00  0.00     0.276 HD
ENDBRANCH   2  10
BRANCH   1  14
HETATM   14  O1  UNL     1      25.255   3.592  35.700  1.00  0.00    -0.385 OA
HETATM   15  C1  UNL     1      24.677   3.192  36.885  1.00  0.00     0.202 C 
ENDBRANCH   1  14
TORSDOF 2
ENDMDL
MODEL 4
REMARK VINA RESULT: -3.545027007      8.321      9.669
REMARK  2 active torsions:
REMARK  status: ('A' for Active; 'I' for Inactive)
REMARK    1  A    between atoms: O1_2  and  C2_3 
REMARK    2  A    between atoms: C3_4  and  N1_5 
ROOT
HETATM    1  C2  UNL     1      26.305   1.617  37.868  1.00  0.00     0.194 C 
HETATM    2  C3  UNL     1      27.571   1.200  37.187  1.00  0.00     0.322 C 
HETATM    3  N2  UNL     1      27.294   1.261  35.765  1.00  0.00    -0.112 NA
HETATM    4  N3  UNL     1      25.919   1.070  35.627  1.00  0.00    -0.133 NA
HETATM    5  C4  UNL     1      25.301   1.769  36.737  1.00  0.00     0.076 C 
HETATM    6  C5  UNL     1      24.997   3.196  36.413  1.00  0.00     0.031 C 
HETATM    7  C6  UNL     1      23.695   3.558  37.073  1.00  0.00     0.002 C 
HETATM    8  C7  UNL     1      23.099   2.263  37.597  1.00  0.00     0.002 C 
HETATM    9  C8  UNL     1      23.972   1.169  37.053  1.00  0.00     0.031 C 
ENDROOT
BRANCH   2  10
HETATM   10  N1  UNL     1      28.620   2.160  37.464  1.00  0.00    -0.058 N 
ATOM     11  H13 UNL     1      29.013   2.555  36.610  1.00  0.00     0.276 HD
ATOM     12  H12 UNL     1      28.253   3.021  37.869  1.00  0.00     0.276 HD
ATOM     13  H11 UNL     1      29.335   1.734  38.053  1.00  0.00     0.276 HD
ENDBRANCH   2  10
BRANCH   1  14
HETATM   14  O1  UNL     1      25.866   0.769  38.846  1.00  0.00    -0.385 OA
HETATM   15  C1  UNL     1      26.671  -0.322  39.083  1.00  0.00     0.202 C 
ENDBRANCH   1  14
TORSDOF 2
ENDMDL
MODEL 5
REMARK VINA RESULT: -3.426780749      7.012      7.666
REMARK  2 active torsions:
REMARK  status: ('A' for Active; 'I' for Inactive)
REMARK    1  A    between atoms: O1_2  and  C2_3 
REMARK    2  A    between atoms: C3_4  and  N1_5 
ROOT
HETATM    1  C2  UNL     1      20.286  12.122  27.732  1.00  0.00     0.194 C 
HETATM    2  C3  UNL     1      19.421  10.922  27.963  1.00  0.00     0.322 C 
HETATM    3  N2  UNL     1      18.997  10.480  26.649  1.00  0.00    -0.112 NA
HETATM    4  N3  UNL     1      19.025  11.610  25.830  1.00  0.00    -0.133 NA
HETATM    5  C4  UNL     1      20.187  12.376  26.237  1.00  0.00     0.076 C 
HETATM    6  C5  UNL     1      21.421  11.975  25.494  1.00  0.00     0.031 C 
HETATM    7  C6  UNL     1      22.234  13.213  25.238  1.00  0.00     0.002 C 
HETATM    8  C7  UNL     1      21.360  14.395  25.623  1.00  0.00     0.002 C 
HETATM    9  C8  UNL     1      20.002  13.817  25.901  1.00  0.00     0.031 C 
ENDROOT
BRANCH   2  10
HETATM   10  N1  UNL     1      20.205   9.853  28.547  1.00  0.00    -0.058 N 
ATOM     11  H13 UNL     1      20.154   8.996  27.996  1.00  0.00     0.276 HD
ATOM     12  H12 UNL     1      21.207  10.023  28.462  1.00  0.00     0.276 HD
ATOM     13  H11 UNL     1      19.923   9.702  29.515  1.00  0.00     0.276 HD
ENDBRANCH   2  10
BRANCH   1  14
HETATM   14  O1  UNL     1      19.959  13.224  28.471  1.00  0.00    -0.385 OA
HETATM   15  C1  UNL     1      18.842  13.089  29.266  1.00  0.00     0.202 C 
ENDBRANCH   1  14
TORSDOF 2
ENDMDL
