MODEL 1
REMARK VINA RESULT: -7.777853464      0.000      0.000
REMARK  15 active torsions:
REMARK  status: ('A' for Active; 'I' for Inactive)
REMARK       I    between atoms: N1_1  and  C1_5 
REMARK       I    between atoms: C1_5  and  N2_6 
REMARK       I    between atoms: C1_5  and  N3_10 
REMARK    1  A    between atoms: N3_10  and  C2_12 
REMARK    2  A    between atoms: C4_14  and  C5_15 
REMARK    3  A    between atoms: C5_15  and  O1_16 
REMARK    4  A    between atoms: C5_15  and  N4_18 
REMARK    5  A    between atoms: N4_18  and  C6_21 
REMARK    6  A    between atoms: C6_21  and  C7_22 
REMARK    7  A    between atoms: C6_21  and  C8_25 
REMARK    8  A    between atoms: C7_22  and  O2_23 
REMARK    9  A    between atoms: C8_25  and  O3_26 
REMARK   10  A    between atoms: C9_30  and  N6_31 
REMARK   11  A    between atoms: C13_37  and  C14_38 
REMARK   12  A    between atoms: C14_38  and  O4_39 
REMARK   13  A    between atoms: C14_38  and  O5_41 
REMARK   14  A    between atoms: C17_46  and  O6_47 
REMARK   15  A    between atoms: C18_49  and  O7_50 
ROOT
HETATM    1  C2  UNL     1     -14.812   8.047   2.703  1.00  0.00     0.069 C 
HETATM    2  C3  UNL     1     -14.860   9.438   2.469  1.00  0.00     0.061 C 
HETATM    3  C4  UNL     1     -14.001  10.253   1.773  1.00  0.00     0.069 C 
HETATM    4  N5  UNL     1     -13.172   9.868   0.785  1.00  0.00    -0.339 N 
ATOM      5  H5  UNL     1     -13.085  10.511  -0.002  1.00  0.00     0.167 HD
HETATM    6  C9  UNL     1     -12.427   8.715   0.707  1.00  0.00     0.152 C 
HETATM    7  C17 UNL     1     -12.786   7.535   1.335  1.00  0.00     0.146 C 
HETATM    8  C18 UNL     1     -13.918   7.201   2.056  1.00  0.00     0.129 C 
ENDROOT
BRANCH   6   9
HETATM    9  N6  UNL     1     -11.295   8.809  -0.042  1.00  0.00    -0.265 N 
HETATM   10  C10 UNL     1      -9.842   8.682   0.147  1.00  0.00     0.195 A 
HETATM   11  N7  UNL     1      -8.966   8.816  -0.948  1.00  0.00    -0.330 N 
HETATM   12  C11 UNL     1      -9.512   9.072  -2.212  1.00  0.00     0.163 A 
ATOM     13  H7  UNL     1      -7.958   8.730  -0.823  1.00  0.00     0.169 HD
HETATM   14  C12 UNL     1     -10.061   9.334  -3.511  1.00  0.00     0.132 A 
HETATM   15  N8  UNL     1     -10.592   9.070  -1.799  1.00  0.00    -0.373 NA
HETATM   16  C13 UNL     1     -11.502   9.454  -3.664  1.00  0.00    -0.013 A 
HETATM   17  C15 UNL     1     -12.367   9.309  -2.508  1.00  0.00     0.073 A 
HETATM   18  C16 UNL     1     -11.672   9.067  -1.375  1.00  0.00     0.190 A 
BRANCH  16  19
HETATM   19  C14 UNL     1     -12.111   9.744  -4.947  1.00  0.00     0.285 C 
BRANCH  19  20
HETATM   20  O4  UNL     1     -13.356  10.363  -4.762  1.00  0.00    -0.367 OA
ATOM     21  H4  UNL     1     -13.986  10.025  -5.387  1.00  0.00     0.213 HD
ENDBRANCH  19  20
BRANCH  19  22
HETATM   22  O5  UNL     1     -12.238   8.598  -5.702  1.00  0.00    -0.367 OA
ATOM     23  H5  UNL     1     -11.462   8.454  -6.231  1.00  0.00     0.213 HD
ENDBRANCH  19  22
ENDBRANCH  16  19
ENDBRANCH   6   9
BRANCH   7  24
HETATM   24  O6  UNL     1     -11.828   6.541   1.201  1.00  0.00    -0.355 OA
ATOM     25  H6  UNL     1     -10.947   6.856   1.363  1.00  0.00     0.218 HD
ENDBRANCH   7  24
BRANCH   3  26
HETATM   26  C5  UNL     1     -14.053  11.679   2.208  1.00  0.00     0.370 C 
BRANCH  26  27
HETATM   27  O1  UNL     1     -14.000  11.675   3.608  1.00  0.00    -0.365 OA
ATOM     28  H1  UNL     1     -14.492  12.433   3.902  1.00  0.00     0.212 HD
ENDBRANCH  26  27
BRANCH  26  29
HETATM   29  N4  UNL     1     -15.211  12.378   1.785  1.00  0.00    -0.035 N 
ATOM     30  H42 UNL     1     -16.019  11.758   1.733  1.00  0.00     0.281 HD
ATOM     31  H41 UNL     1     -15.543  13.015   2.508  1.00  0.00     0.281 HD
BRANCH  29  32
HETATM   32  C6  UNL     1     -15.000  13.061   0.549  1.00  0.00     0.236 C 
BRANCH  32  33
HETATM   33  C7  UNL     1     -13.620  13.528   0.246  1.00  0.00     0.199 C 
BRANCH  33  34
HETATM   34  O2  UNL     1     -13.514  14.842   0.793  1.00  0.00    -0.399 OA
ATOM     35  H2  UNL     1     -13.637  14.751   1.731  1.00  0.00     0.209 HD
ENDBRANCH  33  34
ENDBRANCH  32  33
BRANCH  32  36
HETATM   36  C8  UNL     1     -15.982  14.220   0.487  1.00  0.00     0.199 C 
BRANCH  36  37
HETATM   37  O3  UNL     1     -16.092  14.709  -0.794  1.00  0.00    -0.399 OA
ATOM     38  H3  UNL     1     -16.162  15.656  -0.795  1.00  0.00     0.209 HD
ENDBRANCH  36  37
ENDBRANCH  32  36
ENDBRANCH  29  32
ENDBRANCH  26  29
ENDBRANCH   3  26
BRANCH   8  39
HETATM   39  O7  UNL     1     -14.239   5.886   2.181  1.00  0.00    -0.356 OA
ATOM     40  H7  UNL     1     -14.620   5.518   1.392  1.00  0.00     0.218 HD
ENDBRANCH   8  39
BRANCH   1  41
HETATM   41  N3  UNL     1     -15.619   7.582   3.513  1.00  0.00    -0.339 N 
HETATM   42  C1  UNL     1     -16.969   7.311   3.667  1.00  0.00     0.480 C 
HETATM   43  N1  UNL     1     -17.237   6.282   4.696  1.00  0.00    -0.033 N 
HETATM   44  N2  UNL     1     -17.622   8.516   4.214  1.00  0.00    -0.033 N 
ATOM     45  H13 UNL     1     -16.938   6.536   5.637  1.00  0.00     0.278 HD
ATOM     46  H12 UNL     1     -18.222   6.161   4.928  1.00  0.00     0.278 HD
ATOM     47  H11 UNL     1     -16.785   5.449   4.318  1.00  0.00     0.278 HD
ATOM     48  H23 UNL     1     -18.608   8.395   4.446  1.00  0.00     0.278 HD
ATOM     49  H22 UNL     1     -17.323   8.770   5.155  1.00  0.00     0.278 HD
ATOM     50  H21 UNL     1     -17.438   9.225   3.504  1.00  0.00     0.278 HD
ATOM     51  H3  UNL     1     -15.122   7.301   4.359  1.00  0.00     0.163 HD
ENDBRANCH   1  41
TORSDOF 15
ENDMDL
MODEL 2
REMARK VINA RESULT: -7.715038460      2.583      5.733
REMARK  15 active torsions:
REMARK  status: ('A' for Active; 'I' for Inactive)
REMARK       I    between atoms: N1_1  and  C1_5 
REMARK       I    between atoms: C1_5  and  N2_6 
REMARK       I    between atoms: C1_5  and  N3_10 
REMARK    1  A    between atoms: N3_10  and  C2_12 
REMARK    2  A    between atoms: C4_14  and  C5_15 
REMARK    3  A    between atoms: C5_15  and  O1_16 
REMARK    4  A    between atoms: C5_15  and  N4_18 
REMARK    5  A    between atoms: N4_18  and  C6_21 
REMARK    6  A    between atoms: C6_21  and  C7_22 
REMARK    7  A    between atoms: C6_21  and  C8_25 
REMARK    8  A    between atoms: C7_22  and  O2_23 
REMARK    9  A    between atoms: C8_25  and  O3_26 
REMARK   10  A    between atoms: C9_30  and  N6_31 
REMARK   11  A    between atoms: C13_37  and  C14_38 
REMARK   12  A    between atoms: C14_38  and  O4_39 
REMARK   13  A    between atoms: C14_38  and  O5_41 
REMARK   14  A    between atoms: C17_46  and  O6_47 
REMARK   15  A    between atoms: C18_49  and  O7_50 
ROOT
HETATM    1  C2  UNL     1     -13.785  12.750   0.864  1.00  0.00     0.069 C 
HETATM    2  C3  UNL     1     -14.087  12.133   2.096  1.00  0.00     0.061 C 
HETATM    3  C4  UNL     1     -13.688  10.923   2.606  1.00  0.00     0.069 C 
HETATM    4  N5  UNL     1     -12.575  10.248   2.262  1.00  0.00    -0.339 N 
ATOM      5  H5  UNL     1     -12.079   9.786   3.024  1.00  0.00     0.167 HD
HETATM    6  C9  UNL     1     -12.025  10.105   1.010  1.00  0.00     0.152 C 
HETATM    7  C17 UNL     1     -12.193  11.033  -0.003  1.00  0.00     0.146 C 
HETATM    8  C18 UNL     1     -12.812  12.269  -0.006  1.00  0.00     0.129 C 
ENDROOT
BRANCH   6   9
HETATM    9  N6  UNL     1     -11.290   8.974   0.828  1.00  0.00    -0.265 N 
HETATM   10  C10 UNL     1      -9.893   8.607   0.556  1.00  0.00     0.195 A 
HETATM   11  N7  UNL     1      -9.512   7.253   0.478  1.00  0.00    -0.330 N 
HETATM   12  C11 UNL     1     -10.494   6.273   0.667  1.00  0.00     0.163 A 
ATOM     13  H7  UNL     1      -8.545   6.993   0.289  1.00  0.00     0.169 HD
HETATM   14  C12 UNL     1     -11.492   5.261   0.858  1.00  0.00     0.132 A 
HETATM   15  N8  UNL     1     -11.322   7.065   0.829  1.00  0.00    -0.373 NA
HETATM   16  C13 UNL     1     -12.866   5.657   1.126  1.00  0.00    -0.013 A 
HETATM   17  C15 UNL     1     -13.213   7.064   1.195  1.00  0.00     0.073 A 
HETATM   18  C16 UNL     1     -12.145   7.866   0.990  1.00  0.00     0.190 A 
BRANCH  16  19
HETATM   19  C14 UNL     1     -13.920   4.678   1.301  1.00  0.00     0.285 C 
BRANCH  19  20
HETATM   20  O4  UNL     1     -15.140   5.194   0.838  1.00  0.00    -0.367 OA
ATOM     21  H4  UNL     1     -15.555   4.576   0.248  1.00  0.00     0.213 HD
ENDBRANCH  19  20
BRANCH  19  22
HETATM   22  O5  UNL     1     -14.018   4.291   2.619  1.00  0.00    -0.367 OA
ATOM     23  H5  UNL     1     -13.194   3.938   2.931  1.00  0.00     0.213 HD
ENDBRANCH  19  22
ENDBRANCH  16  19
ENDBRANCH   6   9
BRANCH   7  24
HETATM   24  O6  UNL     1     -11.636  10.622  -1.205  1.00  0.00    -0.355 OA
ATOM     25  H6  UNL     1     -11.890  11.174  -1.936  1.00  0.00     0.218 HD
ENDBRANCH   7  24
BRANCH   3  26
HETATM   26  C5  UNL     1     -14.624  10.372   3.629  1.00  0.00     0.370 C 
BRANCH  26  27
HETATM   27  O1  UNL     1     -14.026  10.586   4.877  1.00  0.00    -0.365 OA
ATOM     28  H1  UNL     1     -13.858   9.727   5.250  1.00  0.00     0.212 HD
ENDBRANCH  26  27
BRANCH  26  29
HETATM   29  N4  UNL     1     -14.912   8.993   3.477  1.00  0.00    -0.035 N 
ATOM     30  H42 UNL     1     -14.276   8.553   2.812  1.00  0.00     0.281 HD
ATOM     31  H41 UNL     1     -14.660   8.468   4.313  1.00  0.00     0.281 HD
BRANCH  29  32
HETATM   32  C6  UNL     1     -16.276   8.770   3.116  1.00  0.00     0.236 C 
BRANCH  32  33
HETATM   33  C7  UNL     1     -16.876   7.456   3.472  1.00  0.00     0.199 C 
BRANCH  33  34
HETATM   34  O2  UNL     1     -15.788   6.539   3.594  1.00  0.00    -0.399 OA
ATOM     35  H2  UNL     1     -15.883   6.125   4.444  1.00  0.00     0.209 HD
ENDBRANCH  33  34
ENDBRANCH  32  33
BRANCH  32  36
HETATM   36  C8  UNL     1     -16.409   9.031   1.624  1.00  0.00     0.199 C 
BRANCH  36  37
HETATM   37  O3  UNL     1     -16.672   7.869   0.938  1.00  0.00    -0.399 OA
ATOM     38  H3  UNL     1     -17.568   7.852   0.623  1.00  0.00     0.209 HD
ENDBRANCH  36  37
ENDBRANCH  32  36
ENDBRANCH  29  32
ENDBRANCH  26  29
ENDBRANCH   3  26
BRANCH   8  39
HETATM   39  O7  UNL     1     -12.461  13.165  -0.966  1.00  0.00    -0.356 OA
ATOM     40  H7  UNL     1     -11.705  12.893  -1.472  1.00  0.00     0.218 HD
ENDBRANCH   8  39
BRANCH   1  41
HETATM   41  N3  UNL     1     -14.416  13.771   0.572  1.00  0.00    -0.339 N 
HETATM   42  C1  UNL     1     -15.633  14.183   0.054  1.00  0.00     0.480 C 
HETATM   43  N1  UNL     1     -15.973  15.576   0.421  1.00  0.00    -0.033 N 
HETATM   44  N2  UNL     1     -15.515  14.238  -1.415  1.00  0.00    -0.033 N 
ATOM     45  H13 UNL     1     -15.319  16.277   0.074  1.00  0.00     0.278 HD
ATOM     46  H12 UNL     1     -16.793  15.952  -0.056  1.00  0.00     0.278 HD
ATOM     47  H11 UNL     1     -16.055  15.538   1.437  1.00  0.00     0.278 HD
ATOM     48  H23 UNL     1     -16.334  14.614  -1.893  1.00  0.00     0.278 HD
ATOM     49  H22 UNL     1     -14.860  14.939  -1.763  1.00  0.00     0.278 HD
ATOM     50  H21 UNL     1     -15.281  13.278  -1.668  1.00  0.00     0.278 HD
ATOM     51  H3  UNL     1     -13.847  14.590   0.785  1.00  0.00     0.163 HD
ENDBRANCH   1  41
TORSDOF 15
ENDMDL
MODEL 3
REMARK VINA RESULT: -7.608915071      2.845      6.138
REMARK  15 active torsions:
REMARK  status: ('A' for Active; 'I' for Inactive)
REMARK       I    between atoms: N1_1  and  C1_5 
REMARK       I    between atoms: C1_5  and  N2_6 
REMARK       I    between atoms: C1_5  and  N3_10 
REMARK    1  A    between atoms: N3_10  and  C2_12 
REMARK    2  A    between atoms: C4_14  and  C5_15 
REMARK    3  A    between atoms: C5_15  and  O1_16 
REMARK    4  A    between atoms: C5_15  and  N4_18 
REMARK    5  A    between atoms: N4_18  and  C6_21 
REMARK    6  A    between atoms: C6_21  and  C7_22 
REMARK    7  A    between atoms: C6_21  and  C8_25 
REMARK    8  A    between atoms: C7_22  and  O2_23 
REMARK    9  A    between atoms: C8_25  and  O3_26 
REMARK   10  A    between atoms: C9_30  and  N6_31 
REMARK   11  A    between atoms: C13_37  and  C14_38 
REMARK   12  A    between atoms: C14_38  and  O4_39 
REMARK   13  A    between atoms: C14_38  and  O5_41 
REMARK   14  A    between atoms: C17_46  and  O6_47 
REMARK   15  A    between atoms: C18_49  and  O7_50 
ROOT
HETATM    1  C2  UNL     1      -9.903   7.835   1.552  1.00  0.00     0.069 C 
HETATM    2  C3  UNL     1     -11.261   7.459   1.634  1.00  0.00     0.061 C 
HETATM    3  C4  UNL     1     -12.386   8.075   1.145  1.00  0.00     0.069 C 
HETATM    4  N5  UNL     1     -12.431   8.927   0.104  1.00  0.00    -0.339 N 
ATOM      5  H5  UNL     1     -13.233   8.830  -0.519  1.00  0.00     0.167 HD
HETATM    6  C9  UNL     1     -11.530   9.913  -0.222  1.00  0.00     0.152 C 
HETATM    7  C17 UNL     1     -10.191   9.863   0.124  1.00  0.00     0.146 C 
HETATM    8  C18 UNL     1      -9.452   8.871   0.742  1.00  0.00     0.129 C 
ENDROOT
BRANCH   6   9
HETATM    9  N6  UNL     1     -12.048  10.960  -0.922  1.00  0.00    -0.265 N 
HETATM   10  C10 UNL     1     -11.804  11.655  -2.194  1.00  0.00     0.195 A 
HETATM   11  N7  UNL     1     -12.633  12.721  -2.595  1.00  0.00    -0.330 N 
HETATM   12  C11 UNL     1     -13.689  13.097  -1.755  1.00  0.00     0.163 A 
ATOM     13  H7  UNL     1     -12.469  13.208  -3.476  1.00  0.00     0.169 HD
HETATM   14  C12 UNL     1     -14.773  13.490  -0.903  1.00  0.00     0.132 A 
HETATM   15  N8  UNL     1     -13.423  12.284  -0.977  1.00  0.00    -0.373 NA
HETATM   16  C13 UNL     1     -14.987  12.782   0.349  1.00  0.00    -0.013 A 
HETATM   17  C15 UNL     1     -14.108  11.691   0.723  1.00  0.00     0.073 A 
HETATM   18  C16 UNL     1     -13.148  11.467  -0.201  1.00  0.00     0.190 A 
BRANCH  16  19
HETATM   19  C14 UNL     1     -16.050  13.153   1.262  1.00  0.00     0.285 C 
BRANCH  19  20
HETATM   20  O4  UNL     1     -16.908  12.063   1.474  1.00  0.00    -0.367 OA
ATOM     21  H4  UNL     1     -17.235  12.072   2.366  1.00  0.00     0.213 HD
ENDBRANCH  19  20
BRANCH  19  22
HETATM   22  O5  UNL     1     -16.747  14.244   0.789  1.00  0.00    -0.367 OA
ATOM     23  H5  UNL     1     -17.107  14.752   1.505  1.00  0.00     0.213 HD
ENDBRANCH  19  22
ENDBRANCH  16  19
ENDBRANCH   6   9
BRANCH   7  24
HETATM   24  O6  UNL     1      -9.504  11.017  -0.220  1.00  0.00    -0.355 OA
ATOM     25  H6  UNL     1      -9.424  11.132  -1.159  1.00  0.00     0.218 HD
ENDBRANCH   7  24
BRANCH   3  26
HETATM   26  C5  UNL     1     -13.629   7.715   1.887  1.00  0.00     0.370 C 
BRANCH  26  27
HETATM   27  O1  UNL     1     -13.610   6.325   2.054  1.00  0.00    -0.365 OA
ATOM     28  H1  UNL     1     -14.440   6.087   2.450  1.00  0.00     0.212 HD
ENDBRANCH  26  27
BRANCH  26  29
HETATM   29  N4  UNL     1     -14.829   8.093   1.235  1.00  0.00    -0.035 N 
ATOM     30  H42 UNL     1     -14.942   9.107   1.224  1.00  0.00     0.281 HD
ATOM     31  H41 UNL     1     -14.773   7.927   0.230  1.00  0.00     0.281 HD
BRANCH  29  32
HETATM   32  C6  UNL     1     -15.971   7.450   1.803  1.00  0.00     0.236 C 
BRANCH  32  33
HETATM   33  C7  UNL     1     -17.043   7.001   0.874  1.00  0.00     0.199 C 
BRANCH  33  34
HETATM   34  O2  UNL     1     -18.001   6.308   1.674  1.00  0.00    -0.399 OA
ATOM     35  H2  UNL     1     -18.610   5.902   1.069  1.00  0.00     0.209 HD
ENDBRANCH  33  34
ENDBRANCH  32  33
BRANCH  32  36
HETATM   36  C8  UNL     1     -16.540   8.374   2.868  1.00  0.00     0.199 C 
BRANCH  36  37
HETATM   37  O3  UNL     1     -17.539   9.167   2.354  1.00  0.00    -0.399 OA
ATOM     38  H3  UNL     1     -17.893   9.745   3.019  1.00  0.00     0.209 HD
ENDBRANCH  36  37
ENDBRANCH  32  36
ENDBRANCH  29  32
ENDBRANCH  26  29
ENDBRANCH   3  26
BRANCH   8  39
HETATM   39  O7  UNL     1      -8.104   8.867   0.567  1.00  0.00    -0.356 OA
ATOM     40  H7  UNL     1      -7.683   9.654   0.891  1.00  0.00     0.218 HD
ENDBRANCH   8  39
BRANCH   1  41
HETATM   41  N3  UNL     1      -9.096   7.193   2.231  1.00  0.00    -0.339 N 
HETATM   42  C1  UNL     1      -8.604   7.089   3.521  1.00  0.00     0.480 C 
HETATM   43  N1  UNL     1      -7.996   5.769   3.802  1.00  0.00    -0.033 N 
HETATM   44  N2  UNL     1      -7.469   8.022   3.659  1.00  0.00    -0.033 N 
ATOM     45  H13 UNL     1      -7.188   5.543   3.221  1.00  0.00     0.278 HD
ATOM     46  H12 UNL     1      -7.504   5.710   4.694  1.00  0.00     0.278 HD
ATOM     47  H11 UNL     1      -8.781   5.124   3.707  1.00  0.00     0.278 HD
ATOM     48  H23 UNL     1      -6.977   7.962   4.551  1.00  0.00     0.278 HD
ATOM     49  H22 UNL     1      -6.661   7.796   3.079  1.00  0.00     0.278 HD
ATOM     50  H21 UNL     1      -7.888   8.932   3.466  1.00  0.00     0.278 HD
ATOM     51  H3  UNL     1      -8.634   6.502   1.639  1.00  0.00     0.163 HD
ENDBRANCH   1  41
TORSDOF 15
ENDMDL
MODEL 4
REMARK VINA RESULT: -7.584557787      2.619      5.670
REMARK  15 active torsions:
REMARK  status: ('A' for Active; 'I' for Inactive)
REMARK       I    between atoms: N1_1  and  C1_5 
REMARK       I    between atoms: C1_5  and  N2_6 
REMARK       I    between atoms: C1_5  and  N3_10 
REMARK    1  A    between atoms: N3_10  and  C2_12 
REMARK    2  A    between atoms: C4_14  and  C5_15 
REMARK    3  A    between atoms: C5_15  and  O1_16 
REMARK    4  A    between atoms: C5_15  and  N4_18 
REMARK    5  A    between atoms: N4_18  and  C6_21 
REMARK    6  A    between atoms: C6_21  and  C7_22 
REMARK    7  A    between atoms: C6_21  and  C8_25 
REMARK    8  A    between atoms: C7_22  and  O2_23 
REMARK    9  A    between atoms: C8_25  and  O3_26 
REMARK   10  A    between atoms: C9_30  and  N6_31 
REMARK   11  A    between atoms: C13_37  and  C14_38 
REMARK   12  A    between atoms: C14_38  and  O4_39 
REMARK   13  A    between atoms: C14_38  and  O5_41 
REMARK   14  A    between atoms: C17_46  and  O6_47 
REMARK   15  A    between atoms: C18_49  and  O7_50 
ROOT
HETATM    1  C2  UNL     1     -13.641  12.407   0.879  1.00  0.00     0.069 C 
HETATM    2  C3  UNL     1     -14.025  11.731   2.057  1.00  0.00     0.061 C 
HETATM    3  C4  UNL     1     -13.635  10.511   2.549  1.00  0.00     0.069 C 
HETATM    4  N5  UNL     1     -12.479   9.879   2.272  1.00  0.00    -0.339 N 
ATOM      5  H5  UNL     1     -12.034   9.398   3.054  1.00  0.00     0.167 HD
HETATM    6  C9  UNL     1     -11.825   9.803   1.065  1.00  0.00     0.152 C 
HETATM    7  C17 UNL     1     -11.936  10.768   0.079  1.00  0.00     0.146 C 
HETATM    8  C18 UNL     1     -12.587  11.987   0.074  1.00  0.00     0.129 C 
ENDROOT
BRANCH   6   9
HETATM    9  N6  UNL     1     -11.046   8.699   0.900  1.00  0.00    -0.265 N 
HETATM   10  C10 UNL     1      -9.624   8.381   0.705  1.00  0.00     0.195 A 
HETATM   11  N7  UNL     1      -9.198   7.041   0.616  1.00  0.00    -0.330 N 
HETATM   12  C11 UNL     1     -10.159   6.028   0.719  1.00  0.00     0.163 A 
ATOM     13  H7  UNL     1      -8.213   6.814   0.480  1.00  0.00     0.169 HD
HETATM   14  C12 UNL     1     -11.135   4.982   0.824  1.00  0.00     0.132 A 
HETATM   15  N8  UNL     1     -11.019   6.790   0.851  1.00  0.00    -0.373 NA
HETATM   16  C13 UNL     1     -12.534   5.331   1.016  1.00  0.00    -0.013 A 
HETATM   17  C15 UNL     1     -12.927   6.724   1.101  1.00  0.00     0.073 A 
HETATM   18  C16 UNL     1     -11.875   7.562   0.981  1.00  0.00     0.190 A 
BRANCH  16  19
HETATM   19  C14 UNL     1     -13.567   4.317   1.101  1.00  0.00     0.285 C 
BRANCH  19  20
HETATM   20  O4  UNL     1     -14.364   4.341  -0.053  1.00  0.00    -0.367 OA
ATOM     21  H4  UNL     1     -14.965   3.606  -0.051  1.00  0.00     0.213 HD
ENDBRANCH  19  20
BRANCH  19  22
HETATM   22  O5  UNL     1     -14.333   4.490   2.233  1.00  0.00    -0.367 OA
ATOM     23  H5  UNL     1     -15.135   4.956   2.031  1.00  0.00     0.213 HD
ENDBRANCH  19  22
ENDBRANCH  16  19
ENDBRANCH   6   9
BRANCH   7  24
HETATM   24  O6  UNL     1     -11.271  10.421  -1.088  1.00  0.00    -0.355 OA
ATOM     25  H6  UNL     1     -10.933  11.176  -1.556  1.00  0.00     0.218 HD
ENDBRANCH   7  24
BRANCH   3  26
HETATM   26  C5  UNL     1     -14.635   9.895   3.469  1.00  0.00     0.370 C 
BRANCH  26  27
HETATM   27  O1  UNL     1     -14.278  10.280   4.767  1.00  0.00    -0.365 OA
ATOM     28  H1  UNL     1     -15.088  10.477   5.225  1.00  0.00     0.212 HD
ENDBRANCH  26  27
BRANCH  26  29
HETATM   29  N4  UNL     1     -14.701   8.481   3.400  1.00  0.00    -0.035 N 
ATOM     30  H42 UNL     1     -13.851   8.091   2.993  1.00  0.00     0.281 HD
ATOM     31  H41 UNL     1     -14.643   8.062   4.328  1.00  0.00     0.281 HD
BRANCH  29  32
HETATM   32  C6  UNL     1     -15.863   8.034   2.701  1.00  0.00     0.236 C 
BRANCH  32  33
HETATM   33  C7  UNL     1     -16.585   9.026   1.859  1.00  0.00     0.199 C 
BRANCH  33  34
HETATM   34  O2  UNL     1     -17.589   8.296   1.154  1.00  0.00    -0.399 OA
ATOM     35  H2  UNL     1     -17.730   8.760   0.336  1.00  0.00     0.209 HD
ENDBRANCH  33  34
ENDBRANCH  32  33
BRANCH  32  36
HETATM   36  C8  UNL     1     -16.805   7.411   3.718  1.00  0.00     0.199 C 
BRANCH  36  37
HETATM   37  O3  UNL     1     -17.707   8.336   4.190  1.00  0.00    -0.399 OA
ATOM     38  H3  UNL     1     -18.181   7.999   4.941  1.00  0.00     0.209 HD
ENDBRANCH  36  37
ENDBRANCH  32  36
ENDBRANCH  29  32
ENDBRANCH  26  29
ENDBRANCH   3  26
BRANCH   8  39
HETATM   39  O7  UNL     1     -12.184  12.930  -0.817  1.00  0.00    -0.356 OA
ATOM     40  H7  UNL     1     -11.299  12.793  -1.133  1.00  0.00     0.218 HD
ENDBRANCH   8  39
BRANCH   1  41
HETATM   41  N3  UNL     1     -14.275  13.423   0.576  1.00  0.00    -0.339 N 
HETATM   42  C1  UNL     1     -15.449  13.826  -0.038  1.00  0.00     0.480 C 
HETATM   43  N1  UNL     1     -15.869  15.188   0.361  1.00  0.00    -0.033 N 
HETATM   44  N2  UNL     1     -15.191  13.960  -1.484  1.00  0.00    -0.033 N 
ATOM     45  H13 UNL     1     -15.208  15.924   0.115  1.00  0.00     0.278 HD
ATOM     46  H12 UNL     1     -16.651  15.564  -0.175  1.00  0.00     0.278 HD
ATOM     47  H11 UNL     1     -16.048  15.095   1.362  1.00  0.00     0.278 HD
ATOM     48  H23 UNL     1     -15.973  14.337  -2.021  1.00  0.00     0.278 HD
ATOM     49  H22 UNL     1     -14.530  14.697  -1.731  1.00  0.00     0.278 HD
ATOM     50  H21 UNL     1     -14.902  13.022  -1.759  1.00  0.00     0.278 HD
ATOM     51  H3  UNL     1     -13.757  14.246   0.884  1.00  0.00     0.163 HD
ENDBRANCH   1  41
TORSDOF 15
ENDMDL
MODEL 5
REMARK VINA RESULT: -7.559742961      3.237      7.745
REMARK  15 active torsions:
REMARK  status: ('A' for Active; 'I' for Inactive)
REMARK       I    between atoms: N1_1  and  C1_5 
REMARK       I    between atoms: C1_5  and  N2_6 
REMARK       I    between atoms: C1_5  and  N3_10 
REMARK    1  A    between atoms: N3_10  and  C2_12 
REMARK    2  A    between atoms: C4_14  and  C5_15 
REMARK    3  A    between atoms: C5_15  and  O1_16 
REMARK    4  A    between atoms: C5_15  and  N4_18 
REMARK    5  A    between atoms: N4_18  and  C6_21 
REMARK    6  A    between atoms: C6_21  and  C7_22 
REMARK    7  A    between atoms: C6_21  and  C8_25 
REMARK    8  A    between atoms: C7_22  and  O2_23 
REMARK    9  A    between atoms: C8_25  and  O3_26 
REMARK   10  A    between atoms: C9_30  and  N6_31 
REMARK   11  A    between atoms: C13_37  and  C14_38 
REMARK   12  A    between atoms: C14_38  and  O4_39 
REMARK   13  A    between atoms: C14_38  and  O5_41 
REMARK   14  A    between atoms: C17_46  and  O6_47 
REMARK   15  A    between atoms: C18_49  and  O7_50 
ROOT
HETATM    1  C2  UNL     1      -9.351   8.726  -2.737  1.00  0.00     0.069 C 
HETATM    2  C3  UNL     1     -10.571   8.059  -2.493  1.00  0.00     0.061 C 
HETATM    3  C4  UNL     1     -11.642   8.422  -1.716  1.00  0.00     0.069 C 
HETATM    4  N5  UNL     1     -11.978   9.678  -1.367  1.00  0.00    -0.339 N 
ATOM      5  H5  UNL     1     -12.975   9.891  -1.368  1.00  0.00     0.167 HD
HETATM    6  C9  UNL     1     -11.140  10.708  -1.010  1.00  0.00     0.152 C 
HETATM    7  C17 UNL     1      -9.831  10.809  -1.448  1.00  0.00     0.146 C 
HETATM    8  C18 UNL     1      -9.113  10.037  -2.342  1.00  0.00     0.129 C 
ENDROOT
BRANCH   6   9
HETATM    9  N6  UNL     1     -11.692  11.641  -0.186  1.00  0.00    -0.265 N 
HETATM   10  C10 UNL     1     -12.012  13.076  -0.214  1.00  0.00     0.195 A 
HETATM   11  N7  UNL     1     -12.652  13.686   0.882  1.00  0.00    -0.330 N 
HETATM   12  C11 UNL     1     -12.974  12.893   1.991  1.00  0.00     0.163 A 
ATOM     13  H7  UNL     1     -12.876  14.680   0.868  1.00  0.00     0.169 HD
HETATM   14  C12 UNL     1     -13.308  12.091   3.133  1.00  0.00     0.132 A 
HETATM   15  N8  UNL     1     -12.530  11.944   1.502  1.00  0.00    -0.373 NA
HETATM   16  C13 UNL     1     -12.977  10.675   3.128  1.00  0.00    -0.013 A 
HETATM   17  C15 UNL     1     -12.316  10.090   1.978  1.00  0.00     0.073 A 
HETATM   18  C16 UNL     1     -12.083  10.997   1.004  1.00  0.00     0.190 A 
BRANCH  16  19
HETATM   19  C14 UNL     1     -13.266   9.822   4.264  1.00  0.00     0.285 C 
BRANCH  19  20
HETATM   20  O4  UNL     1     -13.857   8.625   3.832  1.00  0.00    -0.367 OA
ATOM     21  H4  UNL     1     -13.956   8.631   2.888  1.00  0.00     0.213 HD
ENDBRANCH  19  20
BRANCH  19  22
HETATM   22  O5  UNL     1     -14.075  10.470   5.173  1.00  0.00    -0.367 OA
ATOM     23  H5  UNL     1     -13.965  10.107   6.044  1.00  0.00     0.213 HD
ENDBRANCH  19  22
ENDBRANCH  16  19
ENDBRANCH   6   9
BRANCH   7  24
HETATM   24  O6  UNL     1      -9.153  11.873  -0.872  1.00  0.00    -0.355 OA
ATOM     25  H6  UNL     1      -9.033  11.769   0.064  1.00  0.00     0.218 HD
ENDBRANCH   7  24
BRANCH   3  26
HETATM   26  C5  UNL     1     -12.462   7.262  -1.257  1.00  0.00     0.370 C 
BRANCH  26  27
HETATM   27  O1  UNL     1     -13.304   6.919  -2.322  1.00  0.00    -0.365 OA
ATOM     28  H1  UNL     1     -13.318   7.665  -2.911  1.00  0.00     0.212 HD
ENDBRANCH  26  27
BRANCH  26  29
HETATM   29  N4  UNL     1     -13.244   7.518  -0.104  1.00  0.00    -0.035 N 
ATOM     30  H42 UNL     1     -12.658   7.781   0.689  1.00  0.00     0.281 HD
ATOM     31  H41 UNL     1     -13.778   8.381  -0.203  1.00  0.00     0.281 HD
BRANCH  29  32
HETATM   32  C6  UNL     1     -14.093   6.417   0.221  1.00  0.00     0.236 C 
BRANCH  32  33
HETATM   33  C7  UNL     1     -15.558   6.671   0.280  1.00  0.00     0.199 C 
BRANCH  33  34
HETATM   34  O2  UNL     1     -16.050   6.482  -1.047  1.00  0.00    -0.399 OA
ATOM     35  H2  UNL     1     -16.945   6.801  -1.047  1.00  0.00     0.209 HD
ENDBRANCH  33  34
ENDBRANCH  32  33
BRANCH  32  36
HETATM   36  C8  UNL     1     -13.601   5.823   1.530  1.00  0.00     0.199 C 
BRANCH  36  37
HETATM   37  O3  UNL     1     -14.485   6.076   2.553  1.00  0.00    -0.399 OA
ATOM     38  H3  UNL     1     -14.245   6.863   3.027  1.00  0.00     0.209 HD
ENDBRANCH  36  37
ENDBRANCH  32  36
ENDBRANCH  29  32
ENDBRANCH  26  29
ENDBRANCH   3  26
BRANCH   8  39
HETATM   39  O7  UNL     1      -8.022  10.586  -2.938  1.00  0.00    -0.356 OA
ATOM     40  H7  UNL     1      -7.256  10.025  -2.906  1.00  0.00     0.218 HD
ENDBRANCH   8  39
BRANCH   1  41
HETATM   41  N3  UNL     1      -8.475   8.099  -3.342  1.00  0.00    -0.339 N 
HETATM   42  C1  UNL     1      -7.475   7.162  -3.139  1.00  0.00     0.480 C 
HETATM   43  N1  UNL     1      -7.096   6.447  -4.378  1.00  0.00    -0.033 N 
HETATM   44  N2  UNL     1      -6.240   7.878  -2.769  1.00  0.00    -0.033 N 
ATOM     45  H13 UNL     1      -6.715   7.044  -5.112  1.00  0.00     0.278 HD
ATOM     46  H12 UNL     1      -6.272   5.852  -4.289  1.00  0.00     0.278 HD
ATOM     47  H11 UNL     1      -7.951   5.952  -4.634  1.00  0.00     0.278 HD
ATOM     48  H23 UNL     1      -5.416   7.284  -2.680  1.00  0.00     0.278 HD
ATOM     49  H22 UNL     1      -5.859   8.476  -3.503  1.00  0.00     0.278 HD
ATOM     50  H21 UNL     1      -6.501   8.371  -1.915  1.00  0.00     0.278 HD
ATOM     51  H3  UNL     1      -8.495   8.362  -4.327  1.00  0.00     0.163 HD
ENDBRANCH   1  41
TORSDOF 15
ENDMDL
