MODEL 1
REMARK VINA RESULT: -7.412446774      0.000      0.000
REMARK  12 active torsions:
REMARK  status: ('A' for Active; 'I' for Inactive)
REMARK    1  A    between atoms: C4_4  and  C5_5 
REMARK    2  A    between atoms: N1_7  and  C6_9 
REMARK    3  A    between atoms: N3_12  and  N4_13 
REMARK    4  A    between atoms: C9_22  and  N7_23 
REMARK    5  A    between atoms: N7_23  and  O1_25 
REMARK    6  A    between atoms: O1_25  and  C10_26 
REMARK    7  A    between atoms: C10_26  and  C12_29 
REMARK    8  A    between atoms: C12_29  and  N9_30 
REMARK    9  A    between atoms: N9_30  and  N10_32 
REMARK   10  A    between atoms: N10_32  and  C13_33 
REMARK   11  A    between atoms: C13_33  and  C14_34 
REMARK   12  A    between atoms: C14_34  and  N11_35 
ROOT
HETATM    1  C10 UNL     1     -13.065  11.355   2.162  1.00  0.00     0.313 C 
HETATM    2  C11 UNL     1     -12.766  10.191   3.064  1.00  0.00     0.100 C 
HETATM    3  N8  UNL     1     -12.526   9.314   3.770  1.00  0.00    -0.194 NA
ENDROOT
BRANCH   1   4
HETATM    4  O1  UNL     1     -12.320  11.438   1.095  1.00  0.00    -0.252 OA
BRANCH   4   5
HETATM    5  N7  UNL     1     -11.865  11.632  -0.080  1.00  0.00    -0.246 N 
ATOM      6  H7  UNL     1     -11.175  12.378  -0.160  1.00  0.00     0.196 HD
BRANCH   5   7
HETATM    7  C9  UNL     1     -12.151  11.023  -1.189  1.00  0.00     0.171 A 
HETATM    8  C6  UNL     1     -11.731   9.780  -1.376  1.00  0.00     0.124 A 
HETATM    9  C7  UNL     1     -12.004   9.137  -2.579  1.00  0.00     0.186 A 
HETATM   10  N2  UNL     1     -11.537   7.814  -2.761  1.00  0.00    -0.077 NA
HETATM   11  N3  UNL     1     -12.695   9.770  -3.542  1.00  0.00    -0.077 N 
HETATM   12  C8  UNL     1     -13.131  11.043  -3.355  1.00  0.00     0.700 A 
HETATM   13  N5  UNL     1     -13.773  11.662  -4.230  1.00  0.00    -0.233 N 
HETATM   14  N6  UNL     1     -12.851  11.664  -2.168  1.00  0.00    -0.171 N 
ATOM     15  H52 UNL     1     -13.983  11.199  -5.115  1.00  0.00     0.174 HD
ATOM     16  H51 UNL     1     -14.100  12.618  -4.090  1.00  0.00     0.174 HD
ATOM     17  H6  UNL     1     -13.171  12.619  -2.012  1.00  0.00     0.186 HD
BRANCH   8  18
HETATM   18  N1  UNL     1     -10.982   9.002  -0.371  1.00  0.00    -0.342 N 
HETATM   19  C5  UNL     1     -11.730   8.067   0.254  1.00  0.00     0.110 C 
HETATM   20  S1  UNL     1     -10.048   7.338   1.152  1.00  0.00    -0.030 SA
ATOM     21  H1  UNL     1      -9.995   9.155  -0.167  1.00  0.00     0.167 HD
BRANCH  19  22
HETATM   22  C4  UNL     1     -12.491   7.116   0.890  1.00  0.00     0.091 A 
HETATM   23  C3  UNL     1     -12.539   5.755   0.463  1.00  0.00     0.068 A 
HETATM   24  C2  UNL     1     -13.459   5.098   1.238  1.00  0.00     0.074 A 
HETATM   25  C1  UNL     1     -13.831   3.642   1.121  1.00  0.00     0.079 C 
HETATM   26  O3  UNL     1     -13.939   5.959   2.075  1.00  0.00    -0.242 OA
HETATM   27  N14 UNL     1     -13.394   7.126   1.890  1.00  0.00    -0.258 N 
ATOM     28  H14 UNL     1     -13.624   7.955   2.439  1.00  0.00     0.195 HD
ENDBRANCH  19  22
ENDBRANCH   8  18
BRANCH  11  29
HETATM   29  N4  UNL     1     -13.000   9.146  -4.741  1.00  0.00    -0.323 N 
ATOM     30  H42 UNL     1     -13.980   8.944  -4.940  1.00  0.00     0.178 HD
ATOM     31  H41 UNL     1     -12.271   8.882  -5.404  1.00  0.00     0.178 HD
ENDBRANCH  11  29
ENDBRANCH   5   7
ENDBRANCH   4   5
ENDBRANCH   1   4
BRANCH   1  32
HETATM   32  C12 UNL     1     -14.541  11.201   1.894  1.00  0.00     0.115 C 
HETATM   33  C15 UNL     1     -15.177  12.154   1.284  1.00  0.00     0.176 A 
HETATM   34  N12 UNL     1     -14.810  13.448   0.744  1.00  0.00    -0.222 N 
HETATM   35  N13 UNL     1     -16.481  12.492   0.846  1.00  0.00    -0.222 N 
HETATM   36  O2  UNL     1     -16.101  13.715   0.460  1.00  0.00    -0.153 OA
ATOM     37  H12 UNL     1     -13.931  13.952   0.626  1.00  0.00     0.198 HD
ATOM     38  H13 UNL     1     -17.371  11.993   0.831  1.00  0.00     0.198 HD
BRANCH  32  39
HETATM   39  N9  UNL     1     -15.198  10.032   2.328  1.00  0.00    -0.301 N 
ATOM     40  H9  UNL     1     -15.309   9.879   3.330  1.00  0.00     0.182 HD
BRANCH  39  41
HETATM   41  N10 UNL     1     -15.704   9.072   1.450  1.00  0.00    -0.139 NA
BRANCH  41  42
HETATM   42  C13 UNL     1     -17.015   8.683   1.942  1.00  0.00     0.162 C 
BRANCH  42  43
HETATM   43  C14 UNL     1     -16.906   7.724   3.129  1.00  0.00     0.247 C 
BRANCH  43  44
HETATM   44  N11 UNL     1     -17.544   8.325   4.297  1.00  0.00    -0.078 N 
ATOM     45 3H11 UNL     1     -16.939   8.312   5.118  1.00  0.00     0.274 HD
ATOM     46 2H11 UNL     1     -17.642   9.336   4.207  1.00  0.00     0.274 HD
ATOM     47 1H11 UNL     1     -18.438   7.864   4.468  1.00  0.00     0.274 HD
ENDBRANCH  43  44
ENDBRANCH  42  43
ENDBRANCH  41  42
ENDBRANCH  39  41
ENDBRANCH  32  39
ENDBRANCH   1  32
TORSDOF 12
ENDMDL
MODEL 2
REMARK VINA RESULT: -7.324066916      1.388      1.678
REMARK  12 active torsions:
REMARK  status: ('A' for Active; 'I' for Inactive)
REMARK    1  A    between atoms: C4_4  and  C5_5 
REMARK    2  A    between atoms: N1_7  and  C6_9 
REMARK    3  A    between atoms: N3_12  and  N4_13 
REMARK    4  A    between atoms: C9_22  and  N7_23 
REMARK    5  A    between atoms: N7_23  and  O1_25 
REMARK    6  A    between atoms: O1_25  and  C10_26 
REMARK    7  A    between atoms: C10_26  and  C12_29 
REMARK    8  A    between atoms: C12_29  and  N9_30 
REMARK    9  A    between atoms: N9_30  and  N10_32 
REMARK   10  A    between atoms: N10_32  and  C13_33 
REMARK   11  A    between atoms: C13_33  and  C14_34 
REMARK   12  A    between atoms: C14_34  and  N11_35 
ROOT
HETATM    1  C10 UNL     1     -13.394  10.942   2.669  1.00  0.00     0.313 C 
HETATM    2  C11 UNL     1     -12.602   9.730   3.069  1.00  0.00     0.100 C 
HETATM    3  N8  UNL     1     -11.990   8.811   3.396  1.00  0.00    -0.194 NA
ENDROOT
BRANCH   1   4
HETATM    4  O1  UNL     1     -12.808  11.732   1.814  1.00  0.00    -0.252 OA
BRANCH   4   5
HETATM    5  N7  UNL     1     -12.410  12.335   0.763  1.00  0.00    -0.246 N 
ATOM      6  H7  UNL     1     -11.688  13.038   0.914  1.00  0.00     0.196 HD
BRANCH   5   7
HETATM    7  C9  UNL     1     -12.786  12.186  -0.469  1.00  0.00     0.171 A 
HETATM    8  C6  UNL     1     -12.237  11.232  -1.207  1.00  0.00     0.124 A 
HETATM    9  C7  UNL     1     -12.613  11.093  -2.540  1.00  0.00     0.186 A 
HETATM   10  N2  UNL     1     -12.006  10.075  -3.312  1.00  0.00    -0.077 NA
HETATM   11  N3  UNL     1     -13.530  11.918  -3.072  1.00  0.00    -0.077 N 
HETATM   12  C8  UNL     1     -14.099  12.896  -2.320  1.00  0.00     0.700 A 
HETATM   13  N5  UNL     1     -14.952  13.681  -2.785  1.00  0.00    -0.233 N 
HETATM   14  N6  UNL     1     -13.716  13.022  -1.012  1.00  0.00    -0.171 N 
ATOM     15  H52 UNL     1     -15.238  13.587  -3.759  1.00  0.00     0.174 HD
ATOM     16  H51 UNL     1     -15.379  14.416  -2.220  1.00  0.00     0.174 HD
ATOM     17  H6  UNL     1     -14.134  13.751  -0.435  1.00  0.00     0.186 HD
BRANCH   8  18
HETATM   18  N1  UNL     1     -11.237  10.272  -0.703  1.00  0.00    -0.342 N 
HETATM   19  C5  UNL     1     -11.734   9.034  -0.495  1.00  0.00     0.110 C 
HETATM   20  S1  UNL     1      -9.846   8.347  -0.137  1.00  0.00    -0.030 SA
ATOM     21  H1  UNL     1     -10.263  10.519  -0.530  1.00  0.00     0.167 HD
BRANCH  19  22
HETATM   22  C4  UNL     1     -12.240   7.774  -0.283  1.00  0.00     0.091 A 
HETATM   23  C3  UNL     1     -12.738   6.955  -1.340  1.00  0.00     0.068 A 
HETATM   24  C2  UNL     1     -13.258   5.814  -0.785  1.00  0.00     0.074 A 
HETATM   25  C1  UNL     1     -13.896   4.678  -1.542  1.00  0.00     0.079 C 
HETATM   26  O3  UNL     1     -13.098   5.903   0.495  1.00  0.00    -0.242 OA
HETATM   27  N14 UNL     1     -12.514   7.025   0.803  1.00  0.00    -0.258 N 
ATOM     28  H14 UNL     1     -12.289   7.305   1.758  1.00  0.00     0.195 HD
ENDBRANCH  19  22
ENDBRANCH   8  18
BRANCH  11  29
HETATM   29  N4  UNL     1     -13.939  11.789  -4.390  1.00  0.00    -0.323 N 
ATOM     30  H42 UNL     1     -13.396  11.179  -5.002  1.00  0.00     0.178 HD
ATOM     31  H41 UNL     1     -14.748  12.296  -4.748  1.00  0.00     0.178 HD
ENDBRANCH  11  29
ENDBRANCH   5   7
ENDBRANCH   4   5
ENDBRANCH   1   4
BRANCH   1  32
HETATM   32  C12 UNL     1     -14.698  10.349   2.195  1.00  0.00     0.115 C 
HETATM   33  C15 UNL     1     -15.630  11.139   1.754  1.00  0.00     0.176 A 
HETATM   34  N12 UNL     1     -15.761  12.572   1.585  1.00  0.00    -0.222 N 
HETATM   35  N13 UNL     1     -16.954  11.093   1.254  1.00  0.00    -0.222 N 
HETATM   36  O2  UNL     1     -17.051  12.427   1.217  1.00  0.00    -0.153 OA
ATOM     37  H12 UNL     1     -15.133  13.367   1.697  1.00  0.00     0.198 HD
ATOM     38  H13 UNL     1     -17.590  10.333   1.014  1.00  0.00     0.198 HD
BRANCH  32  39
HETATM   39  N9  UNL     1     -14.878   8.953   2.257  1.00  0.00    -0.301 N 
ATOM     40  H9  UNL     1     -14.507   8.450   3.063  1.00  0.00     0.182 HD
BRANCH  39  41
HETATM   41  N10 UNL     1     -15.541   8.225   1.268  1.00  0.00    -0.139 NA
BRANCH  41  42
HETATM   42  C13 UNL     1     -16.736   7.661   1.871  1.00  0.00     0.162 C 
BRANCH  42  43
HETATM   43  C14 UNL     1     -16.574   7.494   3.383  1.00  0.00     0.247 C 
BRANCH  43  44
HETATM   44  N11 UNL     1     -17.512   8.379   4.070  1.00  0.00    -0.078 N 
ATOM     45 3H11 UNL     1     -17.711   9.224   3.534  1.00  0.00     0.274 HD
ATOM     46 2H11 UNL     1     -18.458   7.998   4.094  1.00  0.00     0.274 HD
ATOM     47 1H11 UNL     1     -17.156   8.589   5.003  1.00  0.00     0.274 HD
ENDBRANCH  43  44
ENDBRANCH  42  43
ENDBRANCH  41  42
ENDBRANCH  39  41
ENDBRANCH  32  39
ENDBRANCH   1  32
TORSDOF 12
ENDMDL
MODEL 3
REMARK VINA RESULT: -7.221379002      2.350      4.968
REMARK  12 active torsions:
REMARK  status: ('A' for Active; 'I' for Inactive)
REMARK    1  A    between atoms: C4_4  and  C5_5 
REMARK    2  A    between atoms: N1_7  and  C6_9 
REMARK    3  A    between atoms: N3_12  and  N4_13 
REMARK    4  A    between atoms: C9_22  and  N7_23 
REMARK    5  A    between atoms: N7_23  and  O1_25 
REMARK    6  A    between atoms: O1_25  and  C10_26 
REMARK    7  A    between atoms: C10_26  and  C12_29 
REMARK    8  A    between atoms: C12_29  and  N9_30 
REMARK    9  A    between atoms: N9_30  and  N10_32 
REMARK   10  A    between atoms: N10_32  and  C13_33 
REMARK   11  A    between atoms: C13_33  and  C14_34 
REMARK   12  A    between atoms: C14_34  and  N11_35 
ROOT
HETATM    1  C10 UNL     1     -13.433   7.759   2.066  1.00  0.00     0.313 C 
HETATM    2  C11 UNL     1     -12.469   7.076   1.138  1.00  0.00     0.100 C 
HETATM    3  N8  UNL     1     -11.721   6.541   0.445  1.00  0.00    -0.194 NA
ENDROOT
BRANCH   1   4
HETATM    4  O1  UNL     1     -13.142   8.995   2.360  1.00  0.00    -0.252 OA
BRANCH   4   5
HETATM    5  N7  UNL     1     -13.104  10.267   2.444  1.00  0.00    -0.246 N 
ATOM      6  H7  UNL     1     -12.584  10.633   3.241  1.00  0.00     0.196 HD
BRANCH   5   7
HETATM    7  C9  UNL     1     -13.627  11.164   1.667  1.00  0.00     0.171 A 
HETATM    8  C6  UNL     1     -12.938  11.604   0.625  1.00  0.00     0.124 A 
HETATM    9  C7  UNL     1     -13.482  12.593  -0.190  1.00  0.00     0.186 A 
HETATM   10  N2  UNL     1     -12.724  13.056  -1.291  1.00  0.00    -0.077 NA
HETATM   11  N3  UNL     1     -14.700  13.092   0.076  1.00  0.00    -0.077 N 
HETATM   12  C8  UNL     1     -15.413  12.643   1.142  1.00  0.00     0.700 A 
HETATM   13  N5  UNL     1     -16.547  13.088   1.420  1.00  0.00    -0.233 N 
HETATM   14  N6  UNL     1     -14.863  11.673   1.936  1.00  0.00    -0.171 N 
ATOM     15  H52 UNL     1     -16.957  13.810   0.828  1.00  0.00     0.174 HD
ATOM     16  H51 UNL     1     -17.082  12.751   2.220  1.00  0.00     0.174 HD
ATOM     17  H6  UNL     1     -15.385  11.325   2.740  1.00  0.00     0.186 HD
BRANCH   8  18
HETATM   18  N1  UNL     1     -11.603  11.102   0.246  1.00  0.00    -0.342 N 
HETATM   19  C5  UNL     1     -11.616  10.301  -0.840  1.00  0.00     0.110 C 
HETATM   20  S1  UNL     1      -9.575  10.299  -0.850  1.00  0.00    -0.030 SA
ATOM     21  H1  UNL     1     -10.752  11.339   0.756  1.00  0.00     0.167 HD
BRANCH  19  22
HETATM   22  C4  UNL     1     -11.629   9.485  -1.946  1.00  0.00     0.091 A 
HETATM   23  C3  UNL     1     -11.928   9.966  -3.256  1.00  0.00     0.068 A 
HETATM   24  C2  UNL     1     -11.957   8.892  -4.107  1.00  0.00     0.074 A 
HETATM   25  C1  UNL     1     -12.243   8.947  -5.586  1.00  0.00     0.079 C 
HETATM   26  O3  UNL     1     -11.696   7.839  -3.404  1.00  0.00    -0.242 OA
HETATM   27  N14 UNL     1     -11.505   8.160  -2.157  1.00  0.00    -0.258 N 
ATOM     28  H14 UNL     1     -11.286   7.486  -1.424  1.00  0.00     0.195 HD
ENDBRANCH  19  22
ENDBRANCH   8  18
BRANCH  11  29
HETATM   29  N4  UNL     1     -15.275  14.062  -0.730  1.00  0.00    -0.323 N 
ATOM     30  H42 UNL     1     -15.288  13.901  -1.737  1.00  0.00     0.178 HD
ATOM     31  H41 UNL     1     -15.664  14.919  -0.336  1.00  0.00     0.178 HD
ENDBRANCH  11  29
ENDBRANCH   5   7
ENDBRANCH   4   5
ENDBRANCH   1   4
BRANCH   1  32
HETATM   32  C12 UNL     1     -14.759   7.566   1.374  1.00  0.00     0.115 C 
HETATM   33  C15 UNL     1     -15.848   7.939   1.975  1.00  0.00     0.176 A 
HETATM   34  N12 UNL     1     -16.154   8.545   3.256  1.00  0.00    -0.222 N 
HETATM   35  N13 UNL     1     -17.251   7.952   1.785  1.00  0.00    -0.222 N 
HETATM   36  O2  UNL     1     -17.476   8.417   3.019  1.00  0.00    -0.153 OA
ATOM     37  H12 UNL     1     -15.596   8.917   4.024  1.00  0.00     0.198 HD
ATOM     38  H13 UNL     1     -17.859   7.703   1.004  1.00  0.00     0.198 HD
BRANCH  32  39
HETATM   39  N9  UNL     1     -14.785   6.971   0.097  1.00  0.00    -0.301 N 
ATOM     40  H9  UNL     1     -13.901   6.832  -0.393  1.00  0.00     0.182 HD
BRANCH  39  41
HETATM   41  N10 UNL     1     -15.963   6.562  -0.530  1.00  0.00    -0.139 NA
BRANCH  41  42
HETATM   42  C13 UNL     1     -15.717   5.249  -1.103  1.00  0.00     0.162 C 
BRANCH  42  43
HETATM   43  C14 UNL     1     -14.260   5.096  -1.544  1.00  0.00     0.247 C 
BRANCH  43  44
HETATM   44  N11 UNL     1     -13.616   4.063  -0.736  1.00  0.00    -0.078 N 
ATOM     45 3H11 UNL     1     -14.108   3.896   0.142  1.00  0.00     0.274 HD
ATOM     46 2H11 UNL     1     -13.724   3.133  -1.141  1.00  0.00     0.274 HD
ATOM     47 1H11 UNL     1     -12.637   4.310  -0.590  1.00  0.00     0.274 HD
ENDBRANCH  43  44
ENDBRANCH  42  43
ENDBRANCH  41  42
ENDBRANCH  39  41
ENDBRANCH  32  39
ENDBRANCH   1  32
TORSDOF 12
ENDMDL
MODEL 4
REMARK VINA RESULT: -7.139689117      1.497      1.645
REMARK  12 active torsions:
REMARK  status: ('A' for Active; 'I' for Inactive)
REMARK    1  A    between atoms: C4_4  and  C5_5 
REMARK    2  A    between atoms: N1_7  and  C6_9 
REMARK    3  A    between atoms: N3_12  and  N4_13 
REMARK    4  A    between atoms: C9_22  and  N7_23 
REMARK    5  A    between atoms: N7_23  and  O1_25 
REMARK    6  A    between atoms: O1_25  and  C10_26 
REMARK    7  A    between atoms: C10_26  and  C12_29 
REMARK    8  A    between atoms: C12_29  and  N9_30 
REMARK    9  A    between atoms: N9_30  and  N10_32 
REMARK   10  A    between atoms: N10_32  and  C13_33 
REMARK   11  A    between atoms: C13_33  and  C14_34 
REMARK   12  A    between atoms: C14_34  and  N11_35 
ROOT
HETATM    1  C10 UNL     1     -13.113  11.420   1.989  1.00  0.00     0.313 C 
HETATM    2  C11 UNL     1     -12.760  10.087   2.586  1.00  0.00     0.100 C 
HETATM    3  N8  UNL     1     -12.480   9.077   3.061  1.00  0.00    -0.194 NA
ENDROOT
BRANCH   1   4
HETATM    4  O1  UNL     1     -12.375  11.791   0.980  1.00  0.00    -0.252 OA
BRANCH   4   5
HETATM    5  N7  UNL     1     -11.942  12.186  -0.152  1.00  0.00    -0.246 N 
ATOM      6  H7  UNL     1     -11.476  13.093  -0.145  1.00  0.00     0.196 HD
BRANCH   5   7
HETATM    7  C9  UNL     1     -12.006  11.607  -1.311  1.00  0.00     0.171 A 
HETATM    8  C6  UNL     1     -11.017  10.814  -1.697  1.00  0.00     0.124 A 
HETATM    9  C7  UNL     1     -11.065  10.220  -2.955  1.00  0.00     0.186 A 
HETATM   10  N2  UNL     1      -9.994   9.386  -3.351  1.00  0.00    -0.077 NA
HETATM   11  N3  UNL     1     -12.111  10.444  -3.768  1.00  0.00    -0.077 N 
HETATM   12  C8  UNL     1     -13.130  11.253  -3.376  1.00  0.00     0.700 A 
HETATM   13  N5  UNL     1     -14.115  11.485  -4.108  1.00  0.00    -0.233 N 
HETATM   14  N6  UNL     1     -13.066  11.833  -2.138  1.00  0.00    -0.171 N 
ATOM     15  H52 UNL     1     -14.162  11.052  -5.030  1.00  0.00     0.174 HD
ATOM     16  H51 UNL     1     -14.879  12.093  -3.814  1.00  0.00     0.174 HD
ATOM     17  H6  UNL     1     -13.822  12.443  -1.829  1.00  0.00     0.186 HD
BRANCH   8  18
HETATM   18  N1  UNL     1      -9.840  10.497  -0.866  1.00  0.00    -0.342 N 
HETATM   19  C5  UNL     1      -9.965   9.348  -0.169  1.00  0.00     0.110 C 
HETATM   20  S1  UNL     1      -8.012   9.495   0.404  1.00  0.00    -0.030 SA
ATOM     21  H1  UNL     1      -9.011  11.089  -0.823  1.00  0.00     0.167 HD
BRANCH  19  22
HETATM   22  C4  UNL     1     -10.092   8.178   0.541  1.00  0.00     0.091 A 
HETATM   23  C3  UNL     1     -10.515   6.954  -0.059  1.00  0.00     0.068 A 
HETATM   24  C2  UNL     1     -10.635   6.014   0.932  1.00  0.00     0.074 A 
HETATM   25  C1  UNL     1     -11.065   4.582   0.740  1.00  0.00     0.079 C 
HETATM   26  O3  UNL     1     -10.314   6.588   2.045  1.00  0.00    -0.242 OA
HETATM   27  N14 UNL     1      -9.999   7.833   1.840  1.00  0.00    -0.258 N 
ATOM     28  H14 UNL     1      -9.713   8.476   2.579  1.00  0.00     0.195 HD
ENDBRANCH  19  22
ENDBRANCH   8  18
BRANCH  11  29
HETATM   29  N4  UNL     1     -12.196   9.848  -5.016  1.00  0.00    -0.323 N 
ATOM     30  H42 UNL     1     -12.980   9.222  -5.196  1.00  0.00     0.178 HD
ATOM     31  H41 UNL     1     -11.491  10.017  -5.735  1.00  0.00     0.178 HD
ENDBRANCH  11  29
ENDBRANCH   5   7
ENDBRANCH   4   5
ENDBRANCH   1   4
BRANCH   1  32
HETATM   32  C12 UNL     1     -14.582  11.271   1.680  1.00  0.00     0.115 C 
HETATM   33  C15 UNL     1     -15.233  12.284   1.194  1.00  0.00     0.176 A 
HETATM   34  N12 UNL     1     -14.890  13.646   0.841  1.00  0.00    -0.222 N 
HETATM   35  N13 UNL     1     -16.540  12.648   0.786  1.00  0.00    -0.222 N 
HETATM   36  O2  UNL     1     -16.184  13.921   0.576  1.00  0.00    -0.153 OA
ATOM     37  H12 UNL     1     -14.023  14.181   0.806  1.00  0.00     0.198 HD
ATOM     38  H13 UNL     1     -17.416  12.136   0.690  1.00  0.00     0.198 HD
BRANCH  32  39
HETATM   39  N9  UNL     1     -15.215  10.039   1.941  1.00  0.00    -0.301 N 
ATOM     40  H9  UNL     1     -14.699   9.327   2.457  1.00  0.00     0.182 HD
BRANCH  39  41
HETATM   41  N10 UNL     1     -16.515   9.748   1.526  1.00  0.00    -0.139 NA
BRANCH  41  42
HETATM   42  C13 UNL     1     -16.718   8.320   1.705  1.00  0.00     0.162 C 
BRANCH  42  43
HETATM   43  C14 UNL     1     -16.386   7.882   3.132  1.00  0.00     0.247 C 
BRANCH  43  44
HETATM   44  N11 UNL     1     -17.450   8.322   4.033  1.00  0.00    -0.078 N 
ATOM     45 3H11 UNL     1     -17.278   9.254   4.409  1.00  0.00     0.274 HD
ATOM     46 2H11 UNL     1     -18.317   8.525   3.536  1.00  0.00     0.274 HD
ATOM     47 1H11 UNL     1     -17.579   7.626   4.767  1.00  0.00     0.274 HD
ENDBRANCH  43  44
ENDBRANCH  42  43
ENDBRANCH  41  42
ENDBRANCH  39  41
ENDBRANCH  32  39
ENDBRANCH   1  32
TORSDOF 12
ENDMDL
MODEL 5
REMARK VINA RESULT: -7.042525776      2.426      5.293
REMARK  12 active torsions:
REMARK  status: ('A' for Active; 'I' for Inactive)
REMARK    1  A    between atoms: C4_4  and  C5_5 
REMARK    2  A    between atoms: N1_7  and  C6_9 
REMARK    3  A    between atoms: N3_12  and  N4_13 
REMARK    4  A    between atoms: C9_22  and  N7_23 
REMARK    5  A    between atoms: N7_23  and  O1_25 
REMARK    6  A    between atoms: O1_25  and  C10_26 
REMARK    7  A    between atoms: C10_26  and  C12_29 
REMARK    8  A    between atoms: C12_29  and  N9_30 
REMARK    9  A    between atoms: N9_30  and  N10_32 
REMARK   10  A    between atoms: N10_32  and  C13_33 
REMARK   11  A    between atoms: C13_33  and  C14_34 
REMARK   12  A    between atoms: C14_34  and  N11_35 
ROOT
HETATM    1  C10 UNL     1     -12.309  12.006  -0.647  1.00  0.00     0.313 C 
HETATM    2  C11 UNL     1     -12.197  13.165   0.302  1.00  0.00     0.100 C 
HETATM    3  N8  UNL     1     -12.088  14.052   1.028  1.00  0.00    -0.194 NA
ENDROOT
BRANCH   1   4
HETATM    4  O1  UNL     1     -12.595  10.860  -0.095  1.00  0.00    -0.252 OA
BRANCH   4   5
HETATM    5  N7  UNL     1     -12.599   9.797   0.609  1.00  0.00    -0.246 N 
ATOM      6  H7  UNL     1     -11.685   9.371   0.756  1.00  0.00     0.196 HD
BRANCH   5   7
HETATM    7  C9  UNL     1     -13.593   9.176   1.165  1.00  0.00     0.171 A 
HETATM    8  C6  UNL     1     -13.482   7.885   1.440  1.00  0.00     0.124 A 
HETATM    9  C7  UNL     1     -14.560   7.208   2.004  1.00  0.00     0.186 A 
HETATM   10  N2  UNL     1     -14.424   5.828   2.278  1.00  0.00    -0.077 NA
HETATM   11  N3  UNL     1     -15.702   7.862   2.274  1.00  0.00    -0.077 N 
HETATM   12  C8  UNL     1     -15.821   9.188   1.998  1.00  0.00     0.700 A 
HETATM   13  N5  UNL     1     -16.869   9.825   2.233  1.00  0.00    -0.233 N 
HETATM   14  N6  UNL     1     -14.754   9.838   1.440  1.00  0.00    -0.171 N 
ATOM     15  H52 UNL     1     -17.664   9.340   2.649  1.00  0.00     0.174 HD
ATOM     16  H51 UNL     1     -16.958  10.820   2.025  1.00  0.00     0.174 HD
ATOM     17  H6  UNL     1     -14.827  10.833   1.226  1.00  0.00     0.186 HD
BRANCH   8  18
HETATM   18  N1  UNL     1     -12.264   7.091   1.195  1.00  0.00    -0.342 N 
HETATM   19  C5  UNL     1     -12.100   6.740  -0.099  1.00  0.00     0.110 C 
HETATM   20  S1  UNL     1     -10.245   6.013   0.345  1.00  0.00    -0.030 SA
ATOM     21  H1  UNL     1     -11.609   6.831   1.931  1.00  0.00     0.167 HD
BRANCH  19  22
HETATM   22  C4  UNL     1     -11.932   6.383  -1.415  1.00  0.00     0.091 A 
HETATM   23  C3  UNL     1     -11.608   7.327  -2.435  1.00  0.00     0.068 A 
HETATM   24  C2  UNL     1     -11.613   6.671  -3.639  1.00  0.00     0.074 A 
HETATM   25  C1  UNL     1     -11.330   7.293  -4.983  1.00  0.00     0.079 C 
HETATM   26  O3  UNL     1     -11.906   5.434  -3.400  1.00  0.00    -0.242 OA
HETATM   27  N14 UNL     1     -12.093   5.249  -2.126  1.00  0.00    -0.258 N 
ATOM     28  H14 UNL     1     -12.334   4.348  -1.712  1.00  0.00     0.195 HD
ENDBRANCH  19  22
ENDBRANCH   8  18
BRANCH  11  29
HETATM   29  N4  UNL     1     -16.783   7.219   2.855  1.00  0.00    -0.323 N 
ATOM     30  H42 UNL     1     -17.688   7.288   2.389  1.00  0.00     0.178 HD
ATOM     31  H41 UNL     1     -16.687   6.701   3.729  1.00  0.00     0.178 HD
ENDBRANCH  11  29
ENDBRANCH   5   7
ENDBRANCH   4   5
ENDBRANCH   1   4
BRANCH   1  32
HETATM   32  C12 UNL     1     -13.318  12.494  -1.656  1.00  0.00     0.115 C 
HETATM   33  C15 UNL     1     -13.465  11.846  -2.771  1.00  0.00     0.176 A 
HETATM   34  N12 UNL     1     -12.856  10.669  -3.358  1.00  0.00    -0.222 N 
HETATM   35  N13 UNL     1     -14.204  11.901  -3.978  1.00  0.00    -0.222 N 
HETATM   36  O2  UNL     1     -13.534  10.871  -4.507  1.00  0.00    -0.153 OA
ATOM     37  H12 UNL     1     -12.187   9.971  -3.034  1.00  0.00     0.198 HD
ATOM     38  H13 UNL     1     -14.959  12.498  -4.315  1.00  0.00     0.198 HD
BRANCH  32  39
HETATM   39  N9  UNL     1     -14.067  13.653  -1.369  1.00  0.00    -0.301 N 
ATOM     40  H9  UNL     1     -13.571  14.537  -1.255  1.00  0.00     0.182 HD
BRANCH  39  41
HETATM   41  N10 UNL     1     -15.456  13.649  -1.234  1.00  0.00    -0.139 NA
BRANCH  41  42
HETATM   42  C13 UNL     1     -15.754  13.719   0.186  1.00  0.00     0.162 C 
BRANCH  42  43
HETATM   43  C14 UNL     1     -16.317  15.088   0.573  1.00  0.00     0.247 C 
BRANCH  43  44
HETATM   44  N11 UNL     1     -16.790  15.773  -0.628  1.00  0.00    -0.078 N 
ATOM     45 3H11 UNL     1     -16.124  16.469  -0.964  1.00  0.00     0.274 HD
ATOM     46 2H11 UNL     1     -16.787  15.164  -1.447  1.00  0.00     0.274 HD
ATOM     47 1H11 UNL     1     -17.711  16.173  -0.448  1.00  0.00     0.274 HD
ENDBRANCH  43  44
ENDBRANCH  42  43
ENDBRANCH  41  42
ENDBRANCH  39  41
ENDBRANCH  32  39
ENDBRANCH   1  32
TORSDOF 12
ENDMDL
