MODEL 1
REMARK VINA RESULT: -7.591135196      0.000      0.000
REMARK  13 active torsions:
REMARK  status: ('A' for Active; 'I' for Inactive)
REMARK    1  A    between atoms: N7_23  and  C8_25 
REMARK    2  A    between atoms: C8_25  and  O2_26 
REMARK    3  A    between atoms: C8_25  and  C9_28 
REMARK    4  A    between atoms: C11_30  and  O3_31 
REMARK    5  A    between atoms: N8_33  and  C12_34 
REMARK    6  A    between atoms: C12_34  and  C13_35 
REMARK    7  A    between atoms: C13_35  and  N9_36 
REMARK    8  A    between atoms: N9_36  and  C14_39 
REMARK    9  A    between atoms: C14_39  and  C15_40 
REMARK   10  A    between atoms: C15_40  and  N10_41 
REMARK   11  A    between atoms: N10_41  and  C16_44 
REMARK   12  A    between atoms: C16_44  and  N11_45 
REMARK   13  A    between atoms: C16_44  and  O4_49 
ROOT
HETATM    1  C8  UNL     1     -12.484  13.736   1.261  1.00  0.00     0.287 C 
ENDROOT
BRANCH   1   2
HETATM    2  N7  UNL     1     -11.355  13.295   0.556  1.00  0.00    -0.194 N 
HETATM    3  C7  UNL     1     -11.311  12.565  -0.549  1.00  0.00     0.677 C 
HETATM    4  N6  UNL     1     -12.542  12.179  -1.094  1.00  0.00    -0.225 N 
HETATM    5  N13 UNL     1     -10.012  12.292  -1.003  1.00  0.00    -0.180 N 
HETATM    6  C6  UNL     1     -12.986  12.351  -2.491  1.00  0.00     0.165 C 
ATOM      7  H6  UNL     1     -13.202  11.732  -0.457  1.00  0.00     0.177 HD
HETATM    8  C5  UNL     1     -12.450  11.194  -3.288  1.00  0.00     0.253 C 
HETATM    9  N5  UNL     1     -13.125  10.838  -4.477  1.00  0.00    -0.065 N 
HETATM   10  C4  UNL     1     -12.890   9.437  -4.768  1.00  0.00     0.336 C 
ATOM     11  H52 UNL     1     -12.871  11.442  -5.260  1.00  0.00     0.277 HD
ATOM     12  H51 UNL     1     -14.119  11.062  -4.437  1.00  0.00     0.277 HD
HETATM   13  C3  UNL     1     -11.420   9.079  -4.753  1.00  0.00     0.262 C 
HETATM   14  N4  UNL     1     -10.640   9.101  -3.632  1.00  0.00    -0.254 N 
HETATM   15  O1  UNL     1     -10.981   8.752  -5.909  1.00  0.00    -0.270 OA
HETATM   16  N3  UNL     1     -10.307   8.344  -2.723  1.00  0.00    -0.244 N 
ATOM     17  H4  UNL     1     -10.205  10.016  -3.515  1.00  0.00     0.191 HD
HETATM   18  N2  UNL     1      -9.462   8.654  -1.663  1.00  0.00    -0.315 N 
ATOM     19  H3  UNL     1     -10.688   7.398  -2.749  1.00  0.00     0.208 HD
HETATM   20  C2  UNL     1      -9.683   9.742  -0.740  1.00  0.00     0.217 C 
ATOM     21  H2  UNL     1      -8.632   8.076  -1.529  1.00  0.00     0.182 HD
HETATM   22  C1  UNL     1      -9.357  11.075  -1.292  1.00  0.00     0.110 C 
HETATM   23  N1  UNL     1      -8.342  11.042  -2.128  1.00  0.00    -0.387 N 
ATOM     24  H12 UNL     1      -7.869  10.163  -2.337  1.00  0.00     0.157 HD
ATOM     25  H11 UNL     1      -8.116  11.962  -2.508  1.00  0.00     0.157 HD
ATOM     26  H13 UNL     1      -9.438  13.121  -1.151  1.00  0.00     0.185 HD
ATOM     27  H7  UNL     1     -10.452  13.571   0.944  1.00  0.00     0.180 HD
ENDBRANCH   1   2
BRANCH   1  28
HETATM   28  O2  UNL     1     -13.247  14.556   0.412  1.00  0.00    -0.370 OA
ATOM     29  H2  UNL     1     -14.135  14.593   0.747  1.00  0.00     0.212 HD
ENDBRANCH   1  28
BRANCH   1  30
HETATM   30  C9  UNL     1     -13.331  12.559   1.644  1.00  0.00     0.079 A 
HETATM   31  C10 UNL     1     -14.673  12.391   1.389  1.00  0.00     0.088 A 
HETATM   32  C11 UNL     1     -15.074  11.165   1.900  1.00  0.00     0.159 A 
HETATM   33  N8  UNL     1     -13.997  10.605   2.452  1.00  0.00    -0.269 N 
HETATM   34  N12 UNL     1     -12.956  11.450   2.292  1.00  0.00    -0.296 N 
ATOM     35  H12 UNL     1     -12.008  11.266   2.623  1.00  0.00     0.187 HD
BRANCH  32  36
HETATM   36  O3  UNL     1     -16.381  10.738   1.782  1.00  0.00    -0.345 OA
ATOM     37  H3  UNL     1     -17.083  11.167   2.258  1.00  0.00     0.219 HD
ENDBRANCH  32  36
BRANCH  33  38
HETATM   38  C12 UNL     1     -13.956   9.326   3.116  1.00  0.00     0.179 C 
BRANCH  38  39
HETATM   39  C13 UNL     1     -13.472   8.190   2.290  1.00  0.00     0.254 C 
BRANCH  39  40
HETATM   40  N9  UNL     1     -14.185   7.873   1.108  1.00  0.00    -0.072 N 
ATOM     41  H92 UNL     1     -14.643   8.705   0.736  1.00  0.00     0.277 HD
ATOM     42  H91 UNL     1     -13.538   7.673   0.345  1.00  0.00     0.277 HD
BRANCH  40  43
HETATM   43  C14 UNL     1     -15.140   6.795   1.258  1.00  0.00     0.260 C 
BRANCH  43  44
HETATM   44  C15 UNL     1     -16.533   7.372   1.130  1.00  0.00     0.265 C 
BRANCH  44  45
HETATM   45  N10 UNL     1     -17.359   7.006   2.260  1.00  0.00    -0.022 N 
ATOM     46 2H10 UNL     1     -18.307   7.368   2.152  1.00  0.00     0.282 HD
ATOM     47 1H10 UNL     1     -17.562   6.006   2.256  1.00  0.00     0.282 HD
BRANCH  45  48
HETATM   48  C16 UNL     1     -16.792   7.412   3.526  1.00  0.00     0.519 C 
BRANCH  48  49
HETATM   49  N11 UNL     1     -17.452   8.600   4.034  1.00  0.00    -0.027 N 
ATOM     50 3H11 UNL     1     -17.673   9.256   3.285  1.00  0.00     0.279 HD
ATOM     51 2H11 UNL     1     -18.401   8.398   4.349  1.00  0.00     0.279 HD
ATOM     52 1H11 UNL     1     -16.898   9.040   4.768  1.00  0.00     0.279 HD
ENDBRANCH  48  49
BRANCH  48  53
HETATM   53  O4  UNL     1     -16.982   6.383   4.439  1.00  0.00    -0.349 OA
ATOM     54  H4  UNL     1     -16.141   5.976   4.609  1.00  0.00     0.213 HD
ENDBRANCH  48  53
ENDBRANCH  45  48
ENDBRANCH  44  45
ENDBRANCH  43  44
ENDBRANCH  40  43
ENDBRANCH  39  40
ENDBRANCH  38  39
ENDBRANCH  33  38
ENDBRANCH   1  30
TORSDOF 13
ENDMDL
MODEL 2
REMARK VINA RESULT: -7.539453486      1.638      1.866
REMARK  13 active torsions:
REMARK  status: ('A' for Active; 'I' for Inactive)
REMARK    1  A    between atoms: N7_23  and  C8_25 
REMARK    2  A    between atoms: C8_25  and  O2_26 
REMARK    3  A    between atoms: C8_25  and  C9_28 
REMARK    4  A    between atoms: C11_30  and  O3_31 
REMARK    5  A    between atoms: N8_33  and  C12_34 
REMARK    6  A    between atoms: C12_34  and  C13_35 
REMARK    7  A    between atoms: C13_35  and  N9_36 
REMARK    8  A    between atoms: N9_36  and  C14_39 
REMARK    9  A    between atoms: C14_39  and  C15_40 
REMARK   10  A    between atoms: C15_40  and  N10_41 
REMARK   11  A    between atoms: N10_41  and  C16_44 
REMARK   12  A    between atoms: C16_44  and  N11_45 
REMARK   13  A    between atoms: C16_44  and  O4_49 
ROOT
HETATM    1  C8  UNL     1     -12.581  13.768   1.381  1.00  0.00     0.287 C 
ENDROOT
BRANCH   1   2
HETATM    2  N7  UNL     1     -11.446  13.326   0.688  1.00  0.00    -0.194 N 
HETATM    3  C7  UNL     1     -11.393  12.602  -0.422  1.00  0.00     0.677 C 
HETATM    4  N6  UNL     1     -12.618  12.226  -0.983  1.00  0.00    -0.225 N 
HETATM    5  N13 UNL     1     -10.089  12.326  -0.862  1.00  0.00    -0.180 N 
HETATM    6  C6  UNL     1     -13.045  12.408  -2.385  1.00  0.00     0.165 C 
ATOM      7  H6  UNL     1     -13.288  11.778  -0.357  1.00  0.00     0.177 HD
HETATM    8  C5  UNL     1     -12.506  11.253  -3.183  1.00  0.00     0.253 C 
HETATM    9  N5  UNL     1     -13.168  10.908  -4.382  1.00  0.00    -0.065 N 
HETATM   10  C4  UNL     1     -12.936   9.507  -4.678  1.00  0.00     0.336 C 
ATOM     11  H52 UNL     1     -12.902  11.516  -5.157  1.00  0.00     0.277 HD
ATOM     12  H51 UNL     1     -14.161  11.136  -4.352  1.00  0.00     0.277 HD
HETATM   13  C3  UNL     1     -11.468   9.143  -4.648  1.00  0.00     0.262 C 
HETATM   14  N4  UNL     1     -10.701   9.153  -3.518  1.00  0.00    -0.254 N 
HETATM   15  O1  UNL     1     -11.017   8.821  -5.801  1.00  0.00    -0.270 OA
HETATM   16  N3  UNL     1     -10.383   8.390  -2.610  1.00  0.00    -0.244 N 
ATOM     17  H4  UNL     1     -10.263  10.065  -3.390  1.00  0.00     0.191 HD
HETATM   18  N2  UNL     1      -9.548   8.689  -1.538  1.00  0.00    -0.315 N 
ATOM     19  H3  UNL     1     -10.768   7.446  -2.646  1.00  0.00     0.208 HD
HETATM   20  C2  UNL     1      -9.776   9.773  -0.611  1.00  0.00     0.217 C 
ATOM     21  H2  UNL     1      -8.724   8.107  -1.398  1.00  0.00     0.182 HD
HETATM   22  C1  UNL     1      -9.436  11.107  -1.150  1.00  0.00     0.110 C 
HETATM   23  N1  UNL     1      -8.411  11.075  -1.975  1.00  0.00    -0.387 N 
ATOM     24  H12 UNL     1      -7.940  10.194  -2.183  1.00  0.00     0.157 HD
ATOM     25  H11 UNL     1      -8.177  11.995  -2.347  1.00  0.00     0.157 HD
ATOM     26  H13 UNL     1      -9.509  13.153  -0.998  1.00  0.00     0.185 HD
ATOM     27  H7  UNL     1     -10.546  13.595   1.087  1.00  0.00     0.180 HD
ENDBRANCH   1   2
BRANCH   1  28
HETATM   28  O2  UNL     1     -13.448  14.390   0.467  1.00  0.00    -0.370 OA
ATOM     29  H2  UNL     1     -14.241  14.639   0.926  1.00  0.00     0.212 HD
ENDBRANCH   1  28
BRANCH   1  30
HETATM   30  C9  UNL     1     -13.302  12.592   1.970  1.00  0.00     0.079 A 
HETATM   31  C10 UNL     1     -13.218  12.138   3.266  1.00  0.00     0.088 A 
HETATM   32  C11 UNL     1     -14.046  11.034   3.407  1.00  0.00     0.159 A 
HETATM   33  N8  UNL     1     -14.617  10.825   2.220  1.00  0.00    -0.269 N 
HETATM   34  N12 UNL     1     -14.164  11.766   1.364  1.00  0.00    -0.296 N 
ATOM     35  H12 UNL     1     -14.442  11.839   0.386  1.00  0.00     0.187 HD
BRANCH  32  36
HETATM   36  O3  UNL     1     -14.157  10.375   4.614  1.00  0.00    -0.345 OA
ATOM     37  H3  UNL     1     -13.398  10.232   5.167  1.00  0.00     0.219 HD
ENDBRANCH  32  36
BRANCH  33  38
HETATM   38  C12 UNL     1     -15.547   9.769   1.902  1.00  0.00     0.179 C 
BRANCH  38  39
HETATM   39  C13 UNL     1     -15.022   8.387   2.047  1.00  0.00     0.254 C 
BRANCH  39  40
HETATM   40  N9  UNL     1     -15.330   7.678   3.233  1.00  0.00    -0.072 N 
ATOM     41  H92 UNL     1     -14.957   6.730   3.188  1.00  0.00     0.277 HD
ATOM     42  H91 UNL     1     -14.788   8.042   4.017  1.00  0.00     0.277 HD
BRANCH  40  43
HETATM   43  C14 UNL     1     -16.740   7.650   3.562  1.00  0.00     0.260 C 
BRANCH  43  44
HETATM   44  C15 UNL     1     -17.108   6.237   3.961  1.00  0.00     0.265 C 
BRANCH  44  45
HETATM   45  N10 UNL     1     -17.203   6.105   5.399  1.00  0.00    -0.022 N 
ATOM     46 2H10 UNL     1     -16.363   5.672   5.782  1.00  0.00     0.282 HD
ATOM     47 1H10 UNL     1     -17.143   7.016   5.854  1.00  0.00     0.282 HD
BRANCH  45  48
HETATM   48  C16 UNL     1     -18.389   5.395   5.822  1.00  0.00     0.519 C 
BRANCH  48  49
HETATM   49  N11 UNL     1     -18.100   3.993   6.054  1.00  0.00    -0.027 N 
ATOM     50 3H11 UNL     1     -17.452   3.866   6.831  1.00  0.00     0.279 HD
ATOM     51 2H11 UNL     1     -18.906   3.502   6.441  1.00  0.00     0.279 HD
ATOM     52 1H11 UNL     1     -17.760   3.544   5.204  1.00  0.00     0.279 HD
ENDBRANCH  48  49
BRANCH  48  53
HETATM   53  O4  UNL     1     -18.830   5.953   7.014  1.00  0.00    -0.349 OA
ATOM     54  H4  UNL     1     -19.202   5.261   7.548  1.00  0.00     0.213 HD
ENDBRANCH  48  53
ENDBRANCH  45  48
ENDBRANCH  44  45
ENDBRANCH  43  44
ENDBRANCH  40  43
ENDBRANCH  39  40
ENDBRANCH  38  39
ENDBRANCH  33  38
ENDBRANCH   1  30
TORSDOF 13
ENDMDL
MODEL 3
REMARK VINA RESULT: -7.520647275      2.450      5.447
REMARK  13 active torsions:
REMARK  status: ('A' for Active; 'I' for Inactive)
REMARK    1  A    between atoms: N7_23  and  C8_25 
REMARK    2  A    between atoms: C8_25  and  O2_26 
REMARK    3  A    between atoms: C8_25  and  C9_28 
REMARK    4  A    between atoms: C11_30  and  O3_31 
REMARK    5  A    between atoms: N8_33  and  C12_34 
REMARK    6  A    between atoms: C12_34  and  C13_35 
REMARK    7  A    between atoms: C13_35  and  N9_36 
REMARK    8  A    between atoms: N9_36  and  C14_39 
REMARK    9  A    between atoms: C14_39  and  C15_40 
REMARK   10  A    between atoms: C15_40  and  N10_41 
REMARK   11  A    between atoms: N10_41  and  C16_44 
REMARK   12  A    between atoms: C16_44  and  N11_45 
REMARK   13  A    between atoms: C16_44  and  O4_49 
ROOT
HETATM    1  C8  UNL     1     -10.616   7.563   0.839  1.00  0.00     0.287 C 
ENDROOT
BRANCH   1   2
HETATM    2  N7  UNL     1     -10.412   8.930   0.605  1.00  0.00    -0.194 N 
HETATM    3  C7  UNL     1     -11.301   9.912   0.658  1.00  0.00     0.677 C 
HETATM    4  N6  UNL     1     -12.612   9.553   0.990  1.00  0.00    -0.225 N 
HETATM    5  N13 UNL     1     -10.771  11.179   0.366  1.00  0.00    -0.180 N 
HETATM    6  C6  UNL     1     -13.458  10.156   2.039  1.00  0.00     0.165 C 
ATOM      7  H6  UNL     1     -13.027   8.793   0.451  1.00  0.00     0.177 HD
HETATM    8  C5  UNL     1     -14.110  11.380   1.455  1.00  0.00     0.253 C 
HETATM    9  N5  UNL     1     -15.317  11.829   2.035  1.00  0.00    -0.065 N 
HETATM   10  C4  UNL     1     -16.082  12.569   1.049  1.00  0.00     0.336 C 
ATOM     11  H52 UNL     1     -15.159  12.369   2.885  1.00  0.00     0.277 HD
ATOM     12  H51 UNL     1     -15.855  11.065   2.445  1.00  0.00     0.277 HD
HETATM   13  C3  UNL     1     -15.269  13.655   0.379  1.00  0.00     0.262 C 
HETATM   14  N4  UNL     1     -14.210  13.415  -0.449  1.00  0.00    -0.254 N 
HETATM   15  O1  UNL     1     -15.682  14.830   0.672  1.00  0.00    -0.270 OA
HETATM   16  N3  UNL     1     -13.995  13.228  -1.644  1.00  0.00    -0.244 N 
ATOM     17  H4  UNL     1     -13.340  13.381   0.082  1.00  0.00     0.191 HD
HETATM   18  N2  UNL     1     -12.755  12.995  -2.230  1.00  0.00    -0.315 N 
ATOM     19  H3  UNL     1     -14.803  13.246  -2.266  1.00  0.00     0.208 HD
HETATM   20  C2  UNL     1     -11.869  11.919  -1.853  1.00  0.00     0.217 C 
ATOM     21  H2  UNL     1     -12.452  13.625  -2.972  1.00  0.00     0.182 HD
HETATM   22  C1  UNL     1     -11.143  12.152  -0.587  1.00  0.00     0.110 C 
HETATM   23  N1  UNL     1     -10.847  13.421  -0.399  1.00  0.00    -0.387 N 
ATOM     24  H12 UNL     1     -11.116  14.124  -1.087  1.00  0.00     0.157 HD
ATOM     25  H11 UNL     1     -10.345  13.582   0.475  1.00  0.00     0.157 HD
ATOM     26  H13 UNL     1      -9.975  11.443   0.946  1.00  0.00     0.185 HD
ATOM     27  H7  UNL     1      -9.460   9.204   0.362  1.00  0.00     0.180 HD
ENDBRANCH   1   2
BRANCH   1  28
HETATM   28  O2  UNL     1     -11.401   7.421   1.997  1.00  0.00    -0.370 OA
ATOM     29  H2  UNL     1     -11.539   6.495   2.155  1.00  0.00     0.212 HD
ENDBRANCH   1  28
BRANCH   1  30
HETATM   30  C9  UNL     1     -11.375   6.962  -0.306  1.00  0.00     0.079 A 
HETATM   31  C10 UNL     1     -11.047   7.034  -1.640  1.00  0.00     0.088 A 
HETATM   32  C11 UNL     1     -12.001   6.341  -2.372  1.00  0.00     0.159 A 
HETATM   33  N8  UNL     1     -12.886   5.863  -1.498  1.00  0.00    -0.269 N 
HETATM   34  N12 UNL     1     -12.501   6.241  -0.260  1.00  0.00    -0.296 N 
ATOM     35  H12 UNL     1     -13.003   6.007   0.597  1.00  0.00     0.187 HD
BRANCH  32  36
HETATM   36  O3  UNL     1     -11.916   6.249  -3.747  1.00  0.00    -0.345 OA
ATOM     37  H3  UNL     1     -12.683   6.365  -4.295  1.00  0.00     0.219 HD
ENDBRANCH  32  36
BRANCH  33  38
HETATM   38  C12 UNL     1     -14.059   5.088  -1.820  1.00  0.00     0.179 C 
BRANCH  38  39
HETATM   39  C13 UNL     1     -15.137   5.101  -0.797  1.00  0.00     0.254 C 
BRANCH  39  40
HETATM   40  N9  UNL     1     -15.942   6.261  -0.692  1.00  0.00    -0.072 N 
ATOM     41  H92 UNL     1     -15.437   7.078  -1.035  1.00  0.00     0.277 HD
ATOM     42  H91 UNL     1     -16.703   6.229  -1.370  1.00  0.00     0.277 HD
BRANCH  40  43
HETATM   43  C14 UNL     1     -16.460   6.510   0.638  1.00  0.00     0.260 C 
BRANCH  43  44
HETATM   44  C15 UNL     1     -15.401   7.247   1.430  1.00  0.00     0.265 C 
BRANCH  44  45
HETATM   45  N10 UNL     1     -15.824   7.465   2.797  1.00  0.00    -0.022 N 
ATOM     46 2H10 UNL     1     -15.847   6.586   3.315  1.00  0.00     0.282 HD
ATOM     47 1H10 UNL     1     -15.104   7.953   3.328  1.00  0.00     0.282 HD
BRANCH  45  48
HETATM   48  C16 UNL     1     -17.091   8.153   2.890  1.00  0.00     0.519 C 
BRANCH  48  49
HETATM   49  N11 UNL     1     -17.494   8.315   4.274  1.00  0.00    -0.027 N 
ATOM     50 3H11 UNL     1     -18.444   8.680   4.349  1.00  0.00     0.279 HD
ATOM     51 2H11 UNL     1     -17.636   7.415   4.733  1.00  0.00     0.279 HD
ATOM     52 1H11 UNL     1     -16.828   8.896   4.783  1.00  0.00     0.279 HD
ENDBRANCH  48  49
BRANCH  48  53
HETATM   53  O4  UNL     1     -16.945   9.414   2.328  1.00  0.00    -0.349 OA
ATOM     54  H4  UNL     1     -17.766   9.882   2.425  1.00  0.00     0.213 HD
ENDBRANCH  48  53
ENDBRANCH  45  48
ENDBRANCH  44  45
ENDBRANCH  43  44
ENDBRANCH  40  43
ENDBRANCH  39  40
ENDBRANCH  38  39
ENDBRANCH  33  38
ENDBRANCH   1  30
TORSDOF 13
ENDMDL
MODEL 4
REMARK VINA RESULT: -7.513413551      2.249      6.567
REMARK  13 active torsions:
REMARK  status: ('A' for Active; 'I' for Inactive)
REMARK    1  A    between atoms: N7_23  and  C8_25 
REMARK    2  A    between atoms: C8_25  and  O2_26 
REMARK    3  A    between atoms: C8_25  and  C9_28 
REMARK    4  A    between atoms: C11_30  and  O3_31 
REMARK    5  A    between atoms: N8_33  and  C12_34 
REMARK    6  A    between atoms: C12_34  and  C13_35 
REMARK    7  A    between atoms: C13_35  and  N9_36 
REMARK    8  A    between atoms: N9_36  and  C14_39 
REMARK    9  A    between atoms: C14_39  and  C15_40 
REMARK   10  A    between atoms: C15_40  and  N10_41 
REMARK   11  A    between atoms: N10_41  and  C16_44 
REMARK   12  A    between atoms: C16_44  and  N11_45 
REMARK   13  A    between atoms: C16_44  and  O4_49 
ROOT
HETATM    1  C8  UNL     1     -13.560  12.272   2.349  1.00  0.00     0.287 C 
ENDROOT
BRANCH   1   2
HETATM    2  N7  UNL     1     -14.332  11.213   2.847  1.00  0.00    -0.194 N 
HETATM    3  C7  UNL     1     -14.305   9.937   2.487  1.00  0.00     0.677 C 
HETATM    4  N6  UNL     1     -13.393   9.590   1.484  1.00  0.00    -0.225 N 
HETATM    5  N13 UNL     1     -15.213   9.127   3.185  1.00  0.00    -0.180 N 
HETATM    6  C6  UNL     1     -12.397   8.500   1.529  1.00  0.00     0.165 C 
ATOM      7  H6  UNL     1     -13.419  10.149   0.631  1.00  0.00     0.177 HD
HETATM    8  C5  UNL     1     -13.089   7.229   1.120  1.00  0.00     0.253 C 
HETATM    9  N5  UNL     1     -12.300   6.184   0.591  1.00  0.00    -0.065 N 
HETATM   10  C4  UNL     1     -13.115   5.348  -0.268  1.00  0.00     0.336 C 
ATOM     11  H52 UNL     1     -11.832   5.647   1.321  1.00  0.00     0.277 HD
ATOM     12  H51 UNL     1     -11.469   6.534   0.113  1.00  0.00     0.277 HD
HETATM   13  C3  UNL     1     -14.388   4.888   0.408  1.00  0.00     0.262 C 
HETATM   14  N4  UNL     1     -15.409   5.723   0.763  1.00  0.00    -0.254 N 
HETATM   15  O1  UNL     1     -14.408   3.625   0.612  1.00  0.00    -0.270 OA
HETATM   16  N3  UNL     1     -16.439   6.181   0.278  1.00  0.00    -0.244 N 
ATOM     17  H4  UNL     1     -15.276   6.068   1.714  1.00  0.00     0.191 HD
HETATM   18  N2  UNL     1     -17.325   7.054   0.902  1.00  0.00    -0.315 N 
ATOM     19  H3  UNL     1     -16.668   5.894  -0.674  1.00  0.00     0.208 HD
HETATM   20  C2  UNL     1     -16.952   8.339   1.443  1.00  0.00     0.217 C 
ATOM     21  H2  UNL     1     -18.301   6.767   0.982  1.00  0.00     0.182 HD
HETATM   22  C1  UNL     1     -16.235   8.263   2.734  1.00  0.00     0.110 C 
HETATM   23  N1  UNL     1     -16.648   7.264   3.484  1.00  0.00    -0.387 N 
ATOM     24  H12 UNL     1     -17.386   6.640   3.158  1.00  0.00     0.157 HD
ATOM     25  H11 UNL     1     -16.154   7.212   4.375  1.00  0.00     0.157 HD
ATOM     26  H13 UNL     1     -15.119   9.169   4.199  1.00  0.00     0.185 HD
ATOM     27  H7  UNL     1     -15.000  11.455   3.580  1.00  0.00     0.180 HD
ENDBRANCH   1   2
BRANCH   1  28
HETATM   28  O2  UNL     1     -12.236  11.824   2.195  1.00  0.00    -0.370 OA
ATOM     29  H2  UNL     1     -11.689  12.569   1.976  1.00  0.00     0.212 HD
ENDBRANCH   1  28
BRANCH   1  30
HETATM   30  C9  UNL     1     -14.068  12.674   0.996  1.00  0.00     0.079 A 
HETATM   31  C10 UNL     1     -15.081  13.566   0.729  1.00  0.00     0.088 A 
HETATM   32  C11 UNL     1     -15.236  13.665  -0.646  1.00  0.00     0.159 A 
HETATM   33  N8  UNL     1     -14.336  12.850  -1.197  1.00  0.00    -0.269 N 
HETATM   34  N12 UNL     1     -13.640  12.260  -0.201  1.00  0.00    -0.296 N 
ATOM     35  H12 UNL     1     -12.887  11.587  -0.345  1.00  0.00     0.187 HD
BRANCH  32  36
HETATM   36  O3  UNL     1     -16.188  14.498  -1.198  1.00  0.00    -0.345 OA
ATOM     37  H3  UNL     1     -16.842  14.164  -1.801  1.00  0.00     0.219 HD
ENDBRANCH  32  36
BRANCH  33  38
HETATM   38  C12 UNL     1     -14.149  12.626  -2.609  1.00  0.00     0.179 C 
BRANCH  38  39
HETATM   39  C13 UNL     1     -12.985  11.779  -2.975  1.00  0.00     0.254 C 
BRANCH  39  40
HETATM   40  N9  UNL     1     -13.238  10.488  -3.499  1.00  0.00    -0.072 N 
ATOM     41  H92 UNL     1     -14.116  10.121  -3.133  1.00  0.00     0.277 HD
ATOM     42  H91 UNL     1     -13.472  10.545  -4.490  1.00  0.00     0.277 HD
BRANCH  40  43
HETATM   43  C14 UNL     1     -12.166   9.537  -3.287  1.00  0.00     0.260 C 
BRANCH  43  44
HETATM   44  C15 UNL     1     -11.714   9.644  -1.847  1.00  0.00     0.265 C 
BRANCH  44  45
HETATM   45  N10 UNL     1     -10.277   9.798  -1.758  1.00  0.00    -0.022 N 
ATOM     46 2H10 UNL     1      -9.806   8.902  -1.888  1.00  0.00     0.282 HD
ATOM     47 1H10 UNL     1      -9.913  10.297  -2.569  1.00  0.00     0.282 HD
BRANCH  45  48
HETATM   48  C16 UNL     1      -9.854  10.430  -0.529  1.00  0.00     0.519 C 
BRANCH  48  49
HETATM   49  N11 UNL     1      -8.690  11.266  -0.749  1.00  0.00    -0.027 N 
ATOM     50 3H11 UNL     1      -8.717  11.715  -1.665  1.00  0.00     0.279 HD
ATOM     51 2H11 UNL     1      -8.712  12.103  -0.165  1.00  0.00     0.279 HD
ATOM     52 1H11 UNL     1      -7.829  10.737  -0.615  1.00  0.00     0.279 HD
ENDBRANCH  48  49
BRANCH  48  53
HETATM   53  O4  UNL     1     -10.890  11.235  -0.074  1.00  0.00    -0.349 OA
ATOM     54  H4  UNL     1     -10.536  12.094   0.123  1.00  0.00     0.213 HD
ENDBRANCH  48  53
ENDBRANCH  45  48
ENDBRANCH  44  45
ENDBRANCH  43  44
ENDBRANCH  40  43
ENDBRANCH  39  40
ENDBRANCH  38  39
ENDBRANCH  33  38
ENDBRANCH   1  30
TORSDOF 13
ENDMDL
MODEL 5
REMARK VINA RESULT: -7.488624440      2.331      6.592
REMARK  13 active torsions:
REMARK  status: ('A' for Active; 'I' for Inactive)
REMARK    1  A    between atoms: N7_23  and  C8_25 
REMARK    2  A    between atoms: C8_25  and  O2_26 
REMARK    3  A    between atoms: C8_25  and  C9_28 
REMARK    4  A    between atoms: C11_30  and  O3_31 
REMARK    5  A    between atoms: N8_33  and  C12_34 
REMARK    6  A    between atoms: C12_34  and  C13_35 
REMARK    7  A    between atoms: C13_35  and  N9_36 
REMARK    8  A    between atoms: N9_36  and  C14_39 
REMARK    9  A    between atoms: C14_39  and  C15_40 
REMARK   10  A    between atoms: C15_40  and  N10_41 
REMARK   11  A    between atoms: N10_41  and  C16_44 
REMARK   12  A    between atoms: C16_44  and  N11_45 
REMARK   13  A    between atoms: C16_44  and  O4_49 
ROOT
HETATM    1  C8  UNL     1     -13.515  12.170   2.281  1.00  0.00     0.287 C 
ENDROOT
BRANCH   1   2
HETATM    2  N7  UNL     1     -14.340  11.155   2.786  1.00  0.00    -0.194 N 
HETATM    3  C7  UNL     1     -14.347   9.868   2.466  1.00  0.00     0.677 C 
HETATM    4  N6  UNL     1     -13.417   9.457   1.504  1.00  0.00    -0.225 N 
HETATM    5  N13 UNL     1     -15.306   9.113   3.159  1.00  0.00    -0.180 N 
HETATM    6  C6  UNL     1     -12.463   8.336   1.615  1.00  0.00     0.165 C 
ATOM      7  H6  UNL     1     -13.396   9.989   0.634  1.00  0.00     0.177 HD
HETATM    8  C5  UNL     1     -13.187   7.077   1.224  1.00  0.00     0.253 C 
HETATM    9  N5  UNL     1     -12.419   5.989   0.753  1.00  0.00    -0.065 N 
HETATM   10  C4  UNL     1     -13.237   5.154  -0.106  1.00  0.00     0.336 C 
ATOM     11  H52 UNL     1     -11.995   5.459   1.514  1.00  0.00     0.277 HD
ATOM     12  H51 UNL     1     -11.563   6.294   0.292  1.00  0.00     0.277 HD
HETATM   13  C3  UNL     1     -14.547   4.761   0.542  1.00  0.00     0.262 C 
HETATM   14  N4  UNL     1     -15.547   5.642   0.838  1.00  0.00    -0.254 N 
HETATM   15  O1  UNL     1     -14.618   3.507   0.784  1.00  0.00    -0.270 OA
HETATM   16  N3  UNL     1     -16.545   6.120   0.306  1.00  0.00    -0.244 N 
ATOM     17  H4  UNL     1     -15.432   6.012   1.782  1.00  0.00     0.191 HD
HETATM   18  N2  UNL     1     -17.418   7.043   0.873  1.00  0.00    -0.315 N 
ATOM     19  H3  UNL     1     -16.753   5.811  -0.644  1.00  0.00     0.208 HD
HETATM   20  C2  UNL     1     -17.016   8.331   1.386  1.00  0.00     0.217 C 
ATOM     21  H2  UNL     1     -18.405   6.793   0.931  1.00  0.00     0.182 HD
HETATM   22  C1  UNL     1     -16.344   8.272   2.702  1.00  0.00     0.110 C 
HETATM   23  N1  UNL     1     -16.815   7.312   3.469  1.00  0.00    -0.387 N 
ATOM     24  H12 UNL     1     -17.564   6.704   3.138  1.00  0.00     0.157 HD
ATOM     25  H11 UNL     1     -16.351   7.271   4.377  1.00  0.00     0.157 HD
ATOM     26  H13 UNL     1     -15.242   9.184   4.173  1.00  0.00     0.185 HD
ATOM     27  H7  UNL     1     -15.021  11.443   3.488  1.00  0.00     0.180 HD
ENDBRANCH   1   2
BRANCH   1  28
HETATM   28  O2  UNL     1     -12.218  11.651   2.119  1.00  0.00    -0.370 OA
ATOM     29  H2  UNL     1     -11.798  12.109   1.401  1.00  0.00     0.212 HD
ENDBRANCH   1  28
BRANCH   1  30
HETATM   30  C9  UNL     1     -14.009  12.597   0.930  1.00  0.00     0.079 A 
HETATM   31  C10 UNL     1     -15.036  13.474   0.669  1.00  0.00     0.088 A 
HETATM   32  C11 UNL     1     -15.171  13.606  -0.706  1.00  0.00     0.159 A 
HETATM   33  N8  UNL     1     -14.245  12.824  -1.262  1.00  0.00    -0.269 N 
HETATM   34  N12 UNL     1     -13.553  12.223  -0.270  1.00  0.00    -0.296 N 
ATOM     35  H12 UNL     1     -12.783  11.570  -0.418  1.00  0.00     0.187 HD
BRANCH  32  36
HETATM   36  O3  UNL     1     -16.132  14.433  -1.252  1.00  0.00    -0.345 OA
ATOM     37  H3  UNL     1     -16.959  14.584  -0.809  1.00  0.00     0.219 HD
ENDBRANCH  32  36
BRANCH  33  38
HETATM   38  C12 UNL     1     -14.030  12.641  -2.676  1.00  0.00     0.179 C 
BRANCH  38  39
HETATM   39  C13 UNL     1     -13.045  11.592  -3.044  1.00  0.00     0.254 C 
BRANCH  39  40
HETATM   40  N9  UNL     1     -13.487  10.518  -3.855  1.00  0.00    -0.072 N 
ATOM     41  H92 UNL     1     -13.798   9.739  -3.275  1.00  0.00     0.277 HD
ATOM     42  H91 UNL     1     -14.366  10.756  -4.313  1.00  0.00     0.277 HD
BRANCH  40  43
HETATM   43  C14 UNL     1     -12.515  10.066  -4.829  1.00  0.00     0.260 C 
BRANCH  43  44
HETATM   44  C15 UNL     1     -11.297   9.559  -4.086  1.00  0.00     0.265 C 
BRANCH  44  45
HETATM   45  N10 UNL     1     -11.393   8.137  -3.831  1.00  0.00    -0.022 N 
ATOM     46 2H10 UNL     1     -12.091   7.704  -4.437  1.00  0.00     0.282 HD
ATOM     47 1H10 UNL     1     -10.560   7.650  -4.161  1.00  0.00     0.282 HD
BRANCH  45  48
HETATM   48  C16 UNL     1     -11.654   7.832  -2.443  1.00  0.00     0.519 C 
BRANCH  48  49
HETATM   49  N11 UNL     1     -11.059   8.826  -1.571  1.00  0.00    -0.027 N 
ATOM     50 3H11 UNL     1     -10.216   9.229  -1.980  1.00  0.00     0.279 HD
ATOM     51 2H11 UNL     1     -11.627   9.672  -1.523  1.00  0.00     0.279 HD
ATOM     52 1H11 UNL     1     -10.879   8.440  -0.645  1.00  0.00     0.279 HD
ENDBRANCH  48  49
BRANCH  48  53
HETATM   53  O4  UNL     1     -13.028   7.843  -2.244  1.00  0.00    -0.349 OA
ATOM     54  H4  UNL     1     -13.335   8.738  -2.335  1.00  0.00     0.213 HD
ENDBRANCH  48  53
ENDBRANCH  45  48
ENDBRANCH  44  45
ENDBRANCH  43  44
ENDBRANCH  40  43
ENDBRANCH  39  40
ENDBRANCH  38  39
ENDBRANCH  33  38
ENDBRANCH   1  30
TORSDOF 13
ENDMDL
