MODEL 1
REMARK VINA RESULT: -7.800595260      0.000      0.000
REMARK  15 active torsions:
REMARK  status: ('A' for Active; 'I' for Inactive)
REMARK    1  A    between atoms: N1_1  and  N2_4 
REMARK    2  A    between atoms: N2_4  and  C1_6 
REMARK    3  A    between atoms: C4_13  and  N5_14 
REMARK    4  A    between atoms: C5_19  and  N8_20 
REMARK    5  A    between atoms: C6_26  and  S1_27 
REMARK    6  A    between atoms: S1_27  and  C7_28 
REMARK    7  A    between atoms: C7_28  and  C8_29 
REMARK    8  A    between atoms: C8_29  and  C9_30 
REMARK    9  A    between atoms: C8_29  and  C10_33 
REMARK   10  A    between atoms: C9_30  and  O1_31 
REMARK   11  A    between atoms: C10_33  and  O2_34 
REMARK   12  A    between atoms: C10_33  and  C11_36 
REMARK   13  A    between atoms: C11_36  and  O3_37 
REMARK   14  A    between atoms: O3_37  and  S2_38 
REMARK   15  A    between atoms: C12_41  and  O6_42 
ROOT
HETATM    1  N5  UNL     1     -10.099  11.242  -0.633  1.00  0.00    -0.213 N 
HETATM    2  N6  UNL     1      -8.880  11.820  -0.868  1.00  0.00    -0.235 N 
ATOM      3  H6  UNL     1      -8.805  12.769  -1.234  1.00  0.00     0.208 HD
HETATM    4  N7  UNL     1      -7.768  11.075  -0.593  1.00  0.00    -0.275 N 
ATOM      5  H7  UNL     1      -6.852  11.377  -0.926  1.00  0.00     0.185 HD
HETATM    6  C5  UNL     1      -7.892   9.891   0.148  1.00  0.00     0.404 C 
HETATM    7  N9  UNL     1      -9.203   9.434   0.465  1.00  0.00    -0.325 N 
ATOM      8  H9  UNL     1      -9.292   8.571   1.001  1.00  0.00     0.165 HD
HETATM    9  C6  UNL     1     -10.283  10.041   0.115  1.00  0.00     0.166 C 
ENDROOT
BRANCH   1  10
HETATM   10  C4  UNL     1     -11.257  11.852  -1.177  1.00  0.00     0.140 A 
HETATM   11  C3  UNL     1     -11.988  11.370  -2.245  1.00  0.00     0.097 A 
HETATM   12  N4  UNL     1     -11.894  10.279  -3.049  1.00  0.00    -0.348 N 
HETATM   13  C13 UNL     1     -13.036  12.253  -2.479  1.00  0.00     0.109 A 
HETATM   14  C2  UNL     1     -12.783  10.043  -4.051  1.00  0.00     0.182 A 
ATOM     15  H4  UNL     1     -11.133   9.617  -2.896  1.00  0.00     0.167 HD
HETATM   16  N3  UNL     1     -13.785  10.905  -4.261  1.00  0.00    -0.336 N 
HETATM   17  C1  UNL     1     -13.933  12.009  -3.494  1.00  0.00     0.150 A 
ATOM     18  H3  UNL     1     -14.450  10.725  -5.013  1.00  0.00     0.168 HD
HETATM   19  N10 UNL     1     -12.926  13.241  -1.565  1.00  0.00    -0.330 N 
HETATM   20  C12 UNL     1     -11.851  13.014  -0.765  1.00  0.00     0.172 A 
ATOM     21  H10 UNL     1     -13.556  14.040  -1.487  1.00  0.00     0.168 HD
BRANCH  17  22
HETATM   22  N2  UNL     1     -14.893  12.817  -3.711  1.00  0.00    -0.290 N 
ATOM     23  H2  UNL     1     -14.773  13.785  -3.414  1.00  0.00     0.188 HD
BRANCH  22  24
HETATM   24  N1  UNL     1     -16.088  12.476  -4.322  1.00  0.00    -0.344 N 
ATOM     25  H12 UNL     1     -16.021  12.007  -5.225  1.00  0.00     0.176 HD
ATOM     26  H11 UNL     1     -17.013  12.662  -3.934  1.00  0.00     0.176 HD
ENDBRANCH  22  24
ENDBRANCH  17  22
BRANCH  20  27
HETATM   27  O6  UNL     1     -11.472  13.857   0.277  1.00  0.00    -0.344 OA
ATOM     28  H6  UNL     1     -11.493  14.807   0.305  1.00  0.00     0.219 HD
ENDBRANCH  20  27
ENDBRANCH   1  10
BRANCH   9  29
HETATM   29  S1  UNL     1     -11.930   9.493   0.505  1.00  0.00    -0.092 SA
BRANCH  29  30
HETATM   30  C7  UNL     1     -12.095   9.376   2.303  1.00  0.00     0.091 C 
BRANCH  30  31
HETATM   31  C8  UNL     1     -13.456   9.681   2.805  1.00  0.00     0.050 C 
BRANCH  31  32
HETATM   32  C9  UNL     1     -13.317  10.300   4.180  1.00  0.00     0.172 C 
BRANCH  32  33
HETATM   33  O1  UNL     1     -14.542  10.329   4.872  1.00  0.00    -0.400 OA
ATOM     34  H1  UNL     1     -14.745  11.197   5.200  1.00  0.00     0.209 HD
ENDBRANCH  32  33
ENDBRANCH  31  32
BRANCH  31  35
HETATM   35  C10 UNL     1     -14.264  10.480   1.851  1.00  0.00     0.150 C 
BRANCH  35  36
HETATM   36  O2  UNL     1     -15.592   9.945   1.877  1.00  0.00    -0.393 OA
ATOM     37  H2  UNL     1     -16.122  10.490   1.308  1.00  0.00     0.210 HD
ENDBRANCH  35  36
BRANCH  35  38
HETATM   38  C11 UNL     1     -14.315  11.951   2.058  1.00  0.00     0.223 C 
BRANCH  38  39
HETATM   39  O3  UNL     1     -14.288  12.693   0.890  1.00  0.00    -0.260 OA
BRANCH  39  40
HETATM   40  S2  UNL     1     -15.731  13.501   0.623  1.00  0.00     0.401 S 
HETATM   41  O4  UNL     1     -15.894  13.831  -0.852  1.00  0.00    -0.179 OA
HETATM   42  O5  UNL     1     -16.856  12.589   1.002  1.00  0.00    -0.179 OA
ENDBRANCH  39  40
ENDBRANCH  38  39
ENDBRANCH  35  38
ENDBRANCH  31  35
ENDBRANCH  30  31
ENDBRANCH  29  30
ENDBRANCH   9  29
BRANCH   6  43
HETATM   43  N8  UNL     1      -7.153   9.969   1.417  1.00  0.00    -0.039 N 
ATOM     44  H83 UNL     1      -6.552  10.793   1.449  1.00  0.00     0.279 HD
ATOM     45  H82 UNL     1      -7.771  10.195   2.196  1.00  0.00     0.279 HD
ATOM     46  H81 UNL     1      -6.624   9.115   1.595  1.00  0.00     0.279 HD
ENDBRANCH   6  43
TORSDOF 15
ENDMDL
MODEL 2
REMARK VINA RESULT: -7.506802050      1.651      2.422
REMARK  15 active torsions:
REMARK  status: ('A' for Active; 'I' for Inactive)
REMARK    1  A    between atoms: N1_1  and  N2_4 
REMARK    2  A    between atoms: N2_4  and  C1_6 
REMARK    3  A    between atoms: C4_13  and  N5_14 
REMARK    4  A    between atoms: C5_19  and  N8_20 
REMARK    5  A    between atoms: C6_26  and  S1_27 
REMARK    6  A    between atoms: S1_27  and  C7_28 
REMARK    7  A    between atoms: C7_28  and  C8_29 
REMARK    8  A    between atoms: C8_29  and  C9_30 
REMARK    9  A    between atoms: C8_29  and  C10_33 
REMARK   10  A    between atoms: C9_30  and  O1_31 
REMARK   11  A    between atoms: C10_33  and  O2_34 
REMARK   12  A    between atoms: C10_33  and  C11_36 
REMARK   13  A    between atoms: C11_36  and  O3_37 
REMARK   14  A    between atoms: O3_37  and  S2_38 
REMARK   15  A    between atoms: C12_41  and  O6_42 
ROOT
HETATM    1  N5  UNL     1     -10.070  11.209  -0.596  1.00  0.00    -0.213 N 
HETATM    2  N6  UNL     1      -8.870  11.838  -0.789  1.00  0.00    -0.235 N 
ATOM      3  H6  UNL     1      -8.823  12.802  -1.118  1.00  0.00     0.208 HD
HETATM    4  N7  UNL     1      -7.736  11.121  -0.524  1.00  0.00    -0.275 N 
ATOM      5  H7  UNL     1      -6.826  11.468  -0.830  1.00  0.00     0.185 HD
HETATM    6  C5  UNL     1      -7.830   9.907   0.171  1.00  0.00     0.404 C 
HETATM    7  N9  UNL     1      -9.128   9.392   0.448  1.00  0.00    -0.325 N 
ATOM      8  H9  UNL     1      -9.194   8.507   0.951  1.00  0.00     0.165 HD
HETATM    9  C6  UNL     1     -10.223   9.974   0.103  1.00  0.00     0.166 C 
ENDROOT
BRANCH   1  10
HETATM   10  C4  UNL     1     -11.241  11.798  -1.136  1.00  0.00     0.140 A 
HETATM   11  C3  UNL     1     -11.946  11.324  -2.225  1.00  0.00     0.097 A 
HETATM   12  N4  UNL     1     -11.809  10.260  -3.058  1.00  0.00    -0.348 N 
HETATM   13  C13 UNL     1     -13.017  12.181  -2.446  1.00  0.00     0.109 A 
HETATM   14  C2  UNL     1     -12.681  10.025  -4.076  1.00  0.00     0.182 A 
ATOM     15  H4  UNL     1     -11.030   9.617  -2.914  1.00  0.00     0.167 HD
HETATM   16  N3  UNL     1     -13.706  10.861  -4.273  1.00  0.00    -0.336 N 
HETATM   17  C1  UNL     1     -13.895  11.938  -3.479  1.00  0.00     0.150 A 
ATOM     18  H3  UNL     1     -14.358  10.682  -5.038  1.00  0.00     0.168 HD
HETATM   19  N10 UNL     1     -12.947  13.146  -1.505  1.00  0.00    -0.330 N 
HETATM   20  C12 UNL     1     -11.874  12.930  -0.699  1.00  0.00     0.172 A 
ATOM     21  H10 UNL     1     -13.603  13.923  -1.412  1.00  0.00     0.168 HD
BRANCH  17  22
HETATM   22  N2  UNL     1     -14.878  12.722  -3.684  1.00  0.00    -0.290 N 
ATOM     23  H2  UNL     1     -14.812  13.670  -3.314  1.00  0.00     0.188 HD
BRANCH  22  24
HETATM   24  N1  UNL     1     -16.029  12.381  -4.374  1.00  0.00    -0.344 N 
ATOM     25  H12 UNL     1     -16.107  11.411  -4.680  1.00  0.00     0.176 HD
ATOM     26  H11 UNL     1     -16.789  13.025  -4.592  1.00  0.00     0.176 HD
ENDBRANCH  22  24
ENDBRANCH  17  22
BRANCH  20  27
HETATM   27  O6  UNL     1     -11.533  13.754   0.370  1.00  0.00    -0.344 OA
ATOM     28  H6  UNL     1     -11.973  13.848   1.207  1.00  0.00     0.219 HD
ENDBRANCH  20  27
ENDBRANCH   1  10
BRANCH   9  29
HETATM   29  S1  UNL     1     -11.855   9.355   0.445  1.00  0.00    -0.092 SA
BRANCH  29  30
HETATM   30  C7  UNL     1     -12.508  10.206   1.903  1.00  0.00     0.091 C 
BRANCH  30  31
HETATM   31  C8  UNL     1     -13.131   9.302   2.899  1.00  0.00     0.050 C 
BRANCH  31  32
HETATM   32  C9  UNL     1     -13.090   9.995   4.245  1.00  0.00     0.172 C 
BRANCH  32  33
HETATM   33  O1  UNL     1     -14.373  10.369   4.685  1.00  0.00    -0.400 OA
ATOM     34  H1  UNL     1     -14.351  10.771   5.546  1.00  0.00     0.209 HD
ENDBRANCH  32  33
ENDBRANCH  31  32
BRANCH  31  35
HETATM   35  C10 UNL     1     -14.478   8.828   2.494  1.00  0.00     0.150 C 
BRANCH  35  36
HETATM   36  O2  UNL     1     -15.048   9.848   1.666  1.00  0.00    -0.393 OA
ATOM     37  H2  UNL     1     -15.044  10.651   2.172  1.00  0.00     0.210 HD
ENDBRANCH  35  36
BRANCH  35  38
HETATM   38  C11 UNL     1     -14.566   7.516   1.802  1.00  0.00     0.223 C 
BRANCH  38  39
HETATM   39  O3  UNL     1     -15.707   6.790   2.097  1.00  0.00    -0.260 OA
BRANCH  39  40
HETATM   40  S2  UNL     1     -16.847   6.883   0.873  1.00  0.00     0.401 S 
HETATM   41  O4  UNL     1     -17.608   8.197   0.951  1.00  0.00    -0.179 OA
HETATM   42  O5  UNL     1     -16.129   6.861  -0.440  1.00  0.00    -0.179 OA
ENDBRANCH  39  40
ENDBRANCH  38  39
ENDBRANCH  35  38
ENDBRANCH  31  35
ENDBRANCH  30  31
ENDBRANCH  29  30
ENDBRANCH   9  29
BRANCH   6  43
HETATM   43  N8  UNL     1      -7.113   9.963   1.454  1.00  0.00    -0.039 N 
ATOM     44  H83 UNL     1      -7.464  10.716   2.045  1.00  0.00     0.279 HD
ATOM     45  H82 UNL     1      -7.351   9.170   2.050  1.00  0.00     0.279 HD
ATOM     46  H81 UNL     1      -6.104  10.036   1.316  1.00  0.00     0.279 HD
ENDBRANCH   6  43
TORSDOF 15
ENDMDL
MODEL 3
REMARK VINA RESULT: -7.367183568      1.733      2.573
REMARK  15 active torsions:
REMARK  status: ('A' for Active; 'I' for Inactive)
REMARK    1  A    between atoms: N1_1  and  N2_4 
REMARK    2  A    between atoms: N2_4  and  C1_6 
REMARK    3  A    between atoms: C4_13  and  N5_14 
REMARK    4  A    between atoms: C5_19  and  N8_20 
REMARK    5  A    between atoms: C6_26  and  S1_27 
REMARK    6  A    between atoms: S1_27  and  C7_28 
REMARK    7  A    between atoms: C7_28  and  C8_29 
REMARK    8  A    between atoms: C8_29  and  C9_30 
REMARK    9  A    between atoms: C8_29  and  C10_33 
REMARK   10  A    between atoms: C9_30  and  O1_31 
REMARK   11  A    between atoms: C10_33  and  O2_34 
REMARK   12  A    between atoms: C10_33  and  C11_36 
REMARK   13  A    between atoms: C11_36  and  O3_37 
REMARK   14  A    between atoms: O3_37  and  S2_38 
REMARK   15  A    between atoms: C12_41  and  O6_42 
ROOT
HETATM    1  N5  UNL     1     -10.428  11.493  -0.542  1.00  0.00    -0.213 N 
HETATM    2  N6  UNL     1      -9.202  12.031  -0.827  1.00  0.00    -0.235 N 
ATOM      3  H6  UNL     1      -9.102  13.007  -1.108  1.00  0.00     0.208 HD
HETATM    4  N7  UNL     1      -8.115  11.208  -0.722  1.00  0.00    -0.275 N 
ATOM      5  H7  UNL     1      -7.214  11.496  -1.103  1.00  0.00     0.185 HD
HETATM    6  C5  UNL     1      -8.247   9.965  -0.086  1.00  0.00     0.404 C 
HETATM    7  N9  UNL     1      -9.552   9.544   0.299  1.00  0.00    -0.325 N 
ATOM      8  H9  UNL     1      -9.645   8.638   0.758  1.00  0.00     0.165 HD
HETATM    9  C6  UNL     1     -10.619  10.235   0.103  1.00  0.00     0.166 C 
ENDROOT
BRANCH   1  10
HETATM   10  C4  UNL     1     -11.590  12.210  -0.924  1.00  0.00     0.140 A 
HETATM   11  C3  UNL     1     -12.387  11.921  -2.015  1.00  0.00     0.097 A 
HETATM   12  N4  UNL     1     -12.366  10.968  -2.983  1.00  0.00    -0.348 N 
HETATM   13  C13 UNL     1     -13.414  12.856  -2.054  1.00  0.00     0.109 A 
HETATM   14  C2  UNL     1     -13.309  10.915  -3.962  1.00  0.00     0.182 A 
ATOM     15  H4  UNL     1     -11.621  10.271  -2.974  1.00  0.00     0.167 HD
HETATM   16  N3  UNL     1     -14.290  11.823  -3.983  1.00  0.00    -0.336 N 
HETATM   17  C1  UNL     1     -14.365  12.797  -3.048  1.00  0.00     0.150 A 
ATOM     18  H3  UNL     1     -14.996  11.781  -4.718  1.00  0.00     0.168 HD
HETATM   19  N10 UNL     1     -13.228  13.684  -1.005  1.00  0.00    -0.330 N 
HETATM   20  C12 UNL     1     -12.125  13.308  -0.307  1.00  0.00     0.172 A 
ATOM     21  H10 UNL     1     -13.828  14.477  -0.771  1.00  0.00     0.168 HD
BRANCH  17  22
HETATM   22  N2  UNL     1     -15.308  13.653  -3.086  1.00  0.00    -0.290 N 
ATOM     23  H2  UNL     1     -15.809  13.764  -3.968  1.00  0.00     0.188 HD
BRANCH  22  24
HETATM   24  N1  UNL     1     -15.701  14.443  -2.019  1.00  0.00    -0.344 N 
ATOM     25  H12 UNL     1     -15.904  13.959  -1.145  1.00  0.00     0.176 HD
ATOM     26  H11 UNL     1     -15.799  15.457  -2.052  1.00  0.00     0.176 HD
ENDBRANCH  22  24
ENDBRANCH  17  22
BRANCH  20  27
HETATM   27  O6  UNL     1     -11.671  13.967   0.833  1.00  0.00    -0.344 OA
ATOM     28  H6  UNL     1     -11.859  14.854   1.117  1.00  0.00     0.219 HD
ENDBRANCH  20  27
ENDBRANCH   1  10
BRANCH   9  29
HETATM   29  S1  UNL     1     -12.258   9.734   0.581  1.00  0.00    -0.092 SA
BRANCH  29  30
HETATM   30  C7  UNL     1     -12.178   8.962   2.215  1.00  0.00     0.091 C 
BRANCH  30  31
HETATM   31  C8  UNL     1     -13.053   9.600   3.227  1.00  0.00     0.050 C 
BRANCH  31  32
HETATM   32  C9  UNL     1     -12.931  11.101   3.069  1.00  0.00     0.172 C 
BRANCH  32  33
HETATM   33  O1  UNL     1     -13.513  11.795   4.146  1.00  0.00    -0.400 OA
ATOM     34  H1  UNL     1     -13.025  11.674   4.952  1.00  0.00     0.209 HD
ENDBRANCH  32  33
ENDBRANCH  31  32
BRANCH  31  35
HETATM   35  C10 UNL     1     -14.447   9.092   3.196  1.00  0.00     0.150 C 
BRANCH  35  36
HETATM   36  O2  UNL     1     -15.236  10.078   2.520  1.00  0.00    -0.393 OA
ATOM     37  H2  UNL     1     -15.583   9.667   1.738  1.00  0.00     0.210 HD
ENDBRANCH  35  36
BRANCH  35  38
HETATM   38  C11 UNL     1     -14.680   7.760   2.580  1.00  0.00     0.223 C 
BRANCH  38  39
HETATM   39  O3  UNL     1     -15.970   7.280   2.727  1.00  0.00    -0.260 OA
BRANCH  39  40
HETATM   40  S2  UNL     1     -16.824   7.317   1.286  1.00  0.00     0.401 S 
HETATM   41  O4  UNL     1     -17.870   6.214   1.257  1.00  0.00    -0.179 OA
HETATM   42  O5  UNL     1     -17.550   8.623   1.205  1.00  0.00    -0.179 OA
ENDBRANCH  39  40
ENDBRANCH  38  39
ENDBRANCH  35  38
ENDBRANCH  31  35
ENDBRANCH  30  31
ENDBRANCH  29  30
ENDBRANCH   9  29
BRANCH   6  43
HETATM   43  N8  UNL     1      -7.403   9.881   1.115  1.00  0.00    -0.039 N 
ATOM     44  H83 UNL     1      -6.982  10.783   1.339  1.00  0.00     0.279 HD
ATOM     45  H82 UNL     1      -7.963   9.756   1.958  1.00  0.00     0.279 HD
ATOM     46  H81 UNL     1      -6.695   9.151   1.025  1.00  0.00     0.279 HD
ENDBRANCH   6  43
TORSDOF 15
ENDMDL
MODEL 4
REMARK VINA RESULT: -7.300723497      1.702      2.873
REMARK  15 active torsions:
REMARK  status: ('A' for Active; 'I' for Inactive)
REMARK    1  A    between atoms: N1_1  and  N2_4 
REMARK    2  A    between atoms: N2_4  and  C1_6 
REMARK    3  A    between atoms: C4_13  and  N5_14 
REMARK    4  A    between atoms: C5_19  and  N8_20 
REMARK    5  A    between atoms: C6_26  and  S1_27 
REMARK    6  A    between atoms: S1_27  and  C7_28 
REMARK    7  A    between atoms: C7_28  and  C8_29 
REMARK    8  A    between atoms: C8_29  and  C9_30 
REMARK    9  A    between atoms: C8_29  and  C10_33 
REMARK   10  A    between atoms: C9_30  and  O1_31 
REMARK   11  A    between atoms: C10_33  and  O2_34 
REMARK   12  A    between atoms: C10_33  and  C11_36 
REMARK   13  A    between atoms: C11_36  and  O3_37 
REMARK   14  A    between atoms: O3_37  and  S2_38 
REMARK   15  A    between atoms: C12_41  and  O6_42 
ROOT
HETATM    1  N5  UNL     1     -10.023  11.243  -0.634  1.00  0.00    -0.213 N 
HETATM    2  N6  UNL     1      -8.826  11.863  -0.870  1.00  0.00    -0.235 N 
ATOM      3  H6  UNL     1      -8.784  12.819  -1.224  1.00  0.00     0.208 HD
HETATM    4  N7  UNL     1      -7.688  11.150  -0.614  1.00  0.00    -0.275 N 
ATOM      5  H7  UNL     1      -6.785  11.485  -0.949  1.00  0.00     0.185 HD
HETATM    6  C5  UNL     1      -7.769   9.953   0.113  1.00  0.00     0.404 C 
HETATM    7  N9  UNL     1      -9.062   9.450   0.432  1.00  0.00    -0.325 N 
ATOM      8  H9  UNL     1      -9.119   8.577   0.958  1.00  0.00     0.165 HD
HETATM    9  C6  UNL     1     -10.163  10.026   0.099  1.00  0.00     0.166 C 
ENDROOT
BRANCH   1  10
HETATM   10  C4  UNL     1     -11.204  11.822  -1.162  1.00  0.00     0.140 A 
HETATM   11  C3  UNL     1     -11.913  11.348  -2.249  1.00  0.00     0.097 A 
HETATM   12  N4  UNL     1     -11.771  10.290  -3.088  1.00  0.00    -0.348 N 
HETATM   13  C13 UNL     1     -12.995  12.195  -2.456  1.00  0.00     0.109 A 
HETATM   14  C2  UNL     1     -12.648  10.052  -4.102  1.00  0.00     0.182 A 
ATOM     15  H4  UNL     1     -10.984   9.655  -2.955  1.00  0.00     0.167 HD
HETATM   16  N3  UNL     1     -13.684  10.878  -4.285  1.00  0.00    -0.336 N 
HETATM   17  C1  UNL     1     -13.879  11.948  -3.483  1.00  0.00     0.150 A 
ATOM     18  H3  UNL     1     -14.339  10.697  -5.046  1.00  0.00     0.168 HD
HETATM   19  N10 UNL     1     -12.928  13.154  -1.509  1.00  0.00    -0.330 N 
HETATM   20  C12 UNL     1     -11.847  12.945  -0.713  1.00  0.00     0.172 A 
ATOM     21  H10 UNL     1     -13.591  13.923  -1.406  1.00  0.00     0.168 HD
BRANCH  17  22
HETATM   22  N2  UNL     1     -14.871  12.723  -3.676  1.00  0.00    -0.290 N 
ATOM     23  H2  UNL     1     -14.825  13.660  -3.275  1.00  0.00     0.188 HD
BRANCH  22  24
HETATM   24  N1  UNL     1     -16.009  12.385  -4.390  1.00  0.00    -0.344 N 
ATOM     25  H12 UNL     1     -15.911  11.635  -5.074  1.00  0.00     0.176 HD
ATOM     26  H11 UNL     1     -16.919  12.830  -4.278  1.00  0.00     0.176 HD
ENDBRANCH  22  24
ENDBRANCH  17  22
BRANCH  20  27
HETATM   27  O6  UNL     1     -11.506  13.767   0.358  1.00  0.00    -0.344 OA
ATOM     28  H6  UNL     1     -11.525  13.564   1.287  1.00  0.00     0.219 HD
ENDBRANCH  20  27
ENDBRANCH   1  10
BRANCH   9  29
HETATM   29  S1  UNL     1     -11.789   9.422   0.492  1.00  0.00    -0.092 SA
BRANCH  29  30
HETATM   30  C7  UNL     1     -11.868   9.075   2.267  1.00  0.00     0.091 C 
BRANCH  30  31
HETATM   31  C8  UNL     1     -12.694  10.038   3.033  1.00  0.00     0.050 C 
BRANCH  31  32
HETATM   32  C9  UNL     1     -13.108  11.150   2.091  1.00  0.00     0.172 C 
BRANCH  32  33
HETATM   33  O1  UNL     1     -13.041  12.414   2.705  1.00  0.00    -0.400 OA
ATOM     34  H1  UNL     1     -13.485  12.426   3.545  1.00  0.00     0.209 HD
ENDBRANCH  32  33
ENDBRANCH  31  32
BRANCH  31  35
HETATM   35  C10 UNL     1     -13.820   9.396   3.755  1.00  0.00     0.150 C 
BRANCH  35  36
HETATM   36  O2  UNL     1     -14.362  10.379   4.643  1.00  0.00    -0.393 OA
ATOM     37  H2  UNL     1     -15.271  10.145   4.794  1.00  0.00     0.210 HD
ENDBRANCH  35  36
BRANCH  35  38
HETATM   38  C11 UNL     1     -14.912   8.805   2.938  1.00  0.00     0.223 C 
BRANCH  38  39
HETATM   39  O3  UNL     1     -15.106   7.449   3.139  1.00  0.00    -0.260 OA
BRANCH  39  40
HETATM   40  S2  UNL     1     -14.612   6.540   1.821  1.00  0.00     0.401 S 
HETATM   41  O4  UNL     1     -14.087   5.187   2.271  1.00  0.00    -0.179 OA
HETATM   42  O5  UNL     1     -15.803   6.290   0.950  1.00  0.00    -0.179 OA
ENDBRANCH  39  40
ENDBRANCH  38  39
ENDBRANCH  35  38
ENDBRANCH  31  35
ENDBRANCH  30  31
ENDBRANCH  29  30
ENDBRANCH   9  29
BRANCH   6  43
HETATM   43  N8  UNL     1      -7.023  10.038   1.377  1.00  0.00    -0.039 N 
ATOM     44  H83 UNL     1      -6.050   9.755   1.256  1.00  0.00     0.279 HD
ATOM     45  H82 UNL     1      -6.872  11.006   1.657  1.00  0.00     0.279 HD
ATOM     46  H81 UNL     1      -7.477   9.502   2.117  1.00  0.00     0.279 HD
ENDBRANCH   6  43
TORSDOF 15
ENDMDL
MODEL 5
REMARK VINA RESULT: -7.297487355      2.503      4.803
REMARK  15 active torsions:
REMARK  status: ('A' for Active; 'I' for Inactive)
REMARK    1  A    between atoms: N1_1  and  N2_4 
REMARK    2  A    between atoms: N2_4  and  C1_6 
REMARK    3  A    between atoms: C4_13  and  N5_14 
REMARK    4  A    between atoms: C5_19  and  N8_20 
REMARK    5  A    between atoms: C6_26  and  S1_27 
REMARK    6  A    between atoms: S1_27  and  C7_28 
REMARK    7  A    between atoms: C7_28  and  C8_29 
REMARK    8  A    between atoms: C8_29  and  C9_30 
REMARK    9  A    between atoms: C8_29  and  C10_33 
REMARK   10  A    between atoms: C9_30  and  O1_31 
REMARK   11  A    between atoms: C10_33  and  O2_34 
REMARK   12  A    between atoms: C10_33  and  C11_36 
REMARK   13  A    between atoms: C11_36  and  O3_37 
REMARK   14  A    between atoms: O3_37  and  S2_38 
REMARK   15  A    between atoms: C12_41  and  O6_42 
ROOT
HETATM    1  N5  UNL     1     -13.318  12.434  -0.457  1.00  0.00    -0.213 N 
HETATM    2  N6  UNL     1     -14.228  13.262  -1.059  1.00  0.00    -0.235 N 
ATOM      3  H6  UNL     1     -14.170  13.480  -2.054  1.00  0.00     0.208 HD
HETATM    4  N7  UNL     1     -15.218  13.784  -0.274  1.00  0.00    -0.275 N 
ATOM      5  H7  UNL     1     -15.799  14.547  -0.620  1.00  0.00     0.185 HD
HETATM    6  C5  UNL     1     -15.429  13.264   1.012  1.00  0.00     0.404 C 
HETATM    7  N9  UNL     1     -14.502  12.303   1.507  1.00  0.00    -0.325 N 
ATOM      8  H9  UNL     1     -14.656  11.929   2.443  1.00  0.00     0.165 HD
HETATM    9  C6  UNL     1     -13.483  11.878   0.846  1.00  0.00     0.166 C 
ENDROOT
BRANCH   1  10
HETATM   10  C4  UNL     1     -12.123  12.119  -1.151  1.00  0.00     0.140 A 
HETATM   11  C3  UNL     1     -12.009  11.192  -2.169  1.00  0.00     0.097 A 
HETATM   12  N4  UNL     1     -12.879  10.365  -2.805  1.00  0.00    -0.348 N 
HETATM   13  C13 UNL     1     -10.681  11.167  -2.577  1.00  0.00     0.109 A 
HETATM   14  C2  UNL     1     -12.482   9.535  -3.808  1.00  0.00     0.182 A 
ATOM     15  H4  UNL     1     -13.859  10.366  -2.522  1.00  0.00     0.167 HD
HETATM   16  N3  UNL     1     -11.199   9.525  -4.187  1.00  0.00    -0.336 N 
HETATM   17  C1  UNL     1     -10.285  10.325  -3.592  1.00  0.00     0.150 A 
ATOM     18  H3  UNL     1     -10.905   8.902  -4.939  1.00  0.00     0.168 HD
HETATM   19  N10 UNL     1     -10.020  12.063  -1.814  1.00  0.00    -0.330 N 
HETATM   20  C12 UNL     1     -10.880  12.652  -0.942  1.00  0.00     0.172 A 
ATOM     21  H10 UNL     1      -9.023  12.268  -1.882  1.00  0.00     0.168 HD
BRANCH  17  22
HETATM   22  N2  UNL     1      -9.069  10.299  -3.968  1.00  0.00    -0.290 N 
ATOM     23  H2  UNL     1      -8.357  10.560  -3.286  1.00  0.00     0.188 HD
BRANCH  22  24
HETATM   24  N1  UNL     1      -8.642   9.942  -5.237  1.00  0.00    -0.344 N 
ATOM     25  H12 UNL     1      -9.277   9.362  -5.785  1.00  0.00     0.176 HD
ATOM     26  H11 UNL     1      -7.750  10.216  -5.648  1.00  0.00     0.176 HD
ENDBRANCH  22  24
ENDBRANCH  17  22
BRANCH  20  27
HETATM   27  O6  UNL     1     -10.499  13.623  -0.020  1.00  0.00    -0.344 OA
ATOM     28  H6  UNL     1      -9.781  14.243  -0.077  1.00  0.00     0.219 HD
ENDBRANCH  20  27
ENDBRANCH   1  10
BRANCH   9  29
HETATM   29  S1  UNL     1     -12.317  10.673   1.440  1.00  0.00    -0.092 SA
BRANCH  29  30
HETATM   30  C7  UNL     1     -13.165   9.086   1.632  1.00  0.00     0.091 C 
BRANCH  30  31
HETATM   31  C8  UNL     1     -13.761   8.880   2.974  1.00  0.00     0.050 C 
BRANCH  31  32
HETATM   32  C9  UNL     1     -13.256   9.981   3.882  1.00  0.00     0.172 C 
BRANCH  32  33
HETATM   33  O1  UNL     1     -14.240  10.408   4.792  1.00  0.00    -0.400 OA
ATOM     34  H1  UNL     1     -14.655  11.217   4.515  1.00  0.00     0.209 HD
ENDBRANCH  32  33
ENDBRANCH  31  32
BRANCH  31  35
HETATM   35  C10 UNL     1     -15.237   8.741   2.941  1.00  0.00     0.150 C 
BRANCH  35  36
HETATM   36  O2  UNL     1     -15.742   9.831   2.161  1.00  0.00    -0.393 OA
ATOM     37  H2  UNL     1     -16.690   9.791   2.209  1.00  0.00     0.210 HD
ENDBRANCH  35  36
BRANCH  35  38
HETATM   38  C11 UNL     1     -15.797   7.463   2.431  1.00  0.00     0.223 C 
BRANCH  38  39
HETATM   39  O3  UNL     1     -16.175   7.495   1.100  1.00  0.00    -0.260 OA
BRANCH  39  40
HETATM   40  S2  UNL     1     -15.674   6.129   0.269  1.00  0.00     0.401 S 
HETATM   41  O4  UNL     1     -16.764   5.070   0.274  1.00  0.00    -0.179 OA
HETATM   42  O5  UNL     1     -15.429   6.511  -1.158  1.00  0.00    -0.179 OA
ENDBRANCH  39  40
ENDBRANCH  38  39
ENDBRANCH  35  38
ENDBRANCH  31  35
ENDBRANCH  30  31
ENDBRANCH  29  30
ENDBRANCH   9  29
BRANCH   6  43
HETATM   43  N8  UNL     1     -16.768  12.668   1.139  1.00  0.00    -0.039 N 
ATOM     44  H83 UNL     1     -17.032  12.550   2.117  1.00  0.00     0.279 HD
ATOM     45  H82 UNL     1     -17.496  13.323   0.857  1.00  0.00     0.279 HD
ATOM     46  H81 UNL     1     -16.836  11.789   0.625  1.00  0.00     0.279 HD
ENDBRANCH   6  43
TORSDOF 15
ENDMDL
