MODEL 1
REMARK VINA RESULT: -8.378440663      0.000      0.000
REMARK  3 active torsions:
REMARK  status: ('A' for Active; 'I' for Inactive)
REMARK    1  A    between atoms: C2_2  and  C4_4 
REMARK    2  A    between atoms: C4_4  and  C5_5 
REMARK    3  A    between atoms: C10_10  and  O1_11 
ROOT
HETATM    1  C5  UNL     1       3.289   6.630  20.445  1.00  0.00     0.029 C 
HETATM    2  C6  UNL     1       4.317   5.911  19.545  1.00  0.00     0.044 C 
HETATM    3  C7  UNL     1       5.154   6.990  18.975  1.00  0.00    -0.074 C 
HETATM    4  C8  UNL     1       5.770   8.006  19.532  1.00  0.00    -0.048 C 
HETATM    5  C9  UNL     1       6.535   8.905  18.621  1.00  0.00     0.068 C 
HETATM    6  C10 UNL     1       7.400   8.171  17.648  1.00  0.00     0.122 C 
HETATM    7  C11 UNL     1       6.824   6.835  17.239  1.00  0.00     0.036 C 
HETATM    8  C12 UNL     1       5.309   6.877  17.478  1.00  0.00     0.037 C 
HETATM    9  C13 UNL     1       5.845   8.427  20.930  1.00  0.00     0.086 C 
HETATM   10  C14 UNL     1       7.313   8.572  21.282  1.00  0.00     0.043 C 
HETATM   11 CL1  UNL     1       5.122  10.077  21.004  1.00  0.00    -0.109 Cl
HETATM   12  C15 UNL     1       5.115   7.599  21.891  1.00  0.00     0.000 A 
HETATM   13  C16 UNL     1       5.492   7.489  23.213  1.00  0.00     0.151 A 
HETATM   14  O2  UNL     1       4.644   6.667  23.798  1.00  0.00    -0.334 OA
HETATM   15  C17 UNL     1       3.739   6.231  22.954  1.00  0.00     0.149 A 
HETATM   16  C18 UNL     1       3.997   6.791  21.747  1.00  0.00    -0.021 A 
ENDROOT
BRANCH   1  17
HETATM   17  C4  UNL     1       2.084   5.766  20.519  1.00  0.00     0.042 C 
BRANCH  17  18
HETATM   18  C2  UNL     1       1.252   5.710  19.307  1.00  0.00    -0.092 C 
HETATM   19  C1  UNL     1       0.811   4.645  18.686  1.00  0.00     0.014 C 
HETATM   20  C3  UNL     1       0.881   7.050  18.714  1.00  0.00     0.042 C 
ENDBRANCH  17  18
ENDBRANCH   1  17
BRANCH   6  21
HETATM   21  O1  UNL     1       7.566   8.993  16.519  1.00  0.00    -0.395 OA
ATOM     22  H1  UNL     1       7.291   8.497  15.757  1.00  0.00     0.210 HD
ENDBRANCH   6  21
TORSDOF 3
ENDMDL
MODEL 2
REMARK VINA RESULT: -8.284322607      2.232      5.283
REMARK  3 active torsions:
REMARK  status: ('A' for Active; 'I' for Inactive)
REMARK    1  A    between atoms: C2_2  and  C4_4 
REMARK    2  A    between atoms: C4_4  and  C5_5 
REMARK    3  A    between atoms: C10_10  and  O1_11 
ROOT
HETATM    1  C5  UNL     1       5.100   7.755  20.606  1.00  0.00     0.029 C 
HETATM    2  C6  UNL     1       4.449   6.465  20.062  1.00  0.00     0.044 C 
HETATM    3  C7  UNL     1       3.129   6.886  19.544  1.00  0.00    -0.074 C 
HETATM    4  C8  UNL     1       2.774   7.864  18.746  1.00  0.00    -0.048 C 
HETATM    5  C9  UNL     1       1.319   7.982  18.439  1.00  0.00     0.068 C 
HETATM    6  C10 UNL     1       0.680   6.682  18.074  1.00  0.00     0.122 C 
HETATM    7  C11 UNL     1       1.309   5.500  18.774  1.00  0.00     0.036 C 
HETATM    8  C12 UNL     1       2.003   6.012  20.042  1.00  0.00     0.037 C 
HETATM    9  C13 UNL     1       3.573   8.892  18.081  1.00  0.00     0.086 C 
HETATM   10  C14 UNL     1       3.241   8.840  16.603  1.00  0.00     0.043 C 
HETATM   11 CL1  UNL     1       2.979  10.479  18.698  1.00  0.00    -0.109 Cl
HETATM   12  C15 UNL     1       5.014   8.849  18.335  1.00  0.00     0.000 A 
HETATM   13  C16 UNL     1       5.941   9.324  17.431  1.00  0.00     0.151 A 
HETATM   14  O2  UNL     1       7.137   9.127  17.952  1.00  0.00    -0.334 OA
HETATM   15  C17 UNL     1       7.058   8.559  19.132  1.00  0.00     0.149 A 
HETATM   16  C18 UNL     1       5.745   8.367  19.410  1.00  0.00    -0.021 A 
ENDROOT
BRANCH   1  17
HETATM   17  C4  UNL     1       6.057   7.355  21.668  1.00  0.00     0.042 C 
BRANCH  17  18
HETATM   18  C2  UNL     1       5.562   7.434  23.051  1.00  0.00    -0.092 C 
HETATM   19  C1  UNL     1       4.325   7.327  23.467  1.00  0.00     0.014 C 
HETATM   20  C3  UNL     1       6.619   7.683  24.104  1.00  0.00     0.042 C 
ENDBRANCH  17  18
ENDBRANCH   1  17
BRANCH   6  21
HETATM   21  O1  UNL     1      -0.685   6.770  18.402  1.00  0.00    -0.395 OA
ATOM     22  H1  UNL     1      -0.867   6.111  19.061  1.00  0.00     0.210 HD
ENDBRANCH   6  21
TORSDOF 3
ENDMDL
MODEL 3
REMARK VINA RESULT: -8.236885334      2.545      4.308
REMARK  3 active torsions:
REMARK  status: ('A' for Active; 'I' for Inactive)
REMARK    1  A    between atoms: C2_2  and  C4_4 
REMARK    2  A    between atoms: C4_4  and  C5_5 
REMARK    3  A    between atoms: C10_10  and  O1_11 
ROOT
HETATM    1  C5  UNL     1       3.382   7.290  18.778  1.00  0.00     0.029 C 
HETATM    2  C6  UNL     1       3.370   8.828  18.910  1.00  0.00     0.044 C 
HETATM    3  C7  UNL     1       4.722   9.186  19.395  1.00  0.00    -0.074 C 
HETATM    4  C8  UNL     1       5.918   8.842  18.982  1.00  0.00    -0.048 C 
HETATM    5  C9  UNL     1       7.074   9.411  19.733  1.00  0.00     0.068 C 
HETATM    6  C10 UNL     1       6.954  10.878  19.990  1.00  0.00     0.122 C 
HETATM    7  C11 UNL     1       5.522  11.331  20.160  1.00  0.00     0.036 C 
HETATM    8  C12 UNL     1       4.686  10.116  20.583  1.00  0.00     0.037 C 
HETATM    9  C13 UNL     1       6.336   7.975  17.882  1.00  0.00     0.086 C 
HETATM   10  C14 UNL     1       7.309   8.763  17.027  1.00  0.00     0.043 C 
HETATM   11 CL1  UNL     1       7.266   6.620  18.624  1.00  0.00    -0.109 Cl
HETATM   12  C15 UNL     1       5.259   7.371  17.095  1.00  0.00     0.000 A 
HETATM   13  C16 UNL     1       5.416   7.016  15.772  1.00  0.00     0.151 A 
HETATM   14  O2  UNL     1       4.268   6.517  15.358  1.00  0.00    -0.334 OA
HETATM   15  C17 UNL     1       3.371   6.521  16.316  1.00  0.00     0.149 A 
HETATM   16  C18 UNL     1       3.951   7.048  17.422  1.00  0.00    -0.021 A 
ENDROOT
BRANCH   1  17
HETATM   17  C4  UNL     1       1.982   6.821  18.936  1.00  0.00     0.042 C 
BRANCH  17  18
HETATM   18  C2  UNL     1       1.808   5.495  19.549  1.00  0.00    -0.092 C 
HETATM   19  C1  UNL     1       0.931   4.575  19.233  1.00  0.00     0.014 C 
HETATM   20  C3  UNL     1       2.753   5.178  20.686  1.00  0.00     0.042 C 
ENDBRANCH  17  18
ENDBRANCH   1  17
BRANCH   6  21
HETATM   21  O1  UNL     1       7.696  11.172  21.148  1.00  0.00    -0.395 OA
ATOM     22  H1  UNL     1       7.196  10.869  21.897  1.00  0.00     0.210 HD
ENDBRANCH   6  21
TORSDOF 3
ENDMDL
MODEL 4
REMARK VINA RESULT: -8.102372881      2.208      5.420
REMARK  3 active torsions:
REMARK  status: ('A' for Active; 'I' for Inactive)
REMARK    1  A    between atoms: C2_2  and  C4_4 
REMARK    2  A    between atoms: C4_4  and  C5_5 
REMARK    3  A    between atoms: C10_10  and  O1_11 
ROOT
HETATM    1  C5  UNL     1       4.656   8.293  20.808  1.00  0.00     0.029 C 
HETATM    2  C6  UNL     1       4.512   6.755  20.793  1.00  0.00     0.044 C 
HETATM    3  C7  UNL     1       3.239   6.493  20.087  1.00  0.00    -0.074 C 
HETATM    4  C8  UNL     1       2.763   6.938  18.949  1.00  0.00    -0.048 C 
HETATM    5  C9  UNL     1       1.414   6.443  18.549  1.00  0.00     0.068 C 
HETATM    6  C10 UNL     1       1.251   4.966  18.703  1.00  0.00     0.122 C 
HETATM    7  C11 UNL     1       2.061   4.400  19.845  1.00  0.00     0.036 C 
HETATM    8  C12 UNL     1       2.344   5.537  20.837  1.00  0.00     0.037 C 
HETATM    9  C13 UNL     1       3.335   7.859  17.969  1.00  0.00     0.086 C 
HETATM   10  C14 UNL     1       3.297   7.168  16.619  1.00  0.00     0.043 C 
HETATM   11 CL1  UNL     1       2.210   9.265  17.871  1.00  0.00    -0.109 Cl
HETATM   12  C15 UNL     1       4.659   8.395  18.288  1.00  0.00     0.000 A 
HETATM   13  C16 UNL     1       5.554   8.792  17.316  1.00  0.00     0.151 A 
HETATM   14  O2  UNL     1       6.644   9.209  17.930  1.00  0.00    -0.334 OA
HETATM   15  C17 UNL     1       6.527   9.114  19.233  1.00  0.00     0.149 A 
HETATM   16  C18 UNL     1       5.297   8.609  19.501  1.00  0.00    -0.021 A 
ENDROOT
BRANCH   1  17
HETATM   17  C4  UNL     1       5.486   8.648  21.987  1.00  0.00     0.042 C 
BRANCH  17  18
HETATM   18  C2  UNL     1       5.530   7.655  23.072  1.00  0.00    -0.092 C 
HETATM   19  C1  UNL     1       4.525   7.175  23.760  1.00  0.00     0.014 C 
HETATM   20  C3  UNL     1       6.909   7.150  23.432  1.00  0.00     0.042 C 
ENDBRANCH  17  18
ENDBRANCH   1  17
BRANCH   6  21
HETATM   21  O1  UNL     1      -0.116   4.705  18.901  1.00  0.00    -0.395 OA
ATOM     22  H1  UNL     1      -0.474   4.393  18.078  1.00  0.00     0.210 HD
ENDBRANCH   6  21
TORSDOF 3
ENDMDL
MODEL 5
REMARK VINA RESULT: -8.062402441      2.137      4.187
REMARK  3 active torsions:
REMARK  status: ('A' for Active; 'I' for Inactive)
REMARK    1  A    between atoms: C2_2  and  C4_4 
REMARK    2  A    between atoms: C4_4  and  C5_5 
REMARK    3  A    between atoms: C10_10  and  O1_11 
ROOT
HETATM    1  C5  UNL     1       3.299   6.776  18.994  1.00  0.00     0.029 C 
HETATM    2  C6  UNL     1       2.880   6.724  20.479  1.00  0.00     0.044 C 
HETATM    3  C7  UNL     1       4.110   7.038  21.240  1.00  0.00    -0.074 C 
HETATM    4  C8  UNL     1       4.990   8.002  21.120  1.00  0.00    -0.048 C 
HETATM    5  C9  UNL     1       6.125   7.996  22.087  1.00  0.00     0.068 C 
HETATM    6  C10 UNL     1       5.700   7.778  23.503  1.00  0.00     0.122 C 
HETATM    7  C11 UNL     1       4.475   6.901  23.622  1.00  0.00     0.036 C 
HETATM    8  C12 UNL     1       4.375   6.049  22.349  1.00  0.00     0.037 C 
HETATM    9  C13 UNL     1       5.060   9.120  20.179  1.00  0.00     0.086 C 
HETATM   10  C14 UNL     1       5.193  10.391  20.995  1.00  0.00     0.043 C 
HETATM   11 CL1  UNL     1       6.600   8.919  19.263  1.00  0.00    -0.109 Cl
HETATM   12  C15 UNL     1       3.983   9.196  19.191  1.00  0.00     0.000 A 
HETATM   13  C16 UNL     1       3.574  10.387  18.630  1.00  0.00     0.151 A 
HETATM   14  O2  UNL     1       2.588  10.114  17.798  1.00  0.00    -0.334 OA
HETATM   15  C17 UNL     1       2.323   8.829  17.775  1.00  0.00     0.149 A 
HETATM   16  C18 UNL     1       3.175   8.217  18.633  1.00  0.00    -0.021 A 
ENDROOT
BRANCH   1  17
HETATM   17  C4  UNL     1       2.379   5.886  18.242  1.00  0.00     0.042 C 
BRANCH  17  18
HETATM   18  C2  UNL     1       1.212   5.385  18.984  1.00  0.00    -0.092 C 
HETATM   19  C1  UNL     1       1.117   4.278  19.677  1.00  0.00     0.014 C 
HETATM   20  C3  UNL     1      -0.021   6.258  18.918  1.00  0.00     0.042 C 
ENDBRANCH  17  18
ENDBRANCH   1  17
BRANCH   6  21
HETATM   21  O1  UNL     1       6.781   7.197  24.189  1.00  0.00    -0.395 OA
ATOM     22  H1  UNL     1       7.564   7.683  23.959  1.00  0.00     0.210 HD
ENDBRANCH   6  21
TORSDOF 3
ENDMDL
