MODEL 1
REMARK VINA RESULT: -8.479730099      0.000      0.000
REMARK  2 active torsions:
REMARK  status: ('A' for Active; 'I' for Inactive)
REMARK    1  A    between atoms: C5_6  and  C6_7 
REMARK       I    between atoms: C6_7  and  N1_9 
REMARK    2  A    between atoms: N1_9  and  C7_11 
ROOT
HETATM    1  C7  UNL     1       4.299   9.244  19.423  1.00  0.00     0.084 C 
HETATM    2  C8  UNL     1       4.375   7.876  18.844  1.00  0.00     0.025 C 
HETATM    3  C9  UNL     1       5.142   6.898  19.695  1.00  0.00     0.003 C 
HETATM    4  C10 UNL     1       4.540   6.665  21.034  1.00  0.00     0.010 C 
HETATM    5  C11 UNL     1       5.080   7.544  22.122  1.00  0.00    -0.038 C 
HETATM    6  C12 UNL     1       4.440   7.090  23.418  1.00  0.00     0.012 C 
HETATM    7  C13 UNL     1       5.518   7.056  24.457  1.00  0.00     0.038 C 
HETATM    8  C14 UNL     1       6.679   7.801  23.843  1.00  0.00     0.171 C 
HETATM    9  F1  UNL     1       7.891   7.422  24.357  1.00  0.00    -0.249 F 
HETATM   10  C15 UNL     1       6.535   7.392  22.371  1.00  0.00     0.046 C 
HETATM   11  C16 UNL     1       4.670   8.968  21.860  1.00  0.00     0.011 C 
HETATM   12  C17 UNL     1       5.236   9.487  20.568  1.00  0.00     0.026 C 
ENDROOT
BRANCH   1  13
HETATM   13  N1  UNL     1       4.547  10.231  18.347  1.00  0.00    -0.351 N 
HETATM   14  C6  UNL     1       3.484  10.626  17.546  1.00  0.00     0.276 C 
HETATM   15  O2  UNL     1       2.336  10.102  17.795  1.00  0.00    -0.265 OA
ATOM     16  H1  UNL     1       5.481  10.614  18.198  1.00  0.00     0.163 HD
BRANCH  14  17
HETATM   17  C5  UNL     1       3.521  11.577  16.446  1.00  0.00     0.148 A 
HETATM   18  C2  UNL     1       3.846  11.433  15.123  1.00  0.00    -0.021 A 
HETATM   19  C1  UNL     1       4.269  10.183  14.450  1.00  0.00     0.051 C 
HETATM   20  C3  UNL     1       3.721  12.660  14.479  1.00  0.00     0.034 A 
HETATM   21  C4  UNL     1       3.315  13.518  15.460  1.00  0.00     0.143 A 
HETATM   22  O1  UNL     1       3.207  12.877  16.578  1.00  0.00    -0.317 OA
ENDBRANCH  14  17
ENDBRANCH   1  13
TORSDOF 2
ENDMDL
MODEL 2
REMARK VINA RESULT: -8.077107320      0.840      1.080
REMARK  2 active torsions:
REMARK  status: ('A' for Active; 'I' for Inactive)
REMARK    1  A    between atoms: C5_6  and  C6_7 
REMARK       I    between atoms: C6_7  and  N1_9 
REMARK    2  A    between atoms: N1_9  and  C7_11 
ROOT
HETATM    1  C7  UNL     1       4.280   9.063  19.331  1.00  0.00     0.084 C 
HETATM    2  C8  UNL     1       4.149   7.658  18.858  1.00  0.00     0.025 C 
HETATM    3  C9  UNL     1       4.813   6.650  19.761  1.00  0.00     0.003 C 
HETATM    4  C10 UNL     1       4.238   6.600  21.130  1.00  0.00     0.010 C 
HETATM    5  C11 UNL     1       4.932   7.475  22.131  1.00  0.00    -0.038 C 
HETATM    6  C12 UNL     1       4.289   7.209  23.475  1.00  0.00     0.012 C 
HETATM    7  C13 UNL     1       5.393   7.105  24.483  1.00  0.00     0.038 C 
HETATM    8  C14 UNL     1       6.617   7.638  23.779  1.00  0.00     0.171 C 
HETATM    9  F1  UNL     1       7.787   7.137  24.285  1.00  0.00    -0.249 F 
HETATM   10  C15 UNL     1       6.363   7.145  22.348  1.00  0.00     0.046 C 
HETATM   11  C16 UNL     1       4.706   8.918  21.770  1.00  0.00     0.011 C 
HETATM   12  C17 UNL     1       5.285   9.259  20.426  1.00  0.00     0.026 C 
ENDROOT
BRANCH   1  13
HETATM   13  N1  UNL     1       4.615   9.925  18.174  1.00  0.00    -0.351 N 
HETATM   14  C6  UNL     1       3.580  10.500  17.449  1.00  0.00     0.276 C 
HETATM   15  O2  UNL     1       2.380  10.242  17.834  1.00  0.00    -0.265 OA
ATOM     16  H1  UNL     1       5.587  10.094  17.916  1.00  0.00     0.163 HD
BRANCH  14  17
HETATM   17  C5  UNL     1       3.699  11.370  16.289  1.00  0.00     0.148 A 
HETATM   18  C2  UNL     1       4.631  12.312  15.945  1.00  0.00    -0.021 A 
HETATM   19  C1  UNL     1       5.827  12.697  16.730  1.00  0.00     0.051 C 
HETATM   20  C3  UNL     1       4.291  12.876  14.720  1.00  0.00     0.034 A 
HETATM   21  C4  UNL     1       3.138  12.237  14.362  1.00  0.00     0.143 A 
HETATM   22  O1  UNL     1       2.818  11.380  15.275  1.00  0.00    -0.317 OA
ENDBRANCH  14  17
ENDBRANCH   1  13
TORSDOF 2
ENDMDL
MODEL 3
REMARK VINA RESULT: -7.966274658      3.484      7.898
REMARK  2 active torsions:
REMARK  status: ('A' for Active; 'I' for Inactive)
REMARK    1  A    between atoms: C5_6  and  C6_7 
REMARK       I    between atoms: C6_7  and  N1_9 
REMARK    2  A    between atoms: N1_9  and  C7_11 
ROOT
HETATM    1  C7  UNL     1       4.780   9.844  19.463  1.00  0.00     0.084 C 
HETATM    2  C8  UNL     1       6.217   9.890  19.079  1.00  0.00     0.025 C 
HETATM    3  C9  UNL     1       6.444  10.137  17.610  1.00  0.00     0.003 C 
HETATM    4  C10 UNL     1       5.926  11.447  17.135  1.00  0.00     0.010 C 
HETATM    5  C11 UNL     1       4.533  11.403  16.583  1.00  0.00    -0.038 C 
HETATM    6  C12 UNL     1       4.222  12.786  16.050  1.00  0.00     0.012 C 
HETATM    7  C13 UNL     1       3.544  12.610  14.726  1.00  0.00     0.038 C 
HETATM    8  C14 UNL     1       3.174  11.147  14.667  1.00  0.00     0.171 C 
HETATM    9  F1  UNL     1       3.063  10.673  13.387  1.00  0.00    -0.249 F 
HETATM   10  C15 UNL     1       4.365  10.519  15.402  1.00  0.00     0.046 C 
HETATM   11  C16 UNL     1       3.568  11.092  17.695  1.00  0.00     0.011 C 
HETATM   12  C17 UNL     1       3.830   9.745  18.308  1.00  0.00     0.026 C 
ENDROOT
BRANCH   1  13
HETATM   13  N1  UNL     1       4.571   8.709  20.391  1.00  0.00    -0.351 N 
HETATM   14  C6  UNL     1       4.557   8.957  21.757  1.00  0.00     0.276 C 
HETATM   15  O2  UNL     1       4.729  10.174  22.134  1.00  0.00    -0.265 OA
ATOM     16  H1  UNL     1       4.439   7.762  20.033  1.00  0.00     0.163 HD
BRANCH  14  17
HETATM   17  C5  UNL     1       4.367   7.985  22.823  1.00  0.00     0.148 A 
HETATM   18  C2  UNL     1       5.259   7.273  23.580  1.00  0.00    -0.021 A 
HETATM   19  C1  UNL     1       6.736   7.327  23.487  1.00  0.00     0.051 C 
HETATM   20  C3  UNL     1       4.565   6.468  24.478  1.00  0.00     0.034 A 
HETATM   21  C4  UNL     1       3.249   6.730  24.221  1.00  0.00     0.143 A 
HETATM   22  O1  UNL     1       3.160   7.601  23.270  1.00  0.00    -0.317 OA
ENDBRANCH  14  17
ENDBRANCH   1  13
TORSDOF 2
ENDMDL
MODEL 4
REMARK VINA RESULT: -7.629371972      1.391      1.833
REMARK  2 active torsions:
REMARK  status: ('A' for Active; 'I' for Inactive)
REMARK    1  A    between atoms: C5_6  and  C6_7 
REMARK       I    between atoms: C6_7  and  N1_9 
REMARK    2  A    between atoms: N1_9  and  C7_11 
ROOT
HETATM    1  C7  UNL     1       3.667   8.037  19.164  1.00  0.00     0.084 C 
HETATM    2  C8  UNL     1       3.389   6.594  18.931  1.00  0.00     0.025 C 
HETATM    3  C9  UNL     1       3.883   5.695  20.035  1.00  0.00     0.003 C 
HETATM    4  C10 UNL     1       3.244   5.954  21.351  1.00  0.00     0.010 C 
HETATM    5  C11 UNL     1       3.992   6.910  22.231  1.00  0.00    -0.038 C 
HETATM    6  C12 UNL     1       3.260   6.961  23.556  1.00  0.00     0.012 C 
HETATM    7  C13 UNL     1       4.295   6.916  24.638  1.00  0.00     0.038 C 
HETATM    8  C14 UNL     1       5.607   7.175  23.936  1.00  0.00     0.171 C 
HETATM    9  F1  UNL     1       6.683   6.646  24.597  1.00  0.00    -0.249 F 
HETATM   10  C15 UNL     1       5.361   6.468  22.597  1.00  0.00     0.046 C 
HETATM   11  C16 UNL     1       3.959   8.282  21.614  1.00  0.00     0.011 C 
HETATM   12  C17 UNL     1       4.637   8.312  20.273  1.00  0.00     0.026 C 
ENDROOT
BRANCH   1  13
HETATM   13  N1  UNL     1       4.156   8.637  17.901  1.00  0.00    -0.351 N 
HETATM   14  C6  UNL     1       3.314   9.486  17.195  1.00  0.00     0.276 C 
HETATM   15  O2  UNL     1       2.146   9.699  17.691  1.00  0.00    -0.265 OA
ATOM     16  H1  UNL     1       5.095   8.432  17.558  1.00  0.00     0.163 HD
BRANCH  14  17
HETATM   17  C5  UNL     1       3.606  10.170  15.945  1.00  0.00     0.148 A 
HETATM   18  C2  UNL     1       3.773  11.495  15.645  1.00  0.00    -0.021 A 
HETATM   19  C1  UNL     1       3.691  12.631  16.592  1.00  0.00     0.051 C 
HETATM   20  C3  UNL     1       4.040  11.633  14.286  1.00  0.00     0.034 A 
HETATM   21  C4  UNL     1       4.022  10.355  13.806  1.00  0.00     0.143 A 
HETATM   22  O1  UNL     1       3.772   9.533  14.773  1.00  0.00    -0.317 OA
ENDBRANCH  14  17
ENDBRANCH   1  13
TORSDOF 2
ENDMDL
MODEL 5
REMARK VINA RESULT: -7.555859133      3.568      7.869
REMARK  2 active torsions:
REMARK  status: ('A' for Active; 'I' for Inactive)
REMARK    1  A    between atoms: C5_6  and  C6_7 
REMARK       I    between atoms: C6_7  and  N1_9 
REMARK    2  A    between atoms: N1_9  and  C7_11 
ROOT
HETATM    1  C7  UNL     1       4.834  10.061  19.165  1.00  0.00     0.084 C 
HETATM    2  C8  UNL     1       6.236  10.255  18.705  1.00  0.00     0.025 C 
HETATM    3  C9  UNL     1       6.349  10.649  17.255  1.00  0.00     0.003 C 
HETATM    4  C10 UNL     1       5.705  11.949  16.934  1.00  0.00     0.010 C 
HETATM    5  C11 UNL     1       4.286  11.843  16.462  1.00  0.00    -0.038 C 
HETATM    6  C12 UNL     1       3.840  13.238  16.078  1.00  0.00     0.012 C 
HETATM    7  C13 UNL     1       3.093  13.126  14.784  1.00  0.00     0.038 C 
HETATM    8  C14 UNL     1       2.830  11.649  14.611  1.00  0.00     0.171 C 
HETATM    9  F1  UNL     1       2.673  11.283  13.301  1.00  0.00    -0.249 F 
HETATM   10  C15 UNL     1       4.110  11.056  15.215  1.00  0.00     0.046 C 
HETATM   11  C16 UNL     1       3.421  11.359  17.593  1.00  0.00     0.011 C 
HETATM   12  C17 UNL     1       3.822   9.988  18.062  1.00  0.00     0.026 C 
ENDROOT
BRANCH   1  13
HETATM   13  N1  UNL     1       4.770   8.834  19.993  1.00  0.00    -0.351 N 
HETATM   14  C6  UNL     1       4.591   8.963  21.364  1.00  0.00     0.276 C 
HETATM   15  O2  UNL     1       4.489  10.157  21.832  1.00  0.00    -0.265 OA
ATOM     16  H1  UNL     1       4.856   7.912  19.565  1.00  0.00     0.163 HD
BRANCH  14  17
HETATM   17  C5  UNL     1       4.502   7.890  22.342  1.00  0.00     0.148 A 
HETATM   18  C2  UNL     1       3.781   6.726  22.360  1.00  0.00    -0.021 A 
HETATM   19  C1  UNL     1       2.851   6.249  21.310  1.00  0.00     0.051 C 
HETATM   20  C3  UNL     1       4.050   6.032  23.535  1.00  0.00     0.034 A 
HETATM   21  C4  UNL     1       4.945   6.822  24.198  1.00  0.00     0.143 A 
HETATM   22  O1  UNL     1       5.189   7.881  23.497  1.00  0.00    -0.317 OA
ENDBRANCH  14  17
ENDBRANCH   1  13
TORSDOF 2
ENDMDL
