MODEL 1
REMARK VINA RESULT: -8.568085762      0.000      0.000
REMARK  2 active torsions:
REMARK  status: ('A' for Active; 'I' for Inactive)
REMARK    1  A    between atoms: C2_2  and  C4_4 
REMARK    2  A    between atoms: C13_15  and  C14_16 
ROOT
HETATM    1  C4  UNL     1       2.323   7.556  17.854  1.00  0.00     0.089 C 
HETATM    2  C5  UNL     1       2.975   6.230  17.532  1.00  0.00     0.018 C 
HETATM    3  C6  UNL     1       4.456   6.620  17.436  1.00  0.00     0.045 C 
HETATM    4  C7  UNL     1       4.664   7.890  18.198  1.00  0.00     0.146 C 
HETATM    5  N1  UNL     1       4.945   9.034  17.408  1.00  0.00    -0.382 N 
ATOM      6  H1  UNL     1       4.513   9.935  17.614  1.00  0.00     0.160 HD
HETATM    7  C8  UNL     1       5.838   8.888  16.335  1.00  0.00     0.057 C 
HETATM    8  C9  UNL     1       7.116   8.187  16.593  1.00  0.00     0.049 C 
HETATM    9  C10 UNL     1       7.792   8.556  17.881  1.00  0.00     0.046 C 
HETATM   10  C11 UNL     1       7.043   8.076  19.072  1.00  0.00    -0.023 A 
HETATM   11  C12 UNL     1       7.652   7.841  20.278  1.00  0.00     0.043 A 
HETATM   12  C13 UNL     1       6.676   7.410  21.154  1.00  0.00     0.058 A 
HETATM   13  O1  UNL     1       5.559   7.396  20.493  1.00  0.00    -0.316 OA
HETATM   14  C17 UNL     1       5.709   7.780  19.251  1.00  0.00     0.094 A 
HETATM   15  C18 UNL     1       3.278   8.126  18.836  1.00  0.00     0.281 C 
HETATM   16  F1  UNL     1       3.194   7.444  20.023  1.00  0.00    -0.202 F 
HETATM   17  F2  UNL     1       3.015   9.445  19.044  1.00  0.00    -0.202 F 
ENDROOT
BRANCH   1  18
HETATM   18  C2  UNL     1       0.939   7.346  18.276  1.00  0.00    -0.083 C 
HETATM   19  C1  UNL     1      -0.009   8.231  18.353  1.00  0.00     0.014 C 
HETATM   20  C3  UNL     1       0.567   5.928  18.687  1.00  0.00     0.043 C 
ENDBRANCH   1  18
BRANCH  12  21
HETATM   21  C14 UNL     1       6.856   7.028  22.600  1.00  0.00     0.043 A 
HETATM   22  C15 UNL     1       5.600   7.044  23.388  1.00  0.00     0.012 A 
HETATM   23  C16 UNL     1       6.635   8.069  23.642  1.00  0.00     0.012 A 
ENDBRANCH  12  21
TORSDOF 2
ENDMDL
MODEL 2
REMARK VINA RESULT: -8.446689925      2.081      5.391
REMARK  2 active torsions:
REMARK  status: ('A' for Active; 'I' for Inactive)
REMARK    1  A    between atoms: C2_2  and  C4_4 
REMARK    2  A    between atoms: C13_15  and  C14_16 
ROOT
HETATM    1  C4  UNL     1       6.298   9.651  19.263  1.00  0.00     0.089 C 
HETATM    2  C5  UNL     1       6.986   8.315  19.090  1.00  0.00     0.018 C 
HETATM    3  C6  UNL     1       6.454   7.528  20.295  1.00  0.00     0.045 C 
HETATM    4  C7  UNL     1       5.172   8.153  20.744  1.00  0.00     0.146 C 
HETATM    5  N1  UNL     1       5.227   8.829  21.989  1.00  0.00    -0.382 N 
ATOM      6  H1  UNL     1       4.768   9.731  22.120  1.00  0.00     0.160 HD
HETATM    7  C8  UNL     1       5.933   8.218  23.037  1.00  0.00     0.057 C 
HETATM    8  C9  UNL     1       5.664   6.788  23.308  1.00  0.00     0.049 C 
HETATM    9  C10 UNL     1       4.217   6.396  23.261  1.00  0.00     0.046 C 
HETATM   10  C11 UNL     1       3.657   6.461  21.885  1.00  0.00    -0.023 A 
HETATM   11  C12 UNL     1       2.574   5.714  21.496  1.00  0.00     0.043 A 
HETATM   12  C13 UNL     1       2.322   6.014  20.172  1.00  0.00     0.058 A 
HETATM   13  O1  UNL     1       3.211   6.889  19.811  1.00  0.00    -0.316 OA
HETATM   14  C17 UNL     1       4.032   7.196  20.781  1.00  0.00     0.094 A 
HETATM   15  C18 UNL     1       4.933   9.233  19.667  1.00  0.00     0.281 C 
HETATM   16  F1  UNL     1       4.274   8.682  18.597  1.00  0.00    -0.202 F 
HETATM   17  F2  UNL     1       4.231  10.299  20.140  1.00  0.00    -0.202 F 
ENDROOT
BRANCH   1  18
HETATM   18  C2  UNL     1       6.445  10.452  18.048  1.00  0.00    -0.083 C 
HETATM   19  C1  UNL     1       6.255  11.730  17.913  1.00  0.00     0.014 C 
HETATM   20  C3  UNL     1       6.857   9.699  16.789  1.00  0.00     0.043 C 
ENDBRANCH   1  18
BRANCH  12  21
HETATM   21  C14 UNL     1       1.232   5.446  19.302  1.00  0.00     0.043 A 
HETATM   22  C15 UNL     1       1.169   6.045  17.947  1.00  0.00     0.012 A 
HETATM   23  C16 UNL     1       0.095   6.329  18.922  1.00  0.00     0.012 A 
ENDBRANCH  12  21
TORSDOF 2
ENDMDL
MODEL 3
REMARK VINA RESULT: -8.232222596      2.100      4.107
REMARK  2 active torsions:
REMARK  status: ('A' for Active; 'I' for Inactive)
REMARK    1  A    between atoms: C2_2  and  C4_4 
REMARK    2  A    between atoms: C13_15  and  C14_16 
ROOT
HETATM    1  C4  UNL     1       3.220   8.715  16.849  1.00  0.00     0.089 C 
HETATM    2  C5  UNL     1       2.079   9.254  17.684  1.00  0.00     0.018 C 
HETATM    3  C6  UNL     1       1.706   8.033  18.536  1.00  0.00     0.045 C 
HETATM    4  C7  UNL     1       2.884   7.112  18.589  1.00  0.00     0.146 C 
HETATM    5  N1  UNL     1       2.736   5.893  17.880  1.00  0.00    -0.382 N 
ATOM      6  H1  UNL     1       3.497   5.518  17.313  1.00  0.00     0.160 HD
HETATM    7  C8  UNL     1       1.510   5.218  17.983  1.00  0.00     0.057 C 
HETATM    8  C9  UNL     1       0.938   5.031  19.335  1.00  0.00     0.049 C 
HETATM    9  C10 UNL     1       1.926   4.628  20.390  1.00  0.00     0.046 C 
HETATM   10  C11 UNL     1       2.884   5.718  20.714  1.00  0.00    -0.023 A 
HETATM   11  C12 UNL     1       3.526   5.797  21.924  1.00  0.00     0.043 A 
HETATM   12  C13 UNL     1       4.332   6.917  21.888  1.00  0.00     0.058 A 
HETATM   13  O1  UNL     1       4.168   7.460  20.720  1.00  0.00    -0.316 OA
HETATM   14  C17 UNL     1       3.321   6.797  19.976  1.00  0.00     0.094 A 
HETATM   15  C18 UNL     1       3.972   7.921  17.851  1.00  0.00     0.281 C 
HETATM   16  F1  UNL     1       4.605   8.759  18.735  1.00  0.00    -0.202 F 
HETATM   17  F2  UNL     1       4.889   7.126  17.235  1.00  0.00    -0.202 F 
ENDROOT
BRANCH   1  18
HETATM   18  C2  UNL     1       3.910   9.813  16.175  1.00  0.00    -0.083 C 
HETATM   19  C1  UNL     1       4.050  11.036  16.590  1.00  0.00     0.014 C 
HETATM   20  C3  UNL     1       4.527   9.491  14.820  1.00  0.00     0.043 C 
ENDBRANCH   1  18
BRANCH  12  21
HETATM   21  C14 UNL     1       5.234   7.424  22.983  1.00  0.00     0.043 A 
HETATM   22  C15 UNL     1       6.263   8.385  22.519  1.00  0.00     0.012 A 
HETATM   23  C16 UNL     1       6.670   7.033  22.958  1.00  0.00     0.012 A 
ENDBRANCH  12  21
TORSDOF 2
ENDMDL
MODEL 4
REMARK VINA RESULT: -8.210699521      2.310      4.785
REMARK  2 active torsions:
REMARK  status: ('A' for Active; 'I' for Inactive)
REMARK    1  A    between atoms: C2_2  and  C4_4 
REMARK    2  A    between atoms: C13_15  and  C14_16 
ROOT
HETATM    1  C4  UNL     1       4.517  11.116  17.229  1.00  0.00     0.089 C 
HETATM    2  C5  UNL     1       5.309   9.982  16.615  1.00  0.00     0.018 C 
HETATM    3  C6  UNL     1       5.596   9.099  17.836  1.00  0.00     0.045 C 
HETATM    4  C7  UNL     1       4.581   9.402  18.892  1.00  0.00     0.146 C 
HETATM    5  N1  UNL     1       5.075  10.080  20.035  1.00  0.00    -0.382 N 
ATOM      6  H1  UNL     1       4.552  10.847  20.460  1.00  0.00     0.160 HD
HETATM    7  C8  UNL     1       6.306   9.664  20.565  1.00  0.00     0.057 C 
HETATM    8  C9  UNL     1       6.512   8.213  20.773  1.00  0.00     0.049 C 
HETATM    9  C10 UNL     1       5.338   7.485  21.359  1.00  0.00     0.046 C 
HETATM   10  C11 UNL     1       4.193   7.404  20.414  1.00  0.00    -0.023 A 
HETATM   11  C12 UNL     1       3.243   6.416  20.492  1.00  0.00     0.043 A 
HETATM   12  C13 UNL     1       2.336   6.638  19.476  1.00  0.00     0.058 A 
HETATM   13  O1  UNL     1       2.735   7.698  18.842  1.00  0.00    -0.316 OA
HETATM   14  C17 UNL     1       3.831   8.200  19.349  1.00  0.00     0.094 A 
HETATM   15  C18 UNL     1       3.635  10.385  18.171  1.00  0.00     0.281 C 
HETATM   16  F1  UNL     1       2.682   9.685  17.475  1.00  0.00    -0.202 F 
HETATM   17  F2  UNL     1       3.032  11.255  19.027  1.00  0.00    -0.202 F 
ENDROOT
BRANCH   1  18
HETATM   18  C2  UNL     1       3.895  11.920  16.179  1.00  0.00    -0.083 C 
HETATM   19  C1  UNL     1       3.414  13.123  16.280  1.00  0.00     0.014 C 
HETATM   20  C3  UNL     1       3.782  11.268  14.807  1.00  0.00     0.043 C 
ENDBRANCH   1  18
BRANCH  12  21
HETATM   21  C14 UNL     1       1.113   5.820  19.154  1.00  0.00     0.043 A 
HETATM   22  C15 UNL     1       0.522   6.117  17.827  1.00  0.00     0.012 A 
HETATM   23  C16 UNL     1      -0.200   6.513  19.055  1.00  0.00     0.012 A 
ENDBRANCH  12  21
TORSDOF 2
ENDMDL
MODEL 5
REMARK VINA RESULT: -8.193166537      2.213      4.644
REMARK  2 active torsions:
REMARK  status: ('A' for Active; 'I' for Inactive)
REMARK    1  A    between atoms: C2_2  and  C4_4 
REMARK    2  A    between atoms: C13_15  and  C14_16 
ROOT
HETATM    1  C4  UNL     1       4.666  10.593  17.190  1.00  0.00     0.089 C 
HETATM    2  C5  UNL     1       5.455   9.389  16.724  1.00  0.00     0.018 C 
HETATM    3  C6  UNL     1       5.690   8.637  18.041  1.00  0.00     0.045 C 
HETATM    4  C7  UNL     1       4.649   9.065  19.026  1.00  0.00     0.146 C 
HETATM    5  N1  UNL     1       5.121   9.853  20.106  1.00  0.00    -0.382 N 
ATOM      6  H1  UNL     1       4.600  10.668  20.430  1.00  0.00     0.160 HD
HETATM    7  C8  UNL     1       6.328   9.478  20.715  1.00  0.00     0.057 C 
HETATM    8  C9  UNL     1       6.501   8.054  21.081  1.00  0.00     0.049 C 
HETATM    9  C10 UNL     1       5.298   7.410  21.704  1.00  0.00     0.046 C 
HETATM   10  C11 UNL     1       4.180   7.246  20.738  1.00  0.00    -0.023 A 
HETATM   11  C12 UNL     1       3.211   6.287  20.890  1.00  0.00     0.043 A 
HETATM   12  C13 UNL     1       2.338   6.413  19.828  1.00  0.00     0.058 A 
HETATM   13  O1  UNL     1       2.775   7.393  19.098  1.00  0.00    -0.316 OA
HETATM   14  C17 UNL     1       3.865   7.929  19.583  1.00  0.00     0.094 A 
HETATM   15  C18 UNL     1       3.743   9.980  18.176  1.00  0.00     0.281 C 
HETATM   16  F1  UNL     1       2.799   9.224  17.528  1.00  0.00    -0.202 F 
HETATM   17  F2  UNL     1       3.131  10.945  18.916  1.00  0.00    -0.202 F 
ENDROOT
BRANCH   1  18
HETATM   18  C2  UNL     1       4.090  11.290  16.041  1.00  0.00    -0.083 C 
HETATM   19  C1  UNL     1       3.804  10.795  14.874  1.00  0.00     0.014 C 
HETATM   20  C3  UNL     1       3.804  12.775  16.227  1.00  0.00     0.043 C 
ENDBRANCH   1  18
BRANCH  12  21
HETATM   21  C14 UNL     1       1.110   5.583  19.556  1.00  0.00     0.043 A 
HETATM   22  C15 UNL     1       1.252   4.156  19.933  1.00  0.00     0.012 A 
HETATM   23  C16 UNL     1       1.184   4.531  18.505  1.00  0.00     0.012 A 
ENDBRANCH  12  21
TORSDOF 2
ENDMDL
