MODEL 1
REMARK VINA RESULT: -6.662820998      0.000      0.000
REMARK  4 active torsions:
REMARK  status: ('A' for Active; 'I' for Inactive)
REMARK    1  A    between atoms: C2_2  and  C5_5 
REMARK    2  A    between atoms: C5_5  and  N1_7 
REMARK    3  A    between atoms: N1_7  and  C6_9 
REMARK    4  A    between atoms: C6_9  and  C7_10 
ROOT
HETATM    1  C6  UNL     1       3.615   6.568  19.586  1.00  0.00     0.059 C 
HETATM    2  C11 UNL     1       2.835   5.292  19.547  1.00  0.00     0.039 C 
HETATM    3  C12 UNL     1       1.822   5.116  18.480  1.00  0.00     0.040 C 
HETATM    4  C13 UNL     1       0.906   6.294  18.461  1.00  0.00     0.170 C 
HETATM    5  F1  UNL     1      -0.054   6.188  17.452  1.00  0.00    -0.249 F 
HETATM    6  C14 UNL     1       1.710   7.514  18.176  1.00  0.00     0.040 C 
HETATM    7  C15 UNL     1       2.906   7.739  19.044  1.00  0.00     0.039 C 
ENDROOT
BRANCH   1   8
HETATM    8  N1  UNL     1       4.940   6.467  19.065  1.00  0.00    -0.370 N 
ATOM      9  H1  UNL     1       5.553   5.900  19.651  1.00  0.00     0.161 HD
BRANCH   8  10
HETATM   10  C5  UNL     1       5.575   6.961  17.953  1.00  0.00     0.082 C 
HETATM   11  S1  UNL     1       5.215   6.565  16.443  1.00  0.00    -0.065 SA
BRANCH  10  12
HETATM   12  C2  UNL     1       6.663   7.965  18.136  1.00  0.00     0.002 C 
HETATM   13  C1  UNL     1       7.568   7.476  19.253  1.00  0.00     0.022 C 
HETATM   14  C3  UNL     1       6.172   9.328  18.489  1.00  0.00     0.022 C 
HETATM   15  C4  UNL     1       7.542   7.985  16.885  1.00  0.00     0.022 C 
ENDBRANCH  10  12
ENDBRANCH   8  10
ENDBRANCH   1   8
BRANCH   1  16
HETATM   16  C7  UNL     1       3.877   6.817  21.092  1.00  0.00    -0.023 A 
HETATM   17  C8  UNL     1       4.807   7.680  21.546  1.00  0.00     0.017 A 
HETATM   18  C9  UNL     1       4.937   7.845  22.887  1.00  0.00     0.050 A 
HETATM   19  S2  UNL     1       3.766   6.799  23.532  1.00  0.00    -0.113 SA
HETATM   20  C10 UNL     1       3.135   6.173  22.042  1.00  0.00     0.059 A 
ENDBRANCH   1  16
TORSDOF 4
ENDMDL
MODEL 2
REMARK VINA RESULT: -6.635670254      2.506      4.522
REMARK  4 active torsions:
REMARK  status: ('A' for Active; 'I' for Inactive)
REMARK    1  A    between atoms: C2_2  and  C5_5 
REMARK    2  A    between atoms: C5_5  and  N1_7 
REMARK    3  A    between atoms: N1_7  and  C6_9 
REMARK    4  A    between atoms: C6_9  and  C7_10 
ROOT
HETATM    1  C6  UNL     1       5.141   7.803  19.983  1.00  0.00     0.059 C 
HETATM    2  C11 UNL     1       5.433   9.236  19.666  1.00  0.00     0.039 C 
HETATM    3  C12 UNL     1       5.897   9.577  18.302  1.00  0.00     0.040 C 
HETATM    4  C13 UNL     1       7.055   8.711  17.936  1.00  0.00     0.170 C 
HETATM    5  F1  UNL     1       7.514   8.977  16.644  1.00  0.00    -0.249 F 
HETATM    6  C14 UNL     1       6.612   7.290  17.960  1.00  0.00     0.040 C 
HETATM    7  C15 UNL     1       5.929   6.830  19.207  1.00  0.00     0.039 C 
ENDROOT
BRANCH   1   8
HETATM    8  N1  UNL     1       3.753   7.469  19.990  1.00  0.00    -0.370 N 
ATOM      9  H1  UNL     1       3.208   8.060  20.619  1.00  0.00     0.161 HD
BRANCH   8  10
HETATM   10  C5  UNL     1       2.986   6.533  19.343  1.00  0.00     0.082 C 
HETATM   11  S1  UNL     1       2.695   5.055  19.888  1.00  0.00    -0.065 SA
BRANCH  10  12
HETATM   12  C2  UNL     1       2.342   6.904  18.051  1.00  0.00     0.002 C 
HETATM   13  C1  UNL     1       0.980   6.236  17.998  1.00  0.00     0.022 C 
HETATM   14  C3  UNL     1       3.119   6.488  16.848  1.00  0.00     0.022 C 
HETATM   15  C4  UNL     1       2.054   8.406  18.047  1.00  0.00     0.022 C 
ENDBRANCH  10  12
ENDBRANCH   8  10
ENDBRANCH   1   8
BRANCH   1  16
HETATM   16  C7  UNL     1       5.519   7.649  21.477  1.00  0.00    -0.023 A 
HETATM   17  C8  UNL     1       4.636   7.289  22.428  1.00  0.00     0.017 A 
HETATM   18  C9  UNL     1       5.078   7.157  23.705  1.00  0.00     0.050 A 
HETATM   19  S2  UNL     1       6.730   7.533  23.595  1.00  0.00    -0.113 SA
HETATM   20  C10 UNL     1       6.806   7.853  21.892  1.00  0.00     0.059 A 
ENDBRANCH   1  16
TORSDOF 4
ENDMDL
MODEL 3
REMARK VINA RESULT: -6.595616373      1.921      4.167
REMARK  4 active torsions:
REMARK  status: ('A' for Active; 'I' for Inactive)
REMARK    1  A    between atoms: C2_2  and  C5_5 
REMARK    2  A    between atoms: C5_5  and  N1_7 
REMARK    3  A    between atoms: N1_7  and  C6_9 
REMARK    4  A    between atoms: C6_9  and  C7_10 
ROOT
HETATM    1  C6  UNL     1       2.791   7.390  18.286  1.00  0.00     0.059 C 
HETATM    2  C11 UNL     1       1.347   7.782  18.327  1.00  0.00     0.039 C 
HETATM    3  C12 UNL     1       0.394   6.893  19.029  1.00  0.00     0.040 C 
HETATM    4  C13 UNL     1       0.546   5.497  18.523  1.00  0.00     0.170 C 
HETATM    5  F1  UNL     1      -0.317   4.613  19.173  1.00  0.00    -0.249 F 
HETATM    6  C14 UNL     1       1.935   5.041  18.800  1.00  0.00     0.040 C 
HETATM    7  C15 UNL     1       3.034   5.938  18.332  1.00  0.00     0.039 C 
ENDROOT
BRANCH   1   8
HETATM    8  N1  UNL     1       3.621   8.092  19.210  1.00  0.00    -0.370 N 
ATOM      9  H1  UNL     1       3.452   9.098  19.208  1.00  0.00     0.161 HD
BRANCH   8  10
HETATM   10  C5  UNL     1       4.596   7.719  20.102  1.00  0.00     0.082 C 
HETATM   11  S1  UNL     1       4.318   7.130  21.566  1.00  0.00    -0.065 SA
BRANCH  10  12
HETATM   12  C2  UNL     1       6.024   7.833  19.691  1.00  0.00     0.002 C 
HETATM   13  C1  UNL     1       6.235   9.220  19.111  1.00  0.00     0.022 C 
HETATM   14  C3  UNL     1       6.440   6.827  18.671  1.00  0.00     0.022 C 
HETATM   15  C4  UNL     1       6.910   7.778  20.935  1.00  0.00     0.022 C 
ENDBRANCH  10  12
ENDBRANCH   8  10
ENDBRANCH   1   8
BRANCH   1  16
HETATM   16  C7  UNL     1       3.300   7.922  16.924  1.00  0.00    -0.023 A 
HETATM   17  C8  UNL     1       3.414   9.234  16.640  1.00  0.00     0.017 A 
HETATM   18  C9  UNL     1       3.898   9.594  15.424  1.00  0.00     0.050 A 
HETATM   19  S2  UNL     1       4.199   8.109  14.661  1.00  0.00    -0.113 SA
HETATM   20  C10 UNL     1       3.690   7.056  15.941  1.00  0.00     0.059 A 
ENDBRANCH   1  16
TORSDOF 4
ENDMDL
MODEL 4
REMARK VINA RESULT: -6.578074717      2.944      4.254
REMARK  4 active torsions:
REMARK  status: ('A' for Active; 'I' for Inactive)
REMARK    1  A    between atoms: C2_2  and  C5_5 
REMARK    2  A    between atoms: C5_5  and  N1_7 
REMARK    3  A    between atoms: N1_7  and  C6_9 
REMARK    4  A    between atoms: C6_9  and  C7_10 
ROOT
HETATM    1  C6  UNL     1       5.560   8.019  20.118  1.00  0.00     0.059 C 
HETATM    2  C11 UNL     1       6.986   8.323  19.780  1.00  0.00     0.039 C 
HETATM    3  C12 UNL     1       7.473   8.002  18.419  1.00  0.00     0.040 C 
HETATM    4  C13 UNL     1       7.147   6.583  18.092  1.00  0.00     0.170 C 
HETATM    5  F1  UNL     1       7.564   6.237  16.806  1.00  0.00    -0.249 F 
HETATM    6  C14 UNL     1       5.668   6.414  18.135  1.00  0.00     0.040 C 
HETATM    7  C15 UNL     1       4.982   6.885  19.377  1.00  0.00     0.039 C 
ENDROOT
BRANCH   1   8
HETATM    8  N1  UNL     1       4.694   9.152  20.104  1.00  0.00    -0.370 N 
ATOM      9  H1  UNL     1       3.947   9.088  20.796  1.00  0.00     0.161 HD
BRANCH   8  10
HETATM   10  C5  UNL     1       4.639  10.311  19.369  1.00  0.00     0.082 C 
HETATM   11  S1  UNL     1       5.395  11.671  19.749  1.00  0.00    -0.065 SA
BRANCH  10  12
HETATM   12  C2  UNL     1       3.847  10.320  18.105  1.00  0.00     0.002 C 
HETATM   13  C1  UNL     1       3.444  11.755  17.817  1.00  0.00     0.022 C 
HETATM   14  C3  UNL     1       2.613   9.484  18.160  1.00  0.00     0.022 C 
HETATM   15  C4  UNL     1       4.755   9.916  16.943  1.00  0.00     0.022 C 
ENDBRANCH  10  12
ENDBRANCH   8  10
ENDBRANCH   1   8
BRANCH   1  16
HETATM   16  C7  UNL     1       5.587   7.649  21.622  1.00  0.00    -0.023 A 
HETATM   17  C8  UNL     1       6.712   7.657  22.363  1.00  0.00     0.017 A 
HETATM   18  C9  UNL     1       6.621   7.343  23.681  1.00  0.00     0.050 A 
HETATM   19  S2  UNL     1       4.967   7.033  23.902  1.00  0.00    -0.113 SA
HETATM   20  C10 UNL     1       4.433   7.320  22.277  1.00  0.00     0.059 A 
ENDBRANCH   1  16
TORSDOF 4
ENDMDL
MODEL 5
REMARK VINA RESULT: -6.554245200      3.033      4.238
REMARK  4 active torsions:
REMARK  status: ('A' for Active; 'I' for Inactive)
REMARK    1  A    between atoms: C2_2  and  C5_5 
REMARK    2  A    between atoms: C5_5  and  N1_7 
REMARK    3  A    between atoms: N1_7  and  C6_9 
REMARK    4  A    between atoms: C6_9  and  C7_10 
ROOT
HETATM    1  C6  UNL     1       3.656   8.002  17.254  1.00  0.00     0.059 C 
HETATM    2  C11 UNL     1       3.949   7.206  16.021  1.00  0.00     0.039 C 
HETATM    3  C12 UNL     1       4.712   7.852  14.928  1.00  0.00     0.040 C 
HETATM    4  C13 UNL     1       4.074   9.154  14.575  1.00  0.00     0.170 C 
HETATM    5  F1  UNL     1       4.772   9.816  13.563  1.00  0.00    -0.249 F 
HETATM    6  C14 UNL     1       4.097  10.035  15.774  1.00  0.00     0.040 C 
HETATM    7  C15 UNL     1       3.543   9.454  17.035  1.00  0.00     0.039 C 
ENDROOT
BRANCH   1   8
HETATM    8  N1  UNL     1       4.498   7.702  18.366  1.00  0.00    -0.370 N 
ATOM      9  H1  UNL     1       4.232   6.839  18.842  1.00  0.00     0.161 HD
BRANCH   8  10
HETATM   10  C5  UNL     1       5.586   8.311  18.940  1.00  0.00     0.082 C 
HETATM   11  S1  UNL     1       5.517   9.327  20.177  1.00  0.00    -0.065 SA
BRANCH  10  12
HETATM   12  C2  UNL     1       6.945   7.998  18.412  1.00  0.00     0.002 C 
HETATM   13  C1  UNL     1       7.943   8.205  19.536  1.00  0.00     0.022 C 
HETATM   14  C3  UNL     1       7.352   8.848  17.255  1.00  0.00     0.022 C 
HETATM   15  C4  UNL     1       7.020   6.509  18.075  1.00  0.00     0.022 C 
ENDBRANCH  10  12
ENDBRANCH   8  10
ENDBRANCH   1   8
BRANCH   1  16
HETATM   16  C7  UNL     1       2.281   7.478  17.737  1.00  0.00    -0.023 A 
HETATM   17  C8  UNL     1       1.967   6.169  17.788  1.00  0.00     0.017 A 
HETATM   18  C9  UNL     1       0.742   5.815  18.254  1.00  0.00     0.050 A 
HETATM   19  S2  UNL     1       0.014   7.302  18.627  1.00  0.00    -0.113 SA
HETATM   20  C10 UNL     1       1.319   8.348  18.169  1.00  0.00     0.059 A 
ENDBRANCH   1  16
TORSDOF 4
ENDMDL
