MODEL 1
REMARK VINA RESULT: -7.927334395      0.000      0.000
REMARK  6 active torsions:
REMARK  status: ('A' for Active; 'I' for Inactive)
REMARK    1  A    between atoms: C2_2  and  C3_3 
REMARK    2  A    between atoms: N1_6  and  O1_8 
REMARK    3  A    between atoms: O1_8  and  C6_9 
REMARK    4  A    between atoms: C18_22  and  C19_23 
REMARK    5  A    between atoms: C19_23  and  C21_25 
REMARK    6  A    between atoms: C21_25  and  O2_26 
ROOT
HETATM    1  C3  UNL     1       4.619   8.938  18.538  1.00  0.00     0.018 C 
HETATM    2  C4  UNL     1       3.808   9.888  17.747  1.00  0.00     0.026 C 
HETATM    3  C5  UNL     1       4.141   7.593  18.148  1.00  0.00     0.023 C 
HETATM    4  N1  UNL     1       2.861   7.429  18.202  1.00  0.00    -0.273 N 
ATOM      5  H1  UNL     1       2.302   8.226  18.505  1.00  0.00     0.193 HD
HETATM    6  C10 UNL     1       4.951   6.458  17.721  1.00  0.00     0.061 C 
HETATM    7  C11 UNL     1       6.411   6.701  17.773  1.00  0.00    -0.000 C 
HETATM    8  C12 UNL     1       7.156   5.711  16.930  1.00  0.00     0.007 C 
HETATM    9  C13 UNL     1       7.586   6.184  15.600  1.00  0.00     0.020 C 
HETATM   10  C14 UNL     1       7.096   7.491  15.133  1.00  0.00     0.083 C 
HETATM   11 CL1  UNL     1       5.654   7.287  14.067  1.00  0.00    -0.125 Cl
HETATM   12  C15 UNL     1       6.898   8.571  16.149  1.00  0.00     0.030 C 
HETATM   13  C16 UNL     1       6.831   8.134  17.544  1.00  0.00    -0.033 C 
HETATM   14  C17 UNL     1       8.287   8.132  18.066  1.00  0.00     0.016 C 
HETATM   15  C18 UNL     1       6.071   9.017  18.516  1.00  0.00     0.017 C 
ENDROOT
BRANCH   1  16
HETATM   16  C2  UNL     1       4.133   9.023  19.976  1.00  0.00    -0.021 C 
HETATM   17  C1  UNL     1       4.557   8.159  20.894  1.00  0.00     0.008 C 
ENDBRANCH   1  16
BRANCH   4  18
HETATM   18  O1  UNL     1       2.204   6.295  17.894  1.00  0.00    -0.271 OA
BRANCH  18  19
HETATM   19  C6  UNL     1       1.196   5.796  18.732  1.00  0.00     0.078 C 
HETATM   20  C7  UNL     1       1.799   5.656  20.123  1.00  0.00     0.048 C 
HETATM   21  C8  UNL     1       0.705   4.452  18.268  1.00  0.00     0.048 C 
HETATM   22  C9  UNL     1       0.044   6.770  18.728  1.00  0.00     0.048 C 
ENDBRANCH  18  19
ENDBRANCH   4  18
BRANCH  15  23
HETATM   23  C19 UNL     1       6.748  10.313  18.789  1.00  0.00     0.011 C 
HETATM   24  C20 UNL     1       6.944  10.602  20.292  1.00  0.00     0.012 C 
BRANCH  23  25
HETATM   25  C21 UNL     1       6.189  11.571  18.253  1.00  0.00     0.168 C 
BRANCH  25  26
HETATM   26  O2  UNL     1       5.718  12.281  19.398  1.00  0.00    -0.400 OA
ATOM     27  H2  UNL     1       6.088  11.818  20.140  1.00  0.00     0.209 HD
ENDBRANCH  25  26
ENDBRANCH  23  25
ENDBRANCH  15  23
TORSDOF 6
ENDMDL
MODEL 2
REMARK VINA RESULT: -7.770527886      2.433      5.017
REMARK  6 active torsions:
REMARK  status: ('A' for Active; 'I' for Inactive)
REMARK    1  A    between atoms: C2_2  and  C3_3 
REMARK    2  A    between atoms: N1_6  and  O1_8 
REMARK    3  A    between atoms: O1_8  and  C6_9 
REMARK    4  A    between atoms: C18_22  and  C19_23 
REMARK    5  A    between atoms: C19_23  and  C21_25 
REMARK    6  A    between atoms: C21_25  and  O2_26 
ROOT
HETATM    1  C3  UNL     1       4.914   9.220  19.192  1.00  0.00     0.018 C 
HETATM    2  C4  UNL     1       6.200   9.237  18.461  1.00  0.00     0.026 C 
HETATM    3  C5  UNL     1       3.888   9.590  18.192  1.00  0.00     0.023 C 
HETATM    4  N1  UNL     1       4.142  10.660  17.516  1.00  0.00    -0.273 N 
ATOM      5  H1  UNL     1       5.012  11.149  17.728  1.00  0.00     0.193 HD
HETATM    6  C10 UNL     1       2.645   8.885  17.900  1.00  0.00     0.061 C 
HETATM    7  C11 UNL     1       2.386   7.722  18.780  1.00  0.00    -0.000 C 
HETATM    8  C12 UNL     1       1.372   6.799  18.175  1.00  0.00     0.007 C 
HETATM    9  C13 UNL     1       1.905   5.597  17.507  1.00  0.00     0.020 C 
HETATM   10  C14 UNL     1       3.361   5.493  17.316  1.00  0.00     0.083 C 
HETATM   11 CL1  UNL     1       3.827   6.037  15.660  1.00  0.00    -0.125 Cl
HETATM   12  C15 UNL     1       4.251   6.070  18.371  1.00  0.00     0.030 C 
HETATM   13  C16 UNL     1       3.622   7.018  19.291  1.00  0.00    -0.033 C 
HETATM   14  C17 UNL     1       3.054   6.176  20.458  1.00  0.00     0.016 C 
HETATM   15  C18 UNL     1       4.519   8.046  19.955  1.00  0.00     0.017 C 
ENDROOT
BRANCH   1  16
HETATM   16  C2  UNL     1       4.899  10.438  20.102  1.00  0.00    -0.021 C 
HETATM   17  C1  UNL     1       6.006  11.141  20.323  1.00  0.00     0.008 C 
ENDBRANCH   1  16
BRANCH   4  18
HETATM   18  O1  UNL     1       3.357  11.186  16.557  1.00  0.00    -0.271 OA
BRANCH  18  19
HETATM   19  C6  UNL     1       3.845  12.169  15.685  1.00  0.00     0.078 C 
HETATM   20  C7  UNL     1       5.308  12.396  16.039  1.00  0.00     0.048 C 
HETATM   21  C8  UNL     1       3.095  13.464  15.835  1.00  0.00     0.048 C 
HETATM   22  C9  UNL     1       3.693  11.672  14.269  1.00  0.00     0.048 C 
ENDBRANCH  18  19
ENDBRANCH   4  18
BRANCH  15  23
HETATM   23  C19 UNL     1       5.455   7.458  20.950  1.00  0.00     0.011 C 
HETATM   24  C20 UNL     1       5.187   7.919  22.397  1.00  0.00     0.012 C 
BRANCH  23  25
HETATM   25  C21 UNL     1       6.914   7.624  20.786  1.00  0.00     0.168 C 
BRANCH  25  26
HETATM   26  O2  UNL     1       7.325   8.393  21.916  1.00  0.00    -0.400 OA
ATOM     27  H2  UNL     1       7.945   9.023  21.569  1.00  0.00     0.209 HD
ENDBRANCH  25  26
ENDBRANCH  23  25
ENDBRANCH  15  23
TORSDOF 6
ENDMDL
MODEL 3
REMARK VINA RESULT: -7.647284156      1.071      1.322
REMARK  6 active torsions:
REMARK  status: ('A' for Active; 'I' for Inactive)
REMARK    1  A    between atoms: C2_2  and  C3_3 
REMARK    2  A    between atoms: N1_6  and  O1_8 
REMARK    3  A    between atoms: O1_8  and  C6_9 
REMARK    4  A    between atoms: C18_22  and  C19_23 
REMARK    5  A    between atoms: C19_23  and  C21_25 
REMARK    6  A    between atoms: C21_25  and  O2_26 
ROOT
HETATM    1  C3  UNL     1       4.701   9.188  17.673  1.00  0.00     0.018 C 
HETATM    2  C4  UNL     1       4.326  10.129  16.596  1.00  0.00     0.026 C 
HETATM    3  C5  UNL     1       4.116   7.887  17.280  1.00  0.00     0.023 C 
HETATM    4  N1  UNL     1       2.863   7.921  16.967  1.00  0.00    -0.273 N 
ATOM      5  H1  UNL     1       2.395   8.826  17.018  1.00  0.00     0.193 HD
HETATM    6  C10 UNL     1       4.794   6.598  17.216  1.00  0.00     0.061 C 
HETATM    7  C11 UNL     1       6.201   6.629  17.677  1.00  0.00    -0.000 C 
HETATM    8  C12 UNL     1       6.960   5.434  17.184  1.00  0.00     0.007 C 
HETATM    9  C13 UNL     1       7.819   5.652  16.005  1.00  0.00     0.020 C 
HETATM   10  C14 UNL     1       7.722   6.940  15.299  1.00  0.00     0.083 C 
HETATM   11 CL1  UNL     1       6.621   6.804  13.876  1.00  0.00    -0.125 Cl
HETATM   12  C15 UNL     1       7.448   8.167  16.110  1.00  0.00     0.030 C 
HETATM   13  C16 UNL     1       6.919   7.940  17.455  1.00  0.00    -0.033 C 
HETATM   14  C17 UNL     1       8.148   7.796  18.384  1.00  0.00     0.016 C 
HETATM   15  C18 UNL     1       6.091   9.050  18.076  1.00  0.00     0.017 C 
ENDROOT
BRANCH   1  16
HETATM   16  C2  UNL     1       3.858   9.541  18.889  1.00  0.00    -0.021 C 
HETATM   17  C1  UNL     1       3.174  10.680  18.940  1.00  0.00     0.008 C 
ENDBRANCH   1  16
BRANCH   4  18
HETATM   18  O1  UNL     1       2.124   6.865  16.580  1.00  0.00    -0.271 OA
BRANCH  18  19
HETATM   19  C6  UNL     1       0.961   6.506  17.277  1.00  0.00     0.078 C 
HETATM   20  C7  UNL     1       1.233   5.162  17.938  1.00  0.00     0.048 C 
HETATM   21  C8  UNL     1      -0.219   6.372  16.353  1.00  0.00     0.048 C 
HETATM   22  C9  UNL     1       0.667   7.574  18.301  1.00  0.00     0.048 C 
ENDBRANCH  18  19
ENDBRANCH   4  18
BRANCH  15  23
HETATM   23  C19 UNL     1       6.888  10.258  18.421  1.00  0.00     0.011 C 
HETATM   24  C20 UNL     1       6.793  10.656  19.908  1.00  0.00     0.012 C 
BRANCH  23  25
HETATM   25  C21 UNL     1       6.665  11.527  17.696  1.00  0.00     0.168 C 
BRANCH  25  26
HETATM   26  O2  UNL     1       6.102  12.409  18.666  1.00  0.00    -0.400 OA
ATOM     27  H2  UNL     1       6.098  11.911  19.475  1.00  0.00     0.209 HD
ENDBRANCH  25  26
ENDBRANCH  23  25
ENDBRANCH  15  23
TORSDOF 6
ENDMDL
MODEL 4
REMARK VINA RESULT: -7.456597038      2.487      4.895
REMARK  6 active torsions:
REMARK  status: ('A' for Active; 'I' for Inactive)
REMARK    1  A    between atoms: C2_2  and  C3_3 
REMARK    2  A    between atoms: N1_6  and  O1_8 
REMARK    3  A    between atoms: O1_8  and  C6_9 
REMARK    4  A    between atoms: C18_22  and  C19_23 
REMARK    5  A    between atoms: C19_23  and  C21_25 
REMARK    6  A    between atoms: C21_25  and  O2_26 
ROOT
HETATM    1  C3  UNL     1       5.778   9.373  18.362  1.00  0.00     0.018 C 
HETATM    2  C4  UNL     1       6.792   9.263  17.291  1.00  0.00     0.026 C 
HETATM    3  C5  UNL     1       4.517   9.731  17.675  1.00  0.00     0.023 C 
HETATM    4  N1  UNL     1       4.599  10.734  16.866  1.00  0.00    -0.273 N 
ATOM      5  H1  UNL     1       5.509  11.185  16.774  1.00  0.00     0.193 HD
HETATM    6  C10 UNL     1       3.219   9.082  17.817  1.00  0.00     0.061 C 
HETATM    7  C11 UNL     1       3.190   8.000  18.829  1.00  0.00    -0.000 C 
HETATM    8  C12 UNL     1       2.010   7.098  18.624  1.00  0.00     0.007 C 
HETATM    9  C13 UNL     1       2.281   5.823  17.934  1.00  0.00     0.020 C 
HETATM   10  C14 UNL     1       3.612   5.620  17.339  1.00  0.00     0.083 C 
HETATM   11 CL1  UNL     1       3.590   6.018  15.579  1.00  0.00    -0.125 Cl
HETATM   12  C15 UNL     1       4.792   6.218  18.038  1.00  0.00     0.030 C 
HETATM   13  C16 UNL     1       4.495   7.263  19.017  1.00  0.00    -0.033 C 
HETATM   14  C17 UNL     1       4.266   6.540  20.365  1.00  0.00     0.016 C 
HETATM   15  C18 UNL     1       5.583   8.282  19.303  1.00  0.00     0.017 C 
ENDROOT
BRANCH   1  16
HETATM   16  C2  UNL     1       6.074  10.651  19.130  1.00  0.00    -0.021 C 
HETATM   17  C1  UNL     1       5.246  11.090  20.074  1.00  0.00     0.008 C 
ENDBRANCH   1  16
BRANCH   4  18
HETATM   18  O1  UNL     1       3.587  11.236  16.135  1.00  0.00    -0.271 OA
BRANCH  18  19
HETATM   19  C6  UNL     1       3.687  12.499  15.535  1.00  0.00     0.078 C 
HETATM   20  C7  UNL     1       5.166  12.860  15.497  1.00  0.00     0.048 C 
HETATM   21  C8  UNL     1       2.943  13.545  16.317  1.00  0.00     0.048 C 
HETATM   22  C9  UNL     1       3.106  12.416  14.145  1.00  0.00     0.048 C 
ENDBRANCH  18  19
ENDBRANCH   4  18
BRANCH  15  23
HETATM   23  C19 UNL     1       6.749   7.711  20.030  1.00  0.00     0.011 C 
HETATM   24  C20 UNL     1       6.995   8.360  21.408  1.00  0.00     0.012 C 
BRANCH  23  25
HETATM   25  C21 UNL     1       8.084   7.697  19.398  1.00  0.00     0.168 C 
BRANCH  25  26
HETATM   26  O2  UNL     1       8.821   8.714  20.075  1.00  0.00    -0.400 OA
ATOM     27  H2  UNL     1       8.971   9.384  19.419  1.00  0.00     0.209 HD
ENDBRANCH  25  26
ENDBRANCH  23  25
ENDBRANCH  15  23
TORSDOF 6
ENDMDL
MODEL 5
REMARK VINA RESULT: -7.360122345      1.525      2.046
REMARK  6 active torsions:
REMARK  status: ('A' for Active; 'I' for Inactive)
REMARK    1  A    between atoms: C2_2  and  C3_3 
REMARK    2  A    between atoms: N1_6  and  O1_8 
REMARK    3  A    between atoms: O1_8  and  C6_9 
REMARK    4  A    between atoms: C18_22  and  C19_23 
REMARK    5  A    between atoms: C19_23  and  C21_25 
REMARK    6  A    between atoms: C21_25  and  O2_26 
ROOT
HETATM    1  C3  UNL     1       5.158   7.918  20.082  1.00  0.00     0.018 C 
HETATM    2  C4  UNL     1       4.527   9.254  20.142  1.00  0.00     0.026 C 
HETATM    3  C5  UNL     1       4.395   7.168  19.059  1.00  0.00     0.023 C 
HETATM    4  N1  UNL     1       3.113   7.185  19.210  1.00  0.00    -0.273 N 
ATOM      5  H1  UNL     1       2.744   7.702  20.008  1.00  0.00     0.193 HD
HETATM    6  C10 UNL     1       4.933   6.428  17.924  1.00  0.00     0.061 C 
HETATM    7  C11 UNL     1       6.413   6.384  17.875  1.00  0.00    -0.000 C 
HETATM    8  C12 UNL     1       6.899   6.018  16.505  1.00  0.00     0.007 C 
HETATM    9  C13 UNL     1       7.359   7.135  15.659  1.00  0.00     0.020 C 
HETATM   10  C14 UNL     1       7.130   8.509  16.135  1.00  0.00     0.083 C 
HETATM   11 CL1  UNL     1       5.632   9.197  15.399  1.00  0.00    -0.125 Cl
HETATM   12  C15 UNL     1       7.204   8.765  17.607  1.00  0.00     0.030 C 
HETATM   13  C16 UNL     1       7.110   7.586  18.467  1.00  0.00    -0.033 C 
HETATM   14  C17 UNL     1       8.555   7.065  18.647  1.00  0.00     0.016 C 
HETATM   15  C18 UNL     1       6.592   7.792  19.879  1.00  0.00     0.017 C 
ENDROOT
BRANCH   1  16
HETATM   16  C2  UNL     1       4.764   7.179  21.351  1.00  0.00    -0.021 C 
HETATM   17  C1  UNL     1       4.079   7.789  22.314  1.00  0.00     0.008 C 
ENDBRANCH   1  16
BRANCH   4  18
HETATM   18  O1  UNL     1       2.222   6.576  18.406  1.00  0.00    -0.271 OA
BRANCH  18  19
HETATM   19  C6  UNL     1       1.467   5.486  18.861  1.00  0.00     0.078 C 
HETATM   20  C7  UNL     1       0.001   5.832  18.640  1.00  0.00     0.048 C 
HETATM   21  C8  UNL     1       1.698   5.224  20.324  1.00  0.00     0.048 C 
HETATM   22  C9  UNL     1       1.868   4.264  18.072  1.00  0.00     0.048 C 
ENDBRANCH  18  19
ENDBRANCH   4  18
BRANCH  15  23
HETATM   23  C19 UNL     1       7.534   8.546  20.748  1.00  0.00     0.011 C 
HETATM   24  C20 UNL     1       7.473   8.130  22.232  1.00  0.00     0.012 C 
BRANCH  23  25
HETATM   25  C21 UNL     1       7.489  10.022  20.789  1.00  0.00     0.168 C 
BRANCH  25  26
HETATM   26  O2  UNL     1       8.776  10.416  21.261  1.00  0.00    -0.400 OA
ATOM     27  H2  UNL     1       8.950   9.846  22.000  1.00  0.00     0.209 HD
ENDBRANCH  25  26
ENDBRANCH  23  25
ENDBRANCH  15  23
TORSDOF 6
ENDMDL
