MODEL 1
REMARK VINA RESULT: -7.882609928      0.000      0.000
REMARK  6 active torsions:
REMARK  status: ('A' for Active; 'I' for Inactive)
REMARK    1  A    between atoms: C2_2  and  C5_5 
REMARK    2  A    between atoms: C7_7  and  S1_8 
REMARK    3  A    between atoms: S1_8  and  C8_9 
REMARK    4  A    between atoms: C10_12  and  C12_14 
REMARK    5  A    between atoms: C12_14  and  O2_15 
REMARK    6  A    between atoms: C16_21  and  C17_22 
ROOT
HETATM    1  C5  UNL     1       2.158   6.688  18.879  1.00  0.00    -0.049 A 
HETATM    2  C6  UNL     1       2.907   7.403  17.994  1.00  0.00     0.026 A 
HETATM    3  C7  UNL     1       4.125   7.962  18.294  1.00  0.00     0.002 A 
HETATM    4  C15 UNL     1       4.627   7.803  19.561  1.00  0.00     0.026 A 
HETATM    5  C16 UNL     1       3.904   7.086  20.505  1.00  0.00    -0.049 A 
HETATM    6  C21 UNL     1       2.666   6.535  20.143  1.00  0.00     0.015 A 
ENDROOT
BRANCH   3   7
HETATM    7  S1  UNL     1       5.074   8.692  17.023  1.00  0.00    -0.114 SA
BRANCH   7   8
HETATM    8  C8  UNL     1       5.320   7.779  15.534  1.00  0.00     0.163 C 
HETATM    9  C9  UNL     1       5.286   6.310  15.634  1.00  0.00     0.158 C 
HETATM   10  O1  UNL     1       4.440   5.450  15.616  1.00  0.00    -0.296 OA
HETATM   11  C10 UNL     1       6.764   6.276  15.780  1.00  0.00     0.076 C 
HETATM   12  C11 UNL     1       7.543   5.317  14.946  1.00  0.00     0.029 C 
HETATM   13  C13 UNL     1       6.798   7.676  15.166  1.00  0.00     0.135 C 
HETATM   14  C14 UNL     1       6.886   7.682  13.649  1.00  0.00     0.055 C 
HETATM   15  F1  UNL     1       7.624   8.579  15.734  1.00  0.00    -0.240 F 
BRANCH  11  16
HETATM   16  C12 UNL     1       7.222   6.234  17.199  1.00  0.00     0.184 C 
BRANCH  16  17
HETATM   17  O2  UNL     1       7.919   5.041  17.481  1.00  0.00    -0.400 OA
ATOM     18  H2  UNL     1       8.246   5.032  18.373  1.00  0.00     0.209 HD
ENDBRANCH  16  17
ENDBRANCH  11  16
ENDBRANCH   7   8
ENDBRANCH   3   7
BRANCH   1  19
HETATM   19  C2  UNL     1       0.878   6.073  18.440  1.00  0.00    -0.024 C 
HETATM   20  C1  UNL     1       0.923   6.202  16.916  1.00  0.00     0.019 C 
HETATM   21  C3  UNL     1      -0.307   6.839  18.913  1.00  0.00     0.019 C 
HETATM   22  C4  UNL     1       0.741   4.616  18.771  1.00  0.00     0.019 C 
ENDBRANCH   1  19
BRANCH   5  23
HETATM   23  C17 UNL     1       4.457   6.914  21.887  1.00  0.00    -0.024 C 
HETATM   24  C18 UNL     1       3.939   8.070  22.717  1.00  0.00     0.019 C 
HETATM   25  C19 UNL     1       3.988   5.648  22.511  1.00  0.00     0.019 C 
HETATM   26  C20 UNL     1       5.975   6.910  21.836  1.00  0.00     0.019 C 
ENDBRANCH   5  23
TORSDOF 6
ENDMDL
MODEL 2
REMARK VINA RESULT: -7.866081419      0.617      3.520
REMARK  6 active torsions:
REMARK  status: ('A' for Active; 'I' for Inactive)
REMARK    1  A    between atoms: C2_2  and  C5_5 
REMARK    2  A    between atoms: C7_7  and  S1_8 
REMARK    3  A    between atoms: S1_8  and  C8_9 
REMARK    4  A    between atoms: C10_12  and  C12_14 
REMARK    5  A    between atoms: C12_14  and  O2_15 
REMARK    6  A    between atoms: C16_21  and  C17_22 
ROOT
HETATM    1  C5  UNL     1       3.772   6.997  20.797  1.00  0.00    -0.049 A 
HETATM    2  C6  UNL     1       4.478   7.507  19.749  1.00  0.00     0.026 A 
HETATM    3  C7  UNL     1       4.080   7.419  18.439  1.00  0.00     0.002 A 
HETATM    4  C15 UNL     1       2.902   6.775  18.151  1.00  0.00     0.026 A 
HETATM    5  C16 UNL     1       2.143   6.234  19.180  1.00  0.00    -0.049 A 
HETATM    6  C21 UNL     1       2.597   6.355  20.501  1.00  0.00     0.015 A 
ENDROOT
BRANCH   3   7
HETATM    7  S1  UNL     1       4.974   8.274  17.206  1.00  0.00    -0.114 SA
BRANCH   7   8
HETATM    8  C8  UNL     1       5.275   7.455  15.673  1.00  0.00     0.163 C 
HETATM    9  C9  UNL     1       5.385   5.988  15.706  1.00  0.00     0.158 C 
HETATM   10  O1  UNL     1       4.625   5.051  15.663  1.00  0.00    -0.296 OA
HETATM   11  C10 UNL     1       6.862   6.090  15.825  1.00  0.00     0.076 C 
HETATM   12  C11 UNL     1       7.712   5.250  14.936  1.00  0.00     0.029 C 
HETATM   13  C13 UNL     1       6.748   7.512  15.276  1.00  0.00     0.135 C 
HETATM   14  C14 UNL     1       6.803   7.594  13.759  1.00  0.00     0.055 C 
HETATM   15  F1  UNL     1       7.495   8.466  15.870  1.00  0.00    -0.240 F 
BRANCH  11  16
HETATM   16  C12 UNL     1       7.351   6.030  17.233  1.00  0.00     0.184 C 
BRANCH  16  17
HETATM   17  O2  UNL     1       8.163   4.897  17.449  1.00  0.00    -0.400 OA
ATOM     18  H2  UNL     1       8.565   4.917  18.310  1.00  0.00     0.209 HD
ENDBRANCH  16  17
ENDBRANCH  11  16
ENDBRANCH   7   8
ENDBRANCH   3   7
BRANCH   1  19
HETATM   19  C2  UNL     1       4.260   7.195  22.186  1.00  0.00    -0.024 C 
HETATM   20  C1  UNL     1       4.461   8.709  22.283  1.00  0.00     0.019 C 
HETATM   21  C3  UNL     1       5.585   6.558  22.414  1.00  0.00     0.019 C 
HETATM   22  C4  UNL     1       3.283   6.795  23.253  1.00  0.00     0.019 C 
ENDBRANCH   1  19
BRANCH   5  23
HETATM   23  C17 UNL     1       0.857   5.534  18.862  1.00  0.00    -0.024 C 
HETATM   24  C18 UNL     1      -0.261   6.519  19.135  1.00  0.00     0.019 C 
HETATM   25  C19 UNL     1       0.787   5.140  17.429  1.00  0.00     0.019 C 
HETATM   26  C20 UNL     1       0.720   4.292  19.725  1.00  0.00     0.019 C 
ENDBRANCH   5  23
TORSDOF 6
ENDMDL
MODEL 3
REMARK VINA RESULT: -7.843184796      3.013      5.744
REMARK  6 active torsions:
REMARK  status: ('A' for Active; 'I' for Inactive)
REMARK    1  A    between atoms: C2_2  and  C5_5 
REMARK    2  A    between atoms: C7_7  and  S1_8 
REMARK    3  A    between atoms: S1_8  and  C8_9 
REMARK    4  A    between atoms: C10_12  and  C12_14 
REMARK    5  A    between atoms: C12_14  and  O2_15 
REMARK    6  A    between atoms: C16_21  and  C17_22 
ROOT
HETATM    1  C5  UNL     1       5.188   9.927  17.399  1.00  0.00    -0.049 A 
HETATM    2  C6  UNL     1       4.654   8.711  17.095  1.00  0.00     0.026 A 
HETATM    3  C7  UNL     1       5.030   7.536  17.697  1.00  0.00     0.002 A 
HETATM    4  C15 UNL     1       6.006   7.573  18.661  1.00  0.00     0.026 A 
HETATM    5  C16 UNL     1       6.587   8.785  19.008  1.00  0.00    -0.049 A 
HETATM    6  C21 UNL     1       6.163   9.956  18.362  1.00  0.00     0.015 A 
ENDROOT
BRANCH   3   7
HETATM    7  S1  UNL     1       4.141   6.071  17.356  1.00  0.00    -0.114 SA
BRANCH   7   8
HETATM    8  C8  UNL     1       3.281   5.289  18.684  1.00  0.00     0.163 C 
HETATM    9  C9  UNL     1       2.211   4.344  18.325  1.00  0.00     0.158 C 
HETATM   10  O1  UNL     1       2.135   3.173  18.042  1.00  0.00    -0.296 OA
HETATM   11  C10 UNL     1       1.201   5.426  18.442  1.00  0.00     0.076 C 
HETATM   12  C11 UNL     1      -0.042   5.164  19.221  1.00  0.00     0.029 C 
HETATM   13  C13 UNL     1       2.214   6.200  19.286  1.00  0.00     0.135 C 
HETATM   14  C14 UNL     1       2.144   5.890  20.772  1.00  0.00     0.055 C 
HETATM   15  F1  UNL     1       2.342   7.520  19.041  1.00  0.00    -0.240 F 
BRANCH  11  16
HETATM   16  C12 UNL     1       0.879   6.083  17.142  1.00  0.00     0.184 C 
BRANCH  16  17
HETATM   17  O2  UNL     1      -0.504   6.331  17.017  1.00  0.00    -0.400 OA
ATOM     18  H2  UNL     1      -0.676   7.047  16.418  1.00  0.00     0.209 HD
ENDBRANCH  16  17
ENDBRANCH  11  16
ENDBRANCH   7   8
ENDBRANCH   3   7
BRANCH   1  19
HETATM   19  C2  UNL     1       4.672  11.151  16.732  1.00  0.00    -0.024 C 
HETATM   20  C1  UNL     1       5.889  12.075  16.687  1.00  0.00     0.019 C 
HETATM   21  C3  UNL     1       3.627  11.835  17.540  1.00  0.00     0.019 C 
HETATM   22  C4  UNL     1       4.205  10.941  15.320  1.00  0.00     0.019 C 
ENDBRANCH   1  19
BRANCH   5  23
HETATM   23  C17 UNL     1       7.650   8.821  20.063  1.00  0.00    -0.024 C 
HETATM   24  C18 UNL     1       8.920   8.293  19.427  1.00  0.00     0.019 C 
HETATM   25  C19 UNL     1       7.909  10.207  20.533  1.00  0.00     0.019 C 
HETATM   26  C20 UNL     1       7.231   7.966  21.245  1.00  0.00     0.019 C 
ENDBRANCH   5  23
TORSDOF 6
ENDMDL
MODEL 4
REMARK VINA RESULT: -7.604436652      1.545      4.171
REMARK  6 active torsions:
REMARK  status: ('A' for Active; 'I' for Inactive)
REMARK    1  A    between atoms: C2_2  and  C5_5 
REMARK    2  A    between atoms: C7_7  and  S1_8 
REMARK    3  A    between atoms: S1_8  and  C8_9 
REMARK    4  A    between atoms: C10_12  and  C12_14 
REMARK    5  A    between atoms: C12_14  and  O2_15 
REMARK    6  A    between atoms: C16_21  and  C17_22 
ROOT
HETATM    1  C5  UNL     1       3.762   6.877  20.941  1.00  0.00    -0.049 A 
HETATM    2  C6  UNL     1       4.518   7.441  19.958  1.00  0.00     0.026 A 
HETATM    3  C7  UNL     1       4.175   7.437  18.629  1.00  0.00     0.002 A 
HETATM    4  C15 UNL     1       3.004   6.827  18.253  1.00  0.00     0.026 A 
HETATM    5  C16 UNL     1       2.196   6.234  19.213  1.00  0.00    -0.049 A 
HETATM    6  C21 UNL     1       2.595   6.269  20.558  1.00  0.00     0.015 A 
ENDROOT
BRANCH   3   7
HETATM    7  S1  UNL     1       5.130   8.354  17.490  1.00  0.00    -0.114 SA
BRANCH   7   8
HETATM    8  C8  UNL     1       6.564   7.592  16.798  1.00  0.00     0.163 C 
HETATM    9  C9  UNL     1       7.237   8.303  15.699  1.00  0.00     0.158 C 
HETATM   10  O1  UNL     1       8.071   9.170  15.598  1.00  0.00    -0.296 OA
HETATM   11  C10 UNL     1       6.464   7.519  14.703  1.00  0.00     0.076 C 
HETATM   12  C11 UNL     1       7.192   6.893  13.563  1.00  0.00     0.029 C 
HETATM   13  C13 UNL     1       6.200   6.492  15.804  1.00  0.00     0.135 C 
HETATM   14  C14 UNL     1       7.268   5.416  15.913  1.00  0.00     0.055 C 
HETATM   15  F1  UNL     1       4.952   5.989  15.893  1.00  0.00    -0.240 F 
BRANCH  11  16
HETATM   16  C12 UNL     1       5.233   8.213  14.225  1.00  0.00     0.184 C 
BRANCH  16  17
HETATM   17  O2  UNL     1       4.558   7.452  13.248  1.00  0.00    -0.400 OA
ATOM     18  H2  UNL     1       4.378   7.967  12.470  1.00  0.00     0.209 HD
ENDBRANCH  16  17
ENDBRANCH  11  16
ENDBRANCH   7   8
ENDBRANCH   3   7
BRANCH   1  19
HETATM   19  C2  UNL     1       4.192   6.985  22.360  1.00  0.00    -0.024 C 
HETATM   20  C1  UNL     1       4.290   8.494  22.591  1.00  0.00     0.019 C 
HETATM   21  C3  UNL     1       5.548   6.415  22.582  1.00  0.00     0.019 C 
HETATM   22  C4  UNL     1       3.210   6.433  23.352  1.00  0.00     0.019 C 
ENDBRANCH   1  19
BRANCH   5  23
HETATM   23  C17 UNL     1       0.918   5.572  18.799  1.00  0.00    -0.024 C 
HETATM   24  C18 UNL     1      -0.209   6.507  19.184  1.00  0.00     0.019 C 
HETATM   25  C19 UNL     1       0.863   5.360  17.328  1.00  0.00     0.019 C 
HETATM   26  C20 UNL     1       0.783   4.231  19.498  1.00  0.00     0.019 C 
ENDBRANCH   5  23
TORSDOF 6
ENDMDL
MODEL 5
REMARK VINA RESULT: -7.590287130      2.482      4.598
REMARK  6 active torsions:
REMARK  status: ('A' for Active; 'I' for Inactive)
REMARK    1  A    between atoms: C2_2  and  C5_5 
REMARK    2  A    between atoms: C7_7  and  S1_8 
REMARK    3  A    between atoms: S1_8  and  C8_9 
REMARK    4  A    between atoms: C10_12  and  C12_14 
REMARK    5  A    between atoms: C12_14  and  O2_15 
REMARK    6  A    between atoms: C16_21  and  C17_22 
ROOT
HETATM    1  C5  UNL     1       3.697   6.761  20.917  1.00  0.00    -0.049 A 
HETATM    2  C6  UNL     1       4.738   6.861  20.043  1.00  0.00     0.026 A 
HETATM    3  C7  UNL     1       4.626   6.665  18.689  1.00  0.00     0.002 A 
HETATM    4  C15 UNL     1       3.396   6.342  18.171  1.00  0.00     0.026 A 
HETATM    5  C16 UNL     1       2.302   6.224  19.016  1.00  0.00    -0.049 A 
HETATM    6  C21 UNL     1       2.473   6.437  20.392  1.00  0.00     0.015 A 
ENDROOT
BRANCH   3   7
HETATM    7  S1  UNL     1       5.990   7.006  17.653  1.00  0.00    -0.114 SA
BRANCH   7   8
HETATM    8  C8  UNL     1       5.904   8.418  16.598  1.00  0.00     0.163 C 
HETATM    9  C9  UNL     1       7.129   9.222  16.453  1.00  0.00     0.158 C 
HETATM   10  O1  UNL     1       8.117   9.194  15.762  1.00  0.00    -0.296 OA
HETATM   11  C10 UNL     1       6.674  10.130  17.536  1.00  0.00     0.076 C 
HETATM   12  C11 UNL     1       6.740  11.602  17.312  1.00  0.00     0.029 C 
HETATM   13  C13 UNL     1       5.256   9.611  17.295  1.00  0.00     0.135 C 
HETATM   14  C14 UNL     1       4.487  10.387  16.238  1.00  0.00     0.055 C 
HETATM   15  F1  UNL     1       4.505   9.339  18.382  1.00  0.00    -0.240 F 
BRANCH  11  16
HETATM   16  C12 UNL     1       7.220   9.776  18.878  1.00  0.00     0.184 C 
BRANCH  16  17
HETATM   17  O2  UNL     1       7.326  10.912  19.708  1.00  0.00    -0.400 OA
ATOM     18  H2  UNL     1       8.197  11.290  19.670  1.00  0.00     0.209 HD
ENDBRANCH  16  17
ENDBRANCH  11  16
ENDBRANCH   7   8
ENDBRANCH   3   7
BRANCH   1  19
HETATM   19  C2  UNL     1       3.910   7.049  22.359  1.00  0.00    -0.024 C 
HETATM   20  C1  UNL     1       4.133   8.562  22.392  1.00  0.00     0.019 C 
HETATM   21  C3  UNL     1       5.146   6.409  22.885  1.00  0.00     0.019 C 
HETATM   22  C4  UNL     1       2.732   6.741  23.237  1.00  0.00     0.019 C 
ENDBRANCH   1  19
BRANCH   5  23
HETATM   23  C17 UNL     1       0.961   5.873  18.445  1.00  0.00    -0.024 C 
HETATM   24  C18 UNL     1       1.038   6.121  16.953  1.00  0.00     0.019 C 
HETATM   25  C19 UNL     1       0.632   4.439  18.661  1.00  0.00     0.019 C 
HETATM   26  C20 UNL     1      -0.113   6.732  19.090  1.00  0.00     0.019 C 
ENDBRANCH   5  23
TORSDOF 6
ENDMDL
