MODEL 1
REMARK VINA RESULT: -7.669425398      0.000      0.000
REMARK  15 active torsions:
REMARK  status: ('A' for Active; 'I' for Inactive)
REMARK       I    between atoms: C2_2  and  N1_4 
REMARK    1  A    between atoms: C4_9  and  N4_10 
REMARK    2  A    between atoms: C5_16  and  C6_17 
REMARK    3  A    between atoms: C6_17  and  O2_18 
REMARK    4  A    between atoms: C6_17  and  N6_20 
REMARK    5  A    between atoms: N6_20  and  C7_22 
REMARK    6  A    between atoms: C9_24  and  N7_25 
REMARK    7  A    between atoms: N7_25  and  C10_27 
REMARK    8  A    between atoms: C10_27  and  O3_28 
REMARK    9  A    between atoms: C10_27  and  C11_30 
REMARK   10  A    between atoms: C11_30  and  N8_31 
REMARK       I    between atoms: N9_36  and  C13_37 
REMARK   11  A    between atoms: C15_40  and  N10_41 
REMARK   12  A    between atoms: C16_44  and  C17_45 
REMARK   13  A    between atoms: C17_45  and  O5_46 
REMARK   14  A    between atoms: C17_45  and  C18_48 
REMARK   15  A    between atoms: C18_48  and  N11_49 
ROOT
HETATM    1  C6  UNL     1      15.528  -7.114  -2.595  1.00  0.00     0.267 C 
ENDROOT
BRANCH   1   2
HETATM    2  C5  UNL     1      15.239  -8.344  -1.820  1.00  0.00     0.060 C 
HETATM    3  N5  UNL     1      16.141  -9.203  -1.809  1.00  0.00    -0.348 N 
HETATM    4  C4  UNL     1      16.440 -10.454  -1.306  1.00  0.00     0.388 C 
ATOM      5  H5  UNL     1      16.929  -8.867  -2.362  1.00  0.00     0.163 HD
HETATM    6  N3  UNL     1      15.444 -11.217  -0.659  1.00  0.00    -0.321 N 
HETATM    7  C3  UNL     1      14.316 -10.776  -0.179  1.00  0.00     0.196 C 
ATOM      8  H3  UNL     1      15.627 -12.215  -0.557  1.00  0.00     0.166 HD
HETATM    9  N1  UNL     1      13.770  -9.443  -0.166  1.00  0.00    -0.279 N 
HETATM   10  N2  UNL     1      13.529 -11.794   0.418  1.00  0.00    -0.063 NA
HETATM   11  C2  UNL     1      13.000  -9.178   0.976  1.00  0.00     0.223 C 
HETATM   12  C16 UNL     1      13.916  -8.441  -1.136  1.00  0.00     0.175 C 
HETATM   13  C1  UNL     1      12.307  -7.937   1.354  1.00  0.00     0.117 C 
HETATM   14  O1  UNL     1      12.858 -10.123   1.836  1.00  0.00    -0.273 OA
BRANCH   4  15
HETATM   15  N4  UNL     1      17.522 -10.267  -0.314  1.00  0.00    -0.041 N 
ATOM     16  H43 UNL     1      17.523  -9.342   0.116  1.00  0.00     0.279 HD
ATOM     17  H42 UNL     1      17.384 -10.802   0.543  1.00  0.00     0.279 HD
ATOM     18  H41 UNL     1      18.391 -10.491  -0.798  1.00  0.00     0.279 HD
ENDBRANCH   4  15
BRANCH  12  19
HETATM   19  C17 UNL     1      12.860  -8.341  -2.188  1.00  0.00     0.172 C 
BRANCH  19  20
HETATM   20  O5  UNL     1      11.993  -7.249  -1.925  1.00  0.00    -0.391 OA
ATOM     21  H5  UNL     1      11.107  -7.556  -1.766  1.00  0.00     0.210 HD
ENDBRANCH  19  20
BRANCH  19  22
HETATM   22  C18 UNL     1      11.964  -9.488  -2.443  1.00  0.00     0.263 C 
BRANCH  22  23
HETATM   23  N11 UNL     1      12.023 -10.079  -3.742  1.00  0.00    -0.077 N 
ATOM     24 3H11 UNL     1      12.070  -9.345  -4.449  1.00  0.00     0.274 HD
ATOM     25 2H11 UNL     1      12.931 -10.524  -3.873  1.00  0.00     0.274 HD
ATOM     26 1H11 UNL     1      11.283 -10.738  -3.984  1.00  0.00     0.274 HD
ENDBRANCH  22  23
ENDBRANCH  19  22
ENDBRANCH  12  19
ENDBRANCH   1   2
BRANCH   1  27
HETATM   27  O2  UNL     1      14.727  -7.082  -3.773  1.00  0.00    -0.371 OA
ATOM     28  H2  UNL     1      14.796  -7.909  -4.235  1.00  0.00     0.212 HD
ENDBRANCH   1  27
BRANCH   1  29
HETATM   29  N6  UNL     1      15.013  -5.969  -1.839  1.00  0.00    -0.356 N 
ATOM     30  H6  UNL     1      14.109  -5.559  -2.073  1.00  0.00     0.162 HD
BRANCH  29  31
HETATM   31  C7  UNL     1      15.793  -5.437  -0.776  1.00  0.00     0.077 A 
HETATM   32  C8  UNL     1      17.157  -5.636  -0.752  1.00  0.00     0.063 A 
HETATM   33  C9  UNL     1      17.902  -5.127   0.281  1.00  0.00     0.048 A 
HETATM   34  C12 UNL     1      17.269  -4.429   1.269  1.00  0.00     0.131 A 
HETATM   35  N9  UNL     1      15.922  -4.208   1.287  1.00  0.00    -0.275 N 
HETATM   36  C13 UNL     1      15.374  -3.474   2.359  1.00  0.00     0.225 C 
HETATM   37  C15 UNL     1      15.209  -4.725   0.248  1.00  0.00     0.135 A 
HETATM   38  C14 UNL     1      13.947  -3.169   2.493  1.00  0.00     0.118 C 
HETATM   39  O4  UNL     1      16.169  -3.051   3.265  1.00  0.00    -0.273 OA
BRANCH  33  40
HETATM   40  N7  UNL     1      19.316  -5.338   0.305  1.00  0.00    -0.361 N 
ATOM     41  H7  UNL     1      19.936  -4.585   0.007  1.00  0.00     0.162 HD
BRANCH  40  42
HETATM   42  C10 UNL     1      19.887  -6.588   0.739  1.00  0.00     0.243 C 
BRANCH  42  43
HETATM   43  O3  UNL     1      19.938  -6.612   2.141  1.00  0.00    -0.375 OA
ATOM     44  H3  UNL     1      20.139  -7.494   2.433  1.00  0.00     0.212 HD
ENDBRANCH  42  43
BRANCH  42  45
HETATM   45  C11 UNL     1      21.266  -6.733   0.179  1.00  0.00     0.282 C 
BRANCH  45  46
HETATM   46  N8  UNL     1      22.260  -6.702   1.248  1.00  0.00    -0.075 N 
ATOM     47  H83 UNL     1      21.840  -6.875   2.161  1.00  0.00     0.274 HD
ATOM     48  H82 UNL     1      22.882  -7.509   1.210  1.00  0.00     0.274 HD
ATOM     49  H81 UNL     1      22.778  -5.824   1.230  1.00  0.00     0.274 HD
ENDBRANCH  45  46
ENDBRANCH  42  45
ENDBRANCH  40  42
ENDBRANCH  33  40
BRANCH  37  50
HETATM   50  N10 UNL     1      13.949  -4.504   0.283  1.00  0.00    -0.383 N 
ATOM     51 2H10 UNL     1      13.365  -5.326   0.437  1.00  0.00     0.157 HD
ATOM     52 1H10 UNL     1      13.565  -3.566   0.167  1.00  0.00     0.157 HD
ENDBRANCH  37  50
ENDBRANCH  29  31
ENDBRANCH   1  29
TORSDOF 15
ENDMDL
MODEL 2
REMARK VINA RESULT: -7.048283786      2.217      6.795
REMARK  15 active torsions:
REMARK  status: ('A' for Active; 'I' for Inactive)
REMARK       I    between atoms: C2_2  and  N1_4 
REMARK    1  A    between atoms: C4_9  and  N4_10 
REMARK    2  A    between atoms: C5_16  and  C6_17 
REMARK    3  A    between atoms: C6_17  and  O2_18 
REMARK    4  A    between atoms: C6_17  and  N6_20 
REMARK    5  A    between atoms: N6_20  and  C7_22 
REMARK    6  A    between atoms: C9_24  and  N7_25 
REMARK    7  A    between atoms: N7_25  and  C10_27 
REMARK    8  A    between atoms: C10_27  and  O3_28 
REMARK    9  A    between atoms: C10_27  and  C11_30 
REMARK   10  A    between atoms: C11_30  and  N8_31 
REMARK       I    between atoms: N9_36  and  C13_37 
REMARK   11  A    between atoms: C15_40  and  N10_41 
REMARK   12  A    between atoms: C16_44  and  C17_45 
REMARK   13  A    between atoms: C17_45  and  O5_46 
REMARK   14  A    between atoms: C17_45  and  C18_48 
REMARK   15  A    between atoms: C18_48  and  N11_49 
ROOT
HETATM    1  C6  UNL     1      16.573  -5.671  -1.965  1.00  0.00     0.267 C 
ENDROOT
BRANCH   1   2
HETATM    2  C5  UNL     1      16.981  -5.664  -0.540  1.00  0.00     0.060 C 
HETATM    3  N5  UNL     1      18.038  -6.266  -0.275  1.00  0.00    -0.348 N 
HETATM    4  C4  UNL     1      18.868  -6.584   0.782  1.00  0.00     0.388 C 
ATOM      5  H5  UNL     1      18.424  -6.659  -1.134  1.00  0.00     0.163 HD
HETATM    6  N3  UNL     1      18.466  -6.315   2.108  1.00  0.00    -0.321 N 
HETATM    7  C3  UNL     1      17.519  -5.504   2.484  1.00  0.00     0.196 C 
ATOM      8  H3  UNL     1      18.969  -6.806   2.847  1.00  0.00     0.166 HD
HETATM    9  N1  UNL     1      16.638  -4.678   1.699  1.00  0.00    -0.279 N 
HETATM   10  N2  UNL     1      17.359  -5.448   3.892  1.00  0.00    -0.063 NA
HETATM   11  C2  UNL     1      16.304  -3.474   2.336  1.00  0.00     0.223 C 
HETATM   12  C16 UNL     1      16.102  -4.949   0.431  1.00  0.00     0.175 C 
HETATM   13  C1  UNL     1      15.456  -2.375   1.846  1.00  0.00     0.117 C 
HETATM   14  O1  UNL     1      16.784  -3.262   3.509  1.00  0.00    -0.273 OA
BRANCH   4  15
HETATM   15  N4  UNL     1      20.128  -5.835   0.576  1.00  0.00    -0.041 N 
ATOM     16  H43 UNL     1      20.890  -6.149   1.175  1.00  0.00     0.279 HD
ATOM     17  H42 UNL     1      20.579  -6.036  -0.316  1.00  0.00     0.279 HD
ATOM     18  H41 UNL     1      19.894  -4.850   0.700  1.00  0.00     0.279 HD
ENDBRANCH   4  15
BRANCH  12  19
HETATM   19  C17 UNL     1      14.756  -5.595   0.376  1.00  0.00     0.172 C 
BRANCH  19  20
HETATM   20  O5  UNL     1      13.841  -4.783  -0.344  1.00  0.00    -0.391 OA
ATOM     21  H5  UNL     1      13.245  -5.321  -0.854  1.00  0.00     0.210 HD
ENDBRANCH  19  20
BRANCH  19  22
HETATM   22  C18 UNL     1      14.055  -5.944   1.628  1.00  0.00     0.263 C 
BRANCH  22  23
HETATM   23  N11 UNL     1      13.432  -7.228   1.685  1.00  0.00    -0.077 N 
ATOM     24 3H11 UNL     1      12.951  -7.413   0.805  1.00  0.00     0.274 HD
ATOM     25 2H11 UNL     1      14.148  -7.954   1.665  1.00  0.00     0.274 HD
ATOM     26 1H11 UNL     1      12.796  -7.398   2.464  1.00  0.00     0.274 HD
ENDBRANCH  22  23
ENDBRANCH  19  22
ENDBRANCH  12  19
ENDBRANCH   1   2
BRANCH   1  27
HETATM   27  O2  UNL     1      17.683  -5.330  -2.791  1.00  0.00    -0.371 OA
ATOM     28  H2  UNL     1      17.881  -6.048  -3.381  1.00  0.00     0.212 HD
ENDBRANCH   1  27
BRANCH   1  29
HETATM   29  N6  UNL     1      16.311  -7.059  -2.356  1.00  0.00    -0.356 N 
ATOM     30  H6  UNL     1      17.070  -7.656  -2.683  1.00  0.00     0.162 HD
BRANCH  29  31
HETATM   31  C7  UNL     1      14.984  -7.561  -2.272  1.00  0.00     0.077 A 
HETATM   32  C8  UNL     1      13.990  -7.023  -3.063  1.00  0.00     0.063 A 
HETATM   33  C9  UNL     1      12.709  -7.507  -2.971  1.00  0.00     0.048 A 
HETATM   34  C12 UNL     1      12.448  -8.518  -2.091  1.00  0.00     0.131 A 
HETATM   35  N9  UNL     1      13.399  -9.080  -1.290  1.00  0.00    -0.275 N 
HETATM   36  C13 UNL     1      13.017 -10.119  -0.417  1.00  0.00     0.225 C 
HETATM   37  C15 UNL     1      14.660  -8.579  -1.403  1.00  0.00     0.135 A 
HETATM   38  C14 UNL     1      13.940 -10.803   0.491  1.00  0.00     0.118 C 
HETATM   39  O4  UNL     1      11.792 -10.484  -0.420  1.00  0.00    -0.273 OA
BRANCH  33  40
HETATM   40  N7  UNL     1      11.681  -6.945  -3.789  1.00  0.00    -0.361 N 
ATOM     41  H7  UNL     1      11.037  -6.266  -3.383  1.00  0.00     0.162 HD
BRANCH  40  42
HETATM   42  C10 UNL     1      11.531  -7.312  -5.175  1.00  0.00     0.243 C 
BRANCH  42  43
HETATM   43  O3  UNL     1      12.135  -8.561  -5.391  1.00  0.00    -0.375 OA
ATOM     44  H3  UNL     1      11.510  -9.143  -5.809  1.00  0.00     0.212 HD
ENDBRANCH  42  43
BRANCH  42  45
HETATM   45  C11 UNL     1      12.175  -6.280  -6.044  1.00  0.00     0.282 C 
BRANCH  45  46
HETATM   46  N8  UNL     1      12.135  -6.689  -7.445  1.00  0.00    -0.075 N 
ATOM     47  H83 UNL     1      12.518  -7.625  -7.577  1.00  0.00     0.274 HD
ATOM     48  H82 UNL     1      11.181  -6.869  -7.758  1.00  0.00     0.274 HD
ATOM     49  H81 UNL     1      12.604  -6.001  -8.033  1.00  0.00     0.274 HD
ENDBRANCH  45  46
ENDBRANCH  42  45
ENDBRANCH  40  42
ENDBRANCH  33  40
BRANCH  37  50
HETATM   50  N10 UNL     1      15.536  -9.122  -0.645  1.00  0.00    -0.383 N 
ATOM     51 2H10 UNL     1      15.359  -9.040   0.356  1.00  0.00     0.157 HD
ATOM     52 1H10 UNL     1      16.352  -9.603  -1.024  1.00  0.00     0.157 HD
ENDBRANCH  37  50
ENDBRANCH  29  31
ENDBRANCH   1  29
TORSDOF 15
ENDMDL
MODEL 3
REMARK VINA RESULT: -6.976661383      4.428      7.581
REMARK  15 active torsions:
REMARK  status: ('A' for Active; 'I' for Inactive)
REMARK       I    between atoms: C2_2  and  N1_4 
REMARK    1  A    between atoms: C4_9  and  N4_10 
REMARK    2  A    between atoms: C5_16  and  C6_17 
REMARK    3  A    between atoms: C6_17  and  O2_18 
REMARK    4  A    between atoms: C6_17  and  N6_20 
REMARK    5  A    between atoms: N6_20  and  C7_22 
REMARK    6  A    between atoms: C9_24  and  N7_25 
REMARK    7  A    between atoms: N7_25  and  C10_27 
REMARK    8  A    between atoms: C10_27  and  O3_28 
REMARK    9  A    between atoms: C10_27  and  C11_30 
REMARK   10  A    between atoms: C11_30  and  N8_31 
REMARK       I    between atoms: N9_36  and  C13_37 
REMARK   11  A    between atoms: C15_40  and  N10_41 
REMARK   12  A    between atoms: C16_44  and  C17_45 
REMARK   13  A    between atoms: C17_45  and  O5_46 
REMARK   14  A    between atoms: C17_45  and  C18_48 
REMARK   15  A    between atoms: C18_48  and  N11_49 
ROOT
HETATM    1  C6  UNL     1      12.292  -7.943  -3.693  1.00  0.00     0.267 C 
ENDROOT
BRANCH   1   2
HETATM    2  C5  UNL     1      12.520  -8.631  -2.399  1.00  0.00     0.060 C 
HETATM    3  N5  UNL     1      11.503  -8.857  -1.719  1.00  0.00    -0.348 N 
HETATM    4  C4  UNL     1      11.102  -9.420  -0.523  1.00  0.00     0.388 C 
ATOM      5  H5  UNL     1      10.684  -8.506  -2.215  1.00  0.00     0.163 HD
HETATM    6  N3  UNL     1      12.062  -9.814   0.434  1.00  0.00    -0.321 N 
HETATM    7  C3  UNL     1      13.333 -10.011   0.226  1.00  0.00     0.196 C 
ATOM      8  H3  UNL     1      11.726  -9.959   1.386  1.00  0.00     0.166 HD
HETATM    9  N1  UNL     1      14.105  -9.891  -0.985  1.00  0.00    -0.279 N 
HETATM   10  N2  UNL     1      14.035 -10.407   1.393  1.00  0.00    -0.063 NA
HETATM   11  C2  UNL     1      15.155 -10.817  -1.058  1.00  0.00     0.223 C 
HETATM   12  C16 UNL     1      13.925  -8.981  -2.037  1.00  0.00     0.175 C 
HETATM   13  C1  UNL     1      16.136 -11.016  -2.137  1.00  0.00     0.117 C 
HETATM   14  O1  UNL     1      15.317 -11.621  -0.069  1.00  0.00    -0.273 OA
BRANCH   4  15
HETATM   15  N4  UNL     1      10.336 -10.640  -0.861  1.00  0.00    -0.041 N 
ATOM     16  H43 UNL     1      10.910 -11.482  -0.900  1.00  0.00     0.279 HD
ATOM     17  H42 UNL     1       9.713 -10.948  -0.115  1.00  0.00     0.279 HD
ATOM     18  H41 UNL     1       9.854 -10.437  -1.736  1.00  0.00     0.279 HD
ENDBRANCH   4  15
BRANCH  12  19
HETATM   19  C17 UNL     1      14.705  -7.708  -1.987  1.00  0.00     0.172 C 
BRANCH  19  20
HETATM   20  O5  UNL     1      15.676  -7.676  -3.022  1.00  0.00    -0.391 OA
ATOM     21  H5  UNL     1      16.239  -6.915  -2.930  1.00  0.00     0.210 HD
ENDBRANCH  19  20
BRANCH  19  22
HETATM   22  C18 UNL     1      15.442  -7.343  -0.760  1.00  0.00     0.263 C 
BRANCH  22  23
HETATM   23  N11 UNL     1      16.852  -7.571  -0.760  1.00  0.00    -0.077 N 
ATOM     24 3H11 UNL     1      17.339  -6.693  -0.579  1.00  0.00     0.274 HD
ATOM     25 2H11 UNL     1      17.111  -8.105   0.069  1.00  0.00     0.274 HD
ATOM     26 1H11 UNL     1      17.247  -8.016  -1.588  1.00  0.00     0.274 HD
ENDBRANCH  22  23
ENDBRANCH  19  22
ENDBRANCH  12  19
ENDBRANCH   1   2
BRANCH   1  27
HETATM   27  O2  UNL     1      12.027  -8.901  -4.714  1.00  0.00    -0.371 OA
ATOM     28  H2  UNL     1      12.842  -9.190  -5.107  1.00  0.00     0.212 HD
ENDBRANCH   1  27
BRANCH   1  29
HETATM   29  N6  UNL     1      11.020  -7.221  -3.607  1.00  0.00    -0.356 N 
ATOM     30  H6  UNL     1      10.249  -7.597  -3.055  1.00  0.00     0.162 HD
BRANCH  29  31
HETATM   31  C7  UNL     1      10.876  -5.990  -4.303  1.00  0.00     0.077 A 
HETATM   32  C8  UNL     1      10.787  -5.980  -5.679  1.00  0.00     0.063 A 
HETATM   33  C9  UNL     1      10.656  -4.788  -6.345  1.00  0.00     0.048 A 
HETATM   34  C12 UNL     1      10.616  -3.630  -5.622  1.00  0.00     0.131 A 
HETATM   35  N9  UNL     1      10.701  -3.592  -4.260  1.00  0.00    -0.275 N 
HETATM   36  C13 UNL     1      10.650  -2.339  -3.616  1.00  0.00     0.225 C 
HETATM   37  C15 UNL     1      10.830  -4.791  -3.628  1.00  0.00     0.135 A 
HETATM   38  C14 UNL     1      10.730  -2.164  -2.164  1.00  0.00     0.118 C 
HETATM   39  O4  UNL     1      10.527  -1.296  -4.344  1.00  0.00    -0.273 OA
BRANCH  33  40
HETATM   40  N7  UNL     1      10.568  -4.781  -7.771  1.00  0.00    -0.361 N 
ATOM     41  H7  UNL     1      10.898  -3.964  -8.286  1.00  0.00     0.162 HD
BRANCH  40  42
HETATM   42  C10 UNL     1      10.024  -5.898  -8.502  1.00  0.00     0.243 C 
BRANCH  42  43
HETATM   43  O3  UNL     1      11.048  -6.823  -8.763  1.00  0.00    -0.375 OA
ATOM     44  H3  UNL     1      10.665  -7.678  -8.919  1.00  0.00     0.212 HD
ENDBRANCH  42  43
BRANCH  42  45
HETATM   45  C11 UNL     1       9.433  -5.419  -9.789  1.00  0.00     0.282 C 
BRANCH  45  46
HETATM   46  N8  UNL     1       9.728  -4.004  -9.994  1.00  0.00    -0.075 N 
ATOM     47  H83 UNL     1       8.926  -3.414  -9.774  1.00  0.00     0.274 HD
ATOM     48  H82 UNL     1      10.377  -3.647  -9.293  1.00  0.00     0.274 HD
ATOM     49  H81 UNL     1      10.068  -3.843 -10.942  1.00  0.00     0.274 HD
ENDBRANCH  45  46
ENDBRANCH  42  45
ENDBRANCH  40  42
ENDBRANCH  33  40
BRANCH  37  50
HETATM   50  N10 UNL     1      10.905  -4.733  -2.351  1.00  0.00    -0.383 N 
ATOM     51 2H10 UNL     1      11.234  -5.583  -1.893  1.00  0.00     0.157 HD
ATOM     52 1H10 UNL     1      10.652  -3.890  -1.836  1.00  0.00     0.157 HD
ENDBRANCH  37  50
ENDBRANCH  29  31
ENDBRANCH   1  29
TORSDOF 15
ENDMDL
MODEL 4
REMARK VINA RESULT: -6.941102958      2.170      3.308
REMARK  15 active torsions:
REMARK  status: ('A' for Active; 'I' for Inactive)
REMARK       I    between atoms: C2_2  and  N1_4 
REMARK    1  A    between atoms: C4_9  and  N4_10 
REMARK    2  A    between atoms: C5_16  and  C6_17 
REMARK    3  A    between atoms: C6_17  and  O2_18 
REMARK    4  A    between atoms: C6_17  and  N6_20 
REMARK    5  A    between atoms: N6_20  and  C7_22 
REMARK    6  A    between atoms: C9_24  and  N7_25 
REMARK    7  A    between atoms: N7_25  and  C10_27 
REMARK    8  A    between atoms: C10_27  and  O3_28 
REMARK    9  A    between atoms: C10_27  and  C11_30 
REMARK   10  A    between atoms: C11_30  and  N8_31 
REMARK       I    between atoms: N9_36  and  C13_37 
REMARK   11  A    between atoms: C15_40  and  N10_41 
REMARK   12  A    between atoms: C16_44  and  C17_45 
REMARK   13  A    between atoms: C17_45  and  O5_46 
REMARK   14  A    between atoms: C17_45  and  C18_48 
REMARK   15  A    between atoms: C18_48  and  N11_49 
ROOT
HETATM    1  C6  UNL     1      15.095  -7.398  -2.027  1.00  0.00     0.267 C 
ENDROOT
BRANCH   1   2
HETATM    2  C5  UNL     1      13.654  -7.447  -2.372  1.00  0.00     0.060 C 
HETATM    3  N5  UNL     1      13.354  -7.032  -3.507  1.00  0.00    -0.348 N 
HETATM    4  C4  UNL     1      12.267  -6.842  -4.339  1.00  0.00     0.388 C 
ATOM      5  H5  UNL     1      14.201  -6.730  -3.988  1.00  0.00     0.163 HD
HETATM    6  N3  UNL     1      10.956  -7.010  -3.844  1.00  0.00    -0.321 N 
HETATM    7  C3  UNL     1      10.609  -7.636  -2.757  1.00  0.00     0.196 C 
ATOM      8  H3  UNL     1      10.203  -6.598  -4.396  1.00  0.00     0.166 HD
HETATM    9  N1  UNL     1      11.419  -8.313  -1.776  1.00  0.00    -0.279 N 
HETATM   10  N2  UNL     1       9.208  -7.635  -2.535  1.00  0.00    -0.063 NA
HETATM   11  C2  UNL     1      10.780  -9.427  -1.213  1.00  0.00     0.223 C 
HETATM   12  C16 UNL     1      12.711  -7.979  -1.345  1.00  0.00     0.175 C 
HETATM   13  C1  UNL     1      11.290 -10.371  -0.206  1.00  0.00     0.117 C 
HETATM   14  O1  UNL     1       9.586  -9.695  -1.603  1.00  0.00    -0.273 OA
BRANCH   4  15
HETATM   15  N4  UNL     1      12.411  -7.802  -5.455  1.00  0.00    -0.041 N 
ATOM     16  H43 UNL     1      11.755  -8.581  -5.407  1.00  0.00     0.279 HD
ATOM     17  H42 UNL     1      12.098  -7.432  -6.352  1.00  0.00     0.279 HD
ATOM     18  H41 UNL     1      13.388  -8.094  -5.453  1.00  0.00     0.279 HD
ENDBRANCH   4  15
BRANCH  12  19
HETATM   19  C17 UNL     1      12.831  -7.110  -0.136  1.00  0.00     0.172 C 
BRANCH  19  20
HETATM   20  O5  UNL     1      13.604  -7.753   0.867  1.00  0.00    -0.391 OA
ATOM     21  H5  UNL     1      14.142  -7.121   1.331  1.00  0.00     0.210 HD
ENDBRANCH  19  20
BRANCH  19  22
HETATM   22  C18 UNL     1      11.614  -6.644   0.560  1.00  0.00     0.263 C 
BRANCH  22  23
HETATM   23  N11 UNL     1      11.274  -7.302   1.781  1.00  0.00    -0.077 N 
ATOM     24 3H11 UNL     1      10.488  -7.930   1.623  1.00  0.00     0.274 HD
ATOM     25 2H11 UNL     1      12.005  -7.971   2.022  1.00  0.00     0.274 HD
ATOM     26 1H11 UNL     1      11.078  -6.707   2.587  1.00  0.00     0.274 HD
ENDBRANCH  22  23
ENDBRANCH  19  22
ENDBRANCH  12  19
ENDBRANCH   1   2
BRANCH   1  27
HETATM   27  O2  UNL     1      15.869  -7.950  -3.088  1.00  0.00    -0.371 OA
ATOM     28  H2  UNL     1      15.575  -7.599  -3.921  1.00  0.00     0.212 HD
ENDBRANCH   1  27
BRANCH   1  29
HETATM   29  N6  UNL     1      15.517  -5.995  -2.034  1.00  0.00    -0.356 N 
ATOM     30  H6  UNL     1      15.278  -5.387  -2.818  1.00  0.00     0.162 HD
BRANCH  29  31
HETATM   31  C7  UNL     1      16.262  -5.492  -0.933  1.00  0.00     0.077 A 
HETATM   32  C8  UNL     1      17.622  -5.711  -0.861  1.00  0.00     0.063 A 
HETATM   33  C9  UNL     1      18.334  -5.231   0.209  1.00  0.00     0.048 A 
HETATM   34  C12 UNL     1      17.673  -4.541   1.184  1.00  0.00     0.131 A 
HETATM   35  N9  UNL     1      16.330  -4.300   1.154  1.00  0.00    -0.275 N 
HETATM   36  C13 UNL     1      15.751  -3.576   2.217  1.00  0.00     0.225 C 
HETATM   37  C15 UNL     1      15.650  -4.789   0.081  1.00  0.00     0.135 A 
HETATM   38  C14 UNL     1      14.326  -3.253   2.303  1.00  0.00     0.118 C 
HETATM   39  O4  UNL     1      16.517  -3.180   3.160  1.00  0.00    -0.273 OA
BRANCH  33  40
HETATM   40  N7  UNL     1      19.742  -5.463   0.282  1.00  0.00    -0.361 N 
ATOM     41  H7  UNL     1      20.383  -4.745  -0.057  1.00  0.00     0.162 HD
BRANCH  40  42
HETATM   42  C10 UNL     1      20.281  -6.686   0.823  1.00  0.00     0.243 C 
BRANCH  42  43
HETATM   43  O3  UNL     1      20.065  -6.714   2.210  1.00  0.00    -0.375 OA
ATOM     44  H3  UNL     1      19.796  -7.588   2.468  1.00  0.00     0.212 HD
ENDBRANCH  42  43
BRANCH  42  45
HETATM   45  C11 UNL     1      21.747  -6.761   0.537  1.00  0.00     0.282 C 
BRANCH  45  46
HETATM   46  N8  UNL     1      22.507  -6.871   1.778  1.00  0.00    -0.075 N 
ATOM     47  H83 UNL     1      21.944  -7.260   2.535  1.00  0.00     0.274 HD
ATOM     48  H82 UNL     1      23.216  -7.602   1.724  1.00  0.00     0.274 HD
ATOM     49  H81 UNL     1      22.911  -5.969   2.032  1.00  0.00     0.274 HD
ENDBRANCH  45  46
ENDBRANCH  42  45
ENDBRANCH  40  42
ENDBRANCH  33  40
BRANCH  37  50
HETATM   50  N10 UNL     1      14.393  -4.550   0.072  1.00  0.00    -0.383 N 
ATOM     51 2H10 UNL     1      13.795  -5.362  -0.077  1.00  0.00     0.157 HD
ATOM     52 1H10 UNL     1      14.024  -3.609   0.207  1.00  0.00     0.157 HD
ENDBRANCH  37  50
ENDBRANCH  29  31
ENDBRANCH   1  29
TORSDOF 15
ENDMDL
MODEL 5
REMARK VINA RESULT: -6.895816056      1.788      2.550
REMARK  15 active torsions:
REMARK  status: ('A' for Active; 'I' for Inactive)
REMARK       I    between atoms: C2_2  and  N1_4 
REMARK    1  A    between atoms: C4_9  and  N4_10 
REMARK    2  A    between atoms: C5_16  and  C6_17 
REMARK    3  A    between atoms: C6_17  and  O2_18 
REMARK    4  A    between atoms: C6_17  and  N6_20 
REMARK    5  A    between atoms: N6_20  and  C7_22 
REMARK    6  A    between atoms: C9_24  and  N7_25 
REMARK    7  A    between atoms: N7_25  and  C10_27 
REMARK    8  A    between atoms: C10_27  and  O3_28 
REMARK    9  A    between atoms: C10_27  and  C11_30 
REMARK   10  A    between atoms: C11_30  and  N8_31 
REMARK       I    between atoms: N9_36  and  C13_37 
REMARK   11  A    between atoms: C15_40  and  N10_41 
REMARK   12  A    between atoms: C16_44  and  C17_45 
REMARK   13  A    between atoms: C17_45  and  O5_46 
REMARK   14  A    between atoms: C17_45  and  C18_48 
REMARK   15  A    between atoms: C18_48  and  N11_49 
ROOT
HETATM    1  C6  UNL     1      15.521  -8.187  -1.605  1.00  0.00     0.267 C 
ENDROOT
BRANCH   1   2
HETATM    2  C5  UNL     1      14.107  -8.411  -1.219  1.00  0.00     0.060 C 
HETATM    3  N5  UNL     1      13.912  -9.288  -0.358  1.00  0.00    -0.348 N 
HETATM    4  C4  UNL     1      12.900  -9.904   0.353  1.00  0.00     0.388 C 
ATOM      5  H5  UNL     1      14.808  -9.691  -0.081  1.00  0.00     0.163 HD
HETATM    6  N3  UNL     1      11.550  -9.658   0.024  1.00  0.00    -0.321 N 
HETATM    7  C3  UNL     1      11.089  -8.664  -0.682  1.00  0.00     0.196 C 
ATOM      8  H3  UNL     1      10.864 -10.326   0.376  1.00  0.00     0.166 HD
HETATM    9  N1  UNL     1      11.786  -7.572  -1.311  1.00  0.00    -0.279 N 
HETATM   10  N2  UNL     1       9.679  -8.693  -0.833  1.00  0.00    -0.063 NA
HETATM   11  C2  UNL     1      11.041  -6.384  -1.326  1.00  0.00     0.223 C 
HETATM   12  C16 UNL     1      13.063  -7.581  -1.890  1.00  0.00     0.175 C 
HETATM   13  C1  UNL     1      11.419  -5.063  -1.855  1.00  0.00     0.117 C 
HETATM   14  O1  UNL     1       9.861  -6.408  -0.816  1.00  0.00    -0.273 OA
BRANCH   4  15
HETATM   15  N4  UNL     1      13.059  -9.492   1.765  1.00  0.00    -0.041 N 
ATOM     16  H43 UNL     1      14.011  -9.599   2.115  1.00  0.00     0.279 HD
ATOM     17  H42 UNL     1      12.988  -8.484   1.905  1.00  0.00     0.279 HD
ATOM     18  H41 UNL     1      12.371 -10.026   2.295  1.00  0.00     0.279 HD
ENDBRANCH   4  15
BRANCH  12  19
HETATM   19  C17 UNL     1      13.154  -7.847  -3.357  1.00  0.00     0.172 C 
BRANCH  19  20
HETATM   20  O5  UNL     1      13.774  -6.760  -4.026  1.00  0.00    -0.391 OA
ATOM     21  H5  UNL     1      13.250  -5.972  -3.941  1.00  0.00     0.210 HD
ENDBRANCH  19  20
BRANCH  19  22
HETATM   22  C18 UNL     1      11.927  -8.123  -4.132  1.00  0.00     0.263 C 
BRANCH  22  23
HETATM   23  N11 UNL     1      12.049  -8.129  -5.555  1.00  0.00    -0.077 N 
ATOM     24 3H11 UNL     1      11.399  -7.453  -5.956  1.00  0.00     0.274 HD
ATOM     25 2H11 UNL     1      12.941  -7.714  -5.822  1.00  0.00     0.274 HD
ATOM     26 1H11 UNL     1      11.937  -9.028  -6.024  1.00  0.00     0.274 HD
ENDBRANCH  22  23
ENDBRANCH  19  22
ENDBRANCH  12  19
ENDBRANCH   1   2
BRANCH   1  27
HETATM   27  O2  UNL     1      15.761  -8.716  -2.906  1.00  0.00    -0.371 OA
ATOM     28  H2  UNL     1      15.249  -8.239  -3.549  1.00  0.00     0.212 HD
ENDBRANCH   1  27
BRANCH   1  29
HETATM   29  N6  UNL     1      15.713  -6.750  -1.814  1.00  0.00    -0.356 N 
ATOM     30  H6  UNL     1      15.360  -6.298  -2.658  1.00  0.00     0.162 HD
BRANCH  29  31
HETATM   31  C7  UNL     1      16.398  -5.993  -0.824  1.00  0.00     0.077 A 
HETATM   32  C8  UNL     1      17.763  -6.122  -0.677  1.00  0.00     0.063 A 
HETATM   33  C9  UNL     1      18.417  -5.396   0.285  1.00  0.00     0.048 A 
HETATM   34  C12 UNL     1      17.693  -4.554   1.081  1.00  0.00     0.131 A 
HETATM   35  N9  UNL     1      16.342  -4.395   0.971  1.00  0.00    -0.275 N 
HETATM   36  C13 UNL     1      15.696  -3.498   1.847  1.00  0.00     0.225 C 
HETATM   37  C15 UNL     1      15.721  -5.129   0.007  1.00  0.00     0.135 A 
HETATM   38  C14 UNL     1      14.255  -3.239   1.831  1.00  0.00     0.118 C 
HETATM   39  O4  UNL     1      16.411  -2.877   2.705  1.00  0.00    -0.273 OA
BRANCH  33  40
HETATM   40  N7  UNL     1      19.831  -5.535   0.438  1.00  0.00    -0.361 N 
ATOM     41  H7  UNL     1      20.442  -4.782   0.119  1.00  0.00     0.162 HD
BRANCH  40  42
HETATM   42  C10 UNL     1      20.417  -6.711   1.030  1.00  0.00     0.243 C 
BRANCH  42  43
HETATM   43  O3  UNL     1      20.185  -6.697   2.414  1.00  0.00    -0.375 OA
ATOM     44  H3  UNL     1      19.291  -6.969   2.586  1.00  0.00     0.212 HD
ENDBRANCH  42  43
BRANCH  42  45
HETATM   45  C11 UNL     1      21.888  -6.731   0.762  1.00  0.00     0.282 C 
BRANCH  45  46
HETATM   46  N8  UNL     1      22.637  -6.808   2.013  1.00  0.00    -0.075 N 
ATOM     47  H83 UNL     1      23.594  -7.126   1.863  1.00  0.00     0.274 HD
ATOM     48  H82 UNL     1      22.840  -5.883   2.390  1.00  0.00     0.274 HD
ATOM     49  H81 UNL     1      22.145  -7.393   2.689  1.00  0.00     0.274 HD
ENDBRANCH  45  46
ENDBRANCH  42  45
ENDBRANCH  40  42
ENDBRANCH  33  40
BRANCH  37  50
HETATM   50  N10 UNL     1      14.455  -4.962  -0.080  1.00  0.00    -0.383 N 
ATOM     51 2H10 UNL     1      14.144  -4.386  -0.862  1.00  0.00     0.157 HD
ATOM     52 1H10 UNL     1      13.810  -5.380   0.591  1.00  0.00     0.157 HD
ENDBRANCH  37  50
ENDBRANCH  29  31
ENDBRANCH   1  29
TORSDOF 15
ENDMDL
