MODEL 1
REMARK VINA RESULT: -7.622467041      0.000      0.000
REMARK  7 active torsions:
REMARK  status: ('A' for Active; 'I' for Inactive)
REMARK    1  A    between atoms: O1_2  and  C2_3 
REMARK    2  A    between atoms: C2_3  and  C3_5 
REMARK    3  A    between atoms: C8_10  and  C9_11 
REMARK    4  A    between atoms: C8_10  and  C10_18 
REMARK    5  A    between atoms: C9_11  and  O3_12 
REMARK    6  A    between atoms: N1_14  and  O4_16 
REMARK    7  A    between atoms: C10_18  and  C12_21 
ROOT
HETATM    1  C10 UNL     1      10.000  16.973  56.003  1.00  0.00     0.171 C 
HETATM    2  C11 UNL     1       9.506  16.942  54.632  1.00  0.00     0.072 C 
HETATM    3  N2  UNL     1       9.117  16.895  53.541  1.00  0.00    -0.196 NA
ENDROOT
BRANCH   1   4
HETATM    4  C8  UNL     1      11.269  17.804  56.058  1.00  0.00     0.061 C 
HETATM    5  C3  UNL     1      11.593  18.425  57.348  1.00  0.00     0.104 C 
HETATM    6  C4  UNL     1      12.685  19.472  57.121  1.00  0.00     0.016 C 
HETATM    7  C5  UNL     1      12.295  20.580  56.213  1.00  0.00     0.001 C 
HETATM    8  C6  UNL     1      11.232  20.190  55.219  1.00  0.00     0.001 C 
HETATM    9  C7  UNL     1      11.338  18.726  54.848  1.00  0.00     0.020 C 
BRANCH   5  10
HETATM   10  C2  UNL     1      10.565  19.015  58.185  1.00  0.00     0.263 C 
HETATM   11  O2  UNL     1      10.480  18.650  59.390  1.00  0.00    -0.265 OA
BRANCH  10  12
HETATM   12  O1  UNL     1       9.623  19.967  57.826  1.00  0.00    -0.326 OA
HETATM   13  C1  UNL     1       8.271  19.618  57.616  1.00  0.00     0.213 C 
ENDBRANCH  10  12
ENDBRANCH   5  10
BRANCH   4  14
HETATM   14  C9  UNL     1      12.339  16.790  55.800  1.00  0.00     0.146 C 
HETATM   15  N1  UNL     1      12.941  16.118  56.709  1.00  0.00    -0.250 N 
ATOM     16  H1  UNL     1      12.681  16.278  57.683  1.00  0.00     0.196 HD
BRANCH  14  17
HETATM   17  O3  UNL     1      12.700  16.564  54.482  1.00  0.00    -0.347 OA
ATOM     18  H3  UNL     1      12.960  17.316  53.964  1.00  0.00     0.219 HD
ENDBRANCH  14  17
BRANCH  15  19
HETATM   19  O4  UNL     1      13.914  15.201  56.439  1.00  0.00    -0.288 OA
ATOM     20  H4  UNL     1      13.740  14.368  56.018  1.00  0.00     0.244 HD
ENDBRANCH  15  19
ENDBRANCH   4  14
ENDBRANCH   1   4
BRANCH   1  21
HETATM   21  C12 UNL     1      10.019  15.709  56.711  1.00  0.00     0.251 C 
HETATM   22  O5  UNL     1      10.014  14.682  56.009  1.00  0.00    -0.305 OA
ENDBRANCH   1  21
TORSDOF 7
ENDMDL
MODEL 2
REMARK VINA RESULT: -7.551019940      2.540      4.412
REMARK  7 active torsions:
REMARK  status: ('A' for Active; 'I' for Inactive)
REMARK    1  A    between atoms: O1_2  and  C2_3 
REMARK    2  A    between atoms: C2_3  and  C3_5 
REMARK    3  A    between atoms: C8_10  and  C9_11 
REMARK    4  A    between atoms: C8_10  and  C10_18 
REMARK    5  A    between atoms: C9_11  and  O3_12 
REMARK    6  A    between atoms: N1_14  and  O4_16 
REMARK    7  A    between atoms: C10_18  and  C12_21 
ROOT
HETATM    1  C10 UNL     1       8.873  17.477  57.528  1.00  0.00     0.171 C 
HETATM    2  C11 UNL     1       7.601  17.312  56.835  1.00  0.00     0.072 C 
HETATM    3  N2  UNL     1       6.599  17.167  56.271  1.00  0.00    -0.196 NA
ENDROOT
BRANCH   1   4
HETATM    4  C8  UNL     1       9.355  18.906  57.355  1.00  0.00     0.061 C 
HETATM    5  C3  UNL     1       9.404  19.422  55.982  1.00  0.00     0.104 C 
HETATM    6  C4  UNL     1      10.220  20.716  55.980  1.00  0.00     0.016 C 
HETATM    7  C5  UNL     1      11.630  20.555  56.414  1.00  0.00     0.001 C 
HETATM    8  C6  UNL     1      11.839  19.386  57.343  1.00  0.00     0.001 C 
HETATM    9  C7  UNL     1      10.609  19.133  58.189  1.00  0.00     0.020 C 
BRANCH   5  10
HETATM   10  C2  UNL     1       9.858  18.598  54.877  1.00  0.00     0.263 C 
HETATM   11  O2  UNL     1       9.114  18.475  53.866  1.00  0.00    -0.265 OA
BRANCH  10  12
HETATM   12  O1  UNL     1      11.050  17.896  54.777  1.00  0.00    -0.326 OA
HETATM   13  C1  UNL     1      11.891  18.037  53.652  1.00  0.00     0.213 C 
ENDBRANCH  10  12
ENDBRANCH   5  10
BRANCH   4  14
HETATM   14  C9  UNL     1       8.302  19.698  58.065  1.00  0.00     0.146 C 
HETATM   15  N1  UNL     1       8.334  20.002  59.309  1.00  0.00    -0.250 N 
ATOM     16  H1  UNL     1       9.130  19.687  59.865  1.00  0.00     0.196 HD
BRANCH  14  17
HETATM   17  O3  UNL     1       7.219  20.132  57.320  1.00  0.00    -0.347 OA
ATOM     18  H3  UNL     1       6.580  20.683  57.756  1.00  0.00     0.219 HD
ENDBRANCH  14  17
BRANCH  15  19
HETATM   19  O4  UNL     1       7.357  20.725  59.926  1.00  0.00    -0.288 OA
ATOM     20  H4  UNL     1       7.164  20.655  60.853  1.00  0.00     0.244 HD
ENDBRANCH  15  19
ENDBRANCH   4  14
ENDBRANCH   1   4
BRANCH   1  21
HETATM   21  C12 UNL     1       9.856  16.430  57.328  1.00  0.00     0.251 C 
HETATM   22  O5  UNL     1       9.519  15.489  56.588  1.00  0.00    -0.305 OA
ENDBRANCH   1  21
TORSDOF 7
ENDMDL
MODEL 3
REMARK VINA RESULT: -7.482935461      1.168      1.235
REMARK  7 active torsions:
REMARK  status: ('A' for Active; 'I' for Inactive)
REMARK    1  A    between atoms: O1_2  and  C2_3 
REMARK    2  A    between atoms: C2_3  and  C3_5 
REMARK    3  A    between atoms: C8_10  and  C9_11 
REMARK    4  A    between atoms: C8_10  and  C10_18 
REMARK    5  A    between atoms: C9_11  and  O3_12 
REMARK    6  A    between atoms: N1_14  and  O4_16 
REMARK    7  A    between atoms: C10_18  and  C12_21 
ROOT
HETATM    1  C10 UNL     1       9.954  16.445  56.858  1.00  0.00     0.171 C 
HETATM    2  C11 UNL     1       8.623  17.037  56.816  1.00  0.00     0.072 C 
HETATM    3  N2  UNL     1       7.559  17.494  56.765  1.00  0.00    -0.196 NA
ENDROOT
BRANCH   1   4
HETATM    4  C8  UNL     1      10.982  17.500  56.493  1.00  0.00     0.061 C 
HETATM    5  C3  UNL     1      11.438  18.378  57.577  1.00  0.00     0.104 C 
HETATM    6  C4  UNL     1      12.185  19.562  56.960  1.00  0.00     0.016 C 
HETATM    7  C5  UNL     1      11.363  20.407  56.059  1.00  0.00     0.001 C 
HETATM    8  C6  UNL     1      10.220  19.661  55.421  1.00  0.00     0.001 C 
HETATM    9  C7  UNL     1      10.568  18.203  55.207  1.00  0.00     0.020 C 
BRANCH   5  10
HETATM   10  C2  UNL     1      10.518  18.892  58.574  1.00  0.00     0.263 C 
HETATM   11  O2  UNL     1      10.508  18.365  59.720  1.00  0.00    -0.265 OA
BRANCH  10  12
HETATM   12  O1  UNL     1       9.609  19.930  58.433  1.00  0.00    -0.326 OA
HETATM   13  C1  UNL     1       8.424  19.975  59.199  1.00  0.00     0.213 C 
ENDBRANCH  10  12
ENDBRANCH   5  10
BRANCH   4  14
HETATM   14  C9  UNL     1      12.168  16.680  56.089  1.00  0.00     0.146 C 
HETATM   15  N1  UNL     1      12.873  15.974  56.892  1.00  0.00    -0.250 N 
ATOM     16  H1  UNL     1      12.616  15.963  57.880  1.00  0.00     0.196 HD
BRANCH  14  17
HETATM   17  O3  UNL     1      12.523  16.687  54.751  1.00  0.00    -0.347 OA
ATOM     18  H3  UNL     1      12.269  17.443  54.234  1.00  0.00     0.219 HD
ENDBRANCH  14  17
BRANCH  15  19
HETATM   19  O4  UNL     1      13.949  15.238  56.492  1.00  0.00    -0.288 OA
ATOM     20  H4  UNL     1      14.843  15.555  56.541  1.00  0.00     0.244 HD
ENDBRANCH  15  19
ENDBRANCH   4  14
ENDBRANCH   1   4
BRANCH   1  21
HETATM   21  C12 UNL     1      10.103  15.147  56.231  1.00  0.00     0.251 C 
HETATM   22  O5  UNL     1       9.254  14.846  55.374  1.00  0.00    -0.305 OA
ENDBRANCH   1  21
TORSDOF 7
ENDMDL
MODEL 4
REMARK VINA RESULT: -7.446135535      2.497      4.306
REMARK  7 active torsions:
REMARK  status: ('A' for Active; 'I' for Inactive)
REMARK    1  A    between atoms: O1_2  and  C2_3 
REMARK    2  A    between atoms: C2_3  and  C3_5 
REMARK    3  A    between atoms: C8_10  and  C9_11 
REMARK    4  A    between atoms: C8_10  and  C10_18 
REMARK    5  A    between atoms: C9_11  and  O3_12 
REMARK    6  A    between atoms: N1_14  and  O4_16 
REMARK    7  A    between atoms: C10_18  and  C12_21 
ROOT
HETATM    1  C10 UNL     1       9.097  17.462  57.520  1.00  0.00     0.171 C 
HETATM    2  C11 UNL     1       7.764  17.501  56.932  1.00  0.00     0.072 C 
HETATM    3  N2  UNL     1       6.711  17.521  56.447  1.00  0.00    -0.196 NA
ENDROOT
BRANCH   1   4
HETATM    4  C8  UNL     1       9.647  18.875  57.608  1.00  0.00     0.061 C 
HETATM    5  C3  UNL     1       9.330  19.774  56.492  1.00  0.00     0.104 C 
HETATM    6  C4  UNL     1      10.234  21.004  56.590  1.00  0.00     0.016 C 
HETATM    7  C5  UNL     1      11.685  20.711  56.488  1.00  0.00     0.001 C 
HETATM    8  C6  UNL     1      12.045  19.319  56.939  1.00  0.00     0.001 C 
HETATM    9  C7  UNL     1      11.110  18.835  58.027  1.00  0.00     0.020 C 
BRANCH   5  10
HETATM   10  C2  UNL     1       9.343  19.310  55.117  1.00  0.00     0.263 C 
HETATM   11  O2  UNL     1       8.466  19.746  54.321  1.00  0.00    -0.265 OA
BRANCH  10  12
HETATM   12  O1  UNL     1      10.226  18.415  54.533  1.00  0.00    -0.326 OA
HETATM   13  C1  UNL     1       9.810  17.541  53.504  1.00  0.00     0.213 C 
ENDBRANCH  10  12
ENDBRANCH   5  10
BRANCH   4  14
HETATM   14  C9  UNL     1       8.943  19.429  58.807  1.00  0.00     0.146 C 
HETATM   15  N1  UNL     1       7.934  20.216  58.760  1.00  0.00    -0.250 N 
ATOM     16  H1  UNL     1       7.575  20.490  57.845  1.00  0.00     0.196 HD
BRANCH  14  17
HETATM   17  O3  UNL     1       9.421  19.062  60.053  1.00  0.00    -0.347 OA
ATOM     18  H3  UNL     1       8.837  18.568  60.618  1.00  0.00     0.219 HD
ENDBRANCH  14  17
BRANCH  15  19
HETATM   19  O4  UNL     1       7.316  20.705  59.873  1.00  0.00    -0.288 OA
ATOM     20  H4  UNL     1       6.381  20.629  60.025  1.00  0.00     0.244 HD
ENDBRANCH  15  19
ENDBRANCH   4  14
ENDBRANCH   1   4
BRANCH   1  21
HETATM   21  C12 UNL     1       9.996  16.445  57.012  1.00  0.00     0.251 C 
HETATM   22  O5  UNL     1       9.467  15.416  56.557  1.00  0.00    -0.305 OA
ENDBRANCH   1  21
TORSDOF 7
ENDMDL
MODEL 5
REMARK VINA RESULT: -7.326136596      2.608      4.426
REMARK  7 active torsions:
REMARK  status: ('A' for Active; 'I' for Inactive)
REMARK    1  A    between atoms: O1_2  and  C2_3 
REMARK    2  A    between atoms: C2_3  and  C3_5 
REMARK    3  A    between atoms: C8_10  and  C9_11 
REMARK    4  A    between atoms: C8_10  and  C10_18 
REMARK    5  A    between atoms: C9_11  and  O3_12 
REMARK    6  A    between atoms: N1_14  and  O4_16 
REMARK    7  A    between atoms: C10_18  and  C12_21 
ROOT
HETATM    1  C10 UNL     1       9.813  18.986  58.487  1.00  0.00     0.171 C 
HETATM    2  C11 UNL     1       8.766  19.824  59.058  1.00  0.00     0.072 C 
HETATM    3  N2  UNL     1       7.921  20.472  59.517  1.00  0.00    -0.196 NA
ENDROOT
BRANCH   1   4
HETATM    4  C8  UNL     1       9.926  19.269  57.000  1.00  0.00     0.061 C 
HETATM    5  C3  UNL     1      10.938  18.508  56.260  1.00  0.00     0.104 C 
HETATM    6  C4  UNL     1      11.133  19.162  54.891  1.00  0.00     0.016 C 
HETATM    7  C5  UNL     1      11.622  20.562  54.943  1.00  0.00     0.001 C 
HETATM    8  C6  UNL     1      11.245  21.279  56.214  1.00  0.00     0.001 C 
HETATM    9  C7  UNL     1       9.926  20.773  56.758  1.00  0.00     0.020 C 
BRANCH   5  10
HETATM   10  C2  UNL     1      12.248  18.239  56.824  1.00  0.00     0.263 C 
HETATM   11  O2  UNL     1      12.902  19.195  57.325  1.00  0.00    -0.265 OA
BRANCH  10  12
HETATM   12  O1  UNL     1      12.908  17.021  56.892  1.00  0.00    -0.326 OA
HETATM   13  C1  UNL     1      12.446  15.896  56.175  1.00  0.00     0.213 C 
ENDBRANCH  10  12
ENDBRANCH   5  10
BRANCH   4  14
HETATM   14  C9  UNL     1       8.597  18.821  56.477  1.00  0.00     0.146 C 
HETATM   15  N1  UNL     1       7.582  19.586  56.317  1.00  0.00    -0.250 N 
ATOM     16  H1  UNL     1       7.675  20.572  56.559  1.00  0.00     0.196 HD
BRANCH  14  17
HETATM   17  O3  UNL     1       8.460  17.484  56.143  1.00  0.00    -0.347 OA
ATOM     18  H3  UNL     1       9.234  17.029  55.833  1.00  0.00     0.219 HD
ENDBRANCH  14  17
BRANCH  15  19
HETATM   19  O4  UNL     1       6.383  19.144  55.838  1.00  0.00    -0.288 OA
ATOM     20  H4  UNL     1       6.223  18.242  55.588  1.00  0.00     0.244 HD
ENDBRANCH  15  19
ENDBRANCH   4  14
ENDBRANCH   1   4
BRANCH   1  21
HETATM   21  C12 UNL     1       9.813  17.592  58.885  1.00  0.00     0.251 C 
HETATM   22  O5  UNL     1       9.766  17.366  60.107  1.00  0.00    -0.305 OA
ENDBRANCH   1  21
TORSDOF 7
ENDMDL
