MODEL 1
REMARK VINA RESULT: -7.602195483      0.000      0.000
REMARK  6 active torsions:
REMARK  status: ('A' for Active; 'I' for Inactive)
REMARK    1  A    between atoms: N1_2  and  C1_4 
REMARK    2  A    between atoms: C4_7  and  C5_8 
REMARK    3  A    between atoms: N2_9  and  N3_11 
REMARK    4  A    between atoms: N3_11  and  C6_13 
REMARK    5  A    between atoms: C6_13  and  N4_15 
REMARK    6  A    between atoms: N4_15  and  C7_17 
ROOT
HETATM    1  C5  UNL     1       9.047  19.994  57.918  1.00  0.00     0.144 C 
HETATM    2  N2  UNL     1       8.522  19.471  56.876  1.00  0.00    -0.307 N 
ATOM      3  H2  UNL     1       7.935  18.647  56.999  1.00  0.00     0.186 HD
ENDROOT
BRANCH   2   4
HETATM    4  N3  UNL     1       8.701  19.951  55.600  1.00  0.00    -0.277 N 
ATOM      5  H3  UNL     1       8.250  20.820  55.313  1.00  0.00     0.189 HD
BRANCH   4   6
HETATM    6  C6  UNL     1       9.515  19.235  54.683  1.00  0.00     0.186 C 
HETATM    7  S1  UNL     1       8.997  17.798  54.094  1.00  0.00    -0.040 SA
BRANCH   6   8
HETATM    8  N4  UNL     1      10.761  19.752  54.279  1.00  0.00    -0.361 N 
ATOM      9  H4  UNL     1      10.835  20.268  53.403  1.00  0.00     0.162 HD
BRANCH   8  10
HETATM   10  C7  UNL     1      11.920  19.559  55.088  1.00  0.00     0.083 C 
HETATM   11  C8  UNL     1      12.115  20.550  56.220  1.00  0.00     0.025 C 
HETATM   12  C9  UNL     1      12.708  19.379  57.012  1.00  0.00     0.004 C 
HETATM   13  C10 UNL     1      11.775  18.489  56.178  1.00  0.00     0.025 C 
ENDBRANCH   8  10
ENDBRANCH   6   8
ENDBRANCH   4   6
ENDBRANCH   2   4
BRANCH   1  14
HETATM   14  C4  UNL     1       8.797  19.413  59.221  1.00  0.00     0.095 A 
HETATM   15  C3  UNL     1       9.622  18.517  59.886  1.00  0.00     0.043 A 
HETATM   16  C2  UNL     1       9.027  18.209  61.090  1.00  0.00     0.065 A 
HETATM   17  C1  UNL     1       7.853  18.931  61.122  1.00  0.00     0.215 A 
HETATM   18  O3  UNL     1       7.777  19.610  60.008  1.00  0.00    -0.287 OA
BRANCH  17  19
HETATM   19  N1  UNL     1       6.908  18.911  62.207  1.00  0.00    -0.090 N 
HETATM   20  O1  UNL     1       6.685  19.937  62.868  1.00  0.00    -0.530 OA
HETATM   21  O2  UNL     1       6.269  17.735  62.485  1.00  0.00    -0.530 OA
ENDBRANCH  17  19
ENDBRANCH   1  14
TORSDOF 6
ENDMDL
MODEL 2
REMARK VINA RESULT: -7.318479989      1.690      2.140
REMARK  6 active torsions:
REMARK  status: ('A' for Active; 'I' for Inactive)
REMARK    1  A    between atoms: N1_2  and  C1_4 
REMARK    2  A    between atoms: C4_7  and  C5_8 
REMARK    3  A    between atoms: N2_9  and  N3_11 
REMARK    4  A    between atoms: N3_11  and  C6_13 
REMARK    5  A    between atoms: C6_13  and  N4_15 
REMARK    6  A    between atoms: N4_15  and  C7_17 
ROOT
HETATM    1  C5  UNL     1      10.175  18.072  58.965  1.00  0.00     0.144 C 
HETATM    2  N2  UNL     1       9.948  17.157  58.103  1.00  0.00    -0.307 N 
ATOM      3  H2  UNL     1       8.982  16.862  57.962  1.00  0.00     0.186 HD
ENDROOT
BRANCH   2   4
HETATM    4  N3  UNL     1      10.924  16.545  57.354  1.00  0.00    -0.277 N 
ATOM      5  H3  UNL     1      11.615  15.946  57.806  1.00  0.00     0.189 HD
BRANCH   4   6
HETATM    6  C6  UNL     1      10.969  16.747  55.949  1.00  0.00     0.186 C 
HETATM    7  S1  UNL     1      10.082  15.785  54.965  1.00  0.00    -0.040 SA
BRANCH   6   8
HETATM    8  N4  UNL     1      11.769  17.767  55.399  1.00  0.00    -0.361 N 
ATOM      9  H4  UNL     1      12.545  17.525  54.784  1.00  0.00     0.162 HD
BRANCH   8  10
HETATM   10  C7  UNL     1      11.501  19.136  55.697  1.00  0.00     0.083 C 
HETATM   11  C8  UNL     1      12.459  19.807  56.663  1.00  0.00     0.025 C 
HETATM   12  C9  UNL     1      12.245  21.081  55.836  1.00  0.00     0.004 C 
HETATM   13  C10 UNL     1      12.008  20.135  54.649  1.00  0.00     0.025 C 
ENDBRANCH   8  10
ENDBRANCH   6   8
ENDBRANCH   4   6
ENDBRANCH   2   4
BRANCH   1  14
HETATM   14  C4  UNL     1       9.076  18.656  59.705  1.00  0.00     0.095 A 
HETATM   15  C3  UNL     1       8.355  19.785  59.341  1.00  0.00     0.043 A 
HETATM   16  C2  UNL     1       7.400  20.007  60.309  1.00  0.00     0.065 A 
HETATM   17  C1  UNL     1       7.569  19.002  61.238  1.00  0.00     0.215 A 
HETATM   18  O3  UNL     1       8.557  18.251  60.831  1.00  0.00    -0.287 OA
BRANCH  17  19
HETATM   19  N1  UNL     1       6.777  18.846  62.429  1.00  0.00    -0.090 N 
HETATM   20  O1  UNL     1       6.789  19.715  63.314  1.00  0.00    -0.530 OA
HETATM   21  O2  UNL     1       6.015  17.718  62.553  1.00  0.00    -0.530 OA
ENDBRANCH  17  19
ENDBRANCH   1  14
TORSDOF 6
ENDMDL
MODEL 3
REMARK VINA RESULT: -7.168844450      3.033      3.891
REMARK  6 active torsions:
REMARK  status: ('A' for Active; 'I' for Inactive)
REMARK    1  A    between atoms: N1_2  and  C1_4 
REMARK    2  A    between atoms: C4_7  and  C5_8 
REMARK    3  A    between atoms: N2_9  and  N3_11 
REMARK    4  A    between atoms: N3_11  and  C6_13 
REMARK    5  A    between atoms: C6_13  and  N4_15 
REMARK    6  A    between atoms: N4_15  and  C7_17 
ROOT
HETATM    1  C5  UNL     1      10.360  18.500  58.896  1.00  0.00     0.144 C 
HETATM    2  N2  UNL     1      10.289  17.499  58.106  1.00  0.00    -0.307 N 
ATOM      3  H2  UNL     1       9.397  17.008  58.034  1.00  0.00     0.186 HD
ENDROOT
BRANCH   2   4
HETATM    4  N3  UNL     1      11.339  17.040  57.347  1.00  0.00    -0.277 N 
ATOM      5  H3  UNL     1      12.267  17.450  57.457  1.00  0.00     0.189 HD
BRANCH   4   6
HETATM    6  C6  UNL     1      11.131  15.994  56.409  1.00  0.00     0.186 C 
HETATM    7  S1  UNL     1      12.180  15.801  55.167  1.00  0.00    -0.040 SA
BRANCH   6   8
HETATM    8  N4  UNL     1      10.031  15.125  56.541  1.00  0.00    -0.361 N 
ATOM      9  H4  UNL     1      10.146  14.230  57.015  1.00  0.00     0.162 HD
BRANCH   8  10
HETATM   10  C7  UNL     1       8.755  15.489  56.015  1.00  0.00     0.083 C 
HETATM   11  C8  UNL     1       8.081  14.459  55.130  1.00  0.00     0.025 C 
HETATM   12  C9  UNL     1       6.758  14.956  55.726  1.00  0.00     0.004 C 
HETATM   13  C10 UNL     1       7.579  15.289  56.980  1.00  0.00     0.025 C 
ENDBRANCH   8  10
ENDBRANCH   6   8
ENDBRANCH   4   6
ENDBRANCH   2   4
BRANCH   1  14
HETATM   14  C4  UNL     1       9.194  18.906  59.654  1.00  0.00     0.095 A 
HETATM   15  C3  UNL     1       8.324  19.936  59.325  1.00  0.00     0.043 A 
HETATM   16  C2  UNL     1       7.353  19.996  60.299  1.00  0.00     0.065 A 
HETATM   17  C1  UNL     1       7.661  18.996  61.197  1.00  0.00     0.215 A 
HETATM   18  O3  UNL     1       8.741  18.399  60.767  1.00  0.00    -0.287 OA
BRANCH  17  19
HETATM   19  N1  UNL     1       6.903  18.697  62.383  1.00  0.00    -0.090 N 
HETATM   20  O1  UNL     1       7.006  19.407  63.394  1.00  0.00    -0.530 OA
HETATM   21  O2  UNL     1       6.071  17.613  62.360  1.00  0.00    -0.530 OA
ENDBRANCH  17  19
ENDBRANCH   1  14
TORSDOF 6
ENDMDL
MODEL 4
REMARK VINA RESULT: -7.120029672      1.466      1.719
REMARK  6 active torsions:
REMARK  status: ('A' for Active; 'I' for Inactive)
REMARK    1  A    between atoms: N1_2  and  C1_4 
REMARK    2  A    between atoms: C4_7  and  C5_8 
REMARK    3  A    between atoms: N2_9  and  N3_11 
REMARK    4  A    between atoms: N3_11  and  C6_13 
REMARK    5  A    between atoms: C6_13  and  N4_15 
REMARK    6  A    between atoms: N4_15  and  C7_17 
ROOT
HETATM    1  C5  UNL     1       9.333  20.046  58.068  1.00  0.00     0.144 C 
HETATM    2  N2  UNL     1       9.047  19.466  56.966  1.00  0.00    -0.307 N 
ATOM      3  H2  UNL     1       8.567  18.568  57.008  1.00  0.00     0.186 HD
ENDROOT
BRANCH   2   4
HETATM    4  N3  UNL     1       9.347  19.979  55.726  1.00  0.00    -0.277 N 
ATOM      5  H3  UNL     1       8.640  20.493  55.201  1.00  0.00     0.189 HD
BRANCH   4   6
HETATM    6  C6  UNL     1      10.643  19.791  55.178  1.00  0.00     0.186 C 
HETATM    7  S1  UNL     1      11.743  21.001  55.269  1.00  0.00    -0.040 SA
BRANCH   6   8
HETATM    8  N4  UNL     1      10.987  18.575  54.557  1.00  0.00    -0.361 N 
ATOM      9  H4  UNL     1      10.494  18.278  53.715  1.00  0.00     0.162 HD
BRANCH   8  10
HETATM   10  C7  UNL     1      12.022  17.754  55.098  1.00  0.00     0.083 C 
HETATM   11  C8  UNL     1      12.003  17.565  56.603  1.00  0.00     0.025 C 
HETATM   12  C9  UNL     1      12.524  16.148  56.332  1.00  0.00     0.004 C 
HETATM   13  C10 UNL     1      11.765  16.245  55.000  1.00  0.00     0.025 C 
ENDBRANCH   8  10
ENDBRANCH   6   8
ENDBRANCH   4   6
ENDBRANCH   2   4
BRANCH   1  14
HETATM   14  C4  UNL     1       8.974  19.423  59.326  1.00  0.00     0.095 A 
HETATM   15  C3  UNL     1       9.691  18.431  59.979  1.00  0.00     0.043 A 
HETATM   16  C2  UNL     1       9.014  18.113  61.136  1.00  0.00     0.065 A 
HETATM   17  C1  UNL     1       7.900  18.925  61.153  1.00  0.00     0.215 A 
HETATM   18  O3  UNL     1       7.934  19.663  60.075  1.00  0.00    -0.287 OA
BRANCH  17  19
HETATM   19  N1  UNL     1       6.904  18.929  62.191  1.00  0.00    -0.090 N 
HETATM   20  O1  UNL     1       6.633  19.974  62.802  1.00  0.00    -0.530 OA
HETATM   21  O2  UNL     1       6.269  17.753  62.480  1.00  0.00    -0.530 OA
ENDBRANCH  17  19
ENDBRANCH   1  14
TORSDOF 6
ENDMDL
MODEL 5
REMARK VINA RESULT: -7.091542545      2.627      3.501
REMARK  6 active torsions:
REMARK  status: ('A' for Active; 'I' for Inactive)
REMARK    1  A    between atoms: N1_2  and  C1_4 
REMARK    2  A    between atoms: C4_7  and  C5_8 
REMARK    3  A    between atoms: N2_9  and  N3_11 
REMARK    4  A    between atoms: N3_11  and  C6_13 
REMARK    5  A    between atoms: C6_13  and  N4_15 
REMARK    6  A    between atoms: N4_15  and  C7_17 
ROOT
HETATM    1  C5  UNL     1       9.861  18.438  59.902  1.00  0.00     0.144 C 
HETATM    2  N2  UNL     1      10.247  19.025  58.833  1.00  0.00    -0.307 N 
ATOM      3  H2  UNL     1       9.647  19.752  58.443  1.00  0.00     0.186 HD
ENDROOT
BRANCH   2   4
HETATM    4  N3  UNL     1      11.420  18.735  58.176  1.00  0.00    -0.277 N 
ATOM      5  H3  UNL     1      12.306  19.092  58.532  1.00  0.00     0.189 HD
BRANCH   4   6
HETATM    6  C6  UNL     1      11.394  17.939  57.001  1.00  0.00     0.186 C 
HETATM    7  S1  UNL     1      11.945  18.561  55.590  1.00  0.00    -0.040 SA
BRANCH   6   8
HETATM    8  N4  UNL     1      10.898  16.622  57.041  1.00  0.00    -0.361 N 
ATOM      9  H4  UNL     1      11.408  15.904  57.555  1.00  0.00     0.162 HD
BRANCH   8  10
HETATM   10  C7  UNL     1       9.686  16.285  56.367  1.00  0.00     0.083 C 
HETATM   11  C8  UNL     1       9.426  14.805  56.164  1.00  0.00     0.025 C 
HETATM   12  C9  UNL     1       7.942  15.139  56.358  1.00  0.00     0.004 C 
HETATM   13  C10 UNL     1       8.434  16.285  57.254  1.00  0.00     0.025 C 
ENDBRANCH   8  10
ENDBRANCH   6   8
ENDBRANCH   4   6
ENDBRANCH   2   4
BRANCH   1  14
HETATM   14  C4  UNL     1       8.607  18.816  60.520  1.00  0.00     0.095 A 
HETATM   15  C3  UNL     1       7.839  19.925  60.195  1.00  0.00     0.043 A 
HETATM   16  C2  UNL     1       6.729  19.923  61.011  1.00  0.00     0.065 A 
HETATM   17  C1  UNL     1       6.855  18.808  61.811  1.00  0.00     0.215 A 
HETATM   18  O3  UNL     1       7.966  18.206  61.478  1.00  0.00    -0.287 OA
BRANCH  17  19
HETATM   19  N1  UNL     1       5.910  18.412  62.821  1.00  0.00    -0.090 N 
HETATM   20  O1  UNL     1       5.882  17.244  63.237  1.00  0.00    -0.530 OA
HETATM   21  O2  UNL     1       5.049  19.358  63.305  1.00  0.00    -0.530 OA
ENDBRANCH  17  19
ENDBRANCH   1  14
TORSDOF 6
ENDMDL
