MODEL 1
REMARK VINA RESULT: -7.125849887      0.000      0.000
REMARK  4 active torsions:
REMARK  status: ('A' for Active; 'I' for Inactive)
REMARK       I    between atoms: C1_2  and  N1_3 
REMARK       I    between atoms: C1_2  and  N3_13 
REMARK    1  A    between atoms: N1_3  and  N2_5 
REMARK    2  A    between atoms: C2_7  and  C3_8 
REMARK    3  A    between atoms: N3_13  and  N4_15 
REMARK    4  A    between atoms: C7_17  and  C8_18 
ROOT
HETATM    1  O1  UNL     1      10.706  15.833  56.674  1.00  0.00    -0.244 OA
HETATM    2  C1  UNL     1      11.497  16.783  56.565  1.00  0.00     0.353 C 
HETATM    3  N1  UNL     1      11.376  17.907  57.429  1.00  0.00    -0.251 N 
ATOM      4  H1  UNL     1      12.034  18.679  57.326  1.00  0.00     0.191 HD
HETATM    5  N3  UNL     1      12.554  16.796  55.581  1.00  0.00    -0.251 N 
ATOM      6  H3  UNL     1      13.195  17.585  55.505  1.00  0.00     0.191 HD
ENDROOT
BRANCH   3   7
HETATM    7  N2  UNL     1      10.392  17.989  58.409  1.00  0.00    -0.307 N 
HETATM    8  C2  UNL     1       9.949  19.129  58.826  1.00  0.00     0.120 C 
ATOM      9  H2  UNL     1      10.012  17.130  58.807  1.00  0.00     0.186 HD
BRANCH   8  10
HETATM   10  C3  UNL     1       8.910  19.132  59.863  1.00  0.00     0.005 A 
HETATM   11  C4  UNL     1       8.839  18.316  60.976  1.00  0.00     0.039 A 
HETATM   12  C5  UNL     1       7.706  18.672  61.659  1.00  0.00     0.142 A 
HETATM   13  O2  UNL     1       7.115  19.643  61.012  1.00  0.00    -0.334 OA
HETATM   14  C6  UNL     1       7.803  19.953  59.926  1.00  0.00     0.154 A 
ENDBRANCH   8  10
ENDBRANCH   3   7
BRANCH   5  15
HETATM   15  N4  UNL     1      12.663  15.718  54.758  1.00  0.00    -0.307 N 
HETATM   16  C7  UNL     1      12.642  15.690  53.527  1.00  0.00     0.126 C 
ATOM     17  H4  UNL     1      12.776  14.816  55.221  1.00  0.00     0.186 HD
BRANCH  16  18
HETATM   18  C8  UNL     1      12.495  16.816  52.618  1.00  0.00     0.021 A 
HETATM   19  C9  UNL     1      13.397  17.595  51.959  1.00  0.00     0.021 A 
HETATM   20  C10 UNL     1      12.926  18.590  51.167  1.00  0.00     0.008 A 
HETATM   21  C11 UNL     1      11.574  18.738  51.090  1.00  0.00     0.050 A 
HETATM   22  S1  UNL     1      10.985  17.515  52.100  1.00  0.00    -0.101 SA
ENDBRANCH  16  18
ENDBRANCH   5  15
TORSDOF 4
ENDMDL
MODEL 2
REMARK VINA RESULT: -7.024320543      1.253      1.605
REMARK  4 active torsions:
REMARK  status: ('A' for Active; 'I' for Inactive)
REMARK       I    between atoms: C1_2  and  N1_3 
REMARK       I    between atoms: C1_2  and  N3_13 
REMARK    1  A    between atoms: N1_3  and  N2_5 
REMARK    2  A    between atoms: C2_7  and  C3_8 
REMARK    3  A    between atoms: N3_13  and  N4_15 
REMARK    4  A    between atoms: C7_17  and  C8_18 
ROOT
HETATM    1  O1  UNL     1      10.865  16.236  57.081  1.00  0.00    -0.244 OA
HETATM    2  C1  UNL     1      11.543  17.251  56.857  1.00  0.00     0.353 C 
HETATM    3  N1  UNL     1      11.420  18.386  57.707  1.00  0.00    -0.251 N 
ATOM      4  H1  UNL     1      11.984  19.212  57.508  1.00  0.00     0.191 HD
HETATM    5  N3  UNL     1      12.466  17.331  55.750  1.00  0.00    -0.251 N 
ATOM      6  H3  UNL     1      13.016  18.174  55.579  1.00  0.00     0.191 HD
ENDROOT
BRANCH   3   7
HETATM    7  N2  UNL     1      10.559  18.407  58.799  1.00  0.00    -0.307 N 
HETATM    8  C2  UNL     1       9.495  19.140  58.804  1.00  0.00     0.120 C 
ATOM      9  H2  UNL     1      10.772  17.832  59.613  1.00  0.00     0.186 HD
BRANCH   8  10
HETATM   10  C3  UNL     1       8.636  19.108  59.995  1.00  0.00     0.005 A 
HETATM   11  C4  UNL     1       7.530  19.897  60.247  1.00  0.00     0.039 A 
HETATM   12  C5  UNL     1       7.045  19.521  61.472  1.00  0.00     0.142 A 
HETATM   13  O2  UNL     1       7.800  18.564  61.945  1.00  0.00    -0.334 OA
HETATM   14  C6  UNL     1       8.769  18.282  61.092  1.00  0.00     0.154 A 
ENDBRANCH   8  10
ENDBRANCH   3   7
BRANCH   5  15
HETATM   15  N4  UNL     1      12.577  16.242  54.941  1.00  0.00    -0.307 N 
HETATM   16  C7  UNL     1      12.009  16.024  53.871  1.00  0.00     0.126 C 
ATOM     17  H4  UNL     1      13.214  15.513  55.263  1.00  0.00     0.186 HD
BRANCH  16  18
HETATM   18  C8  UNL     1      11.059  16.882  53.181  1.00  0.00     0.021 A 
HETATM   19  C9  UNL     1      11.170  17.700  52.098  1.00  0.00     0.021 A 
HETATM   20  C10 UNL     1      10.069  18.382  51.695  1.00  0.00     0.008 A 
HETATM   21  C11 UNL     1       8.924  18.197  52.410  1.00  0.00     0.050 A 
HETATM   22  S1  UNL     1       9.384  17.097  53.611  1.00  0.00    -0.101 SA
ENDBRANCH  16  18
ENDBRANCH   5  15
TORSDOF 4
ENDMDL
MODEL 3
REMARK VINA RESULT: -7.008957139      1.849      2.395
REMARK  4 active torsions:
REMARK  status: ('A' for Active; 'I' for Inactive)
REMARK       I    between atoms: C1_2  and  N1_3 
REMARK       I    between atoms: C1_2  and  N3_13 
REMARK    1  A    between atoms: N1_3  and  N2_5 
REMARK    2  A    between atoms: C2_7  and  C3_8 
REMARK    3  A    between atoms: N3_13  and  N4_15 
REMARK    4  A    between atoms: C7_17  and  C8_18 
ROOT
HETATM    1  O1  UNL     1       9.976  18.545  55.240  1.00  0.00    -0.244 OA
HETATM    2  C1  UNL     1      11.156  18.242  55.475  1.00  0.00     0.353 C 
HETATM    3  N1  UNL     1      11.548  17.902  56.800  1.00  0.00    -0.251 N 
ATOM      4  H1  UNL     1      12.522  17.656  56.976  1.00  0.00     0.191 HD
HETATM    5  N3  UNL     1      12.165  18.219  54.443  1.00  0.00    -0.251 N 
ATOM      6  H3  UNL     1      13.131  17.967  54.653  1.00  0.00     0.191 HD
ENDROOT
BRANCH   3   7
HETATM    7  N2  UNL     1      10.651  17.894  57.863  1.00  0.00    -0.307 N 
HETATM    8  C2  UNL     1      10.454  18.946  58.587  1.00  0.00     0.120 C 
ATOM      9  H2  UNL     1      10.137  17.039  58.075  1.00  0.00     0.186 HD
BRANCH   8  10
HETATM   10  C3  UNL     1       9.490  18.858  59.691  1.00  0.00     0.005 A 
HETATM   11  C4  UNL     1       8.282  19.520  59.799  1.00  0.00     0.039 A 
HETATM   12  C5  UNL     1       7.723  19.136  60.990  1.00  0.00     0.142 A 
HETATM   13  O2  UNL     1       8.531  18.293  61.578  1.00  0.00    -0.334 OA
HETATM   14  C6  UNL     1       9.606  18.095  60.835  1.00  0.00     0.154 A 
ENDBRANCH   8  10
ENDBRANCH   3   7
BRANCH   5  15
HETATM   15  N4  UNL     1      11.782  18.545  53.179  1.00  0.00    -0.307 N 
HETATM   16  C7  UNL     1      12.292  18.201  52.112  1.00  0.00     0.126 C 
ATOM     17  H4  UNL     1      10.966  19.153  53.105  1.00  0.00     0.186 HD
BRANCH  16  18
HETATM   18  C8  UNL     1      13.452  17.345  51.921  1.00  0.00     0.021 A 
HETATM   19  C9  UNL     1      14.720  17.591  51.489  1.00  0.00     0.021 A 
HETATM   20  C10 UNL     1      15.587  16.549  51.421  1.00  0.00     0.008 A 
HETATM   21  C11 UNL     1      15.119  15.325  51.792  1.00  0.00     0.050 A 
HETATM   22  S1  UNL     1      13.512  15.630  52.224  1.00  0.00    -0.101 SA
ENDBRANCH  16  18
ENDBRANCH   5  15
TORSDOF 4
ENDMDL
MODEL 4
REMARK VINA RESULT: -6.954702871      2.693      3.308
REMARK  4 active torsions:
REMARK  status: ('A' for Active; 'I' for Inactive)
REMARK       I    between atoms: C1_2  and  N1_3 
REMARK       I    between atoms: C1_2  and  N3_13 
REMARK    1  A    between atoms: N1_3  and  N2_5 
REMARK    2  A    between atoms: C2_7  and  C3_8 
REMARK    3  A    between atoms: N3_13  and  N4_15 
REMARK    4  A    between atoms: C7_17  and  C8_18 
ROOT
HETATM    1  O1  UNL     1       7.733  19.014  55.644  1.00  0.00    -0.244 OA
HETATM    2  C1  UNL     1       8.675  19.819  55.584  1.00  0.00     0.353 C 
HETATM    3  N1  UNL     1       9.132  20.463  56.767  1.00  0.00    -0.251 N 
ATOM      4  H1  UNL     1       9.908  21.122  56.699  1.00  0.00     0.191 HD
HETATM    5  N3  UNL     1       9.339  20.135  54.340  1.00  0.00    -0.251 N 
ATOM      6  H3  UNL     1      10.112  20.799  54.308  1.00  0.00     0.191 HD
ENDROOT
BRANCH   3   7
HETATM    7  N2  UNL     1       8.560  20.225  58.012  1.00  0.00    -0.307 N 
HETATM    8  C2  UNL     1       9.067  19.368  58.835  1.00  0.00     0.120 C 
ATOM      9  H2  UNL     1       7.721  20.739  58.281  1.00  0.00     0.186 HD
BRANCH   8  10
HETATM   10  C3  UNL     1       8.405  19.173  60.130  1.00  0.00     0.005 A 
HETATM   11  C4  UNL     1       7.321  19.873  60.627  1.00  0.00     0.039 A 
HETATM   12  C5  UNL     1       7.046  19.353  61.864  1.00  0.00     0.142 A 
HETATM   13  O2  UNL     1       7.900  18.396  62.116  1.00  0.00    -0.334 OA
HETATM   14  C6  UNL     1       8.736  18.252  61.102  1.00  0.00     0.154 A 
ENDBRANCH   8  10
ENDBRANCH   3   7
BRANCH   5  15
HETATM   15  N4  UNL     1       8.895  19.515  53.213  1.00  0.00    -0.307 N 
HETATM   16  C7  UNL     1       9.276  18.450  52.726  1.00  0.00     0.126 C 
ATOM     17  H4  UNL     1       8.150  19.994  52.707  1.00  0.00     0.186 HD
BRANCH  16  18
HETATM   18  C8  UNL     1      10.313  17.565  53.232  1.00  0.00     0.021 A 
HETATM   19  C9  UNL     1      11.616  17.375  52.885  1.00  0.00     0.021 A 
HETATM   20  C10 UNL     1      12.333  16.449  53.569  1.00  0.00     0.008 A 
HETATM   21  C11 UNL     1      11.690  15.771  54.561  1.00  0.00     0.050 A 
HETATM   22  S1  UNL     1      10.126  16.418  54.531  1.00  0.00    -0.101 SA
ENDBRANCH  16  18
ENDBRANCH   5  15
TORSDOF 4
ENDMDL
MODEL 5
REMARK VINA RESULT: -6.915143879      1.632      1.964
REMARK  4 active torsions:
REMARK  status: ('A' for Active; 'I' for Inactive)
REMARK       I    between atoms: C1_2  and  N1_3 
REMARK       I    between atoms: C1_2  and  N3_13 
REMARK    1  A    between atoms: N1_3  and  N2_5 
REMARK    2  A    between atoms: C2_7  and  C3_8 
REMARK    3  A    between atoms: N3_13  and  N4_15 
REMARK    4  A    between atoms: C7_17  and  C8_18 
ROOT
HETATM    1  O1  UNL     1      10.034  16.064  55.424  1.00  0.00    -0.244 OA
HETATM    2  C1  UNL     1      11.217  16.426  55.522  1.00  0.00     0.353 C 
HETATM    3  N1  UNL     1      11.657  17.089  56.701  1.00  0.00    -0.251 N 
ATOM      4  H1  UNL     1      12.632  17.381  56.766  1.00  0.00     0.191 HD
HETATM    5  N3  UNL     1      12.182  16.199  54.472  1.00  0.00    -0.251 N 
ATOM      6  H3  UNL     1      13.150  16.503  54.569  1.00  0.00     0.191 HD
ENDROOT
BRANCH   3   7
HETATM    7  N2  UNL     1      10.805  17.353  57.768  1.00  0.00    -0.307 N 
HETATM    8  C2  UNL     1      10.453  18.560  58.067  1.00  0.00     0.120 C 
ATOM      9  H2  UNL     1      10.451  16.577  58.327  1.00  0.00     0.186 HD
BRANCH   8  10
HETATM   10  C3  UNL     1       9.551  18.757  59.208  1.00  0.00     0.005 A 
HETATM   11  C4  UNL     1       9.537  18.046  60.394  1.00  0.00     0.039 A 
HETATM   12  C5  UNL     1       8.532  18.574  61.162  1.00  0.00     0.142 A 
HETATM   13  O2  UNL     1       7.963  19.545  60.497  1.00  0.00    -0.334 OA
HETATM   14  C6  UNL     1       8.542  19.691  59.317  1.00  0.00     0.154 A 
ENDBRANCH   8  10
ENDBRANCH   3   7
BRANCH   5  15
HETATM   15  N4  UNL     1      11.752  15.564  53.347  1.00  0.00    -0.307 N 
HETATM   16  C7  UNL     1      12.327  15.456  52.264  1.00  0.00     0.126 C 
ATOM     17  H4  UNL     1      10.836  15.121  53.410  1.00  0.00     0.186 HD
BRANCH  16  18
HETATM   18  C8  UNL     1      13.632  15.984  51.897  1.00  0.00     0.021 A 
HETATM   19  C9  UNL     1      14.857  15.405  51.760  1.00  0.00     0.021 A 
HETATM   20  C10 UNL     1      15.900  16.192  51.396  1.00  0.00     0.008 A 
HETATM   21  C11 UNL     1      15.642  17.515  51.195  1.00  0.00     0.050 A 
HETATM   22  S1  UNL     1      13.984  17.645  51.506  1.00  0.00    -0.101 SA
ENDBRANCH  16  18
ENDBRANCH   5  15
TORSDOF 4
ENDMDL
