MODEL 1
REMARK VINA RESULT: -7.509381677      0.000      0.000
REMARK  6 active torsions:
REMARK  status: ('A' for Active; 'I' for Inactive)
REMARK    1  A    between atoms: C2_2  and  S1_7 
REMARK    2  A    between atoms: N1_3  and  O1_5 
REMARK    3  A    between atoms: S1_7  and  C3_8 
REMARK    4  A    between atoms: C3_8  and  C4_9 
REMARK    5  A    between atoms: N3_12  and  N4_14 
REMARK       I    between atoms: N4_14  and  C6_16 
REMARK    6  A    between atoms: C6_16  and  C7_18 
ROOT
HETATM    1  C4  UNL     1       8.817  19.942  57.402  1.00  0.00     0.115 C 
HETATM    2  C5  UNL     1       7.638  19.318  56.890  1.00  0.00     0.115 C 
HETATM    3  N2  UNL     1       6.689  18.811  56.456  1.00  0.00    -0.190 NA
HETATM    4  N3  UNL     1       8.931  20.205  58.650  1.00  0.00    -0.291 N 
ATOM      5  H3  UNL     1       9.795  20.649  58.959  1.00  0.00     0.187 HD
ENDROOT
BRANCH   1   6
HETATM    6  C3  UNL     1       9.924  20.288  56.488  1.00  0.00     0.151 C 
BRANCH   6   7
HETATM    7  S1  UNL     1      11.471  19.497  56.962  1.00  0.00    -0.108 SA
BRANCH   7   8
HETATM    8  C2  UNL     1      11.425  17.794  56.491  1.00  0.00     0.064 C 
HETATM    9  C1  UNL     1      12.041  17.365  55.227  1.00  0.00     0.078 C 
HETATM   10  N1  UNL     1      10.856  16.933  57.246  1.00  0.00    -0.267 N 
ATOM     11  H1  UNL     1      10.852  15.963  56.935  1.00  0.00     0.194 HD
BRANCH  10  12
HETATM   12  O1  UNL     1      10.253  17.217  58.438  1.00  0.00    -0.289 OA
ATOM     13  H1  UNL     1       9.881  16.571  59.026  1.00  0.00     0.244 HD
ENDBRANCH  10  12
ENDBRANCH   7   8
ENDBRANCH   6   7
ENDBRANCH   1   6
BRANCH   4  14
HETATM   14  N4  UNL     1       7.971  19.934  59.613  1.00  0.00    -0.263 N 
HETATM   15  C6  UNL     1       8.203  19.066  60.699  1.00  0.00     0.293 C 
HETATM   16  O2  UNL     1       9.321  18.517  60.797  1.00  0.00    -0.264 OA
ATOM     17  H4  UNL     1       7.058  20.381  59.533  1.00  0.00     0.190 HD
BRANCH  15  18
HETATM   18  C7  UNL     1       7.147  18.835  61.667  1.00  0.00     0.144 A 
HETATM   19  C8  UNL     1       6.646  19.763  62.568  1.00  0.00     0.045 A 
HETATM   20  C9  UNL     1       5.661  19.136  63.296  1.00  0.00     0.027 A 
HETATM   21  C10 UNL     1       5.597  17.854  62.815  1.00  0.00     0.143 A 
HETATM   22  O3  UNL     1       6.481  17.734  61.872  1.00  0.00    -0.317 OA
ENDBRANCH  15  18
ENDBRANCH   4  14
TORSDOF 6
ENDMDL
MODEL 2
REMARK VINA RESULT: -7.394884247      0.938      1.039
REMARK  6 active torsions:
REMARK  status: ('A' for Active; 'I' for Inactive)
REMARK    1  A    between atoms: C2_2  and  S1_7 
REMARK    2  A    between atoms: N1_3  and  O1_5 
REMARK    3  A    between atoms: S1_7  and  C3_8 
REMARK    4  A    between atoms: C3_8  and  C4_9 
REMARK    5  A    between atoms: N3_12  and  N4_14 
REMARK       I    between atoms: N4_14  and  C6_16 
REMARK    6  A    between atoms: C6_16  and  C7_18 
ROOT
HETATM    1  C4  UNL     1       8.405  19.773  56.853  1.00  0.00     0.115 C 
HETATM    2  C5  UNL     1       7.322  18.879  56.590  1.00  0.00     0.115 C 
HETATM    3  N2  UNL     1       6.448  18.151  56.358  1.00  0.00    -0.190 NA
HETATM    4  N3  UNL     1       8.583  20.261  58.023  1.00  0.00    -0.291 N 
ATOM      5  H3  UNL     1       9.373  20.892  58.153  1.00  0.00     0.187 HD
ENDROOT
BRANCH   1   6
HETATM    6  C3  UNL     1       9.336  20.141  55.768  1.00  0.00     0.151 C 
BRANCH   6   7
HETATM    7  S1  UNL     1      10.567  18.860  55.464  1.00  0.00    -0.108 SA
BRANCH   7   8
HETATM    8  C2  UNL     1      11.545  18.633  56.919  1.00  0.00     0.064 C 
HETATM    9  C1  UNL     1      12.741  19.461  57.135  1.00  0.00     0.078 C 
HETATM   10  N1  UNL     1      11.217  17.751  57.783  1.00  0.00    -0.267 N 
ATOM     11  H1  UNL     1      11.810  17.654  58.607  1.00  0.00     0.194 HD
BRANCH  10  12
HETATM   12  O1  UNL     1      10.132  16.928  57.687  1.00  0.00    -0.289 OA
ATOM     13  H1  UNL     1       9.304  17.065  58.131  1.00  0.00     0.244 HD
ENDBRANCH  10  12
ENDBRANCH   7   8
ENDBRANCH   6   7
ENDBRANCH   1   6
BRANCH   4  14
HETATM   14  N4  UNL     1       7.785  20.000  59.127  1.00  0.00    -0.263 N 
HETATM   15  C6  UNL     1       8.202  19.180  60.194  1.00  0.00     0.293 C 
HETATM   16  O2  UNL     1       9.340  18.665  60.142  1.00  0.00    -0.264 OA
ATOM     17  H4  UNL     1       6.856  20.419  59.168  1.00  0.00     0.190 HD
BRANCH  15  18
HETATM   18  C7  UNL     1       7.309  18.955  61.314  1.00  0.00     0.144 A 
HETATM   19  C8  UNL     1       6.744  19.934  62.118  1.00  0.00     0.045 A 
HETATM   20  C9  UNL     1       5.966  19.296  63.057  1.00  0.00     0.027 A 
HETATM   21  C10 UNL     1       6.085  17.956  62.792  1.00  0.00     0.143 A 
HETATM   22  O3  UNL     1       6.875  17.816  61.772  1.00  0.00    -0.317 OA
ENDBRANCH  15  18
ENDBRANCH   4  14
TORSDOF 6
ENDMDL
MODEL 3
REMARK VINA RESULT: -7.389886317      1.894      2.302
REMARK  6 active torsions:
REMARK  status: ('A' for Active; 'I' for Inactive)
REMARK    1  A    between atoms: C2_2  and  S1_7 
REMARK    2  A    between atoms: N1_3  and  O1_5 
REMARK    3  A    between atoms: S1_7  and  C3_8 
REMARK    4  A    between atoms: C3_8  and  C4_9 
REMARK    5  A    between atoms: N3_12  and  N4_14 
REMARK       I    between atoms: N4_14  and  C6_16 
REMARK    6  A    between atoms: C6_16  and  C7_18 
ROOT
HETATM    1  C4  UNL     1      10.832  19.132  56.685  1.00  0.00     0.115 C 
HETATM    2  C5  UNL     1       9.540  19.330  56.110  1.00  0.00     0.115 C 
HETATM    3  N2  UNL     1       8.497  19.487  55.625  1.00  0.00    -0.190 NA
HETATM    4  N3  UNL     1      11.002  19.196  57.953  1.00  0.00    -0.291 N 
ATOM      5  H3  UNL     1      11.946  19.045  58.308  1.00  0.00     0.187 HD
ENDROOT
BRANCH   1   6
HETATM    6  C3  UNL     1      11.990  18.849  55.815  1.00  0.00     0.151 C 
BRANCH   6   7
HETATM    7  S1  UNL     1      11.848  17.252  54.992  1.00  0.00    -0.108 SA
BRANCH   7   8
HETATM    8  C2  UNL     1      11.371  16.027  56.173  1.00  0.00     0.064 C 
HETATM    9  C1  UNL     1       9.974  15.570  56.232  1.00  0.00     0.078 C 
HETATM   10  N1  UNL     1      12.236  15.536  56.976  1.00  0.00    -0.267 N 
ATOM     11  H1  UNL     1      11.916  14.832  57.641  1.00  0.00     0.194 HD
BRANCH  10  12
HETATM   12  O1  UNL     1      13.555  15.884  57.011  1.00  0.00    -0.289 OA
ATOM     13  H1  UNL     1      13.921  16.575  57.550  1.00  0.00     0.244 HD
ENDBRANCH  10  12
ENDBRANCH   7   8
ENDBRANCH   6   7
ENDBRANCH   1   6
BRANCH   4  14
HETATM   14  N4  UNL     1      10.004  19.455  58.880  1.00  0.00    -0.263 N 
HETATM   15  C6  UNL     1       9.444  18.454  59.699  1.00  0.00     0.293 C 
HETATM   16  O2  UNL     1       9.865  17.283  59.583  1.00  0.00    -0.264 OA
ATOM     17  H4  UNL     1       9.661  20.410  58.974  1.00  0.00     0.190 HD
BRANCH  15  18
HETATM   18  C7  UNL     1       8.403  18.805  60.646  1.00  0.00     0.144 A 
HETATM   19  C8  UNL     1       7.471  19.821  60.496  1.00  0.00     0.045 A 
HETATM   20  C9  UNL     1       6.673  19.813  61.617  1.00  0.00     0.027 A 
HETATM   21  C10 UNL     1       7.146  18.797  62.407  1.00  0.00     0.143 A 
HETATM   22  O3  UNL     1       8.150  18.246  61.795  1.00  0.00    -0.317 OA
ENDBRANCH  15  18
ENDBRANCH   4  14
TORSDOF 6
ENDMDL
MODEL 4
REMARK VINA RESULT: -7.184816973      1.914      2.324
REMARK  6 active torsions:
REMARK  status: ('A' for Active; 'I' for Inactive)
REMARK    1  A    between atoms: C2_2  and  S1_7 
REMARK    2  A    between atoms: N1_3  and  O1_5 
REMARK    3  A    between atoms: S1_7  and  C3_8 
REMARK    4  A    between atoms: C3_8  and  C4_9 
REMARK    5  A    between atoms: N3_12  and  N4_14 
REMARK       I    between atoms: N4_14  and  C6_16 
REMARK    6  A    between atoms: C6_16  and  C7_18 
ROOT
HETATM    1  C4  UNL     1       9.727  17.509  57.946  1.00  0.00     0.115 C 
HETATM    2  C5  UNL     1       8.502  16.894  57.546  1.00  0.00     0.115 C 
HETATM    3  N2  UNL     1       7.514  16.390  57.203  1.00  0.00    -0.190 NA
HETATM    4  N3  UNL     1       9.887  17.933  59.144  1.00  0.00    -0.291 N 
ATOM      5  H3  UNL     1      10.783  18.363  59.374  1.00  0.00     0.187 HD
ENDROOT
BRANCH   1   6
HETATM    6  C3  UNL     1      10.828  17.661  56.975  1.00  0.00     0.151 C 
BRANCH   6   7
HETATM    7  S1  UNL     1      11.842  19.110  57.316  1.00  0.00    -0.108 SA
BRANCH   7   8
HETATM    8  C2  UNL     1      11.320  20.445  56.282  1.00  0.00     0.064 C 
HETATM    9  C1  UNL     1      12.122  20.820  55.108  1.00  0.00     0.078 C 
HETATM   10  N1  UNL     1      10.248  21.086  56.552  1.00  0.00    -0.267 N 
ATOM     11  H1  UNL     1       9.985  21.849  55.929  1.00  0.00     0.194 HD
BRANCH  10  12
HETATM   12  O1  UNL     1       9.429  20.826  57.612  1.00  0.00    -0.289 OA
ATOM     13  H1  UNL     1       8.588  21.241  57.765  1.00  0.00     0.244 HD
ENDBRANCH  10  12
ENDBRANCH   7   8
ENDBRANCH   6   7
ENDBRANCH   1   6
BRANCH   4  14
HETATM   14  N4  UNL     1       8.938  17.855  60.153  1.00  0.00    -0.263 N 
HETATM   15  C6  UNL     1       8.129  18.946  60.526  1.00  0.00     0.293 C 
HETATM   16  O2  UNL     1       8.273  20.031  59.924  1.00  0.00    -0.264 OA
ATOM     17  H4  UNL     1       8.821  16.969  60.644  1.00  0.00     0.190 HD
BRANCH  15  18
HETATM   18  C7  UNL     1       7.157  18.783  61.591  1.00  0.00     0.144 A 
HETATM   19  C8  UNL     1       6.732  19.771  62.467  1.00  0.00     0.045 A 
HETATM   20  C9  UNL     1       5.812  19.198  63.315  1.00  0.00     0.027 A 
HETATM   21  C10 UNL     1       5.710  17.887  62.927  1.00  0.00     0.143 A 
HETATM   22  O3  UNL     1       6.512  17.701  61.923  1.00  0.00    -0.317 OA
ENDBRANCH  15  18
ENDBRANCH   4  14
TORSDOF 6
ENDMDL
MODEL 5
REMARK VINA RESULT: -7.181417878      2.455      3.383
REMARK  6 active torsions:
REMARK  status: ('A' for Active; 'I' for Inactive)
REMARK    1  A    between atoms: C2_2  and  S1_7 
REMARK    2  A    between atoms: N1_3  and  O1_5 
REMARK    3  A    between atoms: S1_7  and  C3_8 
REMARK    4  A    between atoms: C3_8  and  C4_9 
REMARK    5  A    between atoms: N3_12  and  N4_14 
REMARK       I    between atoms: N4_14  and  C6_16 
REMARK    6  A    between atoms: C6_16  and  C7_18 
ROOT
HETATM    1  C4  UNL     1      10.020  17.925  55.694  1.00  0.00     0.115 C 
HETATM    2  C5  UNL     1      10.552  16.815  56.420  1.00  0.00     0.115 C 
HETATM    3  N2  UNL     1      10.996  15.910  56.994  1.00  0.00    -0.190 NA
HETATM    4  N3  UNL     1       9.152  18.702  56.227  1.00  0.00    -0.291 N 
ATOM      5  H3  UNL     1       8.809  19.479  55.662  1.00  0.00     0.187 HD
ENDROOT
BRANCH   1   6
HETATM    6  C3  UNL     1      10.471  18.187  54.313  1.00  0.00     0.151 C 
BRANCH   6   7
HETATM    7  S1  UNL     1      11.834  19.365  54.255  1.00  0.00    -0.108 SA
BRANCH   7   8
HETATM    8  C2  UNL     1      11.951  20.200  55.808  1.00  0.00     0.064 C 
HETATM    9  C1  UNL     1      12.680  19.578  56.923  1.00  0.00     0.078 C 
HETATM   10  N1  UNL     1      11.402  21.343  55.966  1.00  0.00    -0.267 N 
ATOM     11  H1  UNL     1      11.494  21.789  56.878  1.00  0.00     0.194 HD
BRANCH  10  12
HETATM   12  O1  UNL     1      10.701  22.013  55.005  1.00  0.00    -0.289 OA
ATOM     13  H1  UNL     1      10.181  22.793  55.155  1.00  0.00     0.244 HD
ENDBRANCH  10  12
ENDBRANCH   7   8
ENDBRANCH   6   7
ENDBRANCH   1   6
BRANCH   4  14
HETATM   14  N4  UNL     1       8.644  18.570  57.510  1.00  0.00    -0.263 N 
HETATM   15  C6  UNL     1       8.748  19.586  58.481  1.00  0.00     0.293 C 
HETATM   16  O2  UNL     1       9.324  20.650  58.172  1.00  0.00    -0.264 OA
ATOM     17  H4  UNL     1       8.174  17.700  57.762  1.00  0.00     0.190 HD
BRANCH  15  18
HETATM   18  C7  UNL     1       8.189  19.371  59.802  1.00  0.00     0.144 A 
HETATM   19  C8  UNL     1       8.585  18.400  60.709  1.00  0.00     0.045 A 
HETATM   20  C9  UNL     1       7.802  18.542  61.831  1.00  0.00     0.027 A 
HETATM   21  C10 UNL     1       6.960  19.592  61.569  1.00  0.00     0.143 A 
HETATM   22  O3  UNL     1       7.227  20.035  60.378  1.00  0.00    -0.317 OA
ENDBRANCH  15  18
ENDBRANCH   4  14
TORSDOF 6
ENDMDL
