MODEL 1
REMARK VINA RESULT: -8.137133220      0.000      0.000
REMARK  10 active torsions:
REMARK  status: ('A' for Active; 'I' for Inactive)
REMARK    1  A    between atoms: C8_8  and  C9_9 
REMARK    2  A    between atoms: C10_12  and  C11_13 
REMARK    3  A    between atoms: C11_13  and  C12_14 
REMARK    4  A    between atoms: C12_14  and  C13_15 
REMARK    5  A    between atoms: C13_15  and  N2_16 
REMARK    6  A    between atoms: C17_22  and  O2_23 
REMARK    7  A    between atoms: C23_31  and  C25_33 
REMARK    8  A    between atoms: C25_33  and  C26_34 
REMARK    9  A    between atoms: C26_34  and  C27_35 
REMARK   10  A    between atoms: C28_36  and  O3_37 
ROOT
HETATM    1  N2  UNL     1     -26.775   6.581 -34.335  1.00  0.00    -0.368 N 
ATOM      2  H2  UNL     1     -26.277   6.536 -35.223  1.00  0.00     0.161 HD
HETATM    3  C14 UNL     1     -26.171   6.924 -33.276  1.00  0.00     0.348 C 
HETATM    4  O1  UNL     1     -25.674   7.384 -32.226  1.00  0.00    -0.284 OA
ENDROOT
BRANCH   1   5
HETATM    5  C13 UNL     1     -28.185   6.253 -34.264  1.00  0.00     0.122 C 
BRANCH   5   6
HETATM    6  C12 UNL     1     -28.641   5.621 -35.543  1.00  0.00     0.026 C 
BRANCH   6   7
HETATM    7  C11 UNL     1     -27.895   4.373 -35.920  1.00  0.00     0.058 C 
BRANCH   7   8
HETATM    8  C10 UNL     1     -28.600   3.552 -36.946  1.00  0.00     0.009 A 
HETATM    9  N1  UNL     1     -28.902   2.249 -36.697  1.00  0.00    -0.357 N 
HETATM   10  C9  UNL     1     -29.541   1.443 -37.545  1.00  0.00     0.066 A 
ATOM     11  H1  UNL     1     -28.619   1.861 -35.797  1.00  0.00     0.166 HD
HETATM   12  C17 UNL     1     -29.904   2.035 -38.766  1.00  0.00     0.092 A 
HETATM   13  C16 UNL     1     -29.622   3.340 -39.060  1.00  0.00     0.041 A 
HETATM   14  C15 UNL     1     -28.950   4.138 -38.135  1.00  0.00     0.028 A 
BRANCH  10  15
HETATM   15  C8  UNL     1     -29.862   0.056 -37.273  1.00  0.00     0.036 C 
HETATM   16  C7  UNL     1     -30.816  -0.359 -36.484  1.00  0.00    -0.065 C 
HETATM   17  C5  UNL     1     -31.098  -1.816 -36.253  1.00  0.00     0.006 C 
HETATM   18  C18 UNL     1     -31.655   0.602 -35.738  1.00  0.00     0.036 C 
HETATM   19  C4  UNL     1     -30.400  -2.775 -37.088  1.00  0.00     0.019 C 
HETATM   20  C6  UNL     1     -32.585  -1.938 -36.679  1.00  0.00     0.025 C 
HETATM   21  C21 UNL     1     -31.085  -1.995 -34.804  1.00  0.00    -0.032 C 
HETATM   22  C3  UNL     1     -29.146  -3.383 -36.550  1.00  0.00     0.007 C 
HETATM   23  C2  UNL     1     -29.308  -4.184 -35.321  1.00  0.00    -0.004 C 
HETATM   24  C1  UNL     1     -30.524  -5.006 -35.187  1.00  0.00     0.011 C 
HETATM   25  C23 UNL     1     -29.085  -3.293 -34.102  1.00  0.00     0.014 C 
HETATM   26  C22 UNL     1     -30.342  -2.570 -33.879  1.00  0.00     0.106 C 
HETATM   27  C24 UNL     1     -27.914  -2.359 -34.336  1.00  0.00     0.023 C 
HETATM   28  F1  UNL     1     -30.842  -2.409 -32.627  1.00  0.00    -0.210 F 
HETATM   29  C20 UNL     1     -32.235  -1.279 -34.125  1.00  0.00     0.038 C 
HETATM   30  C19 UNL     1     -32.093   0.199 -34.377  1.00  0.00     0.009 C 
BRANCH  25  31
HETATM   31  C25 UNL     1     -28.669  -4.240 -33.003  1.00  0.00     0.021 C 
BRANCH  31  32
HETATM   32  C26 UNL     1     -27.224  -4.511 -32.846  1.00  0.00     0.045 C 
BRANCH  32  33
HETATM   33  C27 UNL     1     -27.018  -6.006 -33.005  1.00  0.00     0.011 A 
HETATM   34  C28 UNL     1     -27.184  -6.813 -31.986  1.00  0.00     0.185 A 
HETATM   35  O4  UNL     1     -26.994  -8.160 -32.149  1.00  0.00    -0.326 OA
HETATM   36  C29 UNL     1     -26.664  -8.784 -33.361  1.00  0.00     0.217 A 
HETATM   37  C30 UNL     1     -26.427  -7.861 -34.485  1.00  0.00    -0.023 A 
HETATM   38  C31 UNL     1     -26.009  -8.346 -35.727  1.00  0.00     0.013 A 
HETATM   39  C35 UNL     1     -26.625  -6.510 -34.307  1.00  0.00    -0.014 A 
HETATM   40  C32 UNL     1     -25.785  -7.503 -36.791  1.00  0.00     0.043 A 
HETATM   41  C33 UNL     1     -25.980  -6.151 -36.622  1.00  0.00     0.117 A 
HETATM   42  F2  UNL     1     -25.778  -5.258 -37.631  1.00  0.00    -0.206 F 
HETATM   43  C34 UNL     1     -26.393  -5.692 -35.389  1.00  0.00     0.055 A 
BRANCH  34  44
HETATM   44  O3  UNL     1     -27.551  -6.238 -30.765  1.00  0.00    -0.341 OA
ATOM     45  H3  UNL     1     -28.394  -6.486 -30.403  1.00  0.00     0.220 HD
ENDBRANCH  34  44
ENDBRANCH  32  33
ENDBRANCH  31  32
ENDBRANCH  25  31
ENDBRANCH  10  15
BRANCH  12  46
HETATM   46  O2  UNL     1     -30.566   1.269 -39.693  1.00  0.00    -0.358 OA
ATOM     47  H2  UNL     1     -31.374   1.605 -40.064  1.00  0.00     0.217 HD
ENDBRANCH  12  46
ENDBRANCH   7   8
ENDBRANCH   6   7
ENDBRANCH   5   6
ENDBRANCH   1   5
TORSDOF 10
ENDMDL
MODEL 2
REMARK VINA RESULT: -7.662266649      1.129      1.213
REMARK  10 active torsions:
REMARK  status: ('A' for Active; 'I' for Inactive)
REMARK    1  A    between atoms: C8_8  and  C9_9 
REMARK    2  A    between atoms: C10_12  and  C11_13 
REMARK    3  A    between atoms: C11_13  and  C12_14 
REMARK    4  A    between atoms: C12_14  and  C13_15 
REMARK    5  A    between atoms: C13_15  and  N2_16 
REMARK    6  A    between atoms: C17_22  and  O2_23 
REMARK    7  A    between atoms: C23_31  and  C25_33 
REMARK    8  A    between atoms: C25_33  and  C26_34 
REMARK    9  A    between atoms: C26_34  and  C27_35 
REMARK   10  A    between atoms: C28_36  and  O3_37 
ROOT
HETATM    1  N2  UNL     1     -28.750   5.936 -34.350  1.00  0.00    -0.368 N 
ATOM      2  H2  UNL     1     -28.389   5.435 -33.539  1.00  0.00     0.161 HD
HETATM    3  C14 UNL     1     -29.968   6.275 -34.406  1.00  0.00     0.348 C 
HETATM    4  O1  UNL     1     -31.119   6.758 -34.466  1.00  0.00    -0.284 OA
ENDROOT
BRANCH   1   5
HETATM    5  C13 UNL     1     -27.876   6.271 -35.457  1.00  0.00     0.122 C 
BRANCH   5   6
HETATM    6  C12 UNL     1     -28.256   5.492 -36.679  1.00  0.00     0.026 C 
BRANCH   6   7
HETATM    7  C11 UNL     1     -27.842   4.048 -36.649  1.00  0.00     0.058 C 
BRANCH   7   8
HETATM    8  C10 UNL     1     -28.664   3.180 -37.540  1.00  0.00     0.009 A 
HETATM    9  N1  UNL     1     -28.980   1.911 -37.166  1.00  0.00    -0.357 N 
HETATM   10  C9  UNL     1     -29.719   1.069 -37.887  1.00  0.00     0.066 A 
ATOM     11  H1  UNL     1     -28.625   1.581 -36.268  1.00  0.00     0.166 HD
HETATM   12  C17 UNL     1     -30.177   1.582 -39.112  1.00  0.00     0.092 A 
HETATM   13  C16 UNL     1     -29.886   2.850 -39.530  1.00  0.00     0.041 A 
HETATM   14  C15 UNL     1     -29.106   3.690 -38.733  1.00  0.00     0.028 A 
BRANCH  10  15
HETATM   15  C8  UNL     1     -30.054  -0.282 -37.481  1.00  0.00     0.036 C 
HETATM   16  C7  UNL     1     -30.967  -0.604 -36.605  1.00  0.00    -0.065 C 
HETATM   17  C5  UNL     1     -31.267  -2.029 -36.237  1.00  0.00     0.006 C 
HETATM   18  C18 UNL     1     -31.737   0.438 -35.894  1.00  0.00     0.036 C 
HETATM   19  C4  UNL     1     -30.644  -3.072 -37.028  1.00  0.00     0.019 C 
HETATM   20  C6  UNL     1     -32.780  -2.144 -36.562  1.00  0.00     0.025 C 
HETATM   21  C21 UNL     1     -31.169  -2.089 -34.781  1.00  0.00    -0.032 C 
HETATM   22  C3  UNL     1     -29.373  -3.668 -36.516  1.00  0.00     0.007 C 
HETATM   23  C2  UNL     1     -29.478  -4.361 -35.217  1.00  0.00    -0.004 C 
HETATM   24  C1  UNL     1     -30.702  -5.135 -34.943  1.00  0.00     0.011 C 
HETATM   25  C23 UNL     1     -29.160  -3.379 -34.092  1.00  0.00     0.014 C 
HETATM   26  C22 UNL     1     -30.384  -2.605 -33.857  1.00  0.00     0.106 C 
HETATM   27  C24 UNL     1     -27.985  -2.500 -34.473  1.00  0.00     0.023 C 
HETATM   28  F1  UNL     1     -30.803  -2.328 -32.595  1.00  0.00    -0.210 F 
HETATM   29  C20 UNL     1     -32.260  -1.287 -34.098  1.00  0.00     0.038 C 
HETATM   30  C19 UNL     1     -32.100   0.160 -34.480  1.00  0.00     0.009 C 
BRANCH  25  31
HETATM   31  C25 UNL     1     -28.700  -4.244 -32.944  1.00  0.00     0.021 C 
BRANCH  31  32
HETATM   32  C26 UNL     1     -27.250  -4.514 -32.832  1.00  0.00     0.045 C 
BRANCH  32  33
HETATM   33  C27 UNL     1     -27.050  -6.011 -32.977  1.00  0.00     0.011 A 
HETATM   34  C28 UNL     1     -27.225  -6.808 -31.951  1.00  0.00     0.185 A 
HETATM   35  O4  UNL     1     -27.041  -8.157 -32.101  1.00  0.00    -0.326 OA
HETATM   36  C29 UNL     1     -26.708  -8.794 -33.306  1.00  0.00     0.217 A 
HETATM   37  C30 UNL     1     -26.462  -7.882 -34.437  1.00  0.00    -0.023 A 
HETATM   38  C31 UNL     1     -26.040  -8.380 -35.673  1.00  0.00     0.013 A 
HETATM   39  C35 UNL     1     -26.655  -6.529 -34.272  1.00  0.00    -0.014 A 
HETATM   40  C32 UNL     1     -25.809  -7.548 -36.744  1.00  0.00     0.043 A 
HETATM   41  C33 UNL     1     -25.998  -6.194 -36.587  1.00  0.00     0.117 A 
HETATM   42  F2  UNL     1     -25.787  -5.311 -37.604  1.00  0.00    -0.206 F 
HETATM   43  C34 UNL     1     -26.413  -5.721 -35.361  1.00  0.00     0.055 A 
BRANCH  34  44
HETATM   44  O3  UNL     1     -27.595  -6.220 -30.738  1.00  0.00    -0.341 OA
ATOM     45  H3  UNL     1     -26.904  -5.833 -30.212  1.00  0.00     0.220 HD
ENDBRANCH  34  44
ENDBRANCH  32  33
ENDBRANCH  31  32
ENDBRANCH  25  31
ENDBRANCH  10  15
BRANCH  12  46
HETATM   46  O2  UNL     1     -30.946   0.775 -39.913  1.00  0.00    -0.358 OA
ATOM     47  H2  UNL     1     -30.570   0.452 -40.724  1.00  0.00     0.217 HD
ENDBRANCH  12  46
ENDBRANCH   7   8
ENDBRANCH   6   7
ENDBRANCH   5   6
ENDBRANCH   1   5
TORSDOF 10
ENDMDL
MODEL 3
REMARK VINA RESULT: -7.639796527      1.416      1.944
REMARK  10 active torsions:
REMARK  status: ('A' for Active; 'I' for Inactive)
REMARK    1  A    between atoms: C8_8  and  C9_9 
REMARK    2  A    between atoms: C10_12  and  C11_13 
REMARK    3  A    between atoms: C11_13  and  C12_14 
REMARK    4  A    between atoms: C12_14  and  C13_15 
REMARK    5  A    between atoms: C13_15  and  N2_16 
REMARK    6  A    between atoms: C17_22  and  O2_23 
REMARK    7  A    between atoms: C23_31  and  C25_33 
REMARK    8  A    between atoms: C25_33  and  C26_34 
REMARK    9  A    between atoms: C26_34  and  C27_35 
REMARK   10  A    between atoms: C28_36  and  O3_37 
ROOT
HETATM    1  N2  UNL     1     -26.321   6.620 -33.934  1.00  0.00    -0.368 N 
ATOM      2  H2  UNL     1     -25.664   6.574 -34.712  1.00  0.00     0.161 HD
HETATM    3  C14 UNL     1     -25.920   6.922 -32.772  1.00  0.00     0.348 C 
HETATM    4  O1  UNL     1     -25.618   7.344 -31.635  1.00  0.00    -0.284 OA
ENDROOT
BRANCH   1   5
HETATM    5  C13 UNL     1     -27.729   6.343 -34.141  1.00  0.00     0.122 C 
BRANCH   5   6
HETATM    6  C12 UNL     1     -27.980   5.939 -35.561  1.00  0.00     0.026 C 
BRANCH   6   7
HETATM    7  C11 UNL     1     -27.702   4.492 -35.855  1.00  0.00     0.058 C 
BRANCH   7   8
HETATM    8  C10 UNL     1     -28.643   3.902 -36.850  1.00  0.00     0.009 A 
HETATM    9  N1  UNL     1     -28.878   2.562 -36.864  1.00  0.00    -0.357 N 
HETATM   10  C9  UNL     1     -29.710   1.946 -37.703  1.00  0.00     0.066 A 
ATOM     11  H1  UNL     1     -28.381   1.987 -36.183  1.00  0.00     0.166 HD
HETATM   12  C17 UNL     1     -30.364   2.791 -38.616  1.00  0.00     0.092 A 
HETATM   13  C16 UNL     1     -30.160   4.142 -38.639  1.00  0.00     0.041 A 
HETATM   14  C15 UNL     1     -29.276   4.733 -37.736  1.00  0.00     0.028 A 
BRANCH  10  15
HETATM   15  C8  UNL     1     -29.958   0.518 -37.712  1.00  0.00     0.036 C 
HETATM   16  C7  UNL     1     -30.690  -0.128 -36.845  1.00  0.00    -0.065 C 
HETATM   17  C5  UNL     1     -30.910  -1.612 -36.919  1.00  0.00     0.006 C 
HETATM   18  C18 UNL     1     -31.319   0.577 -35.709  1.00  0.00     0.036 C 
HETATM   19  C4  UNL     1     -30.440  -2.302 -38.105  1.00  0.00     0.019 C 
HETATM   20  C6  UNL     1     -32.457  -1.715 -36.996  1.00  0.00     0.025 C 
HETATM   21  C21 UNL     1     -30.543  -2.131 -35.604  1.00  0.00    -0.032 C 
HETATM   22  C3  UNL     1     -29.094  -2.946 -38.047  1.00  0.00     0.007 C 
HETATM   23  C2  UNL     1     -28.952  -4.026 -37.050  1.00  0.00    -0.004 C 
HETATM   24  C1  UNL     1     -30.100  -4.925 -36.837  1.00  0.00     0.011 C 
HETATM   25  C23 UNL     1     -28.435  -3.440 -35.739  1.00  0.00     0.014 C 
HETATM   26  C22 UNL     1     -29.597  -2.865 -35.053  1.00  0.00     0.106 C 
HETATM   27  C24 UNL     1     -27.355  -2.411 -36.009  1.00  0.00     0.023 C 
HETATM   28  F1  UNL     1     -29.775  -3.037 -33.718  1.00  0.00    -0.210 F 
HETATM   29  C20 UNL     1     -31.491  -1.665 -34.517  1.00  0.00     0.038 C 
HETATM   30  C19 UNL     1     -31.411  -0.164 -34.425  1.00  0.00     0.009 C 
BRANCH  25  31
HETATM   31  C25 UNL     1     -27.765  -4.596 -35.038  1.00  0.00     0.021 C 
BRANCH  31  32
HETATM   32  C26 UNL     1     -26.366  -4.901 -35.408  1.00  0.00     0.045 C 
BRANCH  32  33
HETATM   33  C27 UNL     1     -26.315  -6.352 -35.851  1.00  0.00     0.011 A 
HETATM   34  C28 UNL     1     -26.236  -7.315 -34.966  1.00  0.00     0.185 A 
HETATM   35  O4  UNL     1     -26.192  -8.619 -35.383  1.00  0.00    -0.326 OA
HETATM   36  C29 UNL     1     -26.266  -9.038 -36.720  1.00  0.00     0.217 A 
HETATM   37  C30 UNL     1     -26.299  -7.944 -37.707  1.00  0.00    -0.023 A 
HETATM   38  C31 UNL     1     -26.287  -8.221 -39.077  1.00  0.00     0.013 A 
HETATM   39  C35 UNL     1     -26.347  -6.638 -37.272  1.00  0.00    -0.014 A 
HETATM   40  C32 UNL     1     -26.322  -7.216 -40.016  1.00  0.00     0.043 A 
HETATM   41  C33 UNL     1     -26.369  -5.908 -39.589  1.00  0.00     0.117 A 
HETATM   42  F2  UNL     1     -26.405  -4.863 -40.463  1.00  0.00    -0.206 F 
HETATM   43  C34 UNL     1     -26.379  -5.655 -38.234  1.00  0.00     0.055 A 
BRANCH  34  44
HETATM   44  O3  UNL     1     -26.199  -6.946 -33.617  1.00  0.00    -0.341 OA
ATOM     45  H3  UNL     1     -26.212  -7.645 -32.974  1.00  0.00     0.220 HD
ENDBRANCH  34  44
ENDBRANCH  32  33
ENDBRANCH  31  32
ENDBRANCH  25  31
ENDBRANCH  10  15
BRANCH  12  46
HETATM   46  O2  UNL     1     -31.238   2.232 -39.514  1.00  0.00    -0.358 OA
ATOM     47  H2  UNL     1     -31.747   2.810 -40.070  1.00  0.00     0.217 HD
ENDBRANCH  12  46
ENDBRANCH   7   8
ENDBRANCH   6   7
ENDBRANCH   5   6
ENDBRANCH   1   5
TORSDOF 10
ENDMDL
MODEL 4
REMARK VINA RESULT: -7.615291310      7.599     12.141
REMARK  10 active torsions:
REMARK  status: ('A' for Active; 'I' for Inactive)
REMARK    1  A    between atoms: C8_8  and  C9_9 
REMARK    2  A    between atoms: C10_12  and  C11_13 
REMARK    3  A    between atoms: C11_13  and  C12_14 
REMARK    4  A    between atoms: C12_14  and  C13_15 
REMARK    5  A    between atoms: C13_15  and  N2_16 
REMARK    6  A    between atoms: C17_22  and  O2_23 
REMARK    7  A    between atoms: C23_31  and  C25_33 
REMARK    8  A    between atoms: C25_33  and  C26_34 
REMARK    9  A    between atoms: C26_34  and  C27_35 
REMARK   10  A    between atoms: C28_36  and  O3_37 
ROOT
HETATM    1  N2  UNL     1     -24.513   6.645 -33.284  1.00  0.00    -0.368 N 
ATOM      2  H2  UNL     1     -24.456   6.438 -34.281  1.00  0.00     0.161 HD
HETATM    3  C14 UNL     1     -23.467   6.670 -32.572  1.00  0.00     0.348 C 
HETATM    4  O1  UNL     1     -22.467   6.845 -31.843  1.00  0.00    -0.284 OA
ENDROOT
BRANCH   1   5
HETATM    5  C13 UNL     1     -25.794   6.915 -32.660  1.00  0.00     0.122 C 
BRANCH   5   6
HETATM    6  C12 UNL     1     -26.870   7.017 -33.696  1.00  0.00     0.026 C 
BRANCH   6   7
HETATM    7  C11 UNL     1     -27.548   5.716 -34.020  1.00  0.00     0.058 C 
BRANCH   7   8
HETATM    8  C10 UNL     1     -28.970   5.879 -34.437  1.00  0.00     0.009 A 
HETATM    9  N1  UNL     1     -29.422   5.301 -35.583  1.00  0.00    -0.357 N 
HETATM   10  C9  UNL     1     -30.675   5.380 -36.029  1.00  0.00     0.066 A 
ATOM     11  H1  UNL     1     -28.753   4.770 -36.141  1.00  0.00     0.166 HD
HETATM   12  C17 UNL     1     -31.548   6.125 -35.218  1.00  0.00     0.092 A 
HETATM   13  C16 UNL     1     -31.139   6.723 -34.059  1.00  0.00     0.041 A 
HETATM   14  C15 UNL     1     -29.813   6.608 -33.640  1.00  0.00     0.028 A 
BRANCH  10  15
HETATM   15  C8  UNL     1     -31.152   4.760 -37.250  1.00  0.00     0.036 C 
HETATM   16  C7  UNL     1     -30.516   3.847 -37.932  1.00  0.00    -0.065 C 
HETATM   17  C5  UNL     1     -31.074   3.242 -39.189  1.00  0.00     0.006 C 
HETATM   18  C18 UNL     1     -29.177   3.382 -37.514  1.00  0.00     0.036 C 
HETATM   19  C4  UNL     1     -32.445   3.559 -39.535  1.00  0.00     0.019 C 
HETATM   20  C6  UNL     1     -31.098   1.728 -38.846  1.00  0.00     0.025 C 
HETATM   21  C21 UNL     1     -30.032   3.403 -40.200  1.00  0.00    -0.032 C 
HETATM   22  C3  UNL     1     -32.680   4.681 -40.493  1.00  0.00     0.007 C 
HETATM   23  C2  UNL     1     -32.114   4.488 -41.843  1.00  0.00    -0.004 C 
HETATM   24  C1  UNL     1     -32.156   3.134 -42.423  1.00  0.00     0.011 C 
HETATM   25  C23 UNL     1     -30.712   5.088 -41.894  1.00  0.00     0.014 C 
HETATM   26  C22 UNL     1     -29.811   4.094 -41.300  1.00  0.00     0.106 C 
HETATM   27  C24 UNL     1     -30.675   6.414 -41.160  1.00  0.00     0.023 C 
HETATM   28  F1  UNL     1     -28.605   3.822 -41.860  1.00  0.00    -0.210 F 
HETATM   29  C20 UNL     1     -28.802   2.569 -39.896  1.00  0.00     0.038 C 
HETATM   30  C19 UNL     1     -28.214   3.043 -38.593  1.00  0.00     0.009 C 
BRANCH  25  31
HETATM   31  C25 UNL     1     -30.478   5.395 -43.353  1.00  0.00     0.021 C 
BRANCH  31  32
HETATM   32  C26 UNL     1     -31.351   6.407 -43.987  1.00  0.00     0.045 C 
BRANCH  32  33
HETATM   33  C27 UNL     1     -31.041   6.414 -45.472  1.00  0.00     0.011 A 
HETATM   34  C28 UNL     1     -31.580   5.523 -46.268  1.00  0.00     0.185 A 
HETATM   35  O4  UNL     1     -31.290   5.544 -47.607  1.00  0.00    -0.326 OA
HETATM   36  C29 UNL     1     -30.469   6.491 -48.236  1.00  0.00     0.217 A 
HETATM   37  C30 UNL     1     -29.826   7.453 -47.323  1.00  0.00    -0.023 A 
HETATM   38  C31 UNL     1     -28.917   8.396 -47.808  1.00  0.00     0.013 A 
HETATM   39  C35 UNL     1     -30.131   7.421 -45.980  1.00  0.00    -0.014 A 
HETATM   40  C32 UNL     1     -28.309   9.307 -46.975  1.00  0.00     0.043 A 
HETATM   41  C33 UNL     1     -28.607   9.281 -45.631  1.00  0.00     0.117 A 
HETATM   42  F2  UNL     1     -28.042  10.152 -44.748  1.00  0.00    -0.206 F 
HETATM   43  C34 UNL     1     -29.506   8.343 -45.171  1.00  0.00     0.055 A 
BRANCH  34  44
HETATM   44  O3  UNL     1     -32.438   4.581 -45.689  1.00  0.00    -0.341 OA
ATOM     45  H3  UNL     1     -32.156   4.176 -44.878  1.00  0.00     0.220 HD
ENDBRANCH  34  44
ENDBRANCH  32  33
ENDBRANCH  31  32
ENDBRANCH  25  31
ENDBRANCH  10  15
BRANCH  12  46
HETATM   46  O2  UNL     1     -32.857   6.252 -35.610  1.00  0.00    -0.358 OA
ATOM     47  H2  UNL     1     -33.174   7.113 -35.858  1.00  0.00     0.217 HD
ENDBRANCH  12  46
ENDBRANCH   7   8
ENDBRANCH   6   7
ENDBRANCH   5   6
ENDBRANCH   1   5
TORSDOF 10
ENDMDL
MODEL 5
REMARK VINA RESULT: -7.452210241      7.829     12.246
REMARK  10 active torsions:
REMARK  status: ('A' for Active; 'I' for Inactive)
REMARK    1  A    between atoms: C8_8  and  C9_9 
REMARK    2  A    between atoms: C10_12  and  C11_13 
REMARK    3  A    between atoms: C11_13  and  C12_14 
REMARK    4  A    between atoms: C12_14  and  C13_15 
REMARK    5  A    between atoms: C13_15  and  N2_16 
REMARK    6  A    between atoms: C17_22  and  O2_23 
REMARK    7  A    between atoms: C23_31  and  C25_33 
REMARK    8  A    between atoms: C25_33  and  C26_34 
REMARK    9  A    between atoms: C26_34  and  C27_35 
REMARK   10  A    between atoms: C28_36  and  O3_37 
ROOT
HETATM    1  N2  UNL     1     -24.551   6.529 -33.292  1.00  0.00    -0.368 N 
ATOM      2  H2  UNL     1     -24.492   6.175 -34.247  1.00  0.00     0.161 HD
HETATM    3  C14 UNL     1     -23.509   6.636 -32.582  1.00  0.00     0.348 C 
HETATM    4  O1  UNL     1     -22.511   6.896 -31.876  1.00  0.00    -0.284 OA
ENDROOT
BRANCH   1   5
HETATM    5  C13 UNL     1     -25.829   6.916 -32.728  1.00  0.00     0.122 C 
BRANCH   5   6
HETATM    6  C12 UNL     1     -26.873   6.994 -33.800  1.00  0.00     0.026 C 
BRANCH   6   7
HETATM    7  C11 UNL     1     -27.571   5.694 -34.084  1.00  0.00     0.058 C 
BRANCH   7   8
HETATM    8  C10 UNL     1     -29.009   5.862 -34.436  1.00  0.00     0.009 A 
HETATM    9  N1  UNL     1     -29.491   5.378 -35.613  1.00  0.00    -0.357 N 
HETATM   10  C9  UNL     1     -30.761   5.467 -36.007  1.00  0.00     0.066 A 
ATOM     11  H1  UNL     1     -28.833   4.913 -36.238  1.00  0.00     0.166 HD
HETATM   12  C17 UNL     1     -31.618   6.117 -35.103  1.00  0.00     0.092 A 
HETATM   13  C16 UNL     1     -31.179   6.619 -33.910  1.00  0.00     0.041 A 
HETATM   14  C15 UNL     1     -29.837   6.497 -33.548  1.00  0.00     0.028 A 
BRANCH  10  15
HETATM   15  C8  UNL     1     -31.270   4.947 -37.261  1.00  0.00     0.036 C 
HETATM   16  C7  UNL     1     -30.680   4.048 -38.001  1.00  0.00    -0.065 C 
HETATM   17  C5  UNL     1     -31.269   3.549 -39.290  1.00  0.00     0.006 C 
HETATM   18  C18 UNL     1     -29.364   3.494 -37.619  1.00  0.00     0.036 C 
HETATM   19  C4  UNL     1     -32.624   3.954 -39.609  1.00  0.00     0.019 C 
HETATM   20  C6  UNL     1     -31.367   2.021 -39.041  1.00  0.00     0.025 C 
HETATM   21  C21 UNL     1     -30.223   3.721 -40.294  1.00  0.00    -0.032 C 
HETATM   22  C3  UNL     1     -32.805   5.143 -40.496  1.00  0.00     0.007 C 
HETATM   23  C2  UNL     1     -32.252   5.006 -41.857  1.00  0.00    -0.004 C 
HETATM   24  C1  UNL     1     -32.361   3.693 -42.519  1.00  0.00     0.011 C 
HETATM   25  C23 UNL     1     -30.823   5.539 -41.879  1.00  0.00     0.014 C 
HETATM   26  C22 UNL     1     -29.971   4.468 -41.351  1.00  0.00     0.106 C 
HETATM   27  C24 UNL     1     -30.721   6.814 -41.065  1.00  0.00     0.023 C 
HETATM   28  F1  UNL     1     -28.780   4.172 -41.932  1.00  0.00    -0.210 F 
HETATM   29  C20 UNL     1     -29.035   2.812 -40.048  1.00  0.00     0.038 C 
HETATM   30  C19 UNL     1     -28.422   3.176 -38.722  1.00  0.00     0.009 C 
BRANCH  25  31
HETATM   31  C25 UNL     1     -30.577   5.924 -43.317  1.00  0.00     0.021 C 
BRANCH  31  32
HETATM   32  C26 UNL     1     -31.475   6.934 -43.917  1.00  0.00     0.045 C 
BRANCH  32  33
HETATM   33  C27 UNL     1     -30.617   8.104 -44.361  1.00  0.00     0.011 A 
HETATM   34  C28 UNL     1     -30.686   9.254 -43.737  1.00  0.00     0.185 A 
HETATM   35  O4  UNL     1     -29.904  10.299 -44.151  1.00  0.00    -0.326 OA
HETATM   36  C29 UNL     1     -28.971  10.239 -45.197  1.00  0.00     0.217 A 
HETATM   37  C30 UNL     1     -28.943   8.958 -45.925  1.00  0.00    -0.023 A 
HETATM   38  C31 UNL     1     -28.121   8.793 -47.043  1.00  0.00     0.013 A 
HETATM   39  C35 UNL     1     -29.733   7.916 -45.495  1.00  0.00    -0.014 A 
HETATM   40  C32 UNL     1     -28.075   7.605 -47.735  1.00  0.00     0.043 A 
HETATM   41  C33 UNL     1     -28.862   6.558 -47.312  1.00  0.00     0.117 A 
HETATM   42  F2  UNL     1     -28.868   5.354 -47.949  1.00  0.00    -0.206 F 
HETATM   43  C34 UNL     1     -29.667   6.740 -46.208  1.00  0.00     0.055 A 
BRANCH  34  44
HETATM   44  O3  UNL     1     -31.576   9.348 -42.662  1.00  0.00    -0.341 OA
ATOM     45  H3  UNL     1     -32.186  10.075 -42.664  1.00  0.00     0.220 HD
ENDBRANCH  34  44
ENDBRANCH  32  33
ENDBRANCH  31  32
ENDBRANCH  25  31
ENDBRANCH  10  15
BRANCH  12  46
HETATM   46  O2  UNL     1     -32.943   6.250 -35.436  1.00  0.00    -0.358 OA
ATOM     47  H2  UNL     1     -33.254   7.100 -35.725  1.00  0.00     0.217 HD
ENDBRANCH  12  46
ENDBRANCH   7   8
ENDBRANCH   6   7
ENDBRANCH   5   6
ENDBRANCH   1   5
TORSDOF 10
ENDMDL
