MODEL 1
REMARK VINA RESULT: -8.806448934      0.000      0.000
REMARK  12 active torsions:
REMARK  status: ('A' for Active; 'I' for Inactive)
REMARK    1  A    between atoms: C2_2  and  C3_4 
REMARK    2  A    between atoms: C2_2  and  C16_24 
REMARK    3  A    between atoms: C3_4  and  C4_5 
REMARK    4  A    between atoms: C4_5  and  C5_6 
REMARK    5  A    between atoms: C5_6  and  O2_8 
REMARK    6  A    between atoms: O2_8  and  C6_9 
REMARK    7  A    between atoms: C6_9  and  C7_10 
REMARK    8  A    between atoms: C7_10  and  O3_11 
REMARK    9  A    between atoms: O3_11  and  C8_12 
REMARK   10  A    between atoms: C8_12  and  C9_14 
REMARK   11  A    between atoms: C9_14  and  C10_15 
REMARK   12  A    between atoms: C13_18  and  O5_19 
ROOT
HETATM    1  C1  UNL     1     -30.992  -2.733 -35.861  1.00  0.00     0.033 C 
HETATM    2  C2  UNL     1     -29.686  -2.049 -35.529  1.00  0.00     0.038 C 
HETATM    3 CL1  UNL     1     -28.707  -2.382 -37.039  1.00  0.00    -0.119 Cl
ENDROOT
BRANCH   2   4
HETATM    4  C3  UNL     1     -29.923  -0.584 -35.575  1.00  0.00     0.035 C 
BRANCH   4   5
HETATM    5  C4  UNL     1     -29.483   0.178 -36.766  1.00  0.00     0.113 C 
BRANCH   5   6
HETATM    6  C5  UNL     1     -30.272   1.437 -37.013  1.00  0.00     0.258 C 
HETATM    7  O1  UNL     1     -31.191   1.838 -36.284  1.00  0.00    -0.265 OA
BRANCH   6   8
HETATM    8  O2  UNL     1     -29.915   2.159 -38.129  1.00  0.00    -0.319 OA
BRANCH   8   9
HETATM    9  C6  UNL     1     -29.400   3.456 -38.106  1.00  0.00     0.205 C 
BRANCH   9  10
HETATM   10  C7  UNL     1     -27.942   3.422 -37.730  1.00  0.00     0.205 C 
BRANCH  10  11
HETATM   11  O3  UNL     1     -27.688   3.980 -36.478  1.00  0.00    -0.319 OA
BRANCH  11  12
HETATM   12  C8  UNL     1     -28.047   5.259 -36.098  1.00  0.00     0.263 C 
HETATM   13  O4  UNL     1     -27.602   6.259 -36.708  1.00  0.00    -0.265 OA
BRANCH  12  14
HETATM   14  C9  UNL     1     -28.971   5.492 -34.954  1.00  0.00     0.149 C 
BRANCH  14  15
HETATM   15  C10 UNL     1     -28.200   6.088 -33.842  1.00  0.00    -0.047 A 
HETATM   16  C11 UNL     1     -28.864   6.522 -32.717  1.00  0.00     0.010 A 
HETATM   17  C12 UNL     1     -28.204   7.087 -31.646  1.00  0.00     0.039 A 
HETATM   18  C13 UNL     1     -26.828   7.231 -31.682  1.00  0.00     0.087 A 
HETATM   19  C14 UNL     1     -26.161   6.796 -32.811  1.00  0.00     0.067 A 
HETATM   20 CL2  UNL     1     -24.418   6.984 -32.842  1.00  0.00    -0.081 Cl
HETATM   21  C15 UNL     1     -26.836   6.228 -33.883  1.00  0.00     0.034 A 
BRANCH  18  22
HETATM   22  O5  UNL     1     -26.163   7.793 -30.620  1.00  0.00    -0.359 OA
ATOM     23  H5  UNL     1     -25.816   7.242 -29.928  1.00  0.00     0.217 HD
ENDBRANCH  18  22
ENDBRANCH  14  15
ENDBRANCH  12  14
ENDBRANCH  11  12
ENDBRANCH  10  11
ENDBRANCH   9  10
ENDBRANCH   8   9
ENDBRANCH   6   8
ENDBRANCH   5   6
ENDBRANCH   4   5
ENDBRANCH   2   4
BRANCH   2  24
HETATM   24  C16 UNL     1     -28.920  -2.581 -34.436  1.00  0.00     0.017 C 
HETATM   25  C17 UNL     1     -27.428  -2.710 -34.866  1.00  0.00     0.007 C 
HETATM   26  C18 UNL     1     -26.801  -3.199 -33.610  1.00  0.00     0.006 C 
HETATM   27  C19 UNL     1     -27.910  -3.972 -32.926  1.00  0.00    -0.002 C 
HETATM   28  C20 UNL     1     -27.415  -5.285 -32.507  1.00  0.00    -0.005 C 
HETATM   29  C32 UNL     1     -29.106  -3.959 -33.887  1.00  0.00    -0.035 C 
HETATM   30  C21 UNL     1     -28.023  -5.884 -31.274  1.00  0.00     0.006 C 
HETATM   31  C29 UNL     1     -27.315  -6.311 -33.611  1.00  0.00    -0.002 C 
HETATM   32  C22 UNL     1     -27.038  -6.931 -30.788  1.00  0.00     0.006 C 
HETATM   33  C23 UNL     1     -26.976  -8.045 -31.797  1.00  0.00    -0.006 C 
HETATM   34  C24 UNL     1     -28.207  -8.908 -31.821  1.00  0.00     0.005 C 
HETATM   35  C27 UNL     1     -26.726  -7.590 -33.198  1.00  0.00    -0.036 C 
HETATM   36  C25 UNL     1     -28.307  -9.399 -33.270  1.00  0.00     0.001 C 
HETATM   37  C26 UNL     1     -27.143  -8.789 -34.001  1.00  0.00     0.010 C 
HETATM   38  C28 UNL     1     -25.202  -7.475 -33.356  1.00  0.00     0.016 C 
HETATM   39  C30 UNL     1     -28.670  -6.410 -34.226  1.00  0.00     0.006 C 
HETATM   40  C31 UNL     1     -29.112  -5.086 -34.838  1.00  0.00     0.010 C 
HETATM   41  C33 UNL     1     -30.328  -4.048 -32.982  1.00  0.00     0.016 C 
ENDBRANCH   2  24
TORSDOF 12
ENDMDL
MODEL 2
REMARK VINA RESULT: -8.462451392      1.241      1.448
REMARK  12 active torsions:
REMARK  status: ('A' for Active; 'I' for Inactive)
REMARK    1  A    between atoms: C2_2  and  C3_4 
REMARK    2  A    between atoms: C2_2  and  C16_24 
REMARK    3  A    between atoms: C3_4  and  C4_5 
REMARK    4  A    between atoms: C4_5  and  C5_6 
REMARK    5  A    between atoms: C5_6  and  O2_8 
REMARK    6  A    between atoms: O2_8  and  C6_9 
REMARK    7  A    between atoms: C6_9  and  C7_10 
REMARK    8  A    between atoms: C7_10  and  O3_11 
REMARK    9  A    between atoms: O3_11  and  C8_12 
REMARK   10  A    between atoms: C8_12  and  C9_14 
REMARK   11  A    between atoms: C9_14  and  C10_15 
REMARK   12  A    between atoms: C13_18  and  O5_19 
ROOT
HETATM    1  C1  UNL     1     -30.749  -2.490 -36.062  1.00  0.00     0.033 C 
HETATM    2  C2  UNL     1     -29.282  -2.142 -35.950  1.00  0.00     0.038 C 
HETATM    3 CL1  UNL     1     -28.578  -3.071 -37.360  1.00  0.00    -0.119 Cl
ENDROOT
BRANCH   2   4
HETATM    4  C3  UNL     1     -29.128  -0.720 -36.347  1.00  0.00     0.035 C 
BRANCH   4   5
HETATM    5  C4  UNL     1     -30.182   0.249 -35.968  1.00  0.00     0.113 C 
BRANCH   5   6
HETATM    6  C5  UNL     1     -30.635   1.134 -37.100  1.00  0.00     0.258 C 
HETATM    7  O1  UNL     1     -31.759   1.649 -37.176  1.00  0.00    -0.265 OA
BRANCH   6   8
HETATM    8  O2  UNL     1     -29.707   1.358 -38.093  1.00  0.00    -0.319 OA
BRANCH   8   9
HETATM    9  C6  UNL     1     -29.408   2.610 -38.633  1.00  0.00     0.205 C 
BRANCH   9  10
HETATM   10  C7  UNL     1     -28.281   3.244 -37.862  1.00  0.00     0.205 C 
BRANCH  10  11
HETATM   11  O3  UNL     1     -28.723   4.070 -36.829  1.00  0.00    -0.319 OA
BRANCH  11  12
HETATM   12  C8  UNL     1     -27.897   4.726 -35.936  1.00  0.00     0.263 C 
HETATM   13  O4  UNL     1     -27.110   4.087 -35.200  1.00  0.00    -0.265 OA
BRANCH  12  14
HETATM   14  C9  UNL     1     -27.914   6.210 -35.819  1.00  0.00     0.149 C 
BRANCH  14  15
HETATM   15  C10 UNL     1     -27.897   6.567 -34.385  1.00  0.00    -0.047 A 
HETATM   16  C11 UNL     1     -26.712   6.957 -33.801  1.00  0.00     0.010 A 
HETATM   17  C12 UNL     1     -26.628   7.303 -32.469  1.00  0.00     0.039 A 
HETATM   18  C13 UNL     1     -27.760   7.264 -31.674  1.00  0.00     0.087 A 
HETATM   19  C14 UNL     1     -28.949   6.873 -32.259  1.00  0.00     0.067 A 
HETATM   20 CL2  UNL     1     -30.375   6.829 -31.240  1.00  0.00    -0.081 Cl
HETATM   21  C15 UNL     1     -29.022   6.528 -33.602  1.00  0.00     0.034 A 
BRANCH  18  22
HETATM   22  O5  UNL     1     -27.685   7.606 -30.346  1.00  0.00    -0.359 OA
ATOM     23  H5  UNL     1     -28.321   8.202 -29.969  1.00  0.00     0.217 HD
ENDBRANCH  18  22
ENDBRANCH  14  15
ENDBRANCH  12  14
ENDBRANCH  11  12
ENDBRANCH  10  11
ENDBRANCH   9  10
ENDBRANCH   8   9
ENDBRANCH   6   8
ENDBRANCH   5   6
ENDBRANCH   4   5
ENDBRANCH   2   4
BRANCH   2  24
HETATM   24  C16 UNL     1     -28.582  -2.603 -34.783  1.00  0.00     0.017 C 
HETATM   25  C17 UNL     1     -27.085  -2.845 -35.142  1.00  0.00     0.007 C 
HETATM   26  C18 UNL     1     -26.526  -3.241 -33.822  1.00  0.00     0.006 C 
HETATM   27  C19 UNL     1     -27.695  -3.888 -33.110  1.00  0.00    -0.002 C 
HETATM   28  C20 UNL     1     -27.283  -5.177 -32.550  1.00  0.00    -0.005 C 
HETATM   29  C32 UNL     1     -28.857  -3.910 -34.113  1.00  0.00    -0.035 C 
HETATM   30  C21 UNL     1     -27.962  -5.624 -31.290  1.00  0.00     0.006 C 
HETATM   31  C29 UNL     1     -27.201  -6.309 -33.547  1.00  0.00    -0.002 C 
HETATM   32  C22 UNL     1     -27.049  -6.665 -30.670  1.00  0.00     0.006 C 
HETATM   33  C23 UNL     1     -27.012  -7.874 -31.565  1.00  0.00    -0.006 C 
HETATM   34  C24 UNL     1     -28.285  -8.674 -31.553  1.00  0.00     0.005 C 
HETATM   35  C27 UNL     1     -26.693  -7.569 -32.993  1.00  0.00    -0.036 C 
HETATM   36  C25 UNL     1     -28.363  -9.298 -32.952  1.00  0.00     0.001 C 
HETATM   37  C26 UNL     1     -27.146  -8.819 -33.693  1.00  0.00     0.010 C 
HETATM   38  C28 UNL     1     -25.161  -7.544 -33.104  1.00  0.00     0.016 C 
HETATM   39  C30 UNL     1     -28.539  -6.401 -34.201  1.00  0.00     0.006 C 
HETATM   40  C31 UNL     1     -28.891  -5.123 -34.952  1.00  0.00     0.010 C 
HETATM   41  C33 UNL     1     -30.110  -3.852 -33.250  1.00  0.00     0.016 C 
ENDBRANCH   2  24
TORSDOF 12
ENDMDL
MODEL 3
REMARK VINA RESULT: -8.067180623      1.170      1.945
REMARK  12 active torsions:
REMARK  status: ('A' for Active; 'I' for Inactive)
REMARK    1  A    between atoms: C2_2  and  C3_4 
REMARK    2  A    between atoms: C2_2  and  C16_24 
REMARK    3  A    between atoms: C3_4  and  C4_5 
REMARK    4  A    between atoms: C4_5  and  C5_6 
REMARK    5  A    between atoms: C5_6  and  O2_8 
REMARK    6  A    between atoms: O2_8  and  C6_9 
REMARK    7  A    between atoms: C6_9  and  C7_10 
REMARK    8  A    between atoms: C7_10  and  O3_11 
REMARK    9  A    between atoms: O3_11  and  C8_12 
REMARK   10  A    between atoms: C8_12  and  C9_14 
REMARK   11  A    between atoms: C9_14  and  C10_15 
REMARK   12  A    between atoms: C13_18  and  O5_19 
ROOT
HETATM    1  C1  UNL     1     -30.827  -1.607 -33.260  1.00  0.00     0.033 C 
HETATM    2  C2  UNL     1     -30.517  -1.901 -34.711  1.00  0.00     0.038 C 
HETATM    3 CL1  UNL     1     -32.079  -2.672 -35.268  1.00  0.00    -0.119 Cl
ENDROOT
BRANCH   2   4
HETATM    4  C3  UNL     1     -30.483  -0.604 -35.432  1.00  0.00     0.035 C 
BRANCH   4   5
HETATM    5  C4  UNL     1     -29.408  -0.361 -36.422  1.00  0.00     0.113 C 
BRANCH   5   6
HETATM    6  C5  UNL     1     -29.695   0.774 -37.370  1.00  0.00     0.258 C 
HETATM    7  O1  UNL     1     -30.097   0.626 -38.533  1.00  0.00    -0.265 OA
BRANCH   6   8
HETATM    8  O2  UNL     1     -29.486   2.039 -36.870  1.00  0.00    -0.319 OA
BRANCH   8   9
HETATM    9  C6  UNL     1     -30.022   3.208 -37.415  1.00  0.00     0.205 C 
BRANCH   9  10
HETATM   10  C7  UNL     1     -28.925   4.037 -38.027  1.00  0.00     0.205 C 
BRANCH  10  11
HETATM   11  O3  UNL     1     -28.549   5.119 -37.230  1.00  0.00    -0.319 OA
BRANCH  11  12
HETATM   12  C8  UNL     1     -28.326   5.054 -35.868  1.00  0.00     0.263 C 
HETATM   13  O4  UNL     1     -27.409   4.340 -35.400  1.00  0.00    -0.265 OA
BRANCH  12  14
HETATM   14  C9  UNL     1     -29.167   5.827 -34.912  1.00  0.00     0.149 C 
BRANCH  14  15
HETATM   15  C10 UNL     1     -28.299   6.329 -33.826  1.00  0.00    -0.047 A 
HETATM   16  C11 UNL     1     -28.838   6.541 -32.577  1.00  0.00     0.010 A 
HETATM   17  C12 UNL     1     -28.083   7.008 -31.520  1.00  0.00     0.039 A 
HETATM   18  C13 UNL     1     -26.738   7.279 -31.701  1.00  0.00     0.087 A 
HETATM   19  C14 UNL     1     -26.197   7.066 -32.955  1.00  0.00     0.067 A 
HETATM   20 CL2  UNL     1     -24.492   7.413 -33.168  1.00  0.00    -0.081 Cl
HETATM   21  C15 UNL     1     -26.967   6.595 -34.010  1.00  0.00     0.034 A 
BRANCH  18  22
HETATM   22  O5  UNL     1     -25.980   7.744 -30.654  1.00  0.00    -0.359 OA
ATOM     23  H5  UNL     1     -25.035   7.790 -30.732  1.00  0.00     0.217 HD
ENDBRANCH  18  22
ENDBRANCH  14  15
ENDBRANCH  12  14
ENDBRANCH  11  12
ENDBRANCH  10  11
ENDBRANCH   9  10
ENDBRANCH   8   9
ENDBRANCH   6   8
ENDBRANCH   5   6
ENDBRANCH   4   5
ENDBRANCH   2   4
BRANCH   2  24
HETATM   24  C16 UNL     1     -29.483  -2.860 -34.984  1.00  0.00     0.017 C 
HETATM   25  C17 UNL     1     -30.062  -4.006 -35.866  1.00  0.00     0.007 C 
HETATM   26  C18 UNL     1     -28.854  -4.842 -36.094  1.00  0.00     0.006 C 
HETATM   27  C19 UNL     1     -28.009  -4.606 -34.860  1.00  0.00    -0.002 C 
HETATM   28  C20 UNL     1     -27.567  -5.888 -34.307  1.00  0.00    -0.005 C 
HETATM   29  C32 UNL     1     -28.834  -3.702 -33.934  1.00  0.00    -0.035 C 
HETATM   30  C21 UNL     1     -26.242  -5.911 -33.606  1.00  0.00     0.006 C 
HETATM   31  C29 UNL     1     -28.611  -6.633 -33.509  1.00  0.00    -0.002 C 
HETATM   32  C22 UNL     1     -25.803  -7.364 -33.589  1.00  0.00     0.006 C 
HETATM   33  C23 UNL     1     -26.743  -8.146 -32.713  1.00  0.00    -0.006 C 
HETATM   34  C24 UNL     1     -26.581  -7.859 -31.246  1.00  0.00     0.005 C 
HETATM   35  C27 UNL     1     -28.188  -7.959 -33.046  1.00  0.00    -0.036 C 
HETATM   36  C25 UNL     1     -27.979  -8.076 -30.654  1.00  0.00     0.001 C 
HETATM   37  C26 UNL     1     -28.867  -8.463 -31.804  1.00  0.00     0.010 C 
HETATM   38  C28 UNL     1     -28.516  -8.969 -34.156  1.00  0.00     0.016 C 
HETATM   39  C30 UNL     1     -29.070  -5.705 -32.435  1.00  0.00     0.006 C 
HETATM   40  C31 UNL     1     -29.709  -4.447 -33.008  1.00  0.00     0.010 C 
HETATM   41  C33 UNL     1     -27.799  -2.919 -33.137  1.00  0.00     0.016 C 
ENDBRANCH   2  24
TORSDOF 12
ENDMDL
MODEL 4
REMARK VINA RESULT: -8.063807156      1.682      2.353
REMARK  12 active torsions:
REMARK  status: ('A' for Active; 'I' for Inactive)
REMARK    1  A    between atoms: C2_2  and  C3_4 
REMARK    2  A    between atoms: C2_2  and  C16_24 
REMARK    3  A    between atoms: C3_4  and  C4_5 
REMARK    4  A    between atoms: C4_5  and  C5_6 
REMARK    5  A    between atoms: C5_6  and  O2_8 
REMARK    6  A    between atoms: O2_8  and  C6_9 
REMARK    7  A    between atoms: C6_9  and  C7_10 
REMARK    8  A    between atoms: C7_10  and  O3_11 
REMARK    9  A    between atoms: O3_11  and  C8_12 
REMARK   10  A    between atoms: C8_12  and  C9_14 
REMARK   11  A    between atoms: C9_14  and  C10_15 
REMARK   12  A    between atoms: C13_18  and  O5_19 
ROOT
HETATM    1  C1  UNL     1     -30.798  -2.432 -35.998  1.00  0.00     0.033 C 
HETATM    2  C2  UNL     1     -29.322  -2.117 -35.908  1.00  0.00     0.038 C 
HETATM    3 CL1  UNL     1     -28.661  -3.065 -37.326  1.00  0.00    -0.119 Cl
ENDROOT
BRANCH   2   4
HETATM    4  C3  UNL     1     -29.141  -0.700 -36.310  1.00  0.00     0.035 C 
BRANCH   4   5
HETATM    5  C4  UNL     1     -30.189   0.286 -35.956  1.00  0.00     0.113 C 
BRANCH   5   6
HETATM    6  C5  UNL     1     -30.132   1.555 -36.766  1.00  0.00     0.258 C 
HETATM    7  O1  UNL     1     -29.085   2.156 -37.047  1.00  0.00    -0.265 OA
BRANCH   6   8
HETATM    8  O2  UNL     1     -31.343   2.042 -37.202  1.00  0.00    -0.319 OA
BRANCH   8   9
HETATM    9  C6  UNL     1     -31.773   3.361 -37.045  1.00  0.00     0.205 C 
BRANCH   9  10
HETATM   10  C7  UNL     1     -32.521   3.505 -35.746  1.00  0.00     0.205 C 
BRANCH  10  11
HETATM   11  O3  UNL     1     -32.958   4.808 -35.509  1.00  0.00    -0.319 OA
BRANCH  11  12
HETATM   12  C8  UNL     1     -32.563   5.589 -34.440  1.00  0.00     0.263 C 
HETATM   13  O4  UNL     1     -32.872   5.276 -33.267  1.00  0.00    -0.265 OA
BRANCH  12  14
HETATM   14  C9  UNL     1     -31.760   6.825 -34.644  1.00  0.00     0.149 C 
BRANCH  14  15
HETATM   15  C10 UNL     1     -30.346   6.522 -34.336  1.00  0.00    -0.047 A 
HETATM   16  C11 UNL     1     -29.597   5.806 -35.242  1.00  0.00     0.010 A 
HETATM   17  C12 UNL     1     -28.274   5.489 -35.014  1.00  0.00     0.039 A 
HETATM   18  C13 UNL     1     -27.659   5.896 -33.843  1.00  0.00     0.087 A 
HETATM   19  C14 UNL     1     -28.411   6.615 -32.934  1.00  0.00     0.067 A 
HETATM   20 CL2  UNL     1     -27.619   7.124 -31.455  1.00  0.00    -0.081 Cl
HETATM   21  C15 UNL     1     -29.742   6.928 -33.174  1.00  0.00     0.034 A 
BRANCH  18  22
HETATM   22  O5  UNL     1     -26.342   5.585 -33.609  1.00  0.00    -0.359 OA
ATOM     23  H5  UNL     1     -25.950   5.767 -32.764  1.00  0.00     0.217 HD
ENDBRANCH  18  22
ENDBRANCH  14  15
ENDBRANCH  12  14
ENDBRANCH  11  12
ENDBRANCH  10  11
ENDBRANCH   9  10
ENDBRANCH   8   9
ENDBRANCH   6   8
ENDBRANCH   5   6
ENDBRANCH   4   5
ENDBRANCH   2   4
BRANCH   2  24
HETATM   24  C16 UNL     1     -28.616  -2.593 -34.750  1.00  0.00     0.017 C 
HETATM   25  C17 UNL     1     -27.118  -2.819 -35.117  1.00  0.00     0.007 C 
HETATM   26  C18 UNL     1     -26.553  -3.232 -33.806  1.00  0.00     0.006 C 
HETATM   27  C19 UNL     1     -27.716  -3.899 -33.102  1.00  0.00    -0.002 C 
HETATM   28  C20 UNL     1     -27.294  -5.194 -32.564  1.00  0.00    -0.005 C 
HETATM   29  C32 UNL     1     -28.880  -3.912 -34.101  1.00  0.00    -0.035 C 
HETATM   30  C21 UNL     1     -27.966  -5.666 -31.309  1.00  0.00     0.006 C 
HETATM   31  C29 UNL     1     -27.207  -6.309 -33.579  1.00  0.00    -0.002 C 
HETATM   32  C22 UNL     1     -27.045  -6.712 -30.709  1.00  0.00     0.006 C 
HETATM   33  C23 UNL     1     -27.002  -7.905 -31.624  1.00  0.00    -0.006 C 
HETATM   34  C24 UNL     1     -28.270  -8.714 -31.622  1.00  0.00     0.005 C 
HETATM   35  C27 UNL     1     -26.689  -7.575 -33.047  1.00  0.00    -0.036 C 
HETATM   36  C25 UNL     1     -28.347  -9.315 -33.031  1.00  0.00     0.001 C 
HETATM   37  C26 UNL     1     -27.135  -8.816 -33.767  1.00  0.00     0.010 C 
HETATM   38  C28 UNL     1     -25.157  -7.538 -33.162  1.00  0.00     0.016 C 
HETATM   39  C30 UNL     1     -28.546  -6.399 -34.231  1.00  0.00     0.006 C 
HETATM   40  C31 UNL     1     -28.908  -5.111 -34.960  1.00  0.00     0.010 C 
HETATM   41  C33 UNL     1     -30.132  -3.877 -33.234  1.00  0.00     0.016 C 
ENDBRANCH   2  24
TORSDOF 12
ENDMDL
MODEL 5
REMARK VINA RESULT: -7.862088604      1.572      1.889
REMARK  12 active torsions:
REMARK  status: ('A' for Active; 'I' for Inactive)
REMARK    1  A    between atoms: C2_2  and  C3_4 
REMARK    2  A    between atoms: C2_2  and  C16_24 
REMARK    3  A    between atoms: C3_4  and  C4_5 
REMARK    4  A    between atoms: C4_5  and  C5_6 
REMARK    5  A    between atoms: C5_6  and  O2_8 
REMARK    6  A    between atoms: O2_8  and  C6_9 
REMARK    7  A    between atoms: C6_9  and  C7_10 
REMARK    8  A    between atoms: C7_10  and  O3_11 
REMARK    9  A    between atoms: O3_11  and  C8_12 
REMARK   10  A    between atoms: C8_12  and  C9_14 
REMARK   11  A    between atoms: C9_14  and  C10_15 
REMARK   12  A    between atoms: C13_18  and  O5_19 
ROOT
HETATM    1  C1  UNL     1     -30.952  -2.787 -36.004  1.00  0.00     0.033 C 
HETATM    2  C2  UNL     1     -29.675  -2.063 -35.642  1.00  0.00     0.038 C 
HETATM    3 CL1  UNL     1     -28.649  -2.372 -37.125  1.00  0.00    -0.119 Cl
ENDROOT
BRANCH   2   4
HETATM    4  C3  UNL     1     -29.956  -0.606 -35.701  1.00  0.00     0.035 C 
BRANCH   4   5
HETATM    5  C4  UNL     1     -29.394   0.188 -36.818  1.00  0.00     0.113 C 
BRANCH   5   6
HETATM    6  C5  UNL     1     -30.398   0.533 -37.887  1.00  0.00     0.258 C 
HETATM    7  O1  UNL     1     -31.598   0.228 -37.842  1.00  0.00    -0.265 OA
BRANCH   6   8
HETATM    8  O2  UNL     1     -29.906   1.234 -38.966  1.00  0.00    -0.319 OA
BRANCH   8   9
HETATM    9  C6  UNL     1     -30.445   2.426 -39.452  1.00  0.00     0.205 C 
BRANCH   9  10
HETATM   10  C7  UNL     1     -29.414   3.521 -39.382  1.00  0.00     0.205 C 
BRANCH  10  11
HETATM   11  O3  UNL     1     -29.622   4.399 -38.319  1.00  0.00    -0.319 OA
BRANCH  11  12
HETATM   12  C8  UNL     1     -29.431   4.084 -36.987  1.00  0.00     0.263 C 
HETATM   13  O4  UNL     1     -30.342   3.543 -36.318  1.00  0.00    -0.265 OA
BRANCH  12  14
HETATM   14  C9  UNL     1     -28.141   4.375 -36.303  1.00  0.00     0.149 C 
BRANCH  14  15
HETATM   15  C10 UNL     1     -28.422   5.180 -35.096  1.00  0.00    -0.047 A 
HETATM   16  C11 UNL     1     -27.553   5.121 -34.030  1.00  0.00     0.010 A 
HETATM   17  C12 UNL     1     -27.757   5.847 -32.874  1.00  0.00     0.039 A 
HETATM   18  C13 UNL     1     -28.866   6.667 -32.762  1.00  0.00     0.087 A 
HETATM   19  C14 UNL     1     -29.739   6.726 -33.832  1.00  0.00     0.067 A 
HETATM   20 CL2  UNL     1     -31.138   7.770 -33.676  1.00  0.00    -0.081 Cl
HETATM   21  C15 UNL     1     -29.522   5.991 -34.990  1.00  0.00     0.034 A 
BRANCH  18  22
HETATM   22  O5  UNL     1     -29.077   7.392 -31.615  1.00  0.00    -0.359 OA
ATOM     23  H5  UNL     1     -28.381   7.927 -31.253  1.00  0.00     0.217 HD
ENDBRANCH  18  22
ENDBRANCH  14  15
ENDBRANCH  12  14
ENDBRANCH  11  12
ENDBRANCH  10  11
ENDBRANCH   9  10
ENDBRANCH   8   9
ENDBRANCH   6   8
ENDBRANCH   5   6
ENDBRANCH   4   5
ENDBRANCH   2   4
BRANCH   2  24
HETATM   24  C16 UNL     1     -28.923  -2.568 -34.528  1.00  0.00     0.017 C 
HETATM   25  C17 UNL     1     -27.423  -2.694 -34.933  1.00  0.00     0.007 C 
HETATM   26  C18 UNL     1     -26.812  -3.154 -33.658  1.00  0.00     0.006 C 
HETATM   27  C19 UNL     1     -27.925  -3.920 -32.975  1.00  0.00    -0.002 C 
HETATM   28  C20 UNL     1     -27.427  -5.221 -32.522  1.00  0.00    -0.005 C 
HETATM   29  C32 UNL     1     -29.107  -3.935 -33.954  1.00  0.00    -0.035 C 
HETATM   30  C21 UNL     1     -28.049  -5.800 -31.287  1.00  0.00     0.006 C 
HETATM   31  C29 UNL     1     -27.304  -6.269 -33.604  1.00  0.00    -0.002 C 
HETATM   32  C22 UNL     1     -27.064  -6.830 -30.766  1.00  0.00     0.006 C 
HETATM   33  C23 UNL     1     -26.979  -7.964 -31.751  1.00  0.00    -0.006 C 
HETATM   34  C24 UNL     1     -28.203  -8.836 -31.776  1.00  0.00     0.005 C 
HETATM   35  C27 UNL     1     -26.711  -7.534 -33.157  1.00  0.00    -0.036 C 
HETATM   36  C25 UNL     1     -28.278  -9.357 -33.217  1.00  0.00     0.001 C 
HETATM   37  C26 UNL     1     -27.108  -8.752 -33.942  1.00  0.00     0.010 C 
HETATM   38  C28 UNL     1     -25.186  -7.411 -33.295  1.00  0.00     0.016 C 
HETATM   39  C30 UNL     1     -28.649  -6.389 -34.238  1.00  0.00     0.006 C 
HETATM   40  C31 UNL     1     -29.091  -5.082 -34.882  1.00  0.00     0.010 C 
HETATM   41  C33 UNL     1     -30.341  -4.016 -33.065  1.00  0.00     0.016 C 
ENDBRANCH   2  24
TORSDOF 12
ENDMDL
