MODEL 1
REMARK VINA RESULT: -8.146340723      0.000      0.000
REMARK  11 active torsions:
REMARK  status: ('A' for Active; 'I' for Inactive)
REMARK    1  A    between atoms: C2_2  and  C26_31 
REMARK    2  A    between atoms: C3_3  and  C4_4 
REMARK    3  A    between atoms: C4_4  and  C5_5 
REMARK    4  A    between atoms: C5_5  and  C7_7 
REMARK    5  A    between atoms: C11_12  and  O2_13 
REMARK    6  A    between atoms: C26_31  and  C27_32 
REMARK    7  A    between atoms: C27_32  and  C28_34 
REMARK    8  A    between atoms: C30_36  and  C31_37 
REMARK    9  A    between atoms: C32_38  and  C33_39 
REMARK   10  A    between atoms: C33_39  and  C34_40 
REMARK   11  A    between atoms: C34_40  and  C35_41 
ROOT
HETATM    1  C7  UNL     1     -30.085  -3.628 -37.886  1.00  0.00     0.039 C 
HETATM    2  C8  UNL     1     -30.689  -4.950 -37.857  1.00  0.00     0.180 C 
HETATM    3  O1  UNL     1     -29.977  -6.031 -37.559  1.00  0.00    -0.360 OA
HETATM    4  C9  UNL     1     -29.030  -6.564 -38.272  1.00  0.00     0.263 C 
HETATM    5  C10 UNL     1     -28.206  -5.752 -39.212  1.00  0.00     0.096 C 
HETATM    6  C11 UNL     1     -27.316  -4.742 -38.525  1.00  0.00     0.166 C 
HETATM    7  C12 UNL     1     -27.244  -4.905 -37.031  1.00  0.00     0.168 C 
HETATM    8  F1  UNL     1     -25.878  -4.596 -36.775  1.00  0.00    -0.236 F 
HETATM    9  C13 UNL     1     -27.246  -6.366 -36.774  1.00  0.00     0.099 C 
HETATM   10  C14 UNL     1     -25.910  -6.998 -37.230  1.00  0.00     0.050 C 
HETATM   11  C15 UNL     1     -27.271  -6.593 -35.315  1.00  0.00     0.042 C 
HETATM   12  C16 UNL     1     -28.444  -5.957 -34.639  1.00  0.00     0.009 C 
HETATM   13  C17 UNL     1     -28.723  -4.533 -34.975  1.00  0.00     0.005 C 
HETATM   14  C18 UNL     1     -28.681  -3.675 -33.728  1.00  0.00    -0.043 C 
HETATM   15  C19 UNL     1     -29.779  -2.598 -33.685  1.00  0.00     0.015 C 
HETATM   16  C20 UNL     1     -29.101  -4.554 -32.530  1.00  0.00     0.015 C 
HETATM   17  C21 UNL     1     -27.361  -3.135 -33.339  1.00  0.00     0.009 C 
HETATM   18  C22 UNL     1     -26.406  -3.151 -34.499  1.00  0.00     0.002 C 
HETATM   19  C23 UNL     1     -27.153  -2.872 -35.720  1.00  0.00     0.013 C 
HETATM   20  C24 UNL     1     -28.095  -4.000 -36.215  1.00  0.00     0.006 C 
HETATM   21  C25 UNL     1     -29.057  -3.140 -37.058  1.00  0.00     0.024 C 
HETATM   22  O3  UNL     1     -28.151  -7.161 -37.371  1.00  0.00    -0.347 OA
ENDROOT
BRANCH   1  23
HETATM   23  C5  UNL     1     -31.265  -2.619 -37.934  1.00  0.00    -0.078 C 
HETATM   24  C6  UNL     1     -32.140  -2.605 -36.754  1.00  0.00     0.044 C 
BRANCH  23  25
HETATM   25  C4  UNL     1     -30.912  -1.420 -38.647  1.00  0.00     0.003 C 
BRANCH  25  26
HETATM   26  C3  UNL     1     -30.595  -0.224 -38.428  1.00  0.00     0.007 C 
HETATM   27  C2  UNL     1     -30.281   0.640 -37.318  1.00  0.00    -0.063 C 
HETATM   28  C1  UNL     1     -30.146   0.195 -35.904  1.00  0.00     0.048 C 
BRANCH  27  29
HETATM   29  C26 UNL     1     -30.040   1.931 -37.622  1.00  0.00     0.021 C 
BRANCH  29  30
HETATM   30  C27 UNL     1     -30.149   3.088 -36.743  1.00  0.00     0.222 C 
HETATM   31  F2  UNL     1     -31.236   3.876 -37.060  1.00  0.00    -0.240 F 
BRANCH  30  32
HETATM   32  C28 UNL     1     -28.909   3.869 -36.804  1.00  0.00    -0.047 C 
HETATM   33  C29 UNL     1     -27.900   3.304 -37.825  1.00  0.00     0.046 C 
HETATM   34  C30 UNL     1     -28.514   4.922 -36.160  1.00  0.00     0.005 C 
BRANCH  34  35
HETATM   35  C31 UNL     1     -29.134   5.713 -35.155  1.00  0.00    -0.004 C 
HETATM   36  C32 UNL     1     -28.709   6.092 -33.978  1.00  0.00    -0.026 C 
BRANCH  36  37
HETATM   37  C33 UNL     1     -27.525   5.923 -33.184  1.00  0.00     0.037 C 
BRANCH  37  38
HETATM   38  C34 UNL     1     -26.546   7.020 -33.033  1.00  0.00     0.117 C 
BRANCH  38  39
HETATM   39  C35 UNL     1     -26.308   7.267 -31.553  1.00  0.00     0.172 C 
HETATM   40  O4  UNL     1     -25.194   7.021 -31.030  1.00  0.00    -0.648 OA
HETATM   41  O5  UNL     1     -27.318   7.771 -30.761  1.00  0.00    -0.648 OA
ENDBRANCH  38  39
ENDBRANCH  37  38
ENDBRANCH  36  37
ENDBRANCH  34  35
ENDBRANCH  30  32
ENDBRANCH  29  30
ENDBRANCH  27  29
ENDBRANCH  25  26
ENDBRANCH  23  25
ENDBRANCH   1  23
BRANCH   6  42
HETATM   42  O2  UNL     1     -26.025  -4.979 -39.109  1.00  0.00    -0.392 OA
ATOM     43  H2  UNL     1     -25.428  -4.879 -38.377  1.00  0.00     0.210 HD
ENDBRANCH   6  42
TORSDOF 11
ENDMDL
MODEL 2
REMARK VINA RESULT: -8.142876519      1.969      3.713
REMARK  11 active torsions:
REMARK  status: ('A' for Active; 'I' for Inactive)
REMARK    1  A    between atoms: C2_2  and  C26_31 
REMARK    2  A    between atoms: C3_3  and  C4_4 
REMARK    3  A    between atoms: C4_4  and  C5_5 
REMARK    4  A    between atoms: C5_5  and  C7_7 
REMARK    5  A    between atoms: C11_12  and  O2_13 
REMARK    6  A    between atoms: C26_31  and  C27_32 
REMARK    7  A    between atoms: C27_32  and  C28_34 
REMARK    8  A    between atoms: C30_36  and  C31_37 
REMARK    9  A    between atoms: C32_38  and  C33_39 
REMARK   10  A    between atoms: C33_39  and  C34_40 
REMARK   11  A    between atoms: C34_40  and  C35_41 
ROOT
HETATM    1  C7  UNL     1     -29.474  -3.269 -34.281  1.00  0.00     0.039 C 
HETATM    2  C8  UNL     1     -28.151  -2.810 -33.891  1.00  0.00     0.180 C 
HETATM    3  O1  UNL     1     -27.121  -3.645 -33.819  1.00  0.00    -0.360 OA
HETATM    4  C9  UNL     1     -26.953  -4.610 -32.965  1.00  0.00     0.263 C 
HETATM    5  C10 UNL     1     -28.111  -5.300 -32.328  1.00  0.00     0.096 C 
HETATM    6  C11 UNL     1     -28.945  -6.109 -33.294  1.00  0.00     0.166 C 
HETATM    7  C12 UNL     1     -28.326  -6.265 -34.656  1.00  0.00     0.168 C 
HETATM    8  F1  UNL     1     -28.692  -7.601 -34.985  1.00  0.00    -0.236 F 
HETATM    9  C13 UNL     1     -26.869  -6.429 -34.431  1.00  0.00     0.099 C 
HETATM   10  C14 UNL     1     -26.572  -7.803 -33.784  1.00  0.00     0.050 C 
HETATM   11  C15 UNL     1     -26.188  -6.495 -35.741  1.00  0.00     0.042 C 
HETATM   12  C16 UNL     1     -26.439  -5.292 -36.595  1.00  0.00     0.009 C 
HETATM   13  C17 UNL     1     -27.853  -4.850 -36.736  1.00  0.00     0.005 C 
HETATM   14  C18 UNL     1     -28.271  -4.857 -38.192  1.00  0.00    -0.043 C 
HETATM   15  C19 UNL     1     -29.144  -3.655 -38.588  1.00  0.00     0.015 C 
HETATM   16  C20 UNL     1     -27.014  -4.587 -39.049  1.00  0.00     0.015 C 
HETATM   17  C21 UNL     1     -28.806  -6.129 -38.721  1.00  0.00     0.009 C 
HETATM   18  C22 UNL     1     -29.269  -7.027 -37.610  1.00  0.00     0.002 C 
HETATM   19  C23 UNL     1     -29.833  -6.200 -36.549  1.00  0.00     0.013 C 
HETATM   20  C24 UNL     1     -28.821  -5.361 -35.726  1.00  0.00     0.006 C 
HETATM   21  C25 UNL     1     -29.788  -4.276 -35.213  1.00  0.00     0.024 C 
HETATM   22  O3  UNL     1     -26.207  -5.587 -33.619  1.00  0.00    -0.347 OA
ENDROOT
BRANCH   1  23
HETATM   23  C5  UNL     1     -30.303  -1.988 -34.570  1.00  0.00    -0.078 C 
HETATM   24  C6  UNL     1     -30.866  -1.315 -33.392  1.00  0.00     0.044 C 
BRANCH  23  25
HETATM   25  C4  UNL     1     -29.787  -1.262 -35.700  1.00  0.00     0.003 C 
BRANCH  25  26
HETATM   26  C3  UNL     1     -29.711  -0.088 -36.141  1.00  0.00     0.007 C 
HETATM   27  C2  UNL     1     -30.560   1.055 -36.362  1.00  0.00    -0.063 C 
HETATM   28  C1  UNL     1     -31.986   1.150 -35.948  1.00  0.00     0.048 C 
BRANCH  27  29
HETATM   29  C26 UNL     1     -29.974   2.126 -36.935  1.00  0.00     0.021 C 
BRANCH  29  30
HETATM   30  C27 UNL     1     -30.220   3.534 -36.650  1.00  0.00     0.222 C 
HETATM   31  F2  UNL     1     -30.999   4.128 -37.622  1.00  0.00    -0.240 F 
BRANCH  30  32
HETATM   32  C28 UNL     1     -28.941   4.237 -36.511  1.00  0.00    -0.047 C 
HETATM   33  C29 UNL     1     -27.839   3.653 -37.419  1.00  0.00     0.046 C 
HETATM   34  C30 UNL     1     -28.575   5.236 -35.771  1.00  0.00     0.005 C 
BRANCH  34  35
HETATM   35  C31 UNL     1     -29.278   6.022 -34.817  1.00  0.00    -0.004 C 
HETATM   36  C32 UNL     1     -28.963   6.375 -33.598  1.00  0.00    -0.026 C 
BRANCH  36  37
HETATM   37  C33 UNL     1     -27.865   6.172 -32.695  1.00  0.00     0.037 C 
BRANCH  37  38
HETATM   38  C34 UNL     1     -26.517   6.693 -33.006  1.00  0.00     0.117 C 
BRANCH  38  39
HETATM   39  C35 UNL     1     -25.830   7.083 -31.709  1.00  0.00     0.172 C 
HETATM   40  O4  UNL     1     -26.445   7.717 -30.818  1.00  0.00    -0.648 OA
HETATM   41  O5  UNL     1     -24.511   6.741 -31.491  1.00  0.00    -0.648 OA
ENDBRANCH  38  39
ENDBRANCH  37  38
ENDBRANCH  36  37
ENDBRANCH  34  35
ENDBRANCH  30  32
ENDBRANCH  29  30
ENDBRANCH  27  29
ENDBRANCH  25  26
ENDBRANCH  23  25
ENDBRANCH   1  23
BRANCH   6  42
HETATM   42  O2  UNL     1     -29.055  -7.390 -32.653  1.00  0.00    -0.392 OA
ATOM     43  H2  UNL     1     -29.866  -7.744 -33.000  1.00  0.00     0.210 HD
ENDBRANCH   6  42
TORSDOF 11
ENDMDL
MODEL 3
REMARK VINA RESULT: -8.102629818      0.983      1.315
REMARK  11 active torsions:
REMARK  status: ('A' for Active; 'I' for Inactive)
REMARK    1  A    between atoms: C2_2  and  C26_31 
REMARK    2  A    between atoms: C3_3  and  C4_4 
REMARK    3  A    between atoms: C4_4  and  C5_5 
REMARK    4  A    between atoms: C5_5  and  C7_7 
REMARK    5  A    between atoms: C11_12  and  O2_13 
REMARK    6  A    between atoms: C26_31  and  C27_32 
REMARK    7  A    between atoms: C27_32  and  C28_34 
REMARK    8  A    between atoms: C30_36  and  C31_37 
REMARK    9  A    between atoms: C32_38  and  C33_39 
REMARK   10  A    between atoms: C33_39  and  C34_40 
REMARK   11  A    between atoms: C34_40  and  C35_41 
ROOT
HETATM    1  C7  UNL     1     -29.616  -3.497 -37.920  1.00  0.00     0.039 C 
HETATM    2  C8  UNL     1     -30.381  -4.731 -37.992  1.00  0.00     0.180 C 
HETATM    3  O1  UNL     1     -29.855  -5.895 -37.630  1.00  0.00    -0.360 OA
HETATM    4  C9  UNL     1     -28.900  -6.542 -38.228  1.00  0.00     0.263 C 
HETATM    5  C10 UNL     1     -27.868  -5.838 -39.041  1.00  0.00     0.096 C 
HETATM    6  C11 UNL     1     -26.951  -4.953 -38.228  1.00  0.00     0.166 C 
HETATM    7  C12 UNL     1     -27.091  -5.129 -36.741  1.00  0.00     0.168 C 
HETATM    8  F1  UNL     1     -25.740  -4.998 -36.310  1.00  0.00    -0.236 F 
HETATM    9  C13 UNL     1     -27.309  -6.578 -36.515  1.00  0.00     0.099 C 
HETATM   10  C14 UNL     1     -26.017  -7.374 -36.812  1.00  0.00     0.050 C 
HETATM   11  C15 UNL     1     -27.548  -6.806 -35.075  1.00  0.00     0.042 C 
HETATM   12  C16 UNL     1     -28.707  -6.027 -34.539  1.00  0.00     0.009 C 
HETATM   13  C17 UNL     1     -28.759  -4.579 -34.879  1.00  0.00     0.005 C 
HETATM   14  C18 UNL     1     -28.768  -3.736 -33.621  1.00  0.00    -0.043 C 
HETATM   15  C19 UNL     1     -29.718  -2.529 -33.694  1.00  0.00     0.015 C 
HETATM   16  C20 UNL     1     -29.444  -4.560 -32.501  1.00  0.00     0.015 C 
HETATM   17  C21 UNL     1     -27.450  -3.371 -33.059  1.00  0.00     0.009 C 
HETATM   18  C22 UNL     1     -26.366  -3.505 -34.089  1.00  0.00     0.002 C 
HETATM   19  C23 UNL     1     -26.911  -3.129 -35.389  1.00  0.00     0.013 C 
HETATM   20  C24 UNL     1     -27.917  -4.125 -36.021  1.00  0.00     0.006 C 
HETATM   21  C25 UNL     1     -28.649  -3.147 -36.960  1.00  0.00     0.024 C 
HETATM   22  O3  UNL     1     -28.224  -7.249 -37.236  1.00  0.00    -0.347 OA
ENDROOT
BRANCH   1  23
HETATM   23  C5  UNL     1     -30.644  -2.345 -38.096  1.00  0.00    -0.078 C 
HETATM   24  C6  UNL     1     -31.984  -2.750 -38.539  1.00  0.00     0.044 C 
BRANCH  23  25
HETATM   25  C4  UNL     1     -30.434  -1.292 -37.137  1.00  0.00     0.003 C 
BRANCH  25  26
HETATM   26  C3  UNL     1     -29.946  -0.137 -37.062  1.00  0.00     0.007 C 
HETATM   27  C2  UNL     1     -29.812   1.049 -37.870  1.00  0.00    -0.063 C 
HETATM   28  C1  UNL     1     -30.427   1.240 -39.211  1.00  0.00     0.048 C 
BRANCH  27  29
HETATM   29  C26 UNL     1     -29.122   2.066 -37.317  1.00  0.00     0.021 C 
BRANCH  29  30
HETATM   30  C27 UNL     1     -28.597   3.252 -37.984  1.00  0.00     0.222 C 
HETATM   31  F2  UNL     1     -27.218   3.270 -37.992  1.00  0.00    -0.240 F 
BRANCH  30  32
HETATM   32  C28 UNL     1     -29.127   4.455 -37.334  1.00  0.00    -0.047 C 
HETATM   33  C29 UNL     1     -30.149   5.205 -38.213  1.00  0.00     0.046 C 
HETATM   34  C30 UNL     1     -28.888   4.994 -36.180  1.00  0.00     0.005 C 
BRANCH  34  35
HETATM   35  C31 UNL     1     -28.024   4.622 -35.114  1.00  0.00    -0.004 C 
HETATM   36  C32 UNL     1     -27.566   5.310 -34.102  1.00  0.00    -0.026 C 
BRANCH  36  37
HETATM   37  C33 UNL     1     -27.687   6.650 -33.600  1.00  0.00     0.037 C 
BRANCH  37  38
HETATM   38  C34 UNL     1     -26.495   7.416 -33.179  1.00  0.00     0.117 C 
BRANCH  38  39
HETATM   39  C35 UNL     1     -26.392   7.372 -31.664  1.00  0.00     0.172 C 
HETATM   40  O4  UNL     1     -27.382   7.642 -30.943  1.00  0.00    -0.648 OA
HETATM   41  O5  UNL     1     -25.200   7.032 -31.059  1.00  0.00    -0.648 OA
ENDBRANCH  38  39
ENDBRANCH  37  38
ENDBRANCH  36  37
ENDBRANCH  34  35
ENDBRANCH  30  32
ENDBRANCH  29  30
ENDBRANCH  27  29
ENDBRANCH  25  26
ENDBRANCH  23  25
ENDBRANCH   1  23
BRANCH   6  42
HETATM   42  O2  UNL     1     -25.637  -5.351 -38.651  1.00  0.00    -0.392 OA
ATOM     43  H2  UNL     1     -25.574  -6.253 -38.360  1.00  0.00     0.210 HD
ENDBRANCH   6  42
TORSDOF 11
ENDMDL
MODEL 4
REMARK VINA RESULT: -8.059109947      5.666      9.359
REMARK  11 active torsions:
REMARK  status: ('A' for Active; 'I' for Inactive)
REMARK    1  A    between atoms: C2_2  and  C26_31 
REMARK    2  A    between atoms: C3_3  and  C4_4 
REMARK    3  A    between atoms: C4_4  and  C5_5 
REMARK    4  A    between atoms: C5_5  and  C7_7 
REMARK    5  A    between atoms: C11_12  and  O2_13 
REMARK    6  A    between atoms: C26_31  and  C27_32 
REMARK    7  A    between atoms: C27_32  and  C28_34 
REMARK    8  A    between atoms: C30_36  and  C31_37 
REMARK    9  A    between atoms: C32_38  and  C33_39 
REMARK   10  A    between atoms: C33_39  and  C34_40 
REMARK   11  A    between atoms: C34_40  and  C35_41 
ROOT
HETATM    1  C7  UNL     1     -26.448  -7.393 -35.060  1.00  0.00     0.039 C 
HETATM    2  C8  UNL     1     -27.748  -7.934 -35.418  1.00  0.00     0.180 C 
HETATM    3  O1  UNL     1     -28.800  -7.798 -34.617  1.00  0.00    -0.360 OA
HETATM    4  C9  UNL     1     -28.975  -8.353 -33.455  1.00  0.00     0.263 C 
HETATM    5  C10 UNL     1     -27.822  -8.739 -32.591  1.00  0.00     0.096 C 
HETATM    6  C11 UNL     1     -27.032  -7.562 -32.068  1.00  0.00     0.166 C 
HETATM    7  C12 UNL     1     -27.685  -6.229 -32.313  1.00  0.00     0.168 C 
HETATM    8  F1  UNL     1     -27.362  -5.530 -31.115  1.00  0.00    -0.236 F 
HETATM    9  C13 UNL     1     -29.140  -6.440 -32.121  1.00  0.00     0.099 C 
HETATM   10  C14 UNL     1     -29.460  -6.686 -30.628  1.00  0.00     0.050 C 
HETATM   11  C15 UNL     1     -29.850  -5.185 -32.438  1.00  0.00     0.042 C 
HETATM   12  C16 UNL     1     -29.586  -4.693 -33.826  1.00  0.00     0.009 C 
HETATM   13  C17 UNL     1     -28.163  -4.641 -34.262  1.00  0.00     0.005 C 
HETATM   14  C18 UNL     1     -27.778  -3.231 -34.655  1.00  0.00    -0.043 C 
HETATM   15  C19 UNL     1     -26.880  -3.161 -35.902  1.00  0.00     0.015 C 
HETATM   16  C20 UNL     1     -29.045  -2.519 -35.179  1.00  0.00     0.015 C 
HETATM   17  C21 UNL     1     -27.288  -2.352 -33.571  1.00  0.00     0.009 C 
HETATM   18  C22 UNL     1     -26.827  -3.155 -32.389  1.00  0.00     0.002 C 
HETATM   19  C23 UNL     1     -26.217  -4.388 -32.874  1.00  0.00     0.013 C 
HETATM   20  C24 UNL     1     -27.188  -5.440 -33.470  1.00  0.00     0.006 C 
HETATM   21  C25 UNL     1     -26.181  -6.209 -34.348  1.00  0.00     0.024 C 
HETATM   22  O3  UNL     1     -29.761  -7.474 -32.715  1.00  0.00    -0.347 OA
ENDROOT
BRANCH   1  23
HETATM   23  C5  UNL     1     -25.590  -7.450 -36.353  1.00  0.00    -0.078 C 
HETATM   24  C6  UNL     1     -25.418  -8.783 -36.945  1.00  0.00     0.044 C 
BRANCH  23  25
HETATM   25  C4  UNL     1     -25.754  -6.266 -37.155  1.00  0.00     0.003 C 
BRANCH  25  26
HETATM   26  C3  UNL     1     -26.315  -5.886 -38.213  1.00  0.00     0.007 C 
HETATM   27  C2  UNL     1     -27.633  -5.560 -38.697  1.00  0.00    -0.063 C 
HETATM   28  C1  UNL     1     -28.859  -5.503 -37.857  1.00  0.00     0.048 C 
BRANCH  27  29
HETATM   29  C26 UNL     1     -27.719  -5.231 -40.002  1.00  0.00     0.021 C 
BRANCH  29  30
HETATM   30  C27 UNL     1     -26.626  -4.914 -40.914  1.00  0.00     0.222 C 
HETATM   31  F2  UNL     1     -26.693  -3.614 -41.368  1.00  0.00    -0.240 F 
BRANCH  30  32
HETATM   32  C28 UNL     1     -26.639  -5.856 -42.039  1.00  0.00    -0.047 C 
HETATM   33  C29 UNL     1     -27.309  -5.269 -43.298  1.00  0.00     0.046 C 
HETATM   34  C30 UNL     1     -26.203  -7.071 -42.158  1.00  0.00     0.005 C 
BRANCH  34  35
HETATM   35  C31 UNL     1     -25.553  -7.944 -41.245  1.00  0.00    -0.004 C 
HETATM   36  C32 UNL     1     -26.016  -8.932 -40.525  1.00  0.00    -0.026 C 
BRANCH  36  37
HETATM   37  C33 UNL     1     -27.284  -9.573 -40.311  1.00  0.00     0.037 C 
BRANCH  37  38
HETATM   38  C34 UNL     1     -28.237  -9.059 -39.305  1.00  0.00     0.117 C 
BRANCH  38  39
HETATM   39  C35 UNL     1     -29.468  -8.529 -40.018  1.00  0.00     0.172 C 
HETATM   40  O4  UNL     1     -29.410  -8.160 -41.216  1.00  0.00    -0.648 OA
HETATM   41  O5  UNL     1     -30.675  -8.448 -39.355  1.00  0.00    -0.648 OA
ENDBRANCH  38  39
ENDBRANCH  37  38
ENDBRANCH  36  37
ENDBRANCH  34  35
ENDBRANCH  30  32
ENDBRANCH  29  30
ENDBRANCH  27  29
ENDBRANCH  25  26
ENDBRANCH  23  25
ENDBRANCH   1  23
BRANCH   6  42
HETATM   42  O2  UNL     1     -26.943  -7.817 -30.657  1.00  0.00    -0.392 OA
ATOM     43  H2  UNL     1     -26.007  -7.868 -30.499  1.00  0.00     0.210 HD
ENDBRANCH   6  42
TORSDOF 11
ENDMDL
MODEL 5
REMARK VINA RESULT: -8.015701110      2.013      3.847
REMARK  11 active torsions:
REMARK  status: ('A' for Active; 'I' for Inactive)
REMARK    1  A    between atoms: C2_2  and  C26_31 
REMARK    2  A    between atoms: C3_3  and  C4_4 
REMARK    3  A    between atoms: C4_4  and  C5_5 
REMARK    4  A    between atoms: C5_5  and  C7_7 
REMARK    5  A    between atoms: C11_12  and  O2_13 
REMARK    6  A    between atoms: C26_31  and  C27_32 
REMARK    7  A    between atoms: C27_32  and  C28_34 
REMARK    8  A    between atoms: C30_36  and  C31_37 
REMARK    9  A    between atoms: C32_38  and  C33_39 
REMARK   10  A    between atoms: C33_39  and  C34_40 
REMARK   11  A    between atoms: C34_40  and  C35_41 
ROOT
HETATM    1  C7  UNL     1     -28.759  -2.770 -35.810  1.00  0.00     0.039 C 
HETATM    2  C8  UNL     1     -27.384  -2.379 -35.543  1.00  0.00     0.180 C 
HETATM    3  O1  UNL     1     -26.550  -3.181 -34.891  1.00  0.00    -0.360 OA
HETATM    4  C9  UNL     1     -26.614  -3.525 -33.639  1.00  0.00     0.263 C 
HETATM    5  C10 UNL     1     -27.910  -3.561 -32.903  1.00  0.00     0.096 C 
HETATM    6  C11 UNL     1     -28.858  -4.631 -33.392  1.00  0.00     0.166 C 
HETATM    7  C12 UNL     1     -28.237  -5.606 -34.355  1.00  0.00     0.168 C 
HETATM    8  F1  UNL     1     -28.858  -6.827 -33.965  1.00  0.00    -0.236 F 
HETATM    9  C13 UNL     1     -26.854  -5.838 -33.873  1.00  0.00     0.099 C 
HETATM   10  C14 UNL     1     -26.867  -6.651 -32.557  1.00  0.00     0.050 C 
HETATM   11  C15 UNL     1     -26.157  -6.720 -34.832  1.00  0.00     0.042 C 
HETATM   12  C16 UNL     1     -26.126  -6.169 -36.223  1.00  0.00     0.009 C 
HETATM   13  C17 UNL     1     -27.414  -5.669 -36.778  1.00  0.00     0.005 C 
HETATM   14  C18 UNL     1     -27.773  -6.416 -38.045  1.00  0.00    -0.043 C 
HETATM   15  C19 UNL     1     -28.367  -5.517 -39.142  1.00  0.00     0.015 C 
HETATM   16  C20 UNL     1     -26.459  -6.861 -38.725  1.00  0.00     0.015 C 
HETATM   17  C21 UNL     1     -28.540  -7.669 -37.880  1.00  0.00     0.009 C 
HETATM   18  C22 UNL     1     -29.215  -7.720 -36.539  1.00  0.00     0.002 C 
HETATM   19  C23 UNL     1     -29.634  -6.370 -36.179  1.00  0.00     0.013 C 
HETATM   20  C24 UNL     1     -28.500  -5.382 -35.800  1.00  0.00     0.006 C 
HETATM   21  C25 UNL     1     -29.240  -4.062 -36.091  1.00  0.00     0.024 C 
HETATM   22  O3  UNL     1     -26.062  -4.800 -33.554  1.00  0.00    -0.347 OA
ENDROOT
BRANCH   1  23
HETATM   23  C5  UNL     1     -29.297  -1.754 -36.854  1.00  0.00    -0.078 C 
HETATM   24  C6  UNL     1     -30.079  -2.327 -37.957  1.00  0.00     0.044 C 
BRANCH  23  25
HETATM   25  C4  UNL     1     -29.631  -0.492 -36.246  1.00  0.00     0.003 C 
BRANCH  25  26
HETATM   26  C3  UNL     1     -29.700   0.729 -36.532  1.00  0.00     0.007 C 
HETATM   27  C2  UNL     1     -30.668   1.797 -36.551  1.00  0.00    -0.063 C 
HETATM   28  C1  UNL     1     -32.064   1.689 -36.047  1.00  0.00     0.048 C 
BRANCH  27  29
HETATM   29  C26 UNL     1     -30.229   2.985 -37.011  1.00  0.00     0.021 C 
BRANCH  29  30
HETATM   30  C27 UNL     1     -30.155   4.248 -36.285  1.00  0.00     0.222 C 
HETATM   31  F2  UNL     1     -30.856   5.251 -36.923  1.00  0.00    -0.240 F 
BRANCH  30  32
HETATM   32  C28 UNL     1     -28.751   4.630 -36.108  1.00  0.00    -0.047 C 
HETATM   33  C29 UNL     1     -27.817   3.955 -37.135  1.00  0.00     0.046 C 
HETATM   34  C30 UNL     1     -28.164   5.411 -35.257  1.00  0.00     0.005 C 
BRANCH  34  35
HETATM   35  C31 UNL     1     -28.663   6.187 -34.175  1.00  0.00    -0.004 C 
HETATM   36  C32 UNL     1     -28.082   6.610 -33.083  1.00  0.00    -0.026 C 
BRANCH  36  37
HETATM   37  C33 UNL     1     -26.781   6.518 -32.481  1.00  0.00     0.037 C 
BRANCH  37  38
HETATM   38  C34 UNL     1     -25.666   7.371 -32.942  1.00  0.00     0.117 C 
BRANCH  38  39
HETATM   39  C35 UNL     1     -24.352   6.715 -32.555  1.00  0.00     0.172 C 
HETATM   40  O4  UNL     1     -24.008   6.620 -31.352  1.00  0.00    -0.648 OA
HETATM   41  O5  UNL     1     -23.515   6.210 -33.528  1.00  0.00    -0.648 OA
ENDBRANCH  38  39
ENDBRANCH  37  38
ENDBRANCH  36  37
ENDBRANCH  34  35
ENDBRANCH  30  32
ENDBRANCH  29  30
ENDBRANCH  27  29
ENDBRANCH  25  26
ENDBRANCH  23  25
ENDBRANCH   1  23
BRANCH   6  42
HETATM   42  O2  UNL     1     -29.251  -5.309 -32.188  1.00  0.00    -0.392 OA
ATOM     43  H2  UNL     1     -30.082  -4.905 -31.966  1.00  0.00     0.210 HD
ENDBRANCH   6  42
TORSDOF 11
ENDMDL
