MODEL 1
REMARK VINA RESULT: -7.799135878      0.000      0.000
REMARK  14 active torsions:
REMARK  status: ('A' for Active; 'I' for Inactive)
REMARK    1  A    between atoms: C2_2  and  C3_3 
REMARK    2  A    between atoms: C3_3  and  C4_4 
REMARK    3  A    between atoms: C3_3  and  C18_22 
REMARK    4  A    between atoms: C4_4  and  C5_5 
REMARK    5  A    between atoms: C6_6  and  C7_7 
REMARK    6  A    between atoms: C8_8  and  C9_9 
REMARK    7  A    between atoms: C12_12  and  O1_13 
REMARK    8  A    between atoms: C14_16  and  O2_17 
REMARK    9  A    between atoms: C18_22  and  C20_24 
REMARK   10  A    between atoms: C20_24  and  C21_25 
REMARK   11  A    between atoms: C21_25  and  C22_26 
REMARK   12  A    between atoms: C22_26  and  C23_27 
REMARK   13  A    between atoms: C26_30  and  O3_32 
REMARK   14  A    between atoms: O3_32  and  C28_33 
ROOT
HETATM    1  C18 UNL     1     -30.176   0.027 -35.951  1.00  0.00     0.022 C 
HETATM    2  C19 UNL     1     -29.813  -0.866 -37.118  1.00  0.00     0.015 C 
ENDROOT
BRANCH   1   3
HETATM    3  C3  UNL     1     -30.326   1.419 -36.475  1.00  0.00    -0.010 C 
BRANCH   3   4
HETATM    4  C2  UNL     1     -31.683   1.949 -36.451  1.00  0.00     0.006 C 
HETATM    5  C1  UNL     1     -32.123   3.101 -36.051  1.00  0.00     0.012 C 
ENDBRANCH   3   4
BRANCH   3   6
HETATM    6  C4  UNL     1     -29.372   2.107 -36.972  1.00  0.00    -0.121 C 
BRANCH   6   7
HETATM    7  C5  UNL     1     -28.345   2.851 -37.511  1.00  0.00     0.056 C 
HETATM    8  C6  UNL     1     -28.200   4.162 -37.383  1.00  0.00     0.008 C 
BRANCH   8   9
HETATM    9  C7  UNL     1     -29.035   5.092 -36.684  1.00  0.00     0.001 C 
HETATM   10  C8  UNL     1     -29.029   5.092 -35.327  1.00  0.00     0.000 C 
BRANCH  10  11
HETATM   11  C9  UNL     1     -29.835   5.991 -34.563  1.00  0.00     0.004 C 
HETATM   12  C10 UNL     1     -29.511   6.711 -33.523  1.00  0.00    -0.067 C 
HETATM   13  C11 UNL     1     -30.522   7.602 -32.865  1.00  0.00     0.067 C 
HETATM   14  C15 UNL     1     -28.160   6.674 -32.953  1.00  0.00     0.002 C 
HETATM   15  C12 UNL     1     -30.616   7.350 -31.375  1.00  0.00     0.124 C 
HETATM   16  C13 UNL     1     -29.234   7.127 -30.787  1.00  0.00     0.065 C 
HETATM   17  C14 UNL     1     -28.150   7.568 -31.706  1.00  0.00     0.132 C 
HETATM   18  C16 UNL     1     -27.850   5.267 -32.496  1.00  0.00     0.022 C 
HETATM   19  C17 UNL     1     -27.079   7.130 -33.915  1.00  0.00     0.022 C 
BRANCH  15  20
HETATM   20  O1  UNL     1     -31.358   6.182 -31.202  1.00  0.00    -0.395 OA
ATOM     21  H1  UNL     1     -31.473   6.060 -30.266  1.00  0.00     0.210 HD
ENDBRANCH  15  20
BRANCH  17  22
HETATM   22  O2  UNL     1     -26.934   7.351 -31.045  1.00  0.00    -0.394 OA
ATOM     23  H2  UNL     1     -26.240   7.576 -31.653  1.00  0.00     0.210 HD
ENDBRANCH  17  22
ENDBRANCH  10  11
ENDBRANCH   8   9
ENDBRANCH   6   7
ENDBRANCH   3   6
ENDBRANCH   1   3
BRANCH   1  24
HETATM   24  C20 UNL     1     -31.264  -0.470 -35.089  1.00  0.00     0.009 C 
BRANCH  24  25
HETATM   25  C21 UNL     1     -30.710  -1.138 -33.820  1.00  0.00     0.002 C 
BRANCH  25  26
HETATM   26  C22 UNL     1     -31.074  -2.581 -33.871  1.00  0.00     0.017 C 
BRANCH  26  27
HETATM   27  C23 UNL     1     -29.876  -3.493 -33.968  1.00  0.00     0.025 C 
HETATM   28  C24 UNL     1     -30.102  -4.330 -35.238  1.00  0.00     0.024 C 
HETATM   29  C25 UNL     1     -28.572  -2.811 -34.079  1.00  0.00     0.060 C 
HETATM   30  C26 UNL     1     -27.381  -3.502 -33.496  1.00  0.00     0.096 C 
HETATM   31  C27 UNL     1     -26.799  -2.709 -32.320  1.00  0.00     0.052 C 
HETATM   32  C30 UNL     1     -27.572  -4.879 -33.016  1.00  0.00    -0.006 A 
HETATM   33  C31 UNL     1     -26.503  -5.755 -32.868  1.00  0.00     0.014 A 
HETATM   34  C35 UNL     1     -28.807  -5.342 -32.668  1.00  0.00     0.061 A 
HETATM   35  C32 UNL     1     -26.717  -7.024 -32.387  1.00  0.00     0.046 A 
HETATM   36  C33 UNL     1     -27.974  -7.487 -32.034  1.00  0.00     0.155 A 
HETATM   37  F1  UNL     1     -28.196  -8.749 -31.555  1.00  0.00    -0.203 F 
HETATM   38  C34 UNL     1     -29.043  -6.633 -32.175  1.00  0.00     0.169 A 
HETATM   39  F2  UNL     1     -30.318  -7.013 -31.844  1.00  0.00    -0.202 F 
HETATM   40  C36 UNL     1     -29.951  -4.451 -32.832  1.00  0.00     0.171 C 
HETATM   41  O5  UNL     1     -30.931  -4.506 -32.052  1.00  0.00    -0.291 OA
BRANCH  30  42
HETATM   42  O3  UNL     1     -26.323  -3.560 -34.472  1.00  0.00    -0.306 OA
BRANCH  42  43
HETATM   43  C28 UNL     1     -26.654  -3.555 -35.830  1.00  0.00     0.255 C 
HETATM   44  C29 UNL     1     -26.807  -4.857 -36.507  1.00  0.00     0.126 C 
HETATM   45  O4  UNL     1     -26.796  -2.427 -36.375  1.00  0.00    -0.266 OA
ENDBRANCH  42  43
ENDBRANCH  30  42
ENDBRANCH  26  27
ENDBRANCH  25  26
ENDBRANCH  24  25
ENDBRANCH   1  24
TORSDOF 14
ENDMDL
MODEL 2
REMARK VINA RESULT: -7.204476421      1.692      2.246
REMARK  14 active torsions:
REMARK  status: ('A' for Active; 'I' for Inactive)
REMARK    1  A    between atoms: C2_2  and  C3_3 
REMARK    2  A    between atoms: C3_3  and  C4_4 
REMARK    3  A    between atoms: C3_3  and  C18_22 
REMARK    4  A    between atoms: C4_4  and  C5_5 
REMARK    5  A    between atoms: C6_6  and  C7_7 
REMARK    6  A    between atoms: C8_8  and  C9_9 
REMARK    7  A    between atoms: C12_12  and  O1_13 
REMARK    8  A    between atoms: C14_16  and  O2_17 
REMARK    9  A    between atoms: C18_22  and  C20_24 
REMARK   10  A    between atoms: C20_24  and  C21_25 
REMARK   11  A    between atoms: C21_25  and  C22_26 
REMARK   12  A    between atoms: C22_26  and  C23_27 
REMARK   13  A    between atoms: C26_30  and  O3_32 
REMARK   14  A    between atoms: O3_32  and  C28_33 
ROOT
HETATM    1  C18 UNL     1     -30.035   0.306 -36.364  1.00  0.00     0.022 C 
HETATM    2  C19 UNL     1     -30.336  -0.465 -37.631  1.00  0.00     0.015 C 
ENDROOT
BRANCH   1   3
HETATM    3  C3  UNL     1     -30.108   1.763 -36.690  1.00  0.00    -0.010 C 
BRANCH   3   4
HETATM    4  C2  UNL     1     -31.439   2.351 -36.609  1.00  0.00     0.006 C 
HETATM    5  C1  UNL     1     -31.893   3.462 -37.100  1.00  0.00     0.012 C 
ENDBRANCH   3   4
BRANCH   3   6
HETATM    6  C4  UNL     1     -29.113   2.465 -37.074  1.00  0.00    -0.121 C 
BRANCH   6   7
HETATM    7  C5  UNL     1     -28.042   3.225 -37.491  1.00  0.00     0.056 C 
HETATM    8  C6  UNL     1     -27.890   4.522 -37.268  1.00  0.00     0.008 C 
BRANCH   8   9
HETATM    9  C7  UNL     1     -28.761   5.419 -36.570  1.00  0.00     0.001 C 
HETATM   10  C8  UNL     1     -28.920   5.274 -35.230  1.00  0.00     0.000 C 
BRANCH  10  11
HETATM   11  C9  UNL     1     -29.771   6.132 -34.469  1.00  0.00     0.004 C 
HETATM   12  C10 UNL     1     -29.499   6.824 -33.394  1.00  0.00    -0.067 C 
HETATM   13  C11 UNL     1     -30.551   7.673 -32.746  1.00  0.00     0.067 C 
HETATM   14  C15 UNL     1     -28.169   6.794 -32.776  1.00  0.00     0.002 C 
HETATM   15  C12 UNL     1     -30.693   7.371 -31.269  1.00  0.00     0.124 C 
HETATM   16  C13 UNL     1     -29.330   7.156 -30.639  1.00  0.00     0.065 C 
HETATM   17  C14 UNL     1     -28.222   7.647 -31.502  1.00  0.00     0.132 C 
HETATM   18  C16 UNL     1     -27.847   5.379 -32.354  1.00  0.00     0.022 C 
HETATM   19  C17 UNL     1     -27.064   7.302 -33.683  1.00  0.00     0.022 C 
BRANCH  15  20
HETATM   20  O1  UNL     1     -31.417   6.184 -31.160  1.00  0.00    -0.395 OA
ATOM     21  H1  UNL     1     -32.082   6.199 -31.839  1.00  0.00     0.210 HD
ENDBRANCH  15  20
BRANCH  17  22
HETATM   22  O2  UNL     1     -27.027   7.432 -30.804  1.00  0.00    -0.394 OA
ATOM     23  H2  UNL     1     -26.450   6.943 -31.380  1.00  0.00     0.210 HD
ENDBRANCH  17  22
ENDBRANCH  10  11
ENDBRANCH   8   9
ENDBRANCH   6   7
ENDBRANCH   3   6
ENDBRANCH   1   3
BRANCH   1  24
HETATM   24  C20 UNL     1     -30.772  -0.136 -35.164  1.00  0.00     0.009 C 
BRANCH  24  25
HETATM   25  C21 UNL     1     -30.853  -1.669 -35.092  1.00  0.00     0.002 C 
BRANCH  25  26
HETATM   26  C22 UNL     1     -29.680  -2.149 -34.310  1.00  0.00     0.017 C 
BRANCH  26  27
HETATM   27  C23 UNL     1     -29.146  -3.474 -34.793  1.00  0.00     0.025 C 
HETATM   28  C24 UNL     1     -30.246  -4.500 -34.473  1.00  0.00     0.024 C 
HETATM   29  C25 UNL     1     -28.842  -3.544 -36.236  1.00  0.00     0.060 C 
HETATM   30  C26 UNL     1     -27.733  -4.449 -36.664  1.00  0.00     0.096 C 
HETATM   31  C27 UNL     1     -26.569  -3.654 -37.268  1.00  0.00     0.052 C 
HETATM   32  C30 UNL     1     -27.149  -5.328 -35.639  1.00  0.00    -0.006 A 
HETATM   33  C31 UNL     1     -26.450  -6.481 -35.977  1.00  0.00     0.014 A 
HETATM   34  C35 UNL     1     -27.246  -5.027 -34.312  1.00  0.00     0.061 A 
HETATM   35  C32 UNL     1     -25.893  -7.259 -34.992  1.00  0.00     0.046 A 
HETATM   36  C33 UNL     1     -25.994  -6.947 -33.646  1.00  0.00     0.155 A 
HETATM   37  F1  UNL     1     -25.443  -7.718 -32.659  1.00  0.00    -0.203 F 
HETATM   38  C34 UNL     1     -26.683  -5.810 -33.294  1.00  0.00     0.169 A 
HETATM   39  F2  UNL     1     -26.825  -5.430 -31.985  1.00  0.00    -0.202 F 
HETATM   40  C36 UNL     1     -27.992  -3.834 -33.926  1.00  0.00     0.171 C 
HETATM   41  O5  UNL     1     -27.664  -3.165 -32.917  1.00  0.00    -0.291 OA
BRANCH  30  42
HETATM   42  O3  UNL     1     -28.187  -5.314 -37.722  1.00  0.00    -0.306 OA
BRANCH  42  43
HETATM   43  C28 UNL     1     -29.485  -5.154 -38.217  1.00  0.00     0.255 C 
HETATM   44  C29 UNL     1     -29.725  -4.066 -39.184  1.00  0.00     0.126 C 
HETATM   45  O4  UNL     1     -30.357  -5.960 -37.792  1.00  0.00    -0.266 OA
ENDBRANCH  42  43
ENDBRANCH  30  42
ENDBRANCH  26  27
ENDBRANCH  25  26
ENDBRANCH  24  25
ENDBRANCH   1  24
TORSDOF 14
ENDMDL
MODEL 3
REMARK VINA RESULT: -6.849629000      6.429     10.068
REMARK  14 active torsions:
REMARK  status: ('A' for Active; 'I' for Inactive)
REMARK    1  A    between atoms: C2_2  and  C3_3 
REMARK    2  A    between atoms: C3_3  and  C4_4 
REMARK    3  A    between atoms: C3_3  and  C18_22 
REMARK    4  A    between atoms: C4_4  and  C5_5 
REMARK    5  A    between atoms: C6_6  and  C7_7 
REMARK    6  A    between atoms: C8_8  and  C9_9 
REMARK    7  A    between atoms: C12_12  and  O1_13 
REMARK    8  A    between atoms: C14_16  and  O2_17 
REMARK    9  A    between atoms: C18_22  and  C20_24 
REMARK   10  A    between atoms: C20_24  and  C21_25 
REMARK   11  A    between atoms: C21_25  and  C22_26 
REMARK   12  A    between atoms: C22_26  and  C23_27 
REMARK   13  A    between atoms: C26_30  and  O3_32 
REMARK   14  A    between atoms: O3_32  and  C28_33 
ROOT
HETATM    1  C18 UNL     1     -27.816  -3.551 -33.142  1.00  0.00     0.022 C 
HETATM    2  C19 UNL     1     -26.760  -2.859 -32.307  1.00  0.00     0.015 C 
ENDROOT
BRANCH   1   3
HETATM    3  C3  UNL     1     -28.214  -4.802 -32.427  1.00  0.00    -0.010 C 
BRANCH   3   4
HETATM    4  C2  UNL     1     -27.170  -5.411 -31.613  1.00  0.00     0.006 C 
HETATM    5  C1  UNL     1     -27.190  -6.496 -30.904  1.00  0.00     0.012 C 
ENDBRANCH   3   4
BRANCH   3   6
HETATM    6  C4  UNL     1     -29.356  -5.362 -32.539  1.00  0.00    -0.121 C 
BRANCH   6   7
HETATM    7  C5  UNL     1     -30.590  -5.964 -32.662  1.00  0.00     0.056 C 
HETATM    8  C6  UNL     1     -31.576  -5.872 -31.783  1.00  0.00     0.008 C 
BRANCH   8   9
HETATM    9  C7  UNL     1     -31.608  -5.158 -30.542  1.00  0.00     0.001 C 
HETATM   10  C8  UNL     1     -31.297  -5.815 -29.396  1.00  0.00     0.000 C 
BRANCH  10  11
HETATM   11  C9  UNL     1     -31.307  -5.168 -28.123  1.00  0.00     0.004 C 
HETATM   12  C10 UNL     1     -31.747  -5.610 -26.974  1.00  0.00    -0.067 C 
HETATM   13  C11 UNL     1     -31.659  -4.758 -25.743  1.00  0.00     0.067 C 
HETATM   14  C15 UNL     1     -32.347  -6.941 -26.841  1.00  0.00     0.002 C 
HETATM   15  C12 UNL     1     -32.994  -4.635 -25.041  1.00  0.00     0.124 C 
HETATM   16  C13 UNL     1     -33.722  -5.967 -25.050  1.00  0.00     0.065 C 
HETATM   17  C14 UNL     1     -32.822  -7.102 -25.392  1.00  0.00     0.132 C 
HETATM   18  C16 UNL     1     -33.572  -7.026 -27.724  1.00  0.00     0.022 C 
HETATM   19  C17 UNL     1     -31.404  -8.075 -27.197  1.00  0.00     0.022 C 
BRANCH  15  20
HETATM   20  O1  UNL     1     -33.756  -3.717 -25.765  1.00  0.00    -0.395 OA
ATOM     21  H1  UNL     1     -34.091  -3.081 -25.144  1.00  0.00     0.210 HD
ENDBRANCH  15  20
BRANCH  17  22
HETATM   22  O2  UNL     1     -33.590  -8.272 -25.329  1.00  0.00    -0.394 OA
ATOM     23  H2  UNL     1     -32.986  -9.005 -25.352  1.00  0.00     0.210 HD
ENDBRANCH  17  22
ENDBRANCH  10  11
ENDBRANCH   8   9
ENDBRANCH   6   7
ENDBRANCH   3   6
ENDBRANCH   1   3
BRANCH   1  24
HETATM   24  C20 UNL     1     -28.915  -2.687 -33.615  1.00  0.00     0.009 C 
BRANCH  24  25
HETATM   25  C21 UNL     1     -28.691  -2.244 -35.070  1.00  0.00     0.002 C 
BRANCH  25  26
HETATM   26  C22 UNL     1     -29.185  -3.334 -35.956  1.00  0.00     0.017 C 
BRANCH  26  27
HETATM   27  C23 UNL     1     -28.087  -4.004 -36.743  1.00  0.00     0.025 C 
HETATM   28  C24 UNL     1     -26.901  -3.025 -36.705  1.00  0.00     0.024 C 
HETATM   29  C25 UNL     1     -27.638  -5.308 -36.216  1.00  0.00     0.060 C 
HETATM   30  C26 UNL     1     -27.138  -6.314 -37.201  1.00  0.00     0.096 C 
HETATM   31  C27 UNL     1     -28.051  -7.545 -37.249  1.00  0.00     0.052 C 
HETATM   32  C30 UNL     1     -26.968  -5.867 -38.592  1.00  0.00    -0.006 A 
HETATM   33  C31 UNL     1     -26.132  -6.536 -39.477  1.00  0.00     0.014 A 
HETATM   34  C35 UNL     1     -27.653  -4.791 -39.076  1.00  0.00     0.061 A 
HETATM   35  C32 UNL     1     -26.023  -6.105 -40.777  1.00  0.00     0.046 A 
HETATM   36  C33 UNL     1     -26.723  -5.013 -41.263  1.00  0.00     0.155 A 
HETATM   37  F1  UNL     1     -26.620  -4.577 -42.556  1.00  0.00    -0.203 F 
HETATM   38  C34 UNL     1     -27.555  -4.339 -40.401  1.00  0.00     0.169 A 
HETATM   39  F2  UNL     1     -28.285  -3.251 -40.804  1.00  0.00    -0.202 F 
HETATM   40  C36 UNL     1     -28.523  -4.057 -38.164  1.00  0.00     0.171 C 
HETATM   41  O5  UNL     1     -29.574  -3.508 -38.574  1.00  0.00    -0.291 OA
BRANCH  30  42
HETATM   42  O3  UNL     1     -25.854  -6.814 -36.781  1.00  0.00    -0.306 OA
BRANCH  42  43
HETATM   43  C28 UNL     1     -25.804  -7.820 -35.811  1.00  0.00     0.255 C 
HETATM   44  C29 UNL     1     -25.798  -7.411 -34.393  1.00  0.00     0.126 C 
HETATM   45  O4  UNL     1     -25.766  -9.009 -36.230  1.00  0.00    -0.266 OA
ENDBRANCH  42  43
ENDBRANCH  30  42
ENDBRANCH  26  27
ENDBRANCH  25  26
ENDBRANCH  24  25
ENDBRANCH   1  24
TORSDOF 14
ENDMDL
MODEL 4
REMARK VINA RESULT: -6.793935554      4.717      8.605
REMARK  14 active torsions:
REMARK  status: ('A' for Active; 'I' for Inactive)
REMARK    1  A    between atoms: C2_2  and  C3_3 
REMARK    2  A    between atoms: C3_3  and  C4_4 
REMARK    3  A    between atoms: C3_3  and  C18_22 
REMARK    4  A    between atoms: C4_4  and  C5_5 
REMARK    5  A    between atoms: C6_6  and  C7_7 
REMARK    6  A    between atoms: C8_8  and  C9_9 
REMARK    7  A    between atoms: C12_12  and  O1_13 
REMARK    8  A    between atoms: C14_16  and  O2_17 
REMARK    9  A    between atoms: C18_22  and  C20_24 
REMARK   10  A    between atoms: C20_24  and  C21_25 
REMARK   11  A    between atoms: C21_25  and  C22_26 
REMARK   12  A    between atoms: C22_26  and  C23_27 
REMARK   13  A    between atoms: C26_30  and  O3_32 
REMARK   14  A    between atoms: O3_32  and  C28_33 
ROOT
HETATM    1  C18 UNL     1     -29.776  -0.301 -35.904  1.00  0.00     0.022 C 
HETATM    2  C19 UNL     1     -29.978   0.859 -36.855  1.00  0.00     0.015 C 
ENDROOT
BRANCH   1   3
HETATM    3  C3  UNL     1     -31.119  -0.889 -35.611  1.00  0.00    -0.010 C 
BRANCH   3   4
HETATM    4  C2  UNL     1     -31.614  -0.663 -34.260  1.00  0.00     0.006 C 
HETATM    5  C1  UNL     1     -31.280  -1.230 -33.142  1.00  0.00     0.012 C 
ENDBRANCH   3   4
BRANCH   3   6
HETATM    6  C4  UNL     1     -31.791  -1.594 -36.437  1.00  0.00    -0.121 C 
BRANCH   6   7
HETATM    7  C5  UNL     1     -32.517  -2.357 -37.325  1.00  0.00     0.056 C 
HETATM    8  C6  UNL     1     -32.043  -3.380 -38.020  1.00  0.00     0.008 C 
BRANCH   8   9
HETATM    9  C7  UNL     1     -30.719  -3.925 -38.024  1.00  0.00     0.001 C 
HETATM   10  C8  UNL     1     -29.820  -3.465 -38.931  1.00  0.00     0.000 C 
BRANCH  10  11
HETATM   11  C9  UNL     1     -28.482  -3.961 -38.994  1.00  0.00     0.004 C 
HETATM   12  C10 UNL     1     -27.813  -4.407 -40.024  1.00  0.00    -0.067 C 
HETATM   13  C11 UNL     1     -26.399  -4.884 -39.868  1.00  0.00     0.067 C 
HETATM   14  C15 UNL     1     -28.411  -4.468 -41.361  1.00  0.00     0.002 C 
HETATM   15  C12 UNL     1     -26.203  -6.272 -40.440  1.00  0.00     0.124 C 
HETATM   16  C13 UNL     1     -26.966  -6.422 -41.743  1.00  0.00     0.065 C 
HETATM   17  C14 UNL     1     -27.387  -5.110 -42.307  1.00  0.00     0.132 C 
HETATM   18  C16 UNL     1     -29.618  -5.378 -41.326  1.00  0.00     0.022 C 
HETATM   19  C17 UNL     1     -28.828  -3.115 -41.905  1.00  0.00     0.022 C 
BRANCH  15  20
HETATM   20  O1  UNL     1     -26.734  -7.175 -39.517  1.00  0.00    -0.395 OA
ATOM     21  H1  UNL     1     -27.308  -7.760 -39.998  1.00  0.00     0.210 HD
ENDBRANCH  15  20
BRANCH  17  22
HETATM   22  O2  UNL     1     -28.041  -5.371 -43.518  1.00  0.00    -0.394 OA
ATOM     23  H2  UNL     1     -28.550  -4.599 -43.733  1.00  0.00     0.210 HD
ENDBRANCH  17  22
ENDBRANCH  10  11
ENDBRANCH   8   9
ENDBRANCH   6   7
ENDBRANCH   3   6
ENDBRANCH   1   3
BRANCH   1  24
HETATM   24  C20 UNL     1     -28.713  -1.252 -36.284  1.00  0.00     0.009 C 
BRANCH  24  25
HETATM   25  C21 UNL     1     -28.362  -2.191 -35.119  1.00  0.00     0.002 C 
BRANCH  25  26
HETATM   26  C22 UNL     1     -27.274  -3.098 -35.579  1.00  0.00     0.017 C 
BRANCH  26  27
HETATM   27  C23 UNL     1     -27.504  -4.541 -35.204  1.00  0.00     0.025 C 
HETATM   28  C24 UNL     1     -29.001  -4.641 -34.863  1.00  0.00     0.024 C 
HETATM   29  C25 UNL     1     -27.196  -5.524 -36.261  1.00  0.00     0.060 C 
HETATM   30  C26 UNL     1     -26.720  -6.874 -35.828  1.00  0.00     0.096 C 
HETATM   31  C27 UNL     1     -25.276  -7.124 -36.280  1.00  0.00     0.052 C 
HETATM   32  C30 UNL     1     -26.764  -7.172 -34.389  1.00  0.00    -0.006 A 
HETATM   33  C31 UNL     1     -26.771  -8.479 -33.914  1.00  0.00     0.014 A 
HETATM   34  C35 UNL     1     -26.768  -6.174 -33.460  1.00  0.00     0.061 A 
HETATM   35  C32 UNL     1     -26.782  -8.717 -32.561  1.00  0.00     0.046 A 
HETATM   36  C33 UNL     1     -26.784  -7.698 -31.623  1.00  0.00     0.155 A 
HETATM   37  F1  UNL     1     -26.795  -7.927 -30.274  1.00  0.00    -0.203 F 
HETATM   38  C34 UNL     1     -26.777  -6.399 -32.075  1.00  0.00     0.169 A 
HETATM   39  F2  UNL     1     -26.775  -5.334 -31.212  1.00  0.00    -0.202 F 
HETATM   40  C36 UNL     1     -26.781  -4.792 -33.929  1.00  0.00     0.171 C 
HETATM   41  O5  UNL     1     -26.209  -3.883 -33.280  1.00  0.00    -0.291 OA
BRANCH  30  42
HETATM   42  O3  UNL     1     -27.500  -7.898 -36.475  1.00  0.00    -0.306 OA
BRANCH  42  43
HETATM   43  C28 UNL     1     -28.831  -7.627 -36.807  1.00  0.00     0.255 C 
HETATM   44  C29 UNL     1     -29.870  -7.960 -35.814  1.00  0.00     0.126 C 
HETATM   45  O4  UNL     1     -29.039  -7.115 -37.940  1.00  0.00    -0.266 OA
ENDBRANCH  42  43
ENDBRANCH  30  42
ENDBRANCH  26  27
ENDBRANCH  25  26
ENDBRANCH  24  25
ENDBRANCH   1  24
TORSDOF 14
ENDMDL
MODEL 5
REMARK VINA RESULT: -6.671934200      4.844      9.726
REMARK  14 active torsions:
REMARK  status: ('A' for Active; 'I' for Inactive)
REMARK    1  A    between atoms: C2_2  and  C3_3 
REMARK    2  A    between atoms: C3_3  and  C4_4 
REMARK    3  A    between atoms: C3_3  and  C18_22 
REMARK    4  A    between atoms: C4_4  and  C5_5 
REMARK    5  A    between atoms: C6_6  and  C7_7 
REMARK    6  A    between atoms: C8_8  and  C9_9 
REMARK    7  A    between atoms: C12_12  and  O1_13 
REMARK    8  A    between atoms: C14_16  and  O2_17 
REMARK    9  A    between atoms: C18_22  and  C20_24 
REMARK   10  A    between atoms: C20_24  and  C21_25 
REMARK   11  A    between atoms: C21_25  and  C22_26 
REMARK   12  A    between atoms: C22_26  and  C23_27 
REMARK   13  A    between atoms: C26_30  and  O3_32 
REMARK   14  A    between atoms: O3_32  and  C28_33 
ROOT
HETATM    1  C18 UNL     1     -29.284  -6.027 -31.914  1.00  0.00     0.022 C 
HETATM    2  C19 UNL     1     -29.582  -6.911 -30.722  1.00  0.00     0.015 C 
ENDROOT
BRANCH   1   3
HETATM    3  C3  UNL     1     -27.798  -5.938 -32.053  1.00  0.00    -0.010 C 
BRANCH   3   4
HETATM    4  C2  UNL     1     -27.092  -7.211 -31.999  1.00  0.00     0.006 C 
HETATM    5  C1  UNL     1     -26.030  -7.605 -32.630  1.00  0.00     0.012 C 
ENDBRANCH   3   4
BRANCH   3   6
HETATM    6  C4  UNL     1     -27.150  -4.843 -32.154  1.00  0.00    -0.121 C 
BRANCH   6   7
HETATM    7  C5  UNL     1     -26.450  -3.660 -32.259  1.00  0.00     0.056 C 
HETATM    8  C6  UNL     1     -26.482  -2.842 -33.300  1.00  0.00     0.008 C 
BRANCH   8   9
HETATM    9  C7  UNL     1     -27.219  -2.973 -34.521  1.00  0.00     0.001 C 
HETATM   10  C8  UNL     1     -26.562  -3.342 -35.650  1.00  0.00     0.000 C 
BRANCH  10  11
HETATM   11  C9  UNL     1     -27.231  -3.493 -36.903  1.00  0.00     0.004 C 
HETATM   12  C10 UNL     1     -27.441  -4.576 -37.603  1.00  0.00    -0.067 C 
HETATM   13  C11 UNL     1     -28.177  -4.512 -38.908  1.00  0.00     0.067 C 
HETATM   14  C15 UNL     1     -26.963  -5.888 -37.152  1.00  0.00     0.002 C 
HETATM   15  C12 UNL     1     -27.403  -5.174 -40.028  1.00  0.00     0.124 C 
HETATM   16  C13 UNL     1     -26.744  -6.449 -39.537  1.00  0.00     0.065 C 
HETATM   17  C14 UNL     1     -27.306  -6.914 -38.239  1.00  0.00     0.132 C 
HETATM   18  C16 UNL     1     -25.456  -5.854 -37.029  1.00  0.00     0.022 C 
HETATM   19  C17 UNL     1     -27.555  -6.331 -35.828  1.00  0.00     0.022 C 
BRANCH  15  20
HETATM   20  O1  UNL     1     -26.400  -4.285 -40.416  1.00  0.00    -0.395 OA
ATOM     21  H1  UNL     1     -25.635  -4.480 -39.888  1.00  0.00     0.210 HD
ENDBRANCH  15  20
BRANCH  17  22
HETATM   22  O2  UNL     1     -26.653  -8.108 -37.910  1.00  0.00    -0.394 OA
ATOM     23  H2  UNL     1     -27.154  -8.818 -38.296  1.00  0.00     0.210 HD
ENDBRANCH  17  22
ENDBRANCH  10  11
ENDBRANCH   8   9
ENDBRANCH   6   7
ENDBRANCH   3   6
ENDBRANCH   1   3
BRANCH   1  24
HETATM   24  C20 UNL     1     -30.040  -6.344 -33.140  1.00  0.00     0.009 C 
BRANCH  24  25
HETATM   25  C21 UNL     1     -30.491  -5.064 -33.864  1.00  0.00     0.002 C 
BRANCH  25  26
HETATM   26  C22 UNL     1     -31.040  -4.134 -32.839  1.00  0.00     0.017 C 
BRANCH  26  27
HETATM   27  C23 UNL     1     -31.268  -2.739 -33.364  1.00  0.00     0.025 C 
HETATM   28  C24 UNL     1     -29.956  -1.981 -33.095  1.00  0.00     0.024 C 
HETATM   29  C25 UNL     1     -31.575  -2.650 -34.806  1.00  0.00     0.060 C 
HETATM   30  C26 UNL     1     -32.457  -1.529 -35.255  1.00  0.00     0.096 C 
HETATM   31  C27 UNL     1     -33.783  -2.058 -35.816  1.00  0.00     0.052 C 
HETATM   32  C30 UNL     1     -32.806  -0.507 -34.256  1.00  0.00    -0.006 A 
HETATM   33  C31 UNL     1     -33.230   0.763 -34.629  1.00  0.00     0.014 A 
HETATM   34  C35 UNL     1     -32.754  -0.777 -32.920  1.00  0.00     0.061 A 
HETATM   35  C32 UNL     1     -33.576   1.680 -33.667  1.00  0.00     0.046 A 
HETATM   36  C33 UNL     1     -33.523   1.399 -32.312  1.00  0.00     0.155 A 
HETATM   37  F1  UNL     1     -33.866   2.307 -31.348  1.00  0.00    -0.203 F 
HETATM   38  C34 UNL     1     -33.105   0.147 -31.926  1.00  0.00     0.169 A 
HETATM   39  F2  UNL     1     -33.028  -0.212 -30.605  1.00  0.00    -0.202 F 
HETATM   40  C36 UNL     1     -32.292  -2.096 -32.499  1.00  0.00     0.171 C 
HETATM   41  O5  UNL     1     -32.745  -2.638 -31.462  1.00  0.00    -0.291 OA
BRANCH  30  42
HETATM   42  O3  UNL     1     -31.838  -0.827 -36.349  1.00  0.00    -0.306 OA
BRANCH  42  43
HETATM   43  C28 UNL     1     -30.572  -1.233 -36.784  1.00  0.00     0.255 C 
HETATM   44  C29 UNL     1     -29.401  -0.479 -36.295  1.00  0.00     0.126 C 
HETATM   45  O4  UNL     1     -30.531  -2.220 -37.566  1.00  0.00    -0.266 OA
ENDBRANCH  42  43
ENDBRANCH  30  42
ENDBRANCH  26  27
ENDBRANCH  25  26
ENDBRANCH  24  25
ENDBRANCH   1  24
TORSDOF 14
ENDMDL
