MODEL 1
REMARK VINA RESULT: -7.477170551      0.000      0.000
REMARK  11 active torsions:
REMARK  status: ('A' for Active; 'I' for Inactive)
REMARK    1  A    between atoms: C2_2  and  C3_3 
REMARK    2  A    between atoms: C2_2  and  C29_36 
REMARK    3  A    between atoms: C3_3  and  C4_4 
REMARK    4  A    between atoms: C4_4  and  C5_6 
REMARK    5  A    between atoms: C10_11  and  C11_12 
REMARK    6  A    between atoms: C11_12  and  C12_13 
REMARK    7  A    between atoms: C12_13  and  C13_14 
REMARK    8  A    between atoms: C15_18  and  C17_20 
REMARK    9  A    between atoms: C17_20  and  O4_21 
REMARK   10  A    between atoms: C19_24  and  O5_25 
REMARK   11  A    between atoms: C20_27  and  C21_28 
ROOT
HETATM    1  C12 UNL     1     -29.030  -2.240 -34.428  1.00  0.00     0.034 C 
ENDROOT
BRANCH   1   2
HETATM    2  C11 UNL     1     -30.029  -1.815 -35.451  1.00  0.00     0.007 C 
BRANCH   2   3
HETATM    3  C10 UNL     1     -30.270  -0.353 -35.635  1.00  0.00    -0.010 C 
HETATM    4  C8  UNL     1     -31.772  -0.105 -35.869  1.00  0.00    -0.014 C 
HETATM    5  C7  UNL     1     -32.165  -0.429 -37.270  1.00  0.00     0.005 C 
HETATM    6  C9  UNL     1     -32.012   1.361 -35.593  1.00  0.00     0.010 C 
HETATM    7  C6  UNL     1     -31.470   0.630 -38.136  1.00  0.00     0.012 C 
HETATM    8  C5  UNL     1     -29.995   0.509 -38.013  1.00  0.00     0.056 C 
HETATM    9  C28 UNL     1     -29.437   0.331 -36.648  1.00  0.00     0.017 C 
BRANCH   8  10
HETATM   10  C4  UNL     1     -29.407   1.766 -38.584  1.00  0.00     0.131 C 
HETATM   11  O1  UNL     1     -29.330   1.945 -39.786  1.00  0.00    -0.298 OA
BRANCH  10  12
HETATM   12  C3  UNL     1     -28.890   2.849 -37.697  1.00  0.00     0.087 C 
BRANCH  12  13
HETATM   13  C2  UNL     1     -29.976   3.811 -37.303  1.00  0.00     0.021 C 
HETATM   14  C1  UNL     1     -30.300   4.784 -38.423  1.00  0.00     0.015 C 
BRANCH  13  15
HETATM   15  C29 UNL     1     -29.476   4.640 -36.160  1.00  0.00    -0.052 A 
HETATM   16  C30 UNL     1     -28.183   4.553 -35.731  1.00  0.00     0.011 A 
HETATM   17  C31 UNL     1     -27.694   5.305 -34.678  1.00  0.00     0.044 A 
HETATM   18  C32 UNL     1     -28.533   6.182 -34.027  1.00  0.00     0.138 A 
HETATM   19  F1  UNL     1     -28.093   6.934 -32.994  1.00  0.00    -0.204 F 
HETATM   20  C33 UNL     1     -29.839   6.271 -34.460  1.00  0.00     0.073 A 
HETATM   21 CL1  UNL     1     -30.906   7.391 -33.626  1.00  0.00    -0.081 Cl
HETATM   22  C34 UNL     1     -30.323   5.522 -35.506  1.00  0.00     0.034 A 
ENDBRANCH  13  15
ENDBRANCH  12  13
ENDBRANCH  10  12
ENDBRANCH   8  10
ENDBRANCH   2   3
ENDBRANCH   1   2
BRANCH   1  23
HETATM   23  C13 UNL     1     -27.831  -2.978 -34.926  1.00  0.00     0.140 C 
HETATM   24  O2  UNL     1     -28.119  -3.509 -36.181  1.00  0.00    -0.315 OA
HETATM   25  C14 UNL     1     -27.335  -4.427 -36.761  1.00  0.00     0.270 C 
HETATM   26  O3  UNL     1     -26.957  -4.362 -37.947  1.00  0.00    -0.264 OA
HETATM   27  C15 UNL     1     -26.918  -5.563 -35.926  1.00  0.00     0.072 C 
HETATM   28  C16 UNL     1     -27.972  -6.605 -36.221  1.00  0.00     0.029 C 
HETATM   29  C18 UNL     1     -26.669  -5.208 -34.523  1.00  0.00     0.045 C 
HETATM   30  C19 UNL     1     -26.790  -6.342 -33.512  1.00  0.00     0.128 C 
HETATM   31  C26 UNL     1     -27.186  -3.914 -33.971  1.00  0.00    -0.010 C 
HETATM   32  C20 UNL     1     -28.165  -6.608 -33.025  1.00  0.00     0.018 C 
HETATM   33  C24 UNL     1     -28.971  -5.334 -32.943  1.00  0.00     0.008 C 
HETATM   34  C25 UNL     1     -28.004  -4.226 -32.734  1.00  0.00     0.012 C 
HETATM   35  C27 UNL     1     -26.025  -3.105 -33.318  1.00  0.00     0.018 C 
BRANCH  27  36
HETATM   36  C17 UNL     1     -25.650  -6.112 -36.629  1.00  0.00     0.184 C 
BRANCH  36  37
HETATM   37  O4  UNL     1     -25.785  -7.477 -36.881  1.00  0.00    -0.400 OA
ATOM     38  H4  UNL     1     -24.957  -7.845 -37.166  1.00  0.00     0.209 HD
ENDBRANCH  36  37
ENDBRANCH  27  36
BRANCH  30  39
HETATM   39  O5  UNL     1     -26.260  -7.520 -34.017  1.00  0.00    -0.395 OA
ATOM     40  H5  UNL     1     -26.911  -8.211 -34.026  1.00  0.00     0.210 HD
ENDBRANCH  30  39
BRANCH  32  41
HETATM   41  C21 UNL     1     -28.191  -7.417 -31.771  1.00  0.00    -0.016 C 
HETATM   42  C22 UNL     1     -29.522  -7.259 -31.020  1.00  0.00     0.010 C 
HETATM   43  C23 UNL     1     -27.113  -7.149 -30.778  1.00  0.00     0.010 C 
ENDBRANCH  32  41
ENDBRANCH   1  23
TORSDOF 11
ENDMDL
MODEL 2
REMARK VINA RESULT: -7.340821833      1.113      1.513
REMARK  11 active torsions:
REMARK  status: ('A' for Active; 'I' for Inactive)
REMARK    1  A    between atoms: C2_2  and  C3_3 
REMARK    2  A    between atoms: C2_2  and  C29_36 
REMARK    3  A    between atoms: C3_3  and  C4_4 
REMARK    4  A    between atoms: C4_4  and  C5_6 
REMARK    5  A    between atoms: C10_11  and  C11_12 
REMARK    6  A    between atoms: C11_12  and  C12_13 
REMARK    7  A    between atoms: C12_13  and  C13_14 
REMARK    8  A    between atoms: C15_18  and  C17_20 
REMARK    9  A    between atoms: C17_20  and  O4_21 
REMARK   10  A    between atoms: C19_24  and  O5_25 
REMARK   11  A    between atoms: C20_27  and  C21_28 
ROOT
HETATM    1  C12 UNL     1     -29.168  -2.417 -33.928  1.00  0.00     0.034 C 
ENDROOT
BRANCH   1   2
HETATM    2  C11 UNL     1     -30.517  -2.700 -34.499  1.00  0.00     0.007 C 
BRANCH   2   3
HETATM    3  C10 UNL     1     -31.235  -1.590 -35.194  1.00  0.00    -0.010 C 
HETATM    4  C8  UNL     1     -32.106  -2.170 -36.323  1.00  0.00    -0.014 C 
HETATM    5  C7  UNL     1     -31.288  -2.502 -37.525  1.00  0.00     0.005 C 
HETATM    6  C9  UNL     1     -33.121  -1.107 -36.671  1.00  0.00     0.010 C 
HETATM    7  C6  UNL     1     -30.813  -1.149 -38.073  1.00  0.00     0.012 C 
HETATM    8  C5  UNL     1     -29.947  -0.467 -37.078  1.00  0.00     0.056 C 
HETATM    9  C28 UNL     1     -30.405  -0.461 -35.666  1.00  0.00     0.017 C 
BRANCH   8  10
HETATM   10  C4  UNL     1     -29.820   0.963 -37.521  1.00  0.00     0.131 C 
HETATM   11  O1  UNL     1     -30.047   1.297 -38.670  1.00  0.00    -0.298 OA
BRANCH  10  12
HETATM   12  C3  UNL     1     -29.410   2.033 -36.565  1.00  0.00     0.087 C 
BRANCH  12  13
HETATM   13  C2  UNL     1     -29.236   3.357 -37.254  1.00  0.00     0.021 C 
HETATM   14  C1  UNL     1     -27.801   3.576 -37.700  1.00  0.00     0.015 C 
BRANCH  13  15
HETATM   15  C29 UNL     1     -29.538   4.442 -36.267  1.00  0.00    -0.052 A 
HETATM   16  C30 UNL     1     -30.822   4.808 -35.984  1.00  0.00     0.011 A 
HETATM   17  C31 UNL     1     -31.132   5.807 -35.078  1.00  0.00     0.044 A 
HETATM   18  C32 UNL     1     -30.113   6.467 -34.426  1.00  0.00     0.138 A 
HETATM   19  F1  UNL     1     -30.374   7.448 -33.535  1.00  0.00    -0.204 F 
HETATM   20  C33 UNL     1     -28.815   6.098 -34.712  1.00  0.00     0.073 A 
HETATM   21 CL1  UNL     1     -27.520   6.943 -33.878  1.00  0.00    -0.081 Cl
HETATM   22  C34 UNL     1     -28.511   5.106 -35.612  1.00  0.00     0.034 A 
ENDBRANCH  13  15
ENDBRANCH  12  13
ENDBRANCH  10  12
ENDBRANCH   8  10
ENDBRANCH   2   3
ENDBRANCH   1   2
BRANCH   1  23
HETATM   23  C13 UNL     1     -28.002  -3.055 -34.610  1.00  0.00     0.140 C 
HETATM   24  O2  UNL     1     -28.394  -3.462 -35.883  1.00  0.00    -0.315 OA
HETATM   25  C14 UNL     1     -27.645  -4.286 -36.628  1.00  0.00     0.270 C 
HETATM   26  O3  UNL     1     -27.384  -4.084 -37.830  1.00  0.00    -0.264 OA
HETATM   27  C15 UNL     1     -27.122  -5.487 -35.961  1.00  0.00     0.072 C 
HETATM   28  C16 UNL     1     -28.171  -6.530 -36.269  1.00  0.00     0.029 C 
HETATM   29  C18 UNL     1     -26.750  -5.272 -34.557  1.00  0.00     0.045 C 
HETATM   30  C19 UNL     1     -26.745  -6.509 -33.667  1.00  0.00     0.128 C 
HETATM   31  C26 UNL     1     -27.246  -4.062 -33.825  1.00  0.00    -0.010 C 
HETATM   32  C20 UNL     1     -28.060  -6.873 -33.087  1.00  0.00     0.018 C 
HETATM   33  C24 UNL     1     -28.887  -5.645 -32.796  1.00  0.00     0.008 C 
HETATM   34  C25 UNL     1     -27.934  -4.530 -32.558  1.00  0.00     0.012 C 
HETATM   35  C27 UNL     1     -26.049  -3.284 -33.198  1.00  0.00     0.018 C 
BRANCH  27  36
HETATM   36  C17 UNL     1     -25.913  -5.914 -36.833  1.00  0.00     0.184 C 
BRANCH  36  37
HETATM   37  O4  UNL     1     -26.206  -7.084 -37.533  1.00  0.00    -0.400 OA
ATOM     38  H4  UNL     1     -25.493  -7.306 -38.121  1.00  0.00     0.209 HD
ENDBRANCH  36  37
ENDBRANCH  27  36
BRANCH  30  39
HETATM   39  O5  UNL     1     -26.234  -7.607 -34.342  1.00  0.00    -0.395 OA
ATOM     40  H5  UNL     1     -25.574  -8.051 -33.822  1.00  0.00     0.210 HD
ENDBRANCH  30  39
BRANCH  32  41
HETATM   41  C21 UNL     1     -27.945  -7.809 -31.930  1.00  0.00    -0.016 C 
HETATM   42  C22 UNL     1     -29.218  -7.807 -31.069  1.00  0.00     0.010 C 
HETATM   43  C23 UNL     1     -26.806  -7.585 -30.997  1.00  0.00     0.010 C 
ENDBRANCH  32  41
ENDBRANCH   1  23
TORSDOF 11
ENDMDL
MODEL 3
REMARK VINA RESULT: -7.338545693      6.201     10.297
REMARK  11 active torsions:
REMARK  status: ('A' for Active; 'I' for Inactive)
REMARK    1  A    between atoms: C2_2  and  C3_3 
REMARK    2  A    between atoms: C2_2  and  C29_36 
REMARK    3  A    between atoms: C3_3  and  C4_4 
REMARK    4  A    between atoms: C4_4  and  C5_6 
REMARK    5  A    between atoms: C10_11  and  C11_12 
REMARK    6  A    between atoms: C11_12  and  C12_13 
REMARK    7  A    between atoms: C12_13  and  C13_14 
REMARK    8  A    between atoms: C15_18  and  C17_20 
REMARK    9  A    between atoms: C17_20  and  O4_21 
REMARK   10  A    between atoms: C19_24  and  O5_25 
REMARK   11  A    between atoms: C20_27  and  C21_28 
ROOT
HETATM    1  C12 UNL     1     -26.336  -5.769 -40.901  1.00  0.00     0.034 C 
ENDROOT
BRANCH   1   2
HETATM    2  C11 UNL     1     -26.892  -6.309 -39.626  1.00  0.00     0.007 C 
BRANCH   2   3
HETATM    3  C10 UNL     1     -26.179  -5.988 -38.354  1.00  0.00    -0.010 C 
HETATM    4  C8  UNL     1     -26.376  -7.139 -37.351  1.00  0.00    -0.014 C 
HETATM    5  C7  UNL     1     -27.720  -7.076 -36.708  1.00  0.00     0.005 C 
HETATM    6  C9  UNL     1     -25.298  -6.983 -36.304  1.00  0.00     0.010 C 
HETATM    7  C6  UNL     1     -27.687  -5.815 -35.833  1.00  0.00     0.012 C 
HETATM    8  C5  UNL     1     -27.504  -4.608 -36.677  1.00  0.00     0.056 C 
HETATM    9  C28 UNL     1     -26.475  -4.672 -37.746  1.00  0.00     0.017 C 
BRANCH   8  10
HETATM   10  C4  UNL     1     -27.130  -3.484 -35.754  1.00  0.00     0.131 C 
HETATM   11  O1  UNL     1     -27.312  -2.320 -36.061  1.00  0.00    -0.298 OA
BRANCH  10  12
HETATM   12  C3  UNL     1     -26.517  -3.753 -34.420  1.00  0.00     0.087 C 
BRANCH  12  13
HETATM   13  C2  UNL     1     -27.384  -3.253 -33.299  1.00  0.00     0.021 C 
HETATM   14  C1  UNL     1     -26.566  -2.571 -32.216  1.00  0.00     0.015 C 
BRANCH  13  15
HETATM   15  C29 UNL     1     -28.037  -4.434 -32.650  1.00  0.00    -0.052 A 
HETATM   16  C30 UNL     1     -29.392  -4.600 -32.675  1.00  0.00     0.011 A 
HETATM   17  C31 UNL     1     -30.023  -5.679 -32.083  1.00  0.00     0.044 A 
HETATM   18  C32 UNL     1     -29.267  -6.635 -31.441  1.00  0.00     0.138 A 
HETATM   19  F1  UNL     1     -29.846  -7.704 -30.851  1.00  0.00    -0.204 F 
HETATM   20  C33 UNL     1     -27.898  -6.468 -31.415  1.00  0.00     0.073 A 
HETATM   21 CL1  UNL     1     -26.938  -7.690 -30.594  1.00  0.00    -0.081 Cl
HETATM   22  C34 UNL     1     -27.274  -5.395 -32.003  1.00  0.00     0.034 A 
ENDBRANCH  13  15
ENDBRANCH  12  13
ENDBRANCH  10  12
ENDBRANCH   8  10
ENDBRANCH   2   3
ENDBRANCH   1   2
BRANCH   1  23
HETATM   23  C13 UNL     1     -26.935  -6.287 -42.168  1.00  0.00     0.140 C 
HETATM   24  O2  UNL     1     -25.918  -6.802 -42.968  1.00  0.00    -0.315 OA
HETATM   25  C14 UNL     1     -26.113  -7.102 -44.259  1.00  0.00     0.270 C 
HETATM   26  O3  UNL     1     -25.743  -8.171 -44.783  1.00  0.00    -0.264 OA
HETATM   27  C15 UNL     1     -26.799  -6.090 -45.076  1.00  0.00     0.072 C 
HETATM   28  C16 UNL     1     -25.654  -5.298 -45.666  1.00  0.00     0.029 C 
HETATM   29  C18 UNL     1     -27.849  -5.358 -44.356  1.00  0.00     0.045 C 
HETATM   30  C19 UNL     1     -28.201  -3.979 -44.901  1.00  0.00     0.128 C 
HETATM   31  C26 UNL     1     -27.897  -5.393 -42.859  1.00  0.00    -0.010 C 
HETATM   32  C20 UNL     1     -27.336  -2.873 -44.423  1.00  0.00     0.018 C 
HETATM   33  C24 UNL     1     -26.879  -3.113 -43.005  1.00  0.00     0.008 C 
HETATM   34  C25 UNL     1     -27.911  -3.963 -42.357  1.00  0.00     0.012 C 
HETATM   35  C27 UNL     1     -29.307  -5.851 -42.376  1.00  0.00     0.018 C 
BRANCH  27  36
HETATM   36  C17 UNL     1     -27.357  -6.886 -46.283  1.00  0.00     0.184 C 
BRANCH  36  37
HETATM   37  O4  UNL     1     -28.475  -7.628 -45.903  1.00  0.00    -0.400 OA
ATOM     38  H4  UNL     1     -28.450  -7.812 -44.972  1.00  0.00     0.209 HD
ENDBRANCH  36  37
ENDBRANCH  27  36
BRANCH  30  39
HETATM   39  O5  UNL     1     -28.203  -3.977 -46.288  1.00  0.00    -0.395 OA
ATOM     40  H5  UNL     1     -28.567  -3.168 -46.627  1.00  0.00     0.210 HD
ENDBRANCH  30  39
BRANCH  32  41
HETATM   41  C21 UNL     1     -27.943  -1.527 -44.640  1.00  0.00    -0.016 C 
HETATM   42  C22 UNL     1     -27.261  -0.451 -43.781  1.00  0.00     0.010 C 
HETATM   43  C23 UNL     1     -29.406  -1.403 -44.388  1.00  0.00     0.010 C 
ENDBRANCH  32  41
ENDBRANCH   1  23
TORSDOF 11
ENDMDL
MODEL 4
REMARK VINA RESULT: -7.295745366      5.539      8.187
REMARK  11 active torsions:
REMARK  status: ('A' for Active; 'I' for Inactive)
REMARK    1  A    between atoms: C2_2  and  C3_3 
REMARK    2  A    between atoms: C2_2  and  C29_36 
REMARK    3  A    between atoms: C3_3  and  C4_4 
REMARK    4  A    between atoms: C4_4  and  C5_6 
REMARK    5  A    between atoms: C10_11  and  C11_12 
REMARK    6  A    between atoms: C11_12  and  C12_13 
REMARK    7  A    between atoms: C12_13  and  C13_14 
REMARK    8  A    between atoms: C15_18  and  C17_20 
REMARK    9  A    between atoms: C17_20  and  O4_21 
REMARK   10  A    between atoms: C19_24  and  O5_25 
REMARK   11  A    between atoms: C20_27  and  C21_28 
ROOT
HETATM    1  C12 UNL     1     -29.419  -2.740 -33.255  1.00  0.00     0.034 C 
ENDROOT
BRANCH   1   2
HETATM    2  C11 UNL     1     -30.487  -1.805 -33.713  1.00  0.00     0.007 C 
BRANCH   2   3
HETATM    3  C10 UNL     1     -31.910  -2.226 -33.549  1.00  0.00    -0.010 C 
HETATM    4  C8  UNL     1     -32.707  -1.094 -32.875  1.00  0.00    -0.014 C 
HETATM    5  C7  UNL     1     -32.463  -1.058 -31.404  1.00  0.00     0.005 C 
HETATM    6  C9  UNL     1     -34.166  -1.374 -33.147  1.00  0.00     0.010 C 
HETATM    7  C6  UNL     1     -33.103  -2.344 -30.861  1.00  0.00     0.012 C 
HETATM    8  C5  UNL     1     -32.426  -3.536 -31.430  1.00  0.00     0.056 C 
HETATM    9  C28 UNL     1     -32.142  -3.528 -32.888  1.00  0.00     0.017 C 
BRANCH   8  10
HETATM   10  C4  UNL     1     -33.310  -4.716 -31.146  1.00  0.00     0.131 C 
HETATM   11  O1  UNL     1     -34.488  -4.718 -31.455  1.00  0.00    -0.298 OA
BRANCH  10  12
HETATM   12  C3  UNL     1     -32.777  -5.936 -30.472  1.00  0.00     0.087 C 
BRANCH  12  13
HETATM   13  C2  UNL     1     -31.409  -5.701 -29.897  1.00  0.00     0.021 C 
HETATM   14  C1  UNL     1     -30.471  -6.860 -30.186  1.00  0.00     0.015 C 
BRANCH  13  15
HETATM   15  C29 UNL     1     -31.533  -5.623 -28.407  1.00  0.00    -0.052 A 
HETATM   16  C30 UNL     1     -31.692  -4.428 -27.768  1.00  0.00     0.011 A 
HETATM   17  C31 UNL     1     -31.808  -4.325 -26.394  1.00  0.00     0.044 A 
HETATM   18  C32 UNL     1     -31.765  -5.467 -25.625  1.00  0.00     0.138 A 
HETATM   19  F1  UNL     1     -31.875  -5.409 -24.280  1.00  0.00    -0.204 F 
HETATM   20  C33 UNL     1     -31.604  -6.676 -26.269  1.00  0.00     0.073 A 
HETATM   21 CL1  UNL     1     -31.549  -8.130 -25.284  1.00  0.00    -0.081 Cl
HETATM   22  C34 UNL     1     -31.488  -6.775 -27.635  1.00  0.00     0.034 A 
ENDBRANCH  13  15
ENDBRANCH  12  13
ENDBRANCH  10  12
ENDBRANCH   8  10
ENDBRANCH   2   3
ENDBRANCH   1   2
BRANCH   1  23
HETATM   23  C13 UNL     1     -28.335  -3.053 -34.234  1.00  0.00     0.140 C 
HETATM   24  O2  UNL     1     -28.913  -3.326 -35.472  1.00  0.00    -0.315 OA
HETATM   25  C14 UNL     1     -28.219  -3.884 -36.472  1.00  0.00     0.270 C 
HETATM   26  O3  UNL     1     -28.237  -3.460 -37.645  1.00  0.00    -0.264 OA
HETATM   27  C15 UNL     1     -27.405  -5.061 -36.136  1.00  0.00     0.072 C 
HETATM   28  C16 UNL     1     -28.334  -6.213 -36.440  1.00  0.00     0.029 C 
HETATM   29  C18 UNL     1     -26.792  -4.998 -34.803  1.00  0.00     0.045 C 
HETATM   30  C19 UNL     1     -26.431  -6.334 -34.167  1.00  0.00     0.128 C 
HETATM   31  C26 UNL     1     -27.300  -4.018 -33.789  1.00  0.00    -0.010 C 
HETATM   32  C20 UNL     1     -27.536  -7.007 -33.442  1.00  0.00     0.018 C 
HETATM   33  C24 UNL     1     -28.455  -6.001 -32.793  1.00  0.00     0.008 C 
HETATM   34  C25 UNL     1     -27.644  -4.785 -32.528  1.00  0.00     0.012 C 
HETATM   35  C27 UNL     1     -26.126  -3.145 -33.249  1.00  0.00     0.018 C 
BRANCH  27  36
HETATM   36  C17 UNL     1     -26.348  -5.132 -37.268  1.00  0.00     0.184 C 
BRANCH  36  37
HETATM   37  O4  UNL     1     -26.571  -6.248 -38.074  1.00  0.00    -0.400 OA
ATOM     38  H4  UNL     1     -26.033  -6.977 -37.788  1.00  0.00     0.209 HD
ENDBRANCH  36  37
ENDBRANCH  27  36
BRANCH  30  39
HETATM   39  O5  UNL     1     -25.914  -7.212 -35.108  1.00  0.00    -0.395 OA
ATOM     40  H5  UNL     1     -25.614  -8.014 -34.698  1.00  0.00     0.210 HD
ENDBRANCH  30  39
BRANCH  32  41
HETATM   41  C21 UNL     1     -27.057  -8.072 -32.512  1.00  0.00    -0.016 C 
HETATM   42  C22 UNL     1     -27.988  -9.294 -32.522  1.00  0.00     0.010 C 
HETATM   43  C23 UNL     1     -26.884  -7.686 -31.084  1.00  0.00     0.010 C 
ENDBRANCH  32  41
ENDBRANCH   1  23
TORSDOF 11
ENDMDL
MODEL 5
REMARK VINA RESULT: -7.265964195      1.294      1.745
REMARK  11 active torsions:
REMARK  status: ('A' for Active; 'I' for Inactive)
REMARK    1  A    between atoms: C2_2  and  C3_3 
REMARK    2  A    between atoms: C2_2  and  C29_36 
REMARK    3  A    between atoms: C3_3  and  C4_4 
REMARK    4  A    between atoms: C4_4  and  C5_6 
REMARK    5  A    between atoms: C10_11  and  C11_12 
REMARK    6  A    between atoms: C11_12  and  C12_13 
REMARK    7  A    between atoms: C12_13  and  C13_14 
REMARK    8  A    between atoms: C15_18  and  C17_20 
REMARK    9  A    between atoms: C17_20  and  O4_21 
REMARK   10  A    between atoms: C19_24  and  O5_25 
REMARK   11  A    between atoms: C20_27  and  C21_28 
ROOT
HETATM    1  C12 UNL     1     -27.714  -2.020 -35.279  1.00  0.00     0.034 C 
ENDROOT
BRANCH   1   2
HETATM    2  C11 UNL     1     -28.656  -2.068 -36.435  1.00  0.00     0.007 C 
BRANCH   2   3
HETATM    3  C10 UNL     1     -29.891  -1.232 -36.373  1.00  0.00    -0.010 C 
HETATM    4  C8  UNL     1     -30.969  -1.839 -37.290  1.00  0.00    -0.014 C 
HETATM    5  C7  UNL     1     -30.717  -1.504 -38.721  1.00  0.00     0.005 C 
HETATM    6  C9  UNL     1     -32.289  -1.250 -36.849  1.00  0.00     0.010 C 
HETATM    7  C6  UNL     1     -30.944   0.011 -38.824  1.00  0.00     0.012 C 
HETATM    8  C5  UNL     1     -29.961   0.737 -37.982  1.00  0.00     0.056 C 
HETATM    9  C28 UNL     1     -29.720   0.217 -36.612  1.00  0.00     0.017 C 
BRANCH   8  10
HETATM   10  C4  UNL     1     -30.458   2.148 -37.852  1.00  0.00     0.131 C 
HETATM   11  O1  UNL     1     -31.125   2.671 -38.726  1.00  0.00    -0.298 OA
BRANCH  10  12
HETATM   12  C3  UNL     1     -30.152   2.966 -36.642  1.00  0.00     0.087 C 
BRANCH  12  13
HETATM   13  C2  UNL     1     -29.254   4.126 -36.967  1.00  0.00     0.021 C 
HETATM   14  C1  UNL     1     -27.878   3.665 -37.417  1.00  0.00     0.015 C 
BRANCH  13  15
HETATM   15  C29 UNL     1     -29.041   4.919 -35.715  1.00  0.00    -0.052 A 
HETATM   16  C30 UNL     1     -27.875   4.839 -35.012  1.00  0.00     0.011 A 
HETATM   17  C31 UNL     1     -27.651   5.560 -33.852  1.00  0.00     0.044 A 
HETATM   18  C32 UNL     1     -28.636   6.397 -33.376  1.00  0.00     0.138 A 
HETATM   19  F1  UNL     1     -28.456   7.117 -32.247  1.00  0.00    -0.204 F 
HETATM   20  C33 UNL     1     -29.815   6.479 -34.086  1.00  0.00     0.073 A 
HETATM   21 CL1  UNL     1     -31.069   7.548 -33.475  1.00  0.00    -0.081 Cl
HETATM   22  C34 UNL     1     -30.035   5.762 -35.238  1.00  0.00     0.034 A 
ENDBRANCH  13  15
ENDBRANCH  12  13
ENDBRANCH  10  12
ENDBRANCH   8  10
ENDBRANCH   2   3
ENDBRANCH   1   2
BRANCH   1  23
HETATM   23  C13 UNL     1     -26.955  -3.271 -34.979  1.00  0.00     0.140 C 
HETATM   24  O2  UNL     1     -26.911  -4.057 -36.128  1.00  0.00    -0.315 OA
HETATM   25  C14 UNL     1     -26.523  -5.339 -36.098  1.00  0.00     0.270 C 
HETATM   26  O3  UNL     1     -25.706  -5.832 -36.900  1.00  0.00    -0.264 OA
HETATM   27  C15 UNL     1     -27.116  -6.184 -35.051  1.00  0.00     0.072 C 
HETATM   28  C16 UNL     1     -28.310  -6.797 -35.745  1.00  0.00     0.029 C 
HETATM   29  C18 UNL     1     -27.338  -5.484 -33.779  1.00  0.00     0.045 C 
HETATM   30  C19 UNL     1     -28.414  -6.068 -32.870  1.00  0.00     0.128 C 
HETATM   31  C26 UNL     1     -27.325  -3.986 -33.732  1.00  0.00    -0.010 C 
HETATM   32  C20 UNL     1     -29.797  -5.623 -33.164  1.00  0.00     0.018 C 
HETATM   33  C24 UNL     1     -29.817  -4.198 -33.663  1.00  0.00     0.008 C 
HETATM   34  C25 UNL     1     -28.621  -3.526 -33.094  1.00  0.00     0.012 C 
HETATM   35  C27 UNL     1     -26.314  -3.490 -32.655  1.00  0.00     0.018 C 
BRANCH  27  36
HETATM   36  C17 UNL     1     -26.126  -7.368 -34.907  1.00  0.00     0.184 C 
BRANCH  36  37
HETATM   37  O4  UNL     1     -25.430  -7.277 -33.702  1.00  0.00    -0.400 OA
ATOM     38  H4  UNL     1     -24.770  -7.959 -33.647  1.00  0.00     0.209 HD
ENDBRANCH  36  37
ENDBRANCH  27  36
BRANCH  30  39
HETATM   39  O5  UNL     1     -28.379  -7.454 -32.884  1.00  0.00    -0.395 OA
ATOM     40  H5  UNL     1     -28.443  -7.806 -32.003  1.00  0.00     0.210 HD
ENDBRANCH  30  39
BRANCH  32  41
HETATM   41  C21 UNL     1     -30.741  -5.878 -32.036  1.00  0.00    -0.016 C 
HETATM   42  C22 UNL     1     -31.786  -4.759 -31.907  1.00  0.00     0.010 C 
HETATM   43  C23 UNL     1     -30.139  -6.050 -30.684  1.00  0.00     0.010 C 
ENDBRANCH  32  41
ENDBRANCH   1  23
TORSDOF 11
ENDMDL
