MODEL 1
REMARK VINA RESULT: -6.074923853      0.000      0.000
REMARK  12 active torsions:
REMARK  status: ('A' for Active; 'I' for Inactive)
REMARK    1  A    between atoms: C3_3  and  O1_4 
REMARK    2  A    between atoms: C3_3  and  C6_8 
REMARK    3  A    between atoms: O1_4  and  C4_5 
REMARK    4  A    between atoms: C6_8  and  C8_10 
REMARK    5  A    between atoms: C6_8  and  C13_17 
REMARK    6  A    between atoms: C8_10  and  C9_11 
REMARK    7  A    between atoms: C9_11  and  C10_12 
REMARK    8  A    between atoms: C10_12  and  C11_13 
REMARK    9  A    between atoms: C15_19  and  O3_20 
REMARK   10  A    between atoms: C21_27  and  O4_28 
REMARK   11  A    between atoms: C21_27  and  C22_30 
REMARK   12  A    between atoms: C25_33  and  O5_34 
ROOT
HETATM    1  C1  UNL     1     -25.650  -5.730 -38.063  1.00  0.00     0.099 C 
HETATM    2  C2  UNL     1     -26.559  -5.055 -37.602  1.00  0.00    -0.154 C 
HETATM    3  C3  UNL     1     -27.642  -4.199 -37.096  1.00  0.00     0.209 C 
ENDROOT
BRANCH   3   4
HETATM    4  O1  UNL     1     -28.820  -5.017 -37.334  1.00  0.00    -0.304 OA
BRANCH   4   5
HETATM    5  C4  UNL     1     -29.723  -4.787 -38.329  1.00  0.00     0.256 C 
HETATM    6  C5  UNL     1     -31.010  -4.054 -38.128  1.00  0.00     0.126 C 
HETATM    7  O2  UNL     1     -29.497  -5.197 -39.490  1.00  0.00    -0.266 OA
ENDBRANCH   4   5
ENDBRANCH   3   4
BRANCH   3   8
HETATM    8  C6  UNL     1     -27.554  -3.824 -35.657  1.00  0.00     0.017 C 
HETATM    9  C7  UNL     1     -26.181  -3.234 -35.367  1.00  0.00     0.024 C 
BRANCH   8  10
HETATM   10  C8  UNL     1     -27.642  -4.931 -34.697  1.00  0.00     0.017 C 
BRANCH  10  11
HETATM   11  C9  UNL     1     -26.495  -5.265 -33.807  1.00  0.00     0.007 C 
BRANCH  11  12
HETATM   12  C10 UNL     1     -27.033  -6.502 -33.002  1.00  0.00     0.079 C 
BRANCH  12  13
HETATM   13  C11 UNL     1     -27.359  -6.076 -31.606  1.00  0.00     0.240 C 
HETATM   14  C12 UNL     1     -28.845  -6.104 -31.405  1.00  0.00     0.090 C 
HETATM   15  F1  UNL     1     -26.883  -4.780 -31.442  1.00  0.00    -0.207 F 
HETATM   16  F2  UNL     1     -26.775  -6.961 -30.735  1.00  0.00    -0.207 F 
ENDBRANCH  12  13
ENDBRANCH  11  12
ENDBRANCH  10  11
ENDBRANCH   8  10
BRANCH   8  17
HETATM   17  C13 UNL     1     -28.654  -2.817 -35.413  1.00  0.00    -0.060 C 
HETATM   18  C14 UNL     1     -28.620  -1.823 -36.280  1.00  0.00     0.009 C 
HETATM   19  C15 UNL     1     -29.552  -0.658 -36.336  1.00  0.00     0.142 C 
HETATM   20  C16 UNL     1     -30.823  -1.247 -35.780  1.00  0.00     0.045 C 
HETATM   21  C17 UNL     1     -30.449  -1.549 -34.313  1.00  0.00     0.030 C 
HETATM   22  C18 UNL     1     -31.680  -1.465 -33.526  1.00  0.00    -0.067 C 
HETATM   23  C34 UNL     1     -29.640  -2.842 -34.262  1.00  0.00    -0.012 C 
HETATM   24  C19 UNL     1     -31.712  -0.464 -32.386  1.00  0.00     0.038 C 
HETATM   25  C31 UNL     1     -32.355  -2.717 -33.114  1.00  0.00    -0.044 C 
HETATM   26  C20 UNL     1     -33.192  -0.125 -32.094  1.00  0.00     0.047 C 
HETATM   27  C21 UNL     1     -33.566  -0.745 -30.738  1.00  0.00     0.088 C 
HETATM   28  C24 UNL     1     -33.178  -2.165 -30.689  1.00  0.00     0.020 A 
HETATM   29  C25 UNL     1     -33.424  -2.633 -29.420  1.00  0.00     0.078 A 
HETATM   30  C30 UNL     1     -32.584  -2.989 -31.681  1.00  0.00    -0.018 A 
HETATM   31  C27 UNL     1     -33.073  -3.936 -29.115  1.00  0.00     0.037 A 
HETATM   32  C28 UNL     1     -32.491  -4.762 -30.043  1.00  0.00     0.004 A 
HETATM   33  C29 UNL     1     -32.259  -4.272 -31.305  1.00  0.00     0.013 A 
HETATM   34  C32 UNL     1     -31.974  -3.863 -33.981  1.00  0.00     0.041 C 
HETATM   35  C33 UNL     1     -30.526  -4.036 -34.274  1.00  0.00     0.019 C 
HETATM   36  C35 UNL     1     -28.936  -2.734 -32.935  1.00  0.00     0.021 C 
BRANCH  19  37
HETATM   37  O3  UNL     1     -29.805  -0.249 -37.631  1.00  0.00    -0.392 OA
ATOM     38  H3  UNL     1     -29.809   0.697 -37.718  1.00  0.00     0.210 HD
ENDBRANCH  19  37
BRANCH  27  39
HETATM   39  O4  UNL     1     -34.949  -0.669 -30.637  1.00  0.00    -0.385 OA
ATOM     40  H4  UNL     1     -35.277  -1.554 -30.751  1.00  0.00     0.211 HD
ENDBRANCH  27  39
BRANCH  27  41
HETATM   41  C22 UNL     1     -32.874   0.182 -29.763  1.00  0.00     0.038 C 
HETATM   42  C23 UNL     1     -33.473   1.602 -29.903  1.00  0.00     0.008 C 
ENDBRANCH  27  41
BRANCH  29  43
HETATM   43  O5  UNL     1     -34.019  -1.850 -28.443  1.00  0.00    -0.355 OA
HETATM   44  C26 UNL     1     -35.051  -2.358 -27.615  1.00  0.00     0.210 C 
ENDBRANCH  29  43
ENDBRANCH   8  17
ENDBRANCH   3   8
TORSDOF 12
ENDMDL
MODEL 2
REMARK VINA RESULT: -5.889391955      7.453     12.346
REMARK  12 active torsions:
REMARK  status: ('A' for Active; 'I' for Inactive)
REMARK    1  A    between atoms: C3_3  and  O1_4 
REMARK    2  A    between atoms: C3_3  and  C6_8 
REMARK    3  A    between atoms: O1_4  and  C4_5 
REMARK    4  A    between atoms: C6_8  and  C8_10 
REMARK    5  A    between atoms: C6_8  and  C13_17 
REMARK    6  A    between atoms: C8_10  and  C9_11 
REMARK    7  A    between atoms: C9_11  and  C10_12 
REMARK    8  A    between atoms: C10_12  and  C11_13 
REMARK    9  A    between atoms: C15_19  and  O3_20 
REMARK   10  A    between atoms: C21_27  and  O4_28 
REMARK   11  A    between atoms: C21_27  and  C22_30 
REMARK   12  A    between atoms: C25_33  and  O5_34 
ROOT
HETATM    1  C1  UNL     1     -29.904   0.435 -36.480  1.00  0.00     0.099 C 
HETATM    2  C2  UNL     1     -30.161   1.536 -36.947  1.00  0.00    -0.154 C 
HETATM    3  C3  UNL     1     -30.518   2.831 -37.543  1.00  0.00     0.209 C 
ENDROOT
BRANCH   3   4
HETATM    4  O1  UNL     1     -30.990   3.582 -36.391  1.00  0.00    -0.304 OA
BRANCH   4   5
HETATM    5  C4  UNL     1     -32.303   3.724 -36.055  1.00  0.00     0.256 C 
HETATM    6  C5  UNL     1     -33.402   3.878 -37.055  1.00  0.00     0.126 C 
HETATM    7  O2  UNL     1     -32.647   3.730 -34.852  1.00  0.00    -0.266 OA
ENDBRANCH   4   5
ENDBRANCH   3   4
BRANCH   3   8
HETATM    8  C6  UNL     1     -29.411   3.561 -38.220  1.00  0.00     0.017 C 
HETATM    9  C7  UNL     1     -28.160   2.694 -38.230  1.00  0.00     0.024 C 
BRANCH   8  10
HETATM   10  C8  UNL     1     -28.951   4.788 -37.559  1.00  0.00     0.017 C 
BRANCH  10  11
HETATM   11  C9  UNL     1     -27.840   4.752 -36.565  1.00  0.00     0.007 C 
BRANCH  11  12
HETATM   12  C10 UNL     1     -27.845   6.214 -35.992  1.00  0.00     0.079 C 
BRANCH  12  13
HETATM   13  C11 UNL     1     -28.127   6.165 -34.524  1.00  0.00     0.240 C 
HETATM   14  C12 UNL     1     -29.598   6.346 -34.288  1.00  0.00     0.090 C 
HETATM   15  F1  UNL     1     -27.419   7.201 -33.926  1.00  0.00    -0.207 F 
HETATM   16  F2  UNL     1     -27.750   4.934 -34.051  1.00  0.00    -0.207 F 
ENDBRANCH  12  13
ENDBRANCH  11  12
ENDBRANCH  10  11
ENDBRANCH   8  10
BRANCH   8  17
HETATM   17  C13 UNL     1     -29.892   3.858 -39.621  1.00  0.00    -0.060 C 
HETATM   18  C14 UNL     1     -30.632   4.949 -39.672  1.00  0.00     0.009 C 
HETATM   19  C15 UNL     1     -31.268   5.539 -40.888  1.00  0.00     0.142 C 
HETATM   20  C16 UNL     1     -30.314   5.116 -41.976  1.00  0.00     0.045 C 
HETATM   21  C17 UNL     1     -30.470   3.581 -41.994  1.00  0.00     0.030 C 
HETATM   22  C18 UNL     1     -30.173   3.132 -43.354  1.00  0.00    -0.067 C 
HETATM   23  C34 UNL     1     -29.667   2.986 -40.840  1.00  0.00    -0.012 C 
HETATM   24  C19 UNL     1     -31.259   2.365 -44.088  1.00  0.00     0.038 C 
HETATM   25  C31 UNL     1     -28.852   2.526 -43.638  1.00  0.00    -0.044 C 
HETATM   26  C20 UNL     1     -30.994   2.505 -45.605  1.00  0.00     0.047 C 
HETATM   27  C21 UNL     1     -30.534   1.139 -46.138  1.00  0.00     0.088 C 
HETATM   28  C24 UNL     1     -29.442   0.598 -45.310  1.00  0.00     0.020 A 
HETATM   29  C25 UNL     1     -29.154  -0.671 -45.757  1.00  0.00     0.078 A 
HETATM   30  C30 UNL     1     -28.776   1.158 -44.189  1.00  0.00    -0.018 A 
HETATM   31  C27 UNL     1     -28.198  -1.409 -45.082  1.00  0.00     0.037 A 
HETATM   32  C28 UNL     1     -27.537  -0.907 -43.990  1.00  0.00     0.004 A 
HETATM   33  C29 UNL     1     -27.839   0.365 -43.567  1.00  0.00     0.013 A 
HETATM   34  C32 UNL     1     -27.834   2.921 -42.629  1.00  0.00     0.041 C 
HETATM   35  C33 UNL     1     -28.232   2.838 -41.198  1.00  0.00     0.019 C 
HETATM   36  C35 UNL     1     -30.301   1.630 -40.667  1.00  0.00     0.021 C 
BRANCH  19  37
HETATM   37  O3  UNL     1     -31.290   6.919 -40.854  1.00  0.00    -0.392 OA
ATOM     38  H3  UNL     1     -31.321   7.302 -41.723  1.00  0.00     0.210 HD
ENDBRANCH  19  37
BRANCH  27  39
HETATM   39  O4  UNL     1     -30.041   1.359 -47.417  1.00  0.00    -0.385 OA
ATOM     40  H4  UNL     1     -29.661   0.537 -47.706  1.00  0.00     0.211 HD
ENDBRANCH  27  39
BRANCH  27  41
HETATM   41  C22 UNL     1     -31.827   0.352 -46.154  1.00  0.00     0.038 C 
HETATM   42  C23 UNL     1     -32.702   0.843 -47.332  1.00  0.00     0.008 C 
ENDBRANCH  27  41
BRANCH  29  43
HETATM   43  O5  UNL     1     -29.781  -1.229 -46.860  1.00  0.00    -0.355 OA
HETATM   44  C26 UNL     1     -29.361  -2.470 -47.399  1.00  0.00     0.210 C 
ENDBRANCH  29  43
ENDBRANCH   8  17
ENDBRANCH   3   8
TORSDOF 12
ENDMDL
MODEL 3
REMARK VINA RESULT: -5.806698776      4.175      9.128
REMARK  12 active torsions:
REMARK  status: ('A' for Active; 'I' for Inactive)
REMARK    1  A    between atoms: C3_3  and  O1_4 
REMARK    2  A    between atoms: C3_3  and  C6_8 
REMARK    3  A    between atoms: O1_4  and  C4_5 
REMARK    4  A    between atoms: C6_8  and  C8_10 
REMARK    5  A    between atoms: C6_8  and  C13_17 
REMARK    6  A    between atoms: C8_10  and  C9_11 
REMARK    7  A    between atoms: C9_11  and  C10_12 
REMARK    8  A    between atoms: C10_12  and  C11_13 
REMARK    9  A    between atoms: C15_19  and  O3_20 
REMARK   10  A    between atoms: C21_27  and  O4_28 
REMARK   11  A    between atoms: C21_27  and  C22_30 
REMARK   12  A    between atoms: C25_33  and  O5_34 
ROOT
HETATM    1  C1  UNL     1     -27.176  -5.794 -30.854  1.00  0.00     0.099 C 
HETATM    2  C2  UNL     1     -27.215  -5.966 -32.064  1.00  0.00    -0.154 C 
HETATM    3  C3  UNL     1     -27.206  -6.210 -33.514  1.00  0.00     0.209 C 
ENDROOT
BRANCH   3   4
HETATM    4  O1  UNL     1     -28.401  -7.017 -33.699  1.00  0.00    -0.304 OA
BRANCH   4   5
HETATM    5  C4  UNL     1     -28.478  -8.348 -33.414  1.00  0.00     0.256 C 
HETATM    6  C5  UNL     1     -27.565  -9.375 -34.001  1.00  0.00     0.126 C 
HETATM    7  O2  UNL     1     -29.348  -8.771 -32.621  1.00  0.00    -0.266 OA
ENDBRANCH   4   5
ENDBRANCH   3   4
BRANCH   3   8
HETATM    8  C6  UNL     1     -27.261  -4.997 -34.375  1.00  0.00     0.017 C 
HETATM    9  C7  UNL     1     -26.207  -3.998 -33.917  1.00  0.00     0.024 C 
BRANCH   8  10
HETATM   10  C8  UNL     1     -28.502  -4.215 -34.308  1.00  0.00     0.017 C 
BRANCH  10  11
HETATM   11  C9  UNL     1     -28.501  -2.824 -33.772  1.00  0.00     0.007 C 
BRANCH  11  12
HETATM   12  C10 UNL     1     -30.005  -2.395 -33.930  1.00  0.00     0.079 C 
BRANCH  12  13
HETATM   13  C11 UNL     1     -30.123  -1.432 -35.068  1.00  0.00     0.240 C 
HETATM   14  C12 UNL     1     -30.967  -2.035 -36.152  1.00  0.00     0.090 C 
HETATM   15  F1  UNL     1     -28.841  -1.188 -35.546  1.00  0.00    -0.207 F 
HETATM   16  F2  UNL     1     -30.735  -0.293 -34.610  1.00  0.00    -0.207 F 
ENDBRANCH  12  13
ENDBRANCH  11  12
ENDBRANCH  10  11
ENDBRANCH   8  10
BRANCH   8  17
HETATM   17  C13 UNL     1     -27.003  -5.467 -35.788  1.00  0.00    -0.060 C 
HETATM   18  C14 UNL     1     -26.135  -6.459 -35.831  1.00  0.00     0.009 C 
HETATM   19  C15 UNL     1     -25.650  -7.166 -37.054  1.00  0.00     0.142 C 
HETATM   20  C16 UNL     1     -26.836  -7.044 -37.977  1.00  0.00     0.045 C 
HETATM   21  C17 UNL     1     -26.910  -5.526 -38.243  1.00  0.00     0.030 C 
HETATM   22  C18 UNL     1     -27.509  -5.347 -39.566  1.00  0.00    -0.067 C 
HETATM   23  C34 UNL     1     -27.568  -4.843 -37.048  1.00  0.00    -0.012 C 
HETATM   24  C19 UNL     1     -26.696  -4.595 -40.604  1.00  0.00     0.038 C 
HETATM   25  C31 UNL     1     -28.934  -4.953 -39.661  1.00  0.00    -0.044 C 
HETATM   26  C20 UNL     1     -27.208  -5.015 -42.002  1.00  0.00     0.047 C 
HETATM   27  C21 UNL     1     -27.949  -3.820 -42.619  1.00  0.00     0.088 C 
HETATM   28  C24 UNL     1     -28.940  -3.277 -41.675  1.00  0.00     0.020 A 
HETATM   29  C25 UNL     1     -29.485  -2.142 -42.229  1.00  0.00     0.078 A 
HETATM   30  C30 UNL     1     -29.305  -3.715 -40.374  1.00  0.00    -0.018 A 
HETATM   31  C27 UNL     1     -30.400  -1.416 -41.488  1.00  0.00     0.037 A 
HETATM   32  C28 UNL     1     -30.773  -1.802 -40.226  1.00  0.00     0.004 A 
HETATM   33  C29 UNL     1     -30.219  -2.942 -39.696  1.00  0.00     0.013 A 
HETATM   34  C32 UNL     1     -29.685  -5.288 -38.423  1.00  0.00     0.041 C 
HETATM   35  C33 UNL     1     -29.051  -4.922 -37.128  1.00  0.00     0.019 C 
HETATM   36  C35 UNL     1     -27.118  -3.413 -37.201  1.00  0.00     0.021 C 
BRANCH  19  37
HETATM   37  O3  UNL     1     -25.423  -8.510 -36.829  1.00  0.00    -0.392 OA
ATOM     38  H3  UNL     1     -25.590  -9.039 -37.601  1.00  0.00     0.210 HD
ENDBRANCH  19  37
BRANCH  27  39
HETATM   39  O4  UNL     1     -28.628  -4.306 -43.729  1.00  0.00    -0.385 OA
ATOM     40  H4  UNL     1     -28.705  -3.581 -44.338  1.00  0.00     0.211 HD
ENDBRANCH  27  39
BRANCH  27  41
HETATM   41  C22 UNL     1     -26.809  -2.904 -43.007  1.00  0.00     0.038 C 
HETATM   42  C23 UNL     1     -26.272  -3.325 -44.396  1.00  0.00     0.008 C 
ENDBRANCH  27  41
BRANCH  29  43
HETATM   43  O5  UNL     1     -29.155  -1.709 -43.504  1.00  0.00    -0.355 OA
HETATM   44  C26 UNL     1     -29.394  -0.373 -43.915  1.00  0.00     0.210 C 
ENDBRANCH  29  43
ENDBRANCH   8  17
ENDBRANCH   3   8
TORSDOF 12
ENDMDL
MODEL 4
REMARK VINA RESULT: -5.436407430      4.383      9.062
REMARK  12 active torsions:
REMARK  status: ('A' for Active; 'I' for Inactive)
REMARK    1  A    between atoms: C3_3  and  O1_4 
REMARK    2  A    between atoms: C3_3  and  C6_8 
REMARK    3  A    between atoms: O1_4  and  C4_5 
REMARK    4  A    between atoms: C6_8  and  C8_10 
REMARK    5  A    between atoms: C6_8  and  C13_17 
REMARK    6  A    between atoms: C8_10  and  C9_11 
REMARK    7  A    between atoms: C9_11  and  C10_12 
REMARK    8  A    between atoms: C10_12  and  C11_13 
REMARK    9  A    between atoms: C15_19  and  O3_20 
REMARK   10  A    between atoms: C21_27  and  O4_28 
REMARK   11  A    between atoms: C21_27  and  C22_30 
REMARK   12  A    between atoms: C25_33  and  O5_34 
ROOT
HETATM    1  C1  UNL     1     -29.872  -4.800 -33.458  1.00  0.00     0.099 C 
HETATM    2  C2  UNL     1     -28.904  -5.114 -34.136  1.00  0.00    -0.154 C 
HETATM    3  C3  UNL     1     -27.762  -5.449 -34.999  1.00  0.00     0.209 C 
ENDROOT
BRANCH   3   4
HETATM    4  O1  UNL     1     -26.640  -4.899 -34.255  1.00  0.00    -0.304 OA
BRANCH   4   5
HETATM    5  C4  UNL     1     -26.481  -3.573 -33.979  1.00  0.00     0.256 C 
HETATM    6  C5  UNL     1     -26.397  -3.019 -32.594  1.00  0.00     0.126 C 
HETATM    7  O2  UNL     1     -26.396  -2.743 -34.912  1.00  0.00    -0.266 OA
ENDBRANCH   4   5
ENDBRANCH   3   4
BRANCH   3   8
HETATM    8  C6  UNL     1     -27.550  -6.899 -35.260  1.00  0.00     0.017 C 
HETATM    9  C7  UNL     1     -28.782  -7.681 -34.826  1.00  0.00     0.024 C 
BRANCH   8  10
HETATM   10  C8  UNL     1     -26.473  -7.540 -34.494  1.00  0.00     0.017 C 
BRANCH  10  11
HETATM   11  C9  UNL     1     -26.781  -8.436 -33.344  1.00  0.00     0.007 C 
BRANCH  11  12
HETATM   12  C10 UNL     1     -26.021  -7.744 -32.156  1.00  0.00     0.079 C 
BRANCH  12  13
HETATM   13  C11 UNL     1     -27.013  -7.307 -31.127  1.00  0.00     0.240 C 
HETATM   14  C12 UNL     1     -28.304  -8.045 -31.327  1.00  0.00     0.090 C 
HETATM   15  F1  UNL     1     -27.216  -5.943 -31.292  1.00  0.00    -0.207 F 
HETATM   16  F2  UNL     1     -26.514  -7.615 -29.886  1.00  0.00    -0.207 F 
ENDBRANCH  12  13
ENDBRANCH  11  12
ENDBRANCH  10  11
ENDBRANCH   8  10
BRANCH   8  17
HETATM   17  C13 UNL     1     -27.301  -7.032 -36.744  1.00  0.00    -0.060 C 
HETATM   18  C14 UNL     1     -26.516  -8.053 -37.027  1.00  0.00     0.009 C 
HETATM   19  C15 UNL     1     -26.064  -8.481 -38.385  1.00  0.00     0.142 C 
HETATM   20  C16 UNL     1     -27.217  -8.040 -39.251  1.00  0.00     0.045 C 
HETATM   21  C17 UNL     1     -27.162  -6.502 -39.140  1.00  0.00     0.030 C 
HETATM   22  C18 UNL     1     -27.718  -5.958 -40.380  1.00  0.00    -0.067 C 
HETATM   23  C34 UNL     1     -27.788  -6.076 -37.815  1.00  0.00    -0.012 C 
HETATM   24  C19 UNL     1     -26.826  -5.047 -41.203  1.00  0.00     0.038 C 
HETATM   25  C31 UNL     1     -29.104  -5.435 -40.377  1.00  0.00    -0.044 C 
HETATM   26  C20 UNL     1     -27.341  -5.072 -42.661  1.00  0.00     0.047 C 
HETATM   27  C21 UNL     1     -27.971  -3.704 -42.969  1.00  0.00     0.088 C 
HETATM   28  C24 UNL     1     -28.934  -3.326 -41.921  1.00  0.00     0.020 A 
HETATM   29  C25 UNL     1     -29.374  -2.050 -42.183  1.00  0.00     0.078 A 
HETATM   30  C30 UNL     1     -29.359  -4.034 -40.766  1.00  0.00    -0.018 A 
HETATM   31  C27 UNL     1     -30.242  -1.451 -41.288  1.00  0.00     0.037 A 
HETATM   32  C28 UNL     1     -30.671  -2.099 -40.157  1.00  0.00     0.004 A 
HETATM   33  C29 UNL     1     -30.222  -3.376 -39.921  1.00  0.00     0.013 A 
HETATM   34  C32 UNL     1     -29.905  -5.997 -39.257  1.00  0.00     0.041 C 
HETATM   35  C33 UNL     1     -29.270  -6.009 -37.912  1.00  0.00     0.019 C 
HETATM   36  C35 UNL     1     -27.220  -4.695 -37.614  1.00  0.00     0.021 C 
BRANCH  19  37
HETATM   37  O3  UNL     1     -25.952  -9.852 -38.494  1.00  0.00    -0.392 OA
ATOM     38  H3  UNL     1     -26.788 -10.293 -38.402  1.00  0.00     0.210 HD
ENDBRANCH  19  37
BRANCH  27  39
HETATM   39  O4  UNL     1     -28.663  -3.849 -44.164  1.00  0.00    -0.385 OA
ATOM     40  H4  UNL     1     -28.246  -4.562 -44.634  1.00  0.00     0.211 HD
ENDBRANCH  27  39
BRANCH  27  41
HETATM   41  C22 UNL     1     -26.752  -2.820 -43.122  1.00  0.00     0.038 C 
HETATM   42  C23 UNL     1     -26.101  -3.091 -44.500  1.00  0.00     0.008 C 
ENDBRANCH  27  41
BRANCH  29  43
HETATM   43  O5  UNL     1     -28.984  -1.349 -43.314  1.00  0.00    -0.355 OA
HETATM   44  C26 UNL     1     -29.148   0.056 -43.406  1.00  0.00     0.210 C 
ENDBRANCH  29  43
ENDBRANCH   8  17
ENDBRANCH   3   8
TORSDOF 12
ENDMDL
MODEL 5
REMARK VINA RESULT: -5.371983504      3.825      9.245
REMARK  12 active torsions:
REMARK  status: ('A' for Active; 'I' for Inactive)
REMARK    1  A    between atoms: C3_3  and  O1_4 
REMARK    2  A    between atoms: C3_3  and  C6_8 
REMARK    3  A    between atoms: O1_4  and  C4_5 
REMARK    4  A    between atoms: C6_8  and  C8_10 
REMARK    5  A    between atoms: C6_8  and  C13_17 
REMARK    6  A    between atoms: C8_10  and  C9_11 
REMARK    7  A    between atoms: C9_11  and  C10_12 
REMARK    8  A    between atoms: C10_12  and  C11_13 
REMARK    9  A    between atoms: C15_19  and  O3_20 
REMARK   10  A    between atoms: C21_27  and  O4_28 
REMARK   11  A    between atoms: C21_27  and  C22_30 
REMARK   12  A    between atoms: C25_33  and  O5_34 
ROOT
HETATM    1  C1  UNL     1     -30.115  -5.803 -31.241  1.00  0.00     0.099 C 
HETATM    2  C2  UNL     1     -29.597  -5.408 -32.276  1.00  0.00    -0.154 C 
HETATM    3  C3  UNL     1     -29.013  -4.879 -33.517  1.00  0.00     0.209 C 
ENDROOT
BRANCH   3   4
HETATM    4  O1  UNL     1     -27.642  -4.605 -33.121  1.00  0.00    -0.304 OA
BRANCH   4   5
HETATM    5  C4  UNL     1     -27.000  -3.425 -33.351  1.00  0.00     0.256 C 
HETATM    6  C5  UNL     1     -26.780  -2.384 -32.302  1.00  0.00     0.126 C 
HETATM    7  O2  UNL     1     -26.556  -3.162 -34.490  1.00  0.00    -0.266 OA
ENDBRANCH   4   5
ENDBRANCH   3   4
BRANCH   3   8
HETATM    8  C6  UNL     1     -29.041  -5.796 -34.690  1.00  0.00     0.017 C 
HETATM    9  C7  UNL     1     -30.148  -6.826 -34.505  1.00  0.00     0.024 C 
BRANCH   8  10
HETATM   10  C8  UNL     1     -27.849  -6.631 -34.882  1.00  0.00     0.017 C 
BRANCH  10  11
HETATM   11  C9  UNL     1     -27.691  -7.920 -34.151  1.00  0.00     0.007 C 
BRANCH  11  12
HETATM   12  C10 UNL     1     -26.296  -7.748 -33.450  1.00  0.00     0.079 C 
BRANCH  12  13
HETATM   13  C11 UNL     1     -26.471  -7.873 -31.970  1.00  0.00     0.240 C 
HETATM   14  C12 UNL     1     -27.720  -8.650 -31.675  1.00  0.00     0.090 C 
HETATM   15  F1  UNL     1     -26.577  -6.589 -31.451  1.00  0.00    -0.207 F 
HETATM   16  F2  UNL     1     -25.394  -8.555 -31.462  1.00  0.00    -0.207 F 
ENDBRANCH  12  13
ENDBRANCH  11  12
ENDBRANCH  10  11
ENDBRANCH   8  10
BRANCH   8  17
HETATM   17  C13 UNL     1     -29.287  -4.929 -35.902  1.00  0.00    -0.060 C 
HETATM   18  C14 UNL     1     -30.147  -3.960 -35.654  1.00  0.00     0.009 C 
HETATM   19  C15 UNL     1     -30.619  -2.920 -36.617  1.00  0.00     0.142 C 
HETATM   20  C16 UNL     1     -29.429  -2.776 -37.531  1.00  0.00     0.045 C 
HETATM   21  C17 UNL     1     -29.366  -4.150 -38.232  1.00  0.00     0.030 C 
HETATM   22  C18 UNL     1     -28.760  -3.938 -39.547  1.00  0.00    -0.067 C 
HETATM   23  C34 UNL     1     -28.720  -5.161 -37.289  1.00  0.00    -0.012 C 
HETATM   24  C19 UNL     1     -29.573  -4.343 -40.763  1.00  0.00     0.038 C 
HETATM   25  C31 UNL     1     -27.338  -4.300 -39.750  1.00  0.00    -0.044 C 
HETATM   26  C20 UNL     1     -29.051  -3.536 -41.973  1.00  0.00     0.047 C 
HETATM   27  C21 UNL     1     -28.315  -4.504 -42.913  1.00  0.00     0.088 C 
HETATM   28  C24 UNL     1     -27.334  -5.310 -42.167  1.00  0.00     0.020 A 
HETATM   29  C25 UNL     1     -26.796  -6.237 -43.029  1.00  0.00     0.078 A 
HETATM   30  C30 UNL     1     -26.974  -5.278 -40.794  1.00  0.00    -0.018 A 
HETATM   31  C27 UNL     1     -25.891  -7.157 -42.532  1.00  0.00     0.037 A 
HETATM   32  C28 UNL     1     -25.522  -7.164 -41.210  1.00  0.00     0.004 A 
HETATM   33  C29 UNL     1     -26.070  -6.225 -40.370  1.00  0.00     0.013 A 
HETATM   34  C32 UNL     1     -26.592  -4.352 -38.465  1.00  0.00     0.041 C 
HETATM   35  C33 UNL     1     -27.237  -5.076 -37.337  1.00  0.00     0.019 C 
HETATM   36  C35 UNL     1     -29.182  -6.478 -37.856  1.00  0.00     0.021 C 
BRANCH  19  37
HETATM   37  O3  UNL     1     -30.835  -1.700 -36.008  1.00  0.00    -0.392 OA
ATOM     38  H3  UNL     1     -30.136  -1.080 -36.179  1.00  0.00     0.210 HD
ENDBRANCH  19  37
BRANCH  27  39
HETATM   39  O4  UNL     1     -27.626  -3.720 -43.828  1.00  0.00    -0.385 OA
ATOM     40  H4  UNL     1     -27.065  -4.308 -44.320  1.00  0.00     0.211 HD
ENDBRANCH  27  39
BRANCH  27  41
HETATM   41  C22 UNL     1     -29.461  -5.254 -43.556  1.00  0.00     0.038 C 
HETATM   42  C23 UNL     1     -30.150  -4.333 -44.591  1.00  0.00     0.008 C 
ENDBRANCH  27  41
BRANCH  29  43
HETATM   43  O5  UNL     1     -27.122  -6.273 -44.376  1.00  0.00    -0.355 OA
HETATM   44  C26 UNL     1     -26.138  -6.512 -45.368  1.00  0.00     0.210 C 
ENDBRANCH  29  43
ENDBRANCH   8  17
ENDBRANCH   3   8
TORSDOF 12
ENDMDL
