MODEL 1
REMARK VINA RESULT: -6.264239893      0.000      0.000
REMARK  8 active torsions:
REMARK  status: ('A' for Active; 'I' for Inactive)
REMARK    1  A    between atoms: N1_2  and  C2_5 
REMARK    2  A    between atoms: C2_5  and  C3_6 
REMARK    3  A    between atoms: C3_6  and  N2_7 
REMARK    4  A    between atoms: N2_7  and  C4_10 
REMARK    5  A    between atoms: C4_10  and  C5_11 
REMARK    6  A    between atoms: C5_11  and  N3_12 
REMARK    7  A    between atoms: N3_12  and  C6_14 
REMARK    8  A    between atoms: C6_14  and  C7_15 
ROOT
HETATM    1  N3  UNL     1       6.065  -1.996  -0.431  1.00  0.00    -0.419 N 
ATOM      2  H3  UNL     1       6.823  -1.627   0.142  1.00  0.00     0.153 HD
ENDROOT
BRANCH   1   3
HETATM    3  C5  UNL     1       5.632  -3.354  -0.345  1.00  0.00     0.141 C 
BRANCH   3   4
HETATM    4  C4  UNL     1       6.502  -4.315  -1.105  1.00  0.00     0.251 C 
BRANCH   4   5
HETATM    5  N2  UNL     1       6.425  -5.670  -0.610  1.00  0.00    -0.072 N 
ATOM      6  H22 UNL     1       7.340  -6.120  -0.575  1.00  0.00     0.277 HD
ATOM      7  H21 UNL     1       5.978  -6.299  -1.276  1.00  0.00     0.277 HD
BRANCH   5   8
HETATM    8  C3  UNL     1       5.765  -5.678   0.674  1.00  0.00     0.259 C 
BRANCH   8   9
HETATM    9  C2  UNL     1       5.393  -7.082   1.112  1.00  0.00     0.259 C 
BRANCH   9  10
HETATM   10  N1  UNL     1       6.497  -7.998   1.076  1.00  0.00    -0.077 N 
HETATM   11  C1  UNL     1       5.970  -9.313   1.441  1.00  0.00     0.267 C 
ATOM     12  H12 UNL     1       7.281  -7.703   1.657  1.00  0.00     0.276 HD
ATOM     13  H11 UNL     1       6.990  -7.996   0.183  1.00  0.00     0.276 HD
ENDBRANCH   9  10
ENDBRANCH   8   9
ENDBRANCH   5   8
ENDBRANCH   4   5
ENDBRANCH   3   4
ENDBRANCH   1   3
BRANCH   1  14
HETATM   14  C6  UNL     1       5.359  -1.193  -1.377  1.00  0.00     0.118 C 
BRANCH  14  15
HETATM   15  C7  UNL     1       5.296   0.227  -0.888  1.00  0.00     0.003 C 
HETATM   16  C8  UNL     1       4.751   1.196  -1.894  1.00  0.00     0.006 C 
HETATM   17  C9  UNL     1       3.770   0.655  -2.862  1.00  0.00     0.000 C 
HETATM   18  C10 UNL     1       2.669   1.637  -3.209  1.00  0.00     0.000 C 
HETATM   19  C11 UNL     1       1.980   2.193  -1.998  1.00  0.00     0.000 C 
HETATM   20  C12 UNL     1       1.492   1.144  -1.051  1.00  0.00     0.000 C 
HETATM   21  C13 UNL     1       2.220   1.147   0.277  1.00  0.00     0.004 C 
HETATM   22  C14 UNL     1       3.149  -0.044   0.426  1.00  0.00    -0.018 C 
HETATM   23  C15 UNL     1       2.834  -0.673   1.789  1.00  0.00     0.010 C 
HETATM   24  C16 UNL     1       4.592   0.335   0.451  1.00  0.00     0.010 C 
ENDBRANCH  14  15
ENDBRANCH   1  14
TORSDOF 8
ENDMDL
MODEL 2
REMARK VINA RESULT: -6.234146124      1.647      2.563
REMARK  8 active torsions:
REMARK  status: ('A' for Active; 'I' for Inactive)
REMARK    1  A    between atoms: N1_2  and  C2_5 
REMARK    2  A    between atoms: C2_5  and  C3_6 
REMARK    3  A    between atoms: C3_6  and  N2_7 
REMARK    4  A    between atoms: N2_7  and  C4_10 
REMARK    5  A    between atoms: C4_10  and  C5_11 
REMARK    6  A    between atoms: C5_11  and  N3_12 
REMARK    7  A    between atoms: N3_12  and  C6_14 
REMARK    8  A    between atoms: C6_14  and  C7_15 
ROOT
HETATM    1  N3  UNL     1       7.177  -2.128  -1.552  1.00  0.00    -0.419 N 
ATOM      2  H3  UNL     1       7.839  -1.656  -2.168  1.00  0.00     0.153 HD
ENDROOT
BRANCH   1   3
HETATM    3  C5  UNL     1       6.774  -3.482  -1.755  1.00  0.00     0.141 C 
BRANCH   3   4
HETATM    4  C4  UNL     1       5.921  -4.031  -0.647  1.00  0.00     0.251 C 
BRANCH   4   5
HETATM    5  N2  UNL     1       6.129  -5.442  -0.410  1.00  0.00    -0.072 N 
ATOM      6  H22 UNL     1       7.078  -5.735  -0.641  1.00  0.00     0.277 HD
ATOM      7  H21 UNL     1       5.629  -6.023  -1.082  1.00  0.00     0.277 HD
BRANCH   5   8
HETATM    8  C3  UNL     1       5.778  -5.759   0.954  1.00  0.00     0.259 C 
BRANCH   8   9
HETATM    9  C2  UNL     1       5.385  -7.216   1.114  1.00  0.00     0.259 C 
BRANCH   9  10
HETATM   10  N1  UNL     1       6.506  -8.111   1.070  1.00  0.00    -0.077 N 
HETATM   11  C1  UNL     1       6.014  -9.427   1.480  1.00  0.00     0.267 C 
ATOM     12  H12 UNL     1       7.299  -7.789   1.624  1.00  0.00     0.276 HD
ATOM     13  H11 UNL     1       6.975  -8.122   0.165  1.00  0.00     0.276 HD
ENDBRANCH   9  10
ENDBRANCH   8   9
ENDBRANCH   5   8
ENDBRANCH   4   5
ENDBRANCH   3   4
ENDBRANCH   1   3
BRANCH   1  14
HETATM   14  C6  UNL     1       6.588  -1.483  -0.423  1.00  0.00     0.118 C 
BRANCH  14  15
HETATM   15  C7  UNL     1       5.970  -0.181  -0.851  1.00  0.00     0.003 C 
HETATM   16  C8  UNL     1       4.470  -0.197  -0.882  1.00  0.00     0.006 C 
HETATM   17  C9  UNL     1       3.804  -1.104   0.081  1.00  0.00     0.000 C 
HETATM   18  C10 UNL     1       2.518  -0.535   0.646  1.00  0.00     0.000 C 
HETATM   19  C11 UNL     1       2.694   0.836   1.231  1.00  0.00     0.000 C 
HETATM   20  C12 UNL     1       3.809   0.926   2.223  1.00  0.00     0.000 C 
HETATM   21  C13 UNL     1       4.963   1.787   1.754  1.00  0.00     0.004 C 
HETATM   22  C14 UNL     1       6.187   0.963   1.397  1.00  0.00    -0.018 C 
HETATM   23  C15 UNL     1       7.372   1.606   2.128  1.00  0.00     0.010 C 
HETATM   24  C16 UNL     1       6.513   0.993  -0.058  1.00  0.00     0.010 C 
ENDBRANCH  14  15
ENDBRANCH   1  14
TORSDOF 8
ENDMDL
MODEL 3
REMARK VINA RESULT: -6.125480932      1.521      2.812
REMARK  8 active torsions:
REMARK  status: ('A' for Active; 'I' for Inactive)
REMARK    1  A    between atoms: N1_2  and  C2_5 
REMARK    2  A    between atoms: C2_5  and  C3_6 
REMARK    3  A    between atoms: C3_6  and  N2_7 
REMARK    4  A    between atoms: N2_7  and  C4_10 
REMARK    5  A    between atoms: C4_10  and  C5_11 
REMARK    6  A    between atoms: C5_11  and  N3_12 
REMARK    7  A    between atoms: N3_12  and  C6_14 
REMARK    8  A    between atoms: C6_14  and  C7_15 
ROOT
HETATM    1  N3  UNL     1       5.400  -2.414  -0.797  1.00  0.00    -0.419 N 
ATOM      2  H3  UNL     1       5.598  -2.204  -1.775  1.00  0.00     0.153 HD
ENDROOT
BRANCH   1   3
HETATM    3  C5  UNL     1       6.004  -3.512  -0.113  1.00  0.00     0.141 C 
BRANCH   3   4
HETATM    4  C4  UNL     1       6.542  -4.574  -1.031  1.00  0.00     0.251 C 
BRANCH   4   5
HETATM    5  N2  UNL     1       6.169  -5.913  -0.636  1.00  0.00    -0.072 N 
ATOM      6  H22 UNL     1       6.912  -6.588  -0.814  1.00  0.00     0.277 HD
ATOM      7  H21 UNL     1       5.459  -6.312  -1.251  1.00  0.00     0.277 HD
BRANCH   5   8
HETATM    8  C3  UNL     1       5.754  -5.910   0.746  1.00  0.00     0.259 C 
BRANCH   8   9
HETATM    9  C2  UNL     1       5.373  -7.298   1.227  1.00  0.00     0.259 C 
BRANCH   9  10
HETATM   10  N1  UNL     1       6.466  -8.228   1.193  1.00  0.00    -0.077 N 
HETATM   11  C1  UNL     1       5.938  -9.521   1.628  1.00  0.00     0.267 C 
ATOM     12  H12 UNL     1       7.272  -7.919   1.737  1.00  0.00     0.276 HD
ATOM     13  H11 UNL     1       6.931  -8.268   0.286  1.00  0.00     0.276 HD
ENDBRANCH   9  10
ENDBRANCH   8   9
ENDBRANCH   5   8
ENDBRANCH   4   5
ENDBRANCH   3   4
ENDBRANCH   1   3
BRANCH   1  14
HETATM   14  C6  UNL     1       4.501  -1.631  -0.012  1.00  0.00     0.118 C 
BRANCH  14  15
HETATM   15  C7  UNL     1       4.499  -0.213  -0.509  1.00  0.00     0.003 C 
HETATM   16  C8  UNL     1       3.301   0.582  -0.084  1.00  0.00     0.006 C 
HETATM   17  C9  UNL     1       2.685   0.202   1.209  1.00  0.00     0.000 C 
HETATM   18  C10 UNL     1       2.165   1.389   1.995  1.00  0.00     0.000 C 
HETATM   19  C11 UNL     1       3.197   2.461   2.184  1.00  0.00     0.000 C 
HETATM   20  C12 UNL     1       4.487   1.959   2.751  1.00  0.00     0.000 C 
HETATM   21  C13 UNL     1       5.646   2.049   1.780  1.00  0.00     0.004 C 
HETATM   22  C14 UNL     1       6.069   0.687   1.263  1.00  0.00    -0.018 C 
HETATM   23  C15 UNL     1       7.589   0.606   1.444  1.00  0.00     0.010 C 
HETATM   24  C16 UNL     1       5.800   0.501  -0.193  1.00  0.00     0.010 C 
ENDBRANCH  14  15
ENDBRANCH   1  14
TORSDOF 8
ENDMDL
MODEL 4
REMARK VINA RESULT: -6.061426946      3.499      5.325
REMARK  8 active torsions:
REMARK  status: ('A' for Active; 'I' for Inactive)
REMARK    1  A    between atoms: N1_2  and  C2_5 
REMARK    2  A    between atoms: C2_5  and  C3_6 
REMARK    3  A    between atoms: C3_6  and  N2_7 
REMARK    4  A    between atoms: N2_7  and  C4_10 
REMARK    5  A    between atoms: C4_10  and  C5_11 
REMARK    6  A    between atoms: C5_11  and  N3_12 
REMARK    7  A    between atoms: N3_12  and  C6_14 
REMARK    8  A    between atoms: C6_14  and  C7_15 
ROOT
HETATM    1  N3  UNL     1       6.105  -2.085  -1.304  1.00  0.00    -0.419 N 
ATOM      2  H3  UNL     1       5.430  -1.412  -1.666  1.00  0.00     0.153 HD
ENDROOT
BRANCH   1   3
HETATM    3  C5  UNL     1       5.713  -3.346  -0.761  1.00  0.00     0.141 C 
BRANCH   3   4
HETATM    4  C4  UNL     1       6.624  -4.478  -1.143  1.00  0.00     0.251 C 
BRANCH   4   5
HETATM    5  N2  UNL     1       6.124  -5.774  -0.744  1.00  0.00    -0.072 N 
ATOM      6  H22 UNL     1       6.780  -6.524  -0.963  1.00  0.00     0.277 HD
ATOM      7  H21 UNL     1       5.348  -6.083  -1.328  1.00  0.00     0.277 HD
BRANCH   5   8
HETATM    8  C3  UNL     1       5.776  -5.746   0.656  1.00  0.00     0.259 C 
BRANCH   8   9
HETATM    9  C2  UNL     1       5.405  -7.123   1.176  1.00  0.00     0.259 C 
BRANCH   9  10
HETATM   10  N1  UNL     1       6.484  -8.066   1.098  1.00  0.00    -0.077 N 
HETATM   11  C1  UNL     1       5.951  -9.358   1.532  1.00  0.00     0.267 C 
ATOM     12  H12 UNL     1       7.309  -7.776   1.622  1.00  0.00     0.276 HD
ATOM     13  H11 UNL     1       6.921  -8.101   0.177  1.00  0.00     0.276 HD
ENDBRANCH   9  10
ENDBRANCH   8   9
ENDBRANCH   5   8
ENDBRANCH   4   5
ENDBRANCH   3   4
ENDBRANCH   1   3
BRANCH   1  14
HETATM   14  C6  UNL     1       7.511  -1.835  -1.302  1.00  0.00     0.118 C 
BRANCH  14  15
HETATM   15  C7  UNL     1       7.762  -0.356  -1.389  1.00  0.00     0.003 C 
HETATM   16  C8  UNL     1       7.599   0.369  -0.087  1.00  0.00     0.006 C 
HETATM   17  C9  UNL     1       7.898  -0.407   1.138  1.00  0.00     0.000 C 
HETATM   18  C10 UNL     1       8.564   0.419   2.221  1.00  0.00     0.000 C 
HETATM   19  C11 UNL     1       9.782   1.147   1.734  1.00  0.00     0.000 C 
HETATM   20  C12 UNL     1      10.770   0.265   1.040  1.00  0.00     0.000 C 
HETATM   21  C13 UNL     1      10.910   0.565  -0.438  1.00  0.00     0.004 C 
HETATM   22  C14 UNL     1      10.287  -0.513  -1.304  1.00  0.00    -0.018 C 
HETATM   23  C15 UNL     1      11.342  -0.894  -2.350  1.00  0.00     0.010 C 
HETATM   24  C16 UNL     1       9.087  -0.043  -2.057  1.00  0.00     0.010 C 
ENDBRANCH  14  15
ENDBRANCH   1  14
TORSDOF 8
ENDMDL
MODEL 5
REMARK VINA RESULT: -6.031680250      1.544      3.042
REMARK  8 active torsions:
REMARK  status: ('A' for Active; 'I' for Inactive)
REMARK    1  A    between atoms: N1_2  and  C2_5 
REMARK    2  A    between atoms: C2_5  and  C3_6 
REMARK    3  A    between atoms: C3_6  and  N2_7 
REMARK    4  A    between atoms: N2_7  and  C4_10 
REMARK    5  A    between atoms: C4_10  and  C5_11 
REMARK    6  A    between atoms: C5_11  and  N3_12 
REMARK    7  A    between atoms: N3_12  and  C6_14 
REMARK    8  A    between atoms: C6_14  and  C7_15 
ROOT
HETATM    1  N3  UNL     1       5.362  -1.156  -0.384  1.00  0.00    -0.419 N 
ATOM      2  H3  UNL     1       6.358  -0.938  -0.373  1.00  0.00     0.153 HD
ENDROOT
BRANCH   1   3
HETATM    3  C5  UNL     1       4.870  -2.494  -0.310  1.00  0.00     0.141 C 
BRANCH   3   4
HETATM    4  C4  UNL     1       5.954  -3.534  -0.249  1.00  0.00     0.251 C 
BRANCH   4   5
HETATM    5  N2  UNL     1       5.703  -4.564   0.733  1.00  0.00    -0.072 N 
ATOM      6  H22 UNL     1       4.848  -4.393   1.261  1.00  0.00     0.277 HD
ATOM      7  H21 UNL     1       6.364  -4.526   1.508  1.00  0.00     0.277 HD
BRANCH   5   8
HETATM    8  C3  UNL     1       5.696  -5.855   0.086  1.00  0.00     0.259 C 
BRANCH   8   9
HETATM    9  C2  UNL     1       5.480  -6.984   1.077  1.00  0.00     0.259 C 
BRANCH   9  10
HETATM   10  N1  UNL     1       6.518  -7.975   1.040  1.00  0.00    -0.077 N 
HETATM   11  C1  UNL     1       5.923  -9.230   1.499  1.00  0.00     0.267 C 
ATOM     12  H12 UNL     1       7.347  -7.706   1.569  1.00  0.00     0.276 HD
ATOM     13  H11 UNL     1       6.966  -8.053   0.127  1.00  0.00     0.276 HD
ENDBRANCH   9  10
ENDBRANCH   8   9
ENDBRANCH   5   8
ENDBRANCH   4   5
ENDBRANCH   3   4
ENDBRANCH   1   3
BRANCH   1  14
HETATM   14  C6  UNL     1       4.358  -0.146  -0.474  1.00  0.00     0.118 C 
BRANCH  14  15
HETATM   15  C7  UNL     1       3.268  -0.426   0.522  1.00  0.00     0.003 C 
HETATM   16  C8  UNL     1       3.573   0.049   1.912  1.00  0.00     0.006 C 
HETATM   17  C9  UNL     1       4.451   1.236   2.022  1.00  0.00     0.000 C 
HETATM   18  C10 UNL     1       4.065   2.161   3.160  1.00  0.00     0.000 C 
HETATM   19  C11 UNL     1       2.620   2.561   3.121  1.00  0.00     0.000 C 
HETATM   20  C12 UNL     1       2.186   3.114   1.801  1.00  0.00     0.000 C 
HETATM   21  C13 UNL     1       1.193   2.230   1.076  1.00  0.00     0.004 C 
HETATM   22  C14 UNL     1       1.810   1.540  -0.126  1.00  0.00    -0.018 C 
HETATM   23  C15 UNL     1       0.860   1.787  -1.305  1.00  0.00     0.010 C 
HETATM   24  C16 UNL     1       1.916   0.060   0.036  1.00  0.00     0.010 C 
ENDBRANCH  14  15
ENDBRANCH   1  14
TORSDOF 8
ENDMDL
