MODEL 1
REMARK VINA RESULT: -5.634649904      0.000      0.000
REMARK  10 active torsions:
REMARK  status: ('A' for Active; 'I' for Inactive)
REMARK    1  A    between atoms: C2_2  and  C3_3 
REMARK    2  A    between atoms: C3_3  and  C5_5 
REMARK    3  A    between atoms: C5_5  and  N1_6 
REMARK    4  A    between atoms: C5_5  and  C12_16 
REMARK    5  A    between atoms: N1_6  and  C6_8 
REMARK    6  A    between atoms: C6_8  and  C7_9 
REMARK    7  A    between atoms: C6_8  and  C8_12 
REMARK    8  A    between atoms: C7_9  and  O1_10 
REMARK    9  A    between atoms: C8_12  and  C9_13 
REMARK   10  A    between atoms: C14_18  and  O2_19 
ROOT
HETATM    1  C5  UNL     1       5.702  -1.945  -0.327  1.00  0.00     0.084 C 
ENDROOT
BRANCH   1   2
HETATM    2  C3  UNL     1       6.710  -1.711  -1.435  1.00  0.00     0.004 C 
HETATM    3  C4  UNL     1       8.001  -1.116  -0.909  1.00  0.00     0.012 C 
BRANCH   2   4
HETATM    4  C2  UNL     1       6.175  -0.888  -2.583  1.00  0.00     0.002 C 
HETATM    5  C1  UNL     1       6.906   0.410  -2.615  1.00  0.00     0.005 C 
ENDBRANCH   2   4
ENDBRANCH   1   2
BRANCH   1   6
HETATM    6  N1  UNL     1       4.477  -1.311  -0.739  1.00  0.00    -0.410 N 
ATOM      7  H1  UNL     1       3.994  -1.570  -1.599  1.00  0.00     0.154 HD
BRANCH   6   8
HETATM    8  C6  UNL     1       3.973  -0.278   0.150  1.00  0.00     0.100 C 
BRANCH   8   9
HETATM    9  C7  UNL     1       2.659  -0.579   0.778  1.00  0.00     0.188 C 
BRANCH   9  10
HETATM   10  O1  UNL     1       2.692  -0.916   2.107  1.00  0.00    -0.399 OA
ATOM     11  H1  UNL     1       2.885  -1.826   2.301  1.00  0.00     0.209 HD
ENDBRANCH   9  10
ENDBRANCH   8   9
BRANCH   8  12
HETATM   12  C8  UNL     1       5.113   0.007   1.071  1.00  0.00     0.031 C 
BRANCH  12  13
HETATM   13  C9  UNL     1       5.527   1.398   1.326  1.00  0.00    -0.021 C 
HETATM   14  C10 UNL     1       7.017   1.268   1.814  1.00  0.00     0.009 C 
HETATM   15  C11 UNL     1       4.866   2.041   2.547  1.00  0.00     0.009 C 
ENDBRANCH  12  13
ENDBRANCH   8  12
ENDBRANCH   6   8
ENDBRANCH   1   6
BRANCH   1  16
HETATM   16  C12 UNL     1       5.426  -3.430  -0.352  1.00  0.00     0.013 C 
HETATM   17  C13 UNL     1       5.870  -4.189   0.886  1.00  0.00     0.038 C 
HETATM   18  C14 UNL     1       6.000  -5.385  -0.049  1.00  0.00     0.119 C 
HETATM   19  C15 UNL     1       6.392  -4.312  -1.089  1.00  0.00     0.038 C 
BRANCH  18  20
HETATM   20  O2  UNL     1       4.731  -5.878  -0.315  1.00  0.00    -0.396 OA
ATOM     21  H2  UNL     1       4.193  -5.763   0.459  1.00  0.00     0.210 HD
ENDBRANCH  18  20
ENDBRANCH   1  16
TORSDOF 10
ENDMDL
MODEL 2
REMARK VINA RESULT: -5.634540760      2.971      5.819
REMARK  10 active torsions:
REMARK  status: ('A' for Active; 'I' for Inactive)
REMARK    1  A    between atoms: C2_2  and  C3_3 
REMARK    2  A    between atoms: C3_3  and  C5_5 
REMARK    3  A    between atoms: C5_5  and  N1_6 
REMARK    4  A    between atoms: C5_5  and  C12_16 
REMARK    5  A    between atoms: N1_6  and  C6_8 
REMARK    6  A    between atoms: C6_8  and  C7_9 
REMARK    7  A    between atoms: C6_8  and  C8_12 
REMARK    8  A    between atoms: C7_9  and  O1_10 
REMARK    9  A    between atoms: C8_12  and  C9_13 
REMARK   10  A    between atoms: C14_18  and  O2_19 
ROOT
HETATM    1  C5  UNL     1       4.686   0.603  -1.391  1.00  0.00     0.084 C 
ENDROOT
BRANCH   1   2
HETATM    2  C3  UNL     1       4.278   0.562   0.069  1.00  0.00     0.004 C 
HETATM    3  C4  UNL     1       5.466   0.749   0.992  1.00  0.00     0.012 C 
BRANCH   2   4
HETATM    4  C2  UNL     1       3.498  -0.674   0.450  1.00  0.00     0.002 C 
HETATM    5  C1  UNL     1       2.751  -0.390   1.708  1.00  0.00     0.005 C 
ENDBRANCH   2   4
ENDBRANCH   1   2
BRANCH   1   6
HETATM    6  N1  UNL     1       5.044  -0.742  -1.761  1.00  0.00    -0.410 N 
ATOM      7  H1  UNL     1       4.368  -1.505  -1.753  1.00  0.00     0.154 HD
BRANCH   6   8
HETATM    8  C6  UNL     1       6.430  -0.941  -2.145  1.00  0.00     0.100 C 
BRANCH   8   9
HETATM    9  C7  UNL     1       7.262   0.291  -2.151  1.00  0.00     0.188 C 
BRANCH   9  10
HETATM   10  O1  UNL     1       8.470   0.198  -2.793  1.00  0.00    -0.399 OA
ATOM     11  H1  UNL     1       8.785   0.994  -3.205  1.00  0.00     0.209 HD
ENDBRANCH   9  10
ENDBRANCH   8   9
BRANCH   8  12
HETATM   12  C8  UNL     1       6.896  -2.068  -1.282  1.00  0.00     0.031 C 
BRANCH  12  13
HETATM   13  C9  UNL     1       6.088  -3.294  -1.167  1.00  0.00    -0.021 C 
HETATM   14  C10 UNL     1       5.873  -3.464   0.382  1.00  0.00     0.009 C 
HETATM   15  C11 UNL     1       6.840  -4.582  -1.509  1.00  0.00     0.009 C 
ENDBRANCH  12  13
ENDBRANCH   8  12
ENDBRANCH   6   8
ENDBRANCH   1   6
BRANCH   1  16
HETATM   16  C12 UNL     1       3.415   0.913  -2.147  1.00  0.00     0.013 C 
HETATM   17  C13 UNL     1       3.556   0.940  -3.659  1.00  0.00     0.038 C 
HETATM   18  C14 UNL     1       2.384   1.914  -3.623  1.00  0.00     0.119 C 
HETATM   19  C15 UNL     1       3.012   2.353  -2.283  1.00  0.00     0.038 C 
BRANCH  18  20
HETATM   20  O2  UNL     1       1.219   1.196  -3.401  1.00  0.00    -0.396 OA
ATOM     21  H2  UNL     1       0.476   1.756  -3.593  1.00  0.00     0.210 HD
ENDBRANCH  18  20
ENDBRANCH   1  16
TORSDOF 10
ENDMDL
MODEL 3
REMARK VINA RESULT: -5.564878892      2.189      3.654
REMARK  10 active torsions:
REMARK  status: ('A' for Active; 'I' for Inactive)
REMARK    1  A    between atoms: C2_2  and  C3_3 
REMARK    2  A    between atoms: C3_3  and  C5_5 
REMARK    3  A    between atoms: C5_5  and  N1_6 
REMARK    4  A    between atoms: C5_5  and  C12_16 
REMARK    5  A    between atoms: N1_6  and  C6_8 
REMARK    6  A    between atoms: C6_8  and  C7_9 
REMARK    7  A    between atoms: C6_8  and  C8_12 
REMARK    8  A    between atoms: C7_9  and  O1_10 
REMARK    9  A    between atoms: C8_12  and  C9_13 
REMARK   10  A    between atoms: C14_18  and  O2_19 
ROOT
HETATM    1  C5  UNL     1       5.939  -2.051  -0.816  1.00  0.00     0.084 C 
ENDROOT
BRANCH   1   2
HETATM    2  C3  UNL     1       4.637  -1.290  -0.664  1.00  0.00     0.004 C 
HETATM    3  C4  UNL     1       4.584  -0.073  -1.567  1.00  0.00     0.012 C 
BRANCH   2   4
HETATM    4  C2  UNL     1       4.315  -0.907   0.762  1.00  0.00     0.002 C 
HETATM    5  C1  UNL     1       2.871  -0.547   0.840  1.00  0.00     0.005 C 
ENDBRANCH   2   4
ENDBRANCH   1   2
BRANCH   1   6
HETATM    6  N1  UNL     1       6.753  -1.713   0.323  1.00  0.00    -0.410 N 
ATOM      7  H1  UNL     1       6.496  -1.983   1.273  1.00  0.00     0.154 HD
BRANCH   6   8
HETATM    8  C6  UNL     1       7.963  -0.965   0.033  1.00  0.00     0.100 C 
BRANCH   8   9
HETATM    9  C7  UNL     1       8.157  -0.619  -1.400  1.00  0.00     0.188 C 
BRANCH   9  10
HETATM   10  O1  UNL     1       9.382  -0.927  -1.932  1.00  0.00    -0.399 OA
ATOM     11  H1  UNL     1       9.458  -1.784  -2.334  1.00  0.00     0.209 HD
ENDBRANCH   9  10
ENDBRANCH   8   9
BRANCH   8  12
HETATM   12  C8  UNL     1       7.940   0.169   1.006  1.00  0.00     0.031 C 
BRANCH  12  13
HETATM   13  C9  UNL     1       8.990   0.284   2.032  1.00  0.00    -0.021 C 
HETATM   14  C10 UNL     1       8.620   1.599   2.810  1.00  0.00     0.009 C 
HETATM   15  C11 UNL     1      10.374   0.639   1.483  1.00  0.00     0.009 C 
ENDBRANCH  12  13
ENDBRANCH   8  12
ENDBRANCH   6   8
ENDBRANCH   1   6
BRANCH   1  16
HETATM   16  C12 UNL     1       5.569  -3.505  -0.642  1.00  0.00     0.013 C 
HETATM   17  C13 UNL     1       5.898  -4.094   0.719  1.00  0.00     0.038 C 
HETATM   18  C14 UNL     1       6.000  -5.422  -0.023  1.00  0.00     0.119 C 
HETATM   19  C15 UNL     1       6.514  -4.539  -1.181  1.00  0.00     0.038 C 
BRANCH  18  20
HETATM   20  O2  UNL     1       4.718  -5.877  -0.292  1.00  0.00    -0.396 OA
ATOM     21  H2  UNL     1       4.761  -6.496  -1.011  1.00  0.00     0.210 HD
ENDBRANCH  18  20
ENDBRANCH   1  16
TORSDOF 10
ENDMDL
MODEL 4
REMARK VINA RESULT: -5.533864478      1.325      2.403
REMARK  10 active torsions:
REMARK  status: ('A' for Active; 'I' for Inactive)
REMARK    1  A    between atoms: C2_2  and  C3_3 
REMARK    2  A    between atoms: C3_3  and  C5_5 
REMARK    3  A    between atoms: C5_5  and  N1_6 
REMARK    4  A    between atoms: C5_5  and  C12_16 
REMARK    5  A    between atoms: N1_6  and  C6_8 
REMARK    6  A    between atoms: C6_8  and  C7_9 
REMARK    7  A    between atoms: C6_8  and  C8_12 
REMARK    8  A    between atoms: C7_9  and  O1_10 
REMARK    9  A    between atoms: C8_12  and  C9_13 
REMARK   10  A    between atoms: C14_18  and  O2_19 
ROOT
HETATM    1  C5  UNL     1       5.642  -2.168  -0.041  1.00  0.00     0.084 C 
ENDROOT
BRANCH   1   2
HETATM    2  C3  UNL     1       6.576  -1.829  -1.185  1.00  0.00     0.004 C 
HETATM    3  C4  UNL     1       7.817  -1.103  -0.707  1.00  0.00     0.012 C 
BRANCH   2   4
HETATM    4  C2  UNL     1       5.914  -1.065  -2.309  1.00  0.00     0.002 C 
HETATM    5  C1  UNL     1       6.619   0.238  -2.473  1.00  0.00     0.005 C 
ENDBRANCH   2   4
ENDBRANCH   1   2
BRANCH   1   6
HETATM    6  N1  UNL     1       4.381  -1.535  -0.332  1.00  0.00    -0.410 N 
ATOM      7  H1  UNL     1       3.869  -1.718  -1.195  1.00  0.00     0.154 HD
BRANCH   6   8
HETATM    8  C6  UNL     1       3.885  -0.620   0.682  1.00  0.00     0.100 C 
BRANCH   8   9
HETATM    9  C7  UNL     1       4.855   0.422   1.112  1.00  0.00     0.188 C 
BRANCH   9  10
HETATM   10  O1  UNL     1       4.510   1.139   2.228  1.00  0.00    -0.399 OA
ATOM     11  H1  UNL     1       5.002   1.938   2.379  1.00  0.00     0.209 HD
ENDBRANCH   9  10
ENDBRANCH   8   9
BRANCH   8  12
HETATM   12  C8  UNL     1       2.575  -0.145   0.144  1.00  0.00     0.031 C 
BRANCH  12  13
HETATM   13  C9  UNL     1       2.488   1.151  -0.550  1.00  0.00    -0.021 C 
HETATM   14  C10 UNL     1       0.944   1.443  -0.620  1.00  0.00     0.009 C 
HETATM   15  C11 UNL     1       2.852   1.099  -2.036  1.00  0.00     0.009 C 
ENDBRANCH  12  13
ENDBRANCH   8  12
ENDBRANCH   6   8
ENDBRANCH   1   6
BRANCH   1  16
HETATM   16  C12 UNL     1       5.394  -3.653  -0.159  1.00  0.00     0.013 C 
HETATM   17  C13 UNL     1       5.882  -4.483   1.016  1.00  0.00     0.038 C 
HETATM   18  C14 UNL     1       6.014  -5.611  -0.001  1.00  0.00     0.119 C 
HETATM   19  C15 UNL     1       6.360  -4.463  -0.974  1.00  0.00     0.038 C 
BRANCH  18  20
HETATM   20  O2  UNL     1       4.749  -6.112  -0.271  1.00  0.00    -0.396 OA
ATOM     21  H2  UNL     1       4.331  -5.549  -0.912  1.00  0.00     0.210 HD
ENDBRANCH  18  20
ENDBRANCH   1  16
TORSDOF 10
ENDMDL
MODEL 5
REMARK VINA RESULT: -5.468806978      2.644      5.678
REMARK  10 active torsions:
REMARK  status: ('A' for Active; 'I' for Inactive)
REMARK    1  A    between atoms: C2_2  and  C3_3 
REMARK    2  A    between atoms: C3_3  and  C5_5 
REMARK    3  A    between atoms: C5_5  and  N1_6 
REMARK    4  A    between atoms: C5_5  and  C12_16 
REMARK    5  A    between atoms: N1_6  and  C6_8 
REMARK    6  A    between atoms: C6_8  and  C7_9 
REMARK    7  A    between atoms: C6_8  and  C8_12 
REMARK    8  A    between atoms: C7_9  and  O1_10 
REMARK    9  A    between atoms: C8_12  and  C9_13 
REMARK   10  A    between atoms: C14_18  and  O2_19 
ROOT
HETATM    1  C5  UNL     1       4.147   0.481  -0.652  1.00  0.00     0.084 C 
ENDROOT
BRANCH   1   2
HETATM    2  C3  UNL     1       3.426  -0.234   0.473  1.00  0.00     0.004 C 
HETATM    3  C4  UNL     1       1.966  -0.476   0.146  1.00  0.00     0.012 C 
BRANCH   2   4
HETATM    4  C2  UNL     1       3.563   0.447   1.815  1.00  0.00     0.002 C 
HETATM    5  C1  UNL     1       2.435   1.408   1.975  1.00  0.00     0.005 C 
ENDBRANCH   2   4
ENDBRANCH   1   2
BRANCH   1   6
HETATM    6  N1  UNL     1       4.982  -0.499  -1.299  1.00  0.00    -0.410 N 
ATOM      7  H1  UNL     1       4.606  -1.187  -1.951  1.00  0.00     0.154 HD
BRANCH   6   8
HETATM    8  C6  UNL     1       6.394  -0.445  -0.962  1.00  0.00     0.100 C 
BRANCH   8   9
HETATM    9  C7  UNL     1       6.784   0.687  -0.080  1.00  0.00     0.188 C 
BRANCH   9  10
HETATM   10  O1  UNL     1       7.112   0.358   1.210  1.00  0.00    -0.399 OA
ATOM     11  H1  UNL     1       7.317   1.086   1.786  1.00  0.00     0.209 HD
ENDBRANCH   9  10
ENDBRANCH   8   9
BRANCH   8  12
HETATM   12  C8  UNL     1       6.712  -1.821  -0.476  1.00  0.00     0.031 C 
BRANCH  12  13
HETATM   13  C9  UNL     1       5.968  -2.979  -0.998  1.00  0.00    -0.021 C 
HETATM   14  C10 UNL     1       5.516  -3.756   0.293  1.00  0.00     0.009 C 
HETATM   15  C11 UNL     1       6.837  -4.031  -1.691  1.00  0.00     0.009 C 
ENDBRANCH  12  13
ENDBRANCH   8  12
ENDBRANCH   6   8
ENDBRANCH   1   6
BRANCH   1  16
HETATM   16  C12 UNL     1       3.071   0.829  -1.653  1.00  0.00     0.013 C 
HETATM   17  C13 UNL     1       3.510   0.803  -3.107  1.00  0.00     0.038 C 
HETATM   18  C14 UNL     1       2.409   1.833  -3.326  1.00  0.00     0.119 C 
HETATM   19  C15 UNL     1       2.781   2.282  -1.896  1.00  0.00     0.038 C 
BRANCH  18  20
HETATM   20  O2  UNL     1       1.186   1.180  -3.326  1.00  0.00    -0.396 OA
ATOM     21  H2  UNL     1       0.586   1.660  -3.885  1.00  0.00     0.210 HD
ENDBRANCH  18  20
ENDBRANCH   1  16
TORSDOF 10
ENDMDL
