MODEL 1
REMARK VINA RESULT: -6.144359726      0.000      0.000
REMARK  7 active torsions:
REMARK  status: ('A' for Active; 'I' for Inactive)
REMARK    1  A    between atoms: C2_2  and  C3_3 
REMARK    2  A    between atoms: C3_3  and  C4_4 
REMARK    3  A    between atoms: C4_4  and  C5_5 
REMARK    4  A    between atoms: C6_6  and  N1_7 
REMARK    5  A    between atoms: C13_17  and  C14_18 
REMARK    6  A    between atoms: C14_18  and  C15_19 
REMARK    7  A    between atoms: C17_23  and  N5_24 
ROOT
HETATM    1  N1  UNL     1       0.216  26.761  -3.249  1.00  0.00    -0.365 N 
HETATM    2  C7  UNL     1       1.176  26.337  -4.238  1.00  0.00     0.130 C 
HETATM    3  C8  UNL     1       0.844  24.869  -4.431  1.00  0.00     0.019 C 
HETATM    4  C9  UNL     1       2.035  24.161  -5.002  1.00  0.00     0.013 C 
HETATM    5  C10 UNL     1       0.565  24.420  -3.028  1.00  0.00     0.116 C 
HETATM    6  C11 UNL     1       1.788  23.948  -2.403  1.00  0.00     0.066 C 
HETATM    7  N2  UNL     1       2.763  23.578  -1.916  1.00  0.00    -0.197 NA
HETATM    8  C12 UNL     1      -0.027  25.621  -2.352  1.00  0.00     0.144 C 
ENDROOT
BRANCH   1   9
HETATM    9  C6  UNL     1      -0.456  27.994  -3.103  1.00  0.00     0.114 A 
HETATM   10  C5  UNL     1       0.098  29.096  -2.496  1.00  0.00     0.029 A 
HETATM   11  C17 UNL     1      -0.672  30.228  -2.413  1.00  0.00     0.110 A 
HETATM   12  N4  UNL     1      -1.942  30.186  -2.939  1.00  0.00    -0.332 N 
HETATM   13  C13 UNL     1      -2.478  29.129  -3.523  1.00  0.00     0.084 A 
ATOM     14  H4  UNL     1      -2.511  31.031  -2.874  1.00  0.00     0.168 HD
HETATM   15  N3  UNL     1      -1.730  28.018  -3.608  1.00  0.00    -0.332 N 
ATOM     16  H3  UNL     1      -2.112  27.184  -4.054  1.00  0.00     0.168 HD
BRANCH  10  17
HETATM   17  C4  UNL     1       1.462  29.049  -2.007  1.00  0.00     0.046 C 
BRANCH  17  18
HETATM   18  C3  UNL     1       1.686  29.042  -0.539  1.00  0.00     0.004 C 
BRANCH  18  19
HETATM   19  C2  UNL     1       0.872  28.143   0.308  1.00  0.00    -0.004 C 
HETATM   20  C1  UNL     1       1.484  26.835   0.682  1.00  0.00     0.005 C 
ENDBRANCH  18  19
ENDBRANCH  17  18
ENDBRANCH  10  17
BRANCH  11  21
HETATM   21  N5  UNL     1      -0.282  31.347  -1.904  1.00  0.00    -0.385 N 
ATOM     22  H52 UNL     1       0.341  31.300  -1.098  1.00  0.00     0.157 HD
ATOM     23  H51 UNL     1      -0.570  32.268  -2.234  1.00  0.00     0.157 HD
ENDBRANCH  11  21
BRANCH  13  24
HETATM   24  C14 UNL     1      -3.881  29.150  -4.072  1.00  0.00     0.076 C 
BRANCH  24  25
HETATM   25  C15 UNL     1      -4.379  27.729  -4.157  1.00  0.00     0.003 C 
HETATM   26  C16 UNL     1      -5.868  27.693  -4.183  1.00  0.00     0.005 C 
ENDBRANCH  24  25
ENDBRANCH  13  24
ENDBRANCH   1   9
TORSDOF 7
ENDMDL
MODEL 2
REMARK VINA RESULT: -6.110561932      1.208      1.874
REMARK  7 active torsions:
REMARK  status: ('A' for Active; 'I' for Inactive)
REMARK    1  A    between atoms: C2_2  and  C3_3 
REMARK    2  A    between atoms: C3_3  and  C4_4 
REMARK    3  A    between atoms: C4_4  and  C5_5 
REMARK    4  A    between atoms: C6_6  and  N1_7 
REMARK    5  A    between atoms: C13_17  and  C14_18 
REMARK    6  A    between atoms: C14_18  and  C15_19 
REMARK    7  A    between atoms: C17_23  and  N5_24 
ROOT
HETATM    1  N1  UNL     1       0.510  26.028  -2.462  1.00  0.00    -0.365 N 
HETATM    2  C7  UNL     1       0.651  25.249  -1.256  1.00  0.00     0.130 C 
HETATM    3  C8  UNL     1       2.146  25.005  -1.178  1.00  0.00     0.019 C 
HETATM    4  C9  UNL     1       2.410  23.806  -0.317  1.00  0.00     0.013 C 
HETATM    5  C10 UNL     1       2.498  24.734  -2.610  1.00  0.00     0.116 C 
HETATM    6  C11 UNL     1       2.393  23.313  -2.890  1.00  0.00     0.066 C 
HETATM    7  N2  UNL     1       2.303  22.186  -3.102  1.00  0.00    -0.197 NA
HETATM    8  C12 UNL     1       1.542  25.573  -3.405  1.00  0.00     0.144 C 
ENDROOT
BRANCH   1   9
HETATM    9  C6  UNL     1      -0.383  27.078  -2.767  1.00  0.00     0.114 A 
HETATM   10  C5  UNL     1      -0.171  28.387  -2.405  1.00  0.00     0.029 A 
HETATM   11  C17 UNL     1      -1.127  29.305  -2.759  1.00  0.00     0.110 A 
HETATM   12  N4  UNL     1      -2.231  28.857  -3.447  1.00  0.00    -0.332 N 
HETATM   13  C13 UNL     1      -2.438  27.599  -3.795  1.00  0.00     0.084 A 
ATOM     14  H4  UNL     1      -2.940  29.543  -3.706  1.00  0.00     0.168 HD
HETATM   15  N3  UNL     1      -1.506  26.696  -3.454  1.00  0.00    -0.332 N 
ATOM     16  H3  UNL     1      -1.634  25.717  -3.709  1.00  0.00     0.168 HD
BRANCH  10  17
HETATM   17  C4  UNL     1       1.046  28.764  -1.713  1.00  0.00     0.046 C 
BRANCH  17  18
HETATM   18  C3  UNL     1       0.960  29.113  -0.273  1.00  0.00     0.004 C 
BRANCH  18  19
HETATM   19  C2  UNL     1       1.164  28.052   0.737  1.00  0.00    -0.004 C 
HETATM   20  C1  UNL     1       2.563  27.836   1.211  1.00  0.00     0.005 C 
ENDBRANCH  18  19
ENDBRANCH  17  18
ENDBRANCH  10  17
BRANCH  11  21
HETATM   21  N5  UNL     1      -1.056  30.571  -2.520  1.00  0.00    -0.385 N 
ATOM     22  H52 UNL     1      -0.822  31.179  -3.305  1.00  0.00     0.157 HD
ATOM     23  H51 UNL     1      -1.193  30.998  -1.605  1.00  0.00     0.157 HD
ENDBRANCH  11  21
BRANCH  13  24
HETATM   24  C14 UNL     1      -3.676  27.175  -4.544  1.00  0.00     0.076 C 
BRANCH  24  25
HETATM   25  C15 UNL     1      -4.795  28.120  -4.186  1.00  0.00     0.003 C 
HETATM   26  C16 UNL     1      -6.115  27.534  -4.548  1.00  0.00     0.005 C 
ENDBRANCH  24  25
ENDBRANCH  13  24
ENDBRANCH   1   9
TORSDOF 7
ENDMDL
MODEL 3
REMARK VINA RESULT: -6.030327978      1.926      4.443
REMARK  7 active torsions:
REMARK  status: ('A' for Active; 'I' for Inactive)
REMARK    1  A    between atoms: C2_2  and  C3_3 
REMARK    2  A    between atoms: C3_3  and  C4_4 
REMARK    3  A    between atoms: C4_4  and  C5_5 
REMARK    4  A    between atoms: C6_6  and  N1_7 
REMARK    5  A    between atoms: C13_17  and  C14_18 
REMARK    6  A    between atoms: C14_18  and  C15_19 
REMARK    7  A    between atoms: C17_23  and  N5_24 
ROOT
HETATM    1  N1  UNL     1       0.798  28.379  -1.363  1.00  0.00    -0.365 N 
HETATM    2  C7  UNL     1       2.038  29.066  -1.632  1.00  0.00     0.130 C 
HETATM    3  C8  UNL     1       2.884  28.736  -0.416  1.00  0.00     0.019 C 
HETATM    4  C9  UNL     1       3.968  29.761  -0.271  1.00  0.00     0.013 C 
HETATM    5  C10 UNL     1       1.887  28.837   0.700  1.00  0.00     0.116 C 
HETATM    6  C11 UNL     1       1.860  30.191   1.223  1.00  0.00     0.066 C 
HETATM    7  N2  UNL     1       1.844  31.268   1.629  1.00  0.00    -0.197 NA
HETATM    8  C12 UNL     1       0.586  28.405   0.091  1.00  0.00     0.144 C 
ENDROOT
BRANCH   1   9
HETATM    9  C6  UNL     1      -0.093  27.733  -2.247  1.00  0.00     0.114 A 
HETATM   10  C5  UNL     1       0.075  26.444  -2.691  1.00  0.00     0.029 A 
HETATM   11  C17 UNL     1      -0.865  25.944  -3.556  1.00  0.00     0.110 A 
HETATM   12  N4  UNL     1      -1.908  26.763  -3.922  1.00  0.00    -0.332 N 
HETATM   13  C13 UNL     1      -2.073  28.003  -3.497  1.00  0.00     0.084 A 
ATOM     14  H4  UNL     1      -2.603  26.387  -4.568  1.00  0.00     0.168 HD
HETATM   15  N3  UNL     1      -1.158  28.498  -2.649  1.00  0.00    -0.332 N 
ATOM     16  H3  UNL     1      -1.256  29.451  -2.301  1.00  0.00     0.168 HD
BRANCH  10  17
HETATM   17  C4  UNL     1       1.190  25.649  -2.215  1.00  0.00     0.046 C 
BRANCH  17  18
HETATM   18  C3  UNL     1       1.013  24.857  -0.972  1.00  0.00     0.004 C 
BRANCH  18  19
HETATM   19  C2  UNL     1       2.031  24.958   0.096  1.00  0.00    -0.004 C 
HETATM   20  C1  UNL     1       2.873  23.751   0.339  1.00  0.00     0.005 C 
ENDBRANCH  18  19
ENDBRANCH  17  18
ENDBRANCH  10  17
BRANCH  11  21
HETATM   21  N5  UNL     1      -0.862  24.745  -4.033  1.00  0.00    -0.385 N 
ATOM     22  H52 UNL     1      -0.581  23.994  -3.403  1.00  0.00     0.157 HD
ATOM     23  H51 UNL     1      -1.096  24.502  -4.995  1.00  0.00     0.157 HD
ENDBRANCH  11  21
BRANCH  13  24
HETATM   24  C14 UNL     1      -3.237  28.848  -3.945  1.00  0.00     0.076 C 
BRANCH  24  25
HETATM   25  C15 UNL     1      -4.344  27.931  -4.399  1.00  0.00     0.003 C 
HETATM   26  C16 UNL     1      -5.669  28.598  -4.269  1.00  0.00     0.005 C 
ENDBRANCH  24  25
ENDBRANCH  13  24
ENDBRANCH   1   9
TORSDOF 7
ENDMDL
MODEL 4
REMARK VINA RESULT: -5.995765697      3.812      6.378
REMARK  7 active torsions:
REMARK  status: ('A' for Active; 'I' for Inactive)
REMARK    1  A    between atoms: C2_2  and  C3_3 
REMARK    2  A    between atoms: C3_3  and  C4_4 
REMARK    3  A    between atoms: C4_4  and  C5_5 
REMARK    4  A    between atoms: C6_6  and  N1_7 
REMARK    5  A    between atoms: C13_17  and  C14_18 
REMARK    6  A    between atoms: C14_18  and  C15_19 
REMARK    7  A    between atoms: C17_23  and  N5_24 
ROOT
HETATM    1  N1  UNL     1      -0.386  29.441  -6.512  1.00  0.00    -0.365 N 
HETATM    2  C7  UNL     1      -0.394  29.605  -7.945  1.00  0.00     0.130 C 
HETATM    3  C8  UNL     1       0.766  30.552  -8.189  1.00  0.00     0.019 C 
HETATM    4  C9  UNL     1       0.582  31.232  -9.512  1.00  0.00     0.013 C 
HETATM    5  C10 UNL     1       0.626  31.522  -7.055  1.00  0.00     0.116 C 
HETATM    6  C11 UNL     1      -0.221  32.634  -7.450  1.00  0.00     0.066 C 
HETATM    7  N2  UNL     1      -0.895  33.508  -7.772  1.00  0.00    -0.197 NA
HETATM    8  C12 UNL     1       0.062  30.712  -5.925  1.00  0.00     0.144 C 
ENDROOT
BRANCH   1   9
HETATM    9  C6  UNL     1      -0.688  28.310  -5.724  1.00  0.00     0.114 A 
HETATM   10  C5  UNL     1       0.191  27.275  -5.506  1.00  0.00     0.029 A 
HETATM   11  C17 UNL     1      -0.239  26.232  -4.727  1.00  0.00     0.110 A 
HETATM   12  N4  UNL     1      -1.516  26.288  -4.217  1.00  0.00    -0.332 N 
HETATM   13  C13 UNL     1      -2.363  27.280  -4.424  1.00  0.00     0.084 A 
ATOM     14  H4  UNL     1      -1.831  25.508  -3.639  1.00  0.00     0.168 HD
HETATM   15  N3  UNL     1      -1.949  28.305  -5.185  1.00  0.00    -0.332 N 
ATOM     16  H3  UNL     1      -2.578  29.088  -5.364  1.00  0.00     0.168 HD
BRANCH  10  17
HETATM   17  C4  UNL     1       1.531  27.330  -6.058  1.00  0.00     0.046 C 
BRANCH  17  18
HETATM   18  C3  UNL     1       1.801  26.612  -7.329  1.00  0.00     0.004 C 
BRANCH  18  19
HETATM   19  C2  UNL     1       2.489  27.327  -8.426  1.00  0.00    -0.004 C 
HETATM   20  C1  UNL     1       1.825  27.304  -9.763  1.00  0.00     0.005 C 
ENDBRANCH  18  19
ENDBRANCH  17  18
ENDBRANCH  10  17
BRANCH  11  21
HETATM   21  N5  UNL     1       0.479  25.209  -4.406  1.00  0.00    -0.385 N 
ATOM     22  H52 UNL     1       1.338  25.387  -3.886  1.00  0.00     0.157 HD
ATOM     23  H51 UNL     1       0.261  24.245  -4.657  1.00  0.00     0.157 HD
ENDBRANCH  11  21
BRANCH  13  24
HETATM   24  C14 UNL     1      -3.753  27.273  -3.840  1.00  0.00     0.076 C 
BRANCH  24  25
HETATM   25  C15 UNL     1      -4.421  28.578  -4.192  1.00  0.00     0.003 C 
HETATM   26  C16 UNL     1      -5.896  28.403  -4.297  1.00  0.00     0.005 C 
ENDBRANCH  24  25
ENDBRANCH  13  24
ENDBRANCH   1   9
TORSDOF 7
ENDMDL
MODEL 5
REMARK VINA RESULT: -5.985866337      1.173      1.354
REMARK  7 active torsions:
REMARK  status: ('A' for Active; 'I' for Inactive)
REMARK    1  A    between atoms: C2_2  and  C3_3 
REMARK    2  A    between atoms: C3_3  and  C4_4 
REMARK    3  A    between atoms: C4_4  and  C5_5 
REMARK    4  A    between atoms: C6_6  and  N1_7 
REMARK    5  A    between atoms: C13_17  and  C14_18 
REMARK    6  A    between atoms: C14_18  and  C15_19 
REMARK    7  A    between atoms: C17_23  and  N5_24 
ROOT
HETATM    1  N1  UNL     1       0.785  26.708  -2.253  1.00  0.00    -0.365 N 
HETATM    2  C7  UNL     1       2.003  26.308  -2.916  1.00  0.00     0.130 C 
HETATM    3  C8  UNL     1       1.876  24.797  -2.982  1.00  0.00     0.019 C 
HETATM    4  C9  UNL     1       3.238  24.192  -3.148  1.00  0.00     0.013 C 
HETATM    5  C10 UNL     1       1.295  24.468  -1.640  1.00  0.00     0.116 C 
HETATM    6  C11 UNL     1       2.359  24.227  -0.681  1.00  0.00     0.066 C 
HETATM    7  N2  UNL     1       3.208  24.041   0.072  1.00  0.00    -0.197 NA
HETATM    8  C12 UNL     1       0.435  25.649  -1.295  1.00  0.00     0.144 C 
ENDROOT
BRANCH   1   9
HETATM    9  C6  UNL     1      -0.019  27.852  -2.441  1.00  0.00     0.114 A 
HETATM   10  C5  UNL     1       0.216  29.059  -1.827  1.00  0.00     0.029 A 
HETATM   11  C17 UNL     1      -0.652  30.086  -2.093  1.00  0.00     0.110 A 
HETATM   12  N4  UNL     1      -1.699  29.843  -2.952  1.00  0.00    -0.332 N 
HETATM   13  C13 UNL     1      -1.929  28.685  -3.544  1.00  0.00     0.084 A 
ATOM     14  H4  UNL     1      -2.343  30.610  -3.145  1.00  0.00     0.168 HD
HETATM   15  N3  UNL     1      -1.082  27.675  -3.290  1.00  0.00    -0.332 N 
ATOM     16  H3  UNL     1      -1.229  26.768  -3.732  1.00  0.00     0.168 HD
BRANCH  10  17
HETATM   17  C4  UNL     1       1.372  29.224  -0.966  1.00  0.00     0.046 C 
BRANCH  17  18
HETATM   18  C3  UNL     1       1.230  28.901   0.476  1.00  0.00     0.004 C 
BRANCH  18  19
HETATM   19  C2  UNL     1       2.134  27.898   1.080  1.00  0.00    -0.004 C 
HETATM   20  C1  UNL     1       3.420  27.638   0.369  1.00  0.00     0.005 C 
ENDBRANCH  18  19
ENDBRANCH  17  18
ENDBRANCH  10  17
BRANCH  11  21
HETATM   21  N5  UNL     1      -0.545  31.282  -1.619  1.00  0.00    -0.385 N 
ATOM     22  H52 UNL     1       0.316  31.788  -1.825  1.00  0.00     0.157 HD
ATOM     23  H51 UNL     1      -1.245  31.742  -1.039  1.00  0.00     0.157 HD
ENDBRANCH  11  21
BRANCH  13  24
HETATM   24  C14 UNL     1      -3.100  28.484  -4.471  1.00  0.00     0.076 C 
BRANCH  24  25
HETATM   25  C15 UNL     1      -4.225  29.378  -4.014  1.00  0.00     0.003 C 
HETATM   26  C16 UNL     1      -5.544  28.721  -4.234  1.00  0.00     0.005 C 
ENDBRANCH  24  25
ENDBRANCH  13  24
ENDBRANCH   1   9
TORSDOF 7
ENDMDL
