MODEL 1
REMARK VINA RESULT: -7.068167383      0.000      0.000
REMARK  7 active torsions:
REMARK  status: ('A' for Active; 'I' for Inactive)
REMARK    1  A    between atoms: C6_6  and  C7_7 
REMARK    2  A    between atoms: C7_7  and  C8_8 
REMARK    3  A    between atoms: C8_8  and  C9_9 
REMARK    4  A    between atoms: C9_9  and  C10_10 
REMARK    5  A    between atoms: C10_10  and  C11_11 
REMARK       I    between atoms: C11_11  and  N1_13 
REMARK    6  A    between atoms: C13_20  and  C14_21 
REMARK    7  A    between atoms: C14_21  and  N4_22 
ROOT
HETATM    1  C11 UNL     1       0.681  25.015  -1.221  1.00  0.00     0.223 C 
HETATM    2  O1  UNL     1       0.683  25.726  -0.142  1.00  0.00    -0.273 OA
HETATM    3  N1  UNL     1       1.843  24.367  -1.524  1.00  0.00    -0.306 N 
ATOM      4  H1  UNL     1       2.547  24.422  -0.788  1.00  0.00     0.171 HD
HETATM    5  C12 UNL     1       2.223  23.710  -2.544  1.00  0.00     0.167 A 
HETATM    6  N2  UNL     1       1.654  23.392  -3.700  1.00  0.00    -0.279 N 
ATOM      7  H2  UNL     1       0.704  23.701  -3.905  1.00  0.00     0.189 HD
HETATM    8  N3  UNL     1       2.298  22.702  -4.550  1.00  0.00    -0.294 N 
ATOM      9  H3  UNL     1       1.860  22.460  -5.439  1.00  0.00     0.187 HD
HETATM   10  C13 UNL     1       3.526  22.297  -4.297  1.00  0.00     0.095 A 
HETATM   11  S1  UNL     1       3.782  22.944  -2.739  1.00  0.00    -0.036 SA
ENDROOT
BRANCH   1  12
HETATM   12  C10 UNL     1      -0.605  25.023  -1.958  1.00  0.00     0.103 C 
BRANCH  12  13
HETATM   13  C9  UNL     1      -0.641  26.140  -2.989  1.00  0.00     0.009 C 
BRANCH  13  14
HETATM   14  C8  UNL     1      -1.443  25.755  -4.191  1.00  0.00     0.001 C 
BRANCH  14  15
HETATM   15  C7  UNL     1      -2.038  26.948  -4.849  1.00  0.00     0.005 C 
BRANCH  15  16
HETATM   16  C6  UNL     1      -3.121  27.609  -4.041  1.00  0.00    -0.011 C 
HETATM   17  C2  UNL     1      -2.943  29.118  -4.194  1.00  0.00    -0.015 C 
HETATM   18  C1  UNL     1      -2.058  29.580  -3.057  1.00  0.00     0.010 C 
HETATM   19  C3  UNL     1      -4.321  29.711  -4.118  1.00  0.00     0.005 C 
HETATM   20  C4  UNL     1      -5.293  28.551  -4.093  1.00  0.00     0.001 C 
HETATM   21  C5  UNL     1      -4.495  27.341  -4.555  1.00  0.00     0.005 C 
ENDBRANCH  15  16
ENDBRANCH  14  15
ENDBRANCH  13  14
ENDBRANCH  12  13
ENDBRANCH   1  12
BRANCH  10  22
HETATM   22  C14 UNL     1       4.452  21.478  -5.165  1.00  0.00     0.295 C 
BRANCH  22  23
HETATM   23  N4  UNL     1       3.701  20.346  -5.636  1.00  0.00    -0.073 N 
ATOM     24  H43 UNL     1       2.798  20.603  -6.033  1.00  0.00     0.274 HD
ATOM     25  H42 UNL     1       4.098  19.924  -6.474  1.00  0.00     0.274 HD
ATOM     26  H41 UNL     1       3.624  19.692  -4.857  1.00  0.00     0.274 HD
ENDBRANCH  22  23
ENDBRANCH  10  22
TORSDOF 7
ENDMDL
MODEL 2
REMARK VINA RESULT: -7.045844745      0.658      1.558
REMARK  7 active torsions:
REMARK  status: ('A' for Active; 'I' for Inactive)
REMARK    1  A    between atoms: C6_6  and  C7_7 
REMARK    2  A    between atoms: C7_7  and  C8_8 
REMARK    3  A    between atoms: C8_8  and  C9_9 
REMARK    4  A    between atoms: C9_9  and  C10_10 
REMARK    5  A    between atoms: C10_10  and  C11_11 
REMARK       I    between atoms: C11_11  and  N1_13 
REMARK    6  A    between atoms: C13_20  and  C14_21 
REMARK    7  A    between atoms: C14_21  and  N4_22 
ROOT
HETATM    1  C11 UNL     1       0.755  25.082  -1.205  1.00  0.00     0.223 C 
HETATM    2  O1  UNL     1       0.759  25.683  -0.060  1.00  0.00    -0.273 OA
HETATM    3  N1  UNL     1       1.759  24.184  -1.423  1.00  0.00    -0.306 N 
ATOM      4  H1  UNL     1       2.330  24.000  -0.598  1.00  0.00     0.171 HD
HETATM    5  C12 UNL     1       2.124  23.533  -2.452  1.00  0.00     0.167 A 
HETATM    6  N2  UNL     1       1.685  23.462  -3.702  1.00  0.00    -0.279 N 
ATOM      7  H2  UNL     1       0.882  24.019  -3.995  1.00  0.00     0.189 HD
HETATM    8  N3  UNL     1       2.268  22.699  -4.533  1.00  0.00    -0.294 N 
ATOM      9  H3  UNL     1       1.930  22.646  -5.493  1.00  0.00     0.187 HD
HETATM   10  C13 UNL     1       3.306  21.974  -4.167  1.00  0.00     0.095 A 
HETATM   11  S1  UNL     1       3.462  22.411  -2.525  1.00  0.00    -0.036 SA
ENDROOT
BRANCH   1  12
HETATM   12  C10 UNL     1      -0.359  25.476  -2.101  1.00  0.00     0.103 C 
BRANCH  12  13
HETATM   13  C9  UNL     1      -0.013  26.729  -2.890  1.00  0.00     0.009 C 
BRANCH  13  14
HETATM   14  C8  UNL     1      -1.199  27.624  -3.051  1.00  0.00     0.001 C 
BRANCH  14  15
HETATM   15  C7  UNL     1      -2.247  26.987  -3.892  1.00  0.00     0.005 C 
BRANCH  15  16
HETATM   16  C6  UNL     1      -3.209  27.966  -4.506  1.00  0.00    -0.011 C 
HETATM   17  C2  UNL     1      -4.615  27.405  -4.305  1.00  0.00    -0.015 C 
HETATM   18  C1  UNL     1      -4.947  26.582  -5.531  1.00  0.00     0.010 C 
HETATM   19  C3  UNL     1      -5.522  28.594  -4.158  1.00  0.00     0.005 C 
HETATM   20  C4  UNL     1      -4.631  29.817  -4.104  1.00  0.00     0.001 C 
HETATM   21  C5  UNL     1      -3.233  29.289  -3.819  1.00  0.00     0.005 C 
ENDBRANCH  15  16
ENDBRANCH  14  15
ENDBRANCH  13  14
ENDBRANCH  12  13
ENDBRANCH   1  12
BRANCH  10  22
HETATM   22  C14 UNL     1       4.131  21.015  -4.992  1.00  0.00     0.295 C 
BRANCH  22  23
HETATM   23  N4  UNL     1       3.262  19.939  -5.386  1.00  0.00    -0.073 N 
ATOM     24  H43 UNL     1       3.095  19.267  -4.639  1.00  0.00     0.274 HD
ATOM     25  H42 UNL     1       2.295  20.234  -5.516  1.00  0.00     0.274 HD
ATOM     26  H41 UNL     1       3.667  19.517  -6.222  1.00  0.00     0.274 HD
ENDBRANCH  22  23
ENDBRANCH  10  22
TORSDOF 7
ENDMDL
MODEL 3
REMARK VINA RESULT: -6.946595512      3.084      5.235
REMARK  7 active torsions:
REMARK  status: ('A' for Active; 'I' for Inactive)
REMARK    1  A    between atoms: C6_6  and  C7_7 
REMARK    2  A    between atoms: C7_7  and  C8_8 
REMARK    3  A    between atoms: C8_8  and  C9_9 
REMARK    4  A    between atoms: C9_9  and  C10_10 
REMARK    5  A    between atoms: C10_10  and  C11_11 
REMARK       I    between atoms: C11_11  and  N1_13 
REMARK    6  A    between atoms: C13_20  and  C14_21 
REMARK    7  A    between atoms: C14_21  and  N4_22 
ROOT
HETATM    1  C11 UNL     1       1.021  24.804  -2.035  1.00  0.00     0.223 C 
HETATM    2  O1  UNL     1       1.490  23.760  -2.634  1.00  0.00    -0.273 OA
HETATM    3  N1  UNL     1       1.907  25.528  -1.292  1.00  0.00    -0.306 N 
ATOM      4  H1  UNL     1       2.875  25.226  -1.401  1.00  0.00     0.171 HD
HETATM    5  C12 UNL     1       1.765  26.505  -0.492  1.00  0.00     0.167 A 
HETATM    6  N2  UNL     1       0.720  27.203  -0.064  1.00  0.00    -0.279 N 
ATOM      7  H2  UNL     1      -0.218  26.976  -0.397  1.00  0.00     0.189 HD
HETATM    8  N3  UNL     1       0.891  28.153   0.761  1.00  0.00    -0.294 N 
ATOM      9  H3  UNL     1       0.086  28.688   1.088  1.00  0.00     0.187 HD
HETATM   10  C13 UNL     1       2.096  28.456   1.198  1.00  0.00     0.095 A 
HETATM   11  S1  UNL     1       3.053  27.306   0.376  1.00  0.00    -0.036 SA
ENDROOT
BRANCH   1  12
HETATM   12  C10 UNL     1      -0.425  25.042  -2.260  1.00  0.00     0.103 C 
BRANCH  12  13
HETATM   13  C9  UNL     1      -0.760  25.025  -3.744  1.00  0.00     0.009 C 
BRANCH  13  14
HETATM   14  C8  UNL     1      -1.146  26.382  -4.238  1.00  0.00     0.001 C 
BRANCH  14  15
HETATM   15  C7  UNL     1      -2.291  26.933  -3.467  1.00  0.00     0.005 C 
BRANCH  15  16
HETATM   16  C6  UNL     1      -3.108  27.939  -4.229  1.00  0.00    -0.011 C 
HETATM   17  C2  UNL     1      -4.556  27.454  -4.211  1.00  0.00    -0.015 C 
HETATM   18  C1  UNL     1      -4.760  26.613  -5.453  1.00  0.00     0.010 C 
HETATM   19  C3  UNL     1      -5.411  28.690  -4.216  1.00  0.00     0.005 C 
HETATM   20  C4  UNL     1      -4.472  29.868  -4.067  1.00  0.00     0.001 C 
HETATM   21  C5  UNL     1      -3.156  29.281  -3.580  1.00  0.00     0.005 C 
ENDBRANCH  15  16
ENDBRANCH  14  15
ENDBRANCH  13  14
ENDBRANCH  12  13
ENDBRANCH   1  12
BRANCH  10  22
HETATM   22  C14 UNL     1       2.509  29.537   2.168  1.00  0.00     0.295 C 
BRANCH  22  23
HETATM   23  N4  UNL     1       1.476  30.537   2.153  1.00  0.00    -0.073 N 
ATOM     24  H43 UNL     1       1.718  31.352   1.590  1.00  0.00     0.274 HD
ATOM     25  H42 UNL     1       0.652  30.253   1.625  1.00  0.00     0.274 HD
ATOM     26  H41 UNL     1       1.268  30.769   3.124  1.00  0.00     0.274 HD
ENDBRANCH  22  23
ENDBRANCH  10  22
TORSDOF 7
ENDMDL
MODEL 4
REMARK VINA RESULT: -6.927555028      3.288      5.518
REMARK  7 active torsions:
REMARK  status: ('A' for Active; 'I' for Inactive)
REMARK    1  A    between atoms: C6_6  and  C7_7 
REMARK    2  A    between atoms: C7_7  and  C8_8 
REMARK    3  A    between atoms: C8_8  and  C9_9 
REMARK    4  A    between atoms: C9_9  and  C10_10 
REMARK    5  A    between atoms: C10_10  and  C11_11 
REMARK       I    between atoms: C11_11  and  N1_13 
REMARK    6  A    between atoms: C13_20  and  C14_21 
REMARK    7  A    between atoms: C14_21  and  N4_22 
ROOT
HETATM    1  C11 UNL     1       1.236  25.214  -2.139  1.00  0.00     0.223 C 
HETATM    2  O1  UNL     1       1.585  24.014  -1.807  1.00  0.00    -0.273 OA
HETATM    3  N1  UNL     1       1.307  26.161  -1.159  1.00  0.00    -0.306 N 
ATOM      4  H1  UNL     1       1.751  25.830  -0.302  1.00  0.00     0.171 HD
HETATM    5  C12 UNL     1       0.928  27.372  -1.103  1.00  0.00     0.167 A 
HETATM    6  N2  UNL     1       0.325  28.191  -1.957  1.00  0.00    -0.279 N 
ATOM      7  H2  UNL     1       0.070  27.862  -2.888  1.00  0.00     0.189 HD
HETATM    8  N3  UNL     1       0.067  29.385  -1.609  1.00  0.00    -0.294 N 
ATOM      9  H3  UNL     1      -0.397  30.012  -2.266  1.00  0.00     0.187 HD
HETATM   10  C13 UNL     1       0.391  29.822  -0.410  1.00  0.00     0.095 A 
HETATM   11  S1  UNL     1       1.115  28.435   0.272  1.00  0.00    -0.036 SA
ENDROOT
BRANCH   1  12
HETATM   12  C10 UNL     1       0.813  25.360  -3.553  1.00  0.00     0.103 C 
BRANCH  12  13
HETATM   13  C9  UNL     1      -0.677  25.095  -3.710  1.00  0.00     0.009 C 
BRANCH  13  14
HETATM   14  C8  UNL     1      -1.360  26.209  -4.438  1.00  0.00     0.001 C 
BRANCH  14  15
HETATM   15  C7  UNL     1      -2.372  26.876  -3.578  1.00  0.00     0.005 C 
BRANCH  15  16
HETATM   16  C6  UNL     1      -3.192  27.911  -4.298  1.00  0.00    -0.011 C 
HETATM   17  C2  UNL     1      -4.647  27.448  -4.254  1.00  0.00    -0.015 C 
HETATM   18  C1  UNL     1      -4.895  26.638  -5.507  1.00  0.00     0.010 C 
HETATM   19  C3  UNL     1      -5.481  28.697  -4.210  1.00  0.00     0.005 C 
HETATM   20  C4  UNL     1      -4.520  29.857  -4.059  1.00  0.00     0.001 C 
HETATM   21  C5  UNL     1      -3.202  29.239  -3.619  1.00  0.00     0.005 C 
ENDBRANCH  15  16
ENDBRANCH  14  15
ENDBRANCH  13  14
ENDBRANCH  12  13
ENDBRANCH   1  12
BRANCH  10  22
HETATM   22  C14 UNL     1       0.174  31.190   0.192  1.00  0.00     0.295 C 
BRANCH  22  23
HETATM   23  N4  UNL     1      -0.675  31.920  -0.710  1.00  0.00    -0.073 N 
ATOM     24  H43 UNL     1      -1.324  31.321  -1.220  1.00  0.00     0.274 HD
ATOM     25  H42 UNL     1      -1.372  32.489  -0.230  1.00  0.00     0.274 HD
ATOM     26  H41 UNL     1      -0.067  32.464  -1.322  1.00  0.00     0.274 HD
ENDBRANCH  22  23
ENDBRANCH  10  22
TORSDOF 7
ENDMDL
MODEL 5
REMARK VINA RESULT: -6.747310437      4.889      7.979
REMARK  7 active torsions:
REMARK  status: ('A' for Active; 'I' for Inactive)
REMARK    1  A    between atoms: C6_6  and  C7_7 
REMARK    2  A    between atoms: C7_7  and  C8_8 
REMARK    3  A    between atoms: C8_8  and  C9_9 
REMARK    4  A    between atoms: C9_9  and  C10_10 
REMARK    5  A    between atoms: C10_10  and  C11_11 
REMARK       I    between atoms: C11_11  and  N1_13 
REMARK    6  A    between atoms: C13_20  and  C14_21 
REMARK    7  A    between atoms: C14_21  and  N4_22 
ROOT
HETATM    1  C11 UNL     1      -1.987  28.443  -4.039  1.00  0.00     0.223 C 
HETATM    2  O1  UNL     1      -1.239  29.132  -3.240  1.00  0.00    -0.273 OA
HETATM    3  N1  UNL     1      -3.331  28.504  -3.817  1.00  0.00    -0.306 N 
ATOM      4  H1  UNL     1      -3.599  29.195  -3.115  1.00  0.00     0.171 HD
HETATM    5  C12 UNL     1      -4.316  27.871  -4.311  1.00  0.00     0.167 A 
HETATM    6  N2  UNL     1      -4.433  26.916  -5.225  1.00  0.00    -0.279 N 
ATOM      7  H2  UNL     1      -3.602  26.545  -5.687  1.00  0.00     0.189 HD
HETATM    8  N3  UNL     1      -5.583  26.466  -5.523  1.00  0.00    -0.294 N 
ATOM      9  H3  UNL     1      -5.671  25.732  -6.225  1.00  0.00     0.187 HD
HETATM   10  C13 UNL     1      -6.663  26.937  -4.934  1.00  0.00     0.095 A 
HETATM   11  S1  UNL     1      -5.995  28.103  -3.882  1.00  0.00    -0.036 SA
ENDROOT
BRANCH   1  12
HETATM   12  C10 UNL     1      -1.243  27.692  -5.079  1.00  0.00     0.103 C 
BRANCH  12  13
HETATM   13  C9  UNL     1      -0.333  26.645  -4.455  1.00  0.00     0.009 C 
BRANCH  13  14
HETATM   14  C8  UNL     1      -1.092  25.419  -4.062  1.00  0.00     0.001 C 
BRANCH  14  15
HETATM   15  C7  UNL     1      -0.767  25.004  -2.672  1.00  0.00     0.005 C 
BRANCH  15  16
HETATM   16  C6  UNL     1       0.701  25.058  -2.351  1.00  0.00    -0.011 C 
HETATM   17  C2  UNL     1       0.826  25.244  -0.840  1.00  0.00    -0.015 C 
HETATM   18  C1  UNL     1       0.895  26.733  -0.577  1.00  0.00     0.010 C 
HETATM   19  C3  UNL     1       2.089  24.537  -0.435  1.00  0.00     0.005 C 
HETATM   20  C4  UNL     1       2.594  23.812  -1.665  1.00  0.00     0.001 C 
HETATM   21  C5  UNL     1       1.419  23.782  -2.630  1.00  0.00     0.005 C 
ENDBRANCH  15  16
ENDBRANCH  14  15
ENDBRANCH  13  14
ENDBRANCH  12  13
ENDBRANCH   1  12
BRANCH  10  22
HETATM   22  C14 UNL     1      -8.105  26.542  -5.143  1.00  0.00     0.295 C 
BRANCH  22  23
HETATM   23  N4  UNL     1      -8.725  27.587  -5.911  1.00  0.00    -0.073 N 
ATOM     24  H43 UNL     1      -9.223  28.265  -5.334  1.00  0.00     0.274 HD
ATOM     25  H42 UNL     1      -8.052  28.234  -6.321  1.00  0.00     0.274 HD
ATOM     26  H41 UNL     1      -9.321  27.137  -6.605  1.00  0.00     0.274 HD
ENDBRANCH  22  23
ENDBRANCH  10  22
TORSDOF 7
ENDMDL
