MODEL 1
REMARK VINA RESULT: -6.490725320      0.000      0.000
REMARK  7 active torsions:
REMARK  status: ('A' for Active; 'I' for Inactive)
REMARK    1  A    between atoms: C3_3  and  C4_4 
REMARK    2  A    between atoms: C4_4  and  C5_5 
REMARK    3  A    between atoms: C5_5  and  C6_6 
REMARK    4  A    between atoms: C5_5  and  N1_10 
REMARK    5  A    between atoms: C6_6  and  C7_7 
REMARK    6  A    between atoms: C7_7  and  C8_8 
REMARK    7  A    between atoms: N1_10  and  C10_12 
ROOT
HETATM    1  C1  UNL     1      -0.373  30.244  -8.325  1.00  0.00     0.012 C 
HETATM    2  C2  UNL     1      -0.405  29.449  -7.420  1.00  0.00    -0.117 C 
HETATM    3  C3  UNL     1      -0.433  28.501  -6.310  1.00  0.00     0.095 C 
ENDROOT
BRANCH   3   4
HETATM    4  C4  UNL     1      -1.812  28.505  -5.671  1.00  0.00     0.037 C 
BRANCH   4   5
HETATM    5  C5  UNL     1      -1.716  27.697  -4.393  1.00  0.00     0.083 C 
BRANCH   5   6
HETATM    6  C6  UNL     1      -3.053  27.670  -3.729  1.00  0.00     0.025 C 
BRANCH   6   7
HETATM    7  C7  UNL     1      -3.691  29.050  -3.825  1.00  0.00     0.002 C 
BRANCH   7   8
HETATM    8  C8  UNL     1      -5.177  28.904  -4.204  1.00  0.00    -0.004 C 
HETATM    9  C9  UNL     1      -5.607  27.469  -4.185  1.00  0.00     0.005 C 
ENDBRANCH   7   8
ENDBRANCH   6   7
ENDBRANCH   5   6
BRANCH   5  10
HETATM   10  N1  UNL     1      -0.605  28.060  -3.655  1.00  0.00    -0.371 N 
ATOM     11  H1  UNL     1       0.021  28.624  -4.230  1.00  0.00     0.161 HD
BRANCH  10  12
HETATM   12  C10 UNL     1      -0.116  27.923  -2.510  1.00  0.00     0.121 A 
HETATM   13  N2  UNL     1       0.263  26.729  -2.026  1.00  0.00    -0.332 N 
HETATM   14  C11 UNL     1       0.793  26.503  -0.813  1.00  0.00     0.079 A 
ATOM     15  H2  UNL     1       0.136  25.921  -2.635  1.00  0.00     0.168 HD
HETATM   16  C12 UNL     1       1.167  25.131  -0.406  1.00  0.00     0.089 C 
HETATM   17  N3  UNL     1       0.968  27.561   0.007  1.00  0.00    -0.339 N 
HETATM   18  C13 UNL     1       0.602  28.805  -0.428  1.00  0.00     0.111 A 
ATOM     19  H3  UNL     1       1.367  27.435   0.937  1.00  0.00     0.168 HD
HETATM   20  S1  UNL     1       0.652  30.359   0.269  1.00  0.00     0.008 SA
HETATM   21  C15 UNL     1       0.061  29.052  -1.659  1.00  0.00     0.111 A 
HETATM   22  N4  UNL     1      -0.001  31.253  -0.995  1.00  0.00    -0.291 N 
HETATM   23  C14 UNL     1      -0.246  30.337  -1.934  1.00  0.00     0.268 A 
ATOM     24  H4  UNL     1      -0.169  32.258  -1.036  1.00  0.00     0.177 HD
HETATM   25  O1  UNL     1      -0.763  30.756  -3.043  1.00  0.00    -0.267 OA
ENDBRANCH  10  12
ENDBRANCH   5  10
ENDBRANCH   4   5
ENDBRANCH   3   4
TORSDOF 7
ENDMDL
MODEL 2
REMARK VINA RESULT: -6.456716911      2.209      4.467
REMARK  7 active torsions:
REMARK  status: ('A' for Active; 'I' for Inactive)
REMARK    1  A    between atoms: C3_3  and  C4_4 
REMARK    2  A    between atoms: C4_4  and  C5_5 
REMARK    3  A    between atoms: C5_5  and  C6_6 
REMARK    4  A    between atoms: C5_5  and  N1_10 
REMARK    5  A    between atoms: C6_6  and  C7_7 
REMARK    6  A    between atoms: C7_7  and  C8_8 
REMARK    7  A    between atoms: N1_10  and  C10_12 
ROOT
HETATM    1  C1  UNL     1      -6.565  27.567  -4.607  1.00  0.00     0.012 C 
HETATM    2  C2  UNL     1      -5.408  27.697  -4.295  1.00  0.00    -0.117 C 
HETATM    3  C3  UNL     1      -4.001  27.846  -3.937  1.00  0.00     0.095 C 
ENDROOT
BRANCH   3   4
HETATM    4  C4  UNL     1      -3.614  29.315  -3.992  1.00  0.00     0.037 C 
BRANCH   4   5
HETATM    5  C5  UNL     1      -2.104  29.385  -3.897  1.00  0.00     0.083 C 
BRANCH   5   6
HETATM    6  C6  UNL     1      -1.553  29.849  -5.205  1.00  0.00     0.025 C 
BRANCH   6   7
HETATM    7  C7  UNL     1      -1.074  28.645  -6.006  1.00  0.00     0.002 C 
BRANCH   7   8
HETATM    8  C8  UNL     1      -0.652  29.100  -7.415  1.00  0.00    -0.004 C 
HETATM    9  C9  UNL     1       0.454  28.246  -7.957  1.00  0.00     0.005 C 
ENDBRANCH   7   8
ENDBRANCH   6   7
ENDBRANCH   5   6
BRANCH   5  10
HETATM   10  N1  UNL     1      -1.587  28.241  -3.317  1.00  0.00    -0.371 N 
ATOM     11  H1  UNL     1      -2.128  27.430  -3.615  1.00  0.00     0.161 HD
BRANCH  10  12
HETATM   12  C10 UNL     1      -0.671  27.877  -2.545  1.00  0.00     0.121 A 
HETATM   13  N2  UNL     1      -0.092  28.713  -1.668  1.00  0.00    -0.332 N 
HETATM   14  C11 UNL     1       0.893  28.397  -0.811  1.00  0.00     0.079 A 
ATOM     15  H2  UNL     1      -0.430  29.674  -1.651  1.00  0.00     0.168 HD
HETATM   16  C12 UNL     1       1.442  29.420   0.105  1.00  0.00     0.089 C 
HETATM   17  N3  UNL     1       1.354  27.128  -0.818  1.00  0.00    -0.339 N 
HETATM   18  C13 UNL     1       0.805  26.228  -1.689  1.00  0.00     0.111 A 
ATOM     19  H3  UNL     1       2.101  26.846  -0.184  1.00  0.00     0.168 HD
HETATM   20  S1  UNL     1       1.087  24.579  -2.013  1.00  0.00     0.008 SA
HETATM   21  C15 UNL     1      -0.197  26.533  -2.568  1.00  0.00     0.111 A 
HETATM   22  N4  UNL     1      -0.051  24.334  -3.226  1.00  0.00    -0.291 N 
HETATM   23  C14 UNL     1      -0.628  25.529  -3.360  1.00  0.00     0.268 A 
ATOM     24  H4  UNL     1      -0.252  23.475  -3.737  1.00  0.00     0.177 HD
HETATM   25  O1  UNL     1      -1.564  25.633  -4.246  1.00  0.00    -0.267 OA
ENDBRANCH  10  12
ENDBRANCH   5  10
ENDBRANCH   4   5
ENDBRANCH   3   4
TORSDOF 7
ENDMDL
MODEL 3
REMARK VINA RESULT: -6.435171012      1.613      3.109
REMARK  7 active torsions:
REMARK  status: ('A' for Active; 'I' for Inactive)
REMARK    1  A    between atoms: C3_3  and  C4_4 
REMARK    2  A    between atoms: C4_4  and  C5_5 
REMARK    3  A    between atoms: C5_5  and  C6_6 
REMARK    4  A    between atoms: C5_5  and  N1_10 
REMARK    5  A    between atoms: C6_6  and  C7_7 
REMARK    6  A    between atoms: C7_7  and  C8_8 
REMARK    7  A    between atoms: N1_10  and  C10_12 
ROOT
HETATM    1  C1  UNL     1      -5.614  28.534  -4.230  1.00  0.00     0.012 C 
HETATM    2  C2  UNL     1      -4.507  28.999  -4.127  1.00  0.00    -0.117 C 
HETATM    3  C3  UNL     1      -3.172  29.573  -3.984  1.00  0.00     0.095 C 
ENDROOT
BRANCH   3   4
HETATM    4  C4  UNL     1      -2.246  28.558  -3.336  1.00  0.00     0.037 C 
BRANCH   4   5
HETATM    5  C5  UNL     1      -0.908  28.660  -4.037  1.00  0.00     0.083 C 
BRANCH   5   6
HETATM    6  C6  UNL     1      -0.755  27.507  -4.973  1.00  0.00     0.025 C 
BRANCH   6   7
HETATM    7  C7  UNL     1      -1.497  26.301  -4.413  1.00  0.00     0.002 C 
BRANCH   7   8
HETATM    8  C8  UNL     1      -0.489  25.186  -4.080  1.00  0.00    -0.004 C 
HETATM    9  C9  UNL     1      -0.639  24.719  -2.664  1.00  0.00     0.005 C 
ENDBRANCH   7   8
ENDBRANCH   6   7
ENDBRANCH   5   6
BRANCH   5  10
HETATM   10  N1  UNL     1       0.107  28.936  -3.138  1.00  0.00    -0.371 N 
ATOM     11  H1  UNL     1       0.890  29.369  -3.627  1.00  0.00     0.161 HD
BRANCH  10  12
HETATM   12  C10 UNL     1       0.378  28.826  -1.921  1.00  0.00     0.121 A 
HETATM   13  N2  UNL     1       0.711  27.653  -1.359  1.00  0.00    -0.332 N 
HETATM   14  C11 UNL     1       1.014  27.457  -0.065  1.00  0.00     0.079 A 
ATOM     15  H2  UNL     1       0.737  26.837  -1.970  1.00  0.00     0.168 HD
HETATM   16  C12 UNL     1       1.364  26.106   0.423  1.00  0.00     0.089 C 
HETATM   17  N3  UNL     1       0.986  28.526   0.759  1.00  0.00    -0.339 N 
HETATM   18  C13 UNL     1       0.654  29.750   0.247  1.00  0.00     0.111 A 
ATOM     19  H3  UNL     1       1.209  28.422   1.749  1.00  0.00     0.168 HD
HETATM   20  S1  UNL     1       0.504  31.308   0.921  1.00  0.00     0.008 SA
HETATM   21  C15 UNL     1       0.342  29.966  -1.066  1.00  0.00     0.111 A 
HETATM   22  N4  UNL     1       0.061  32.165  -0.455  1.00  0.00    -0.291 N 
HETATM   23  C14 UNL     1       0.037  31.235  -1.411  1.00  0.00     0.268 A 
ATOM     24  H4  UNL     1      -0.140  33.161  -0.540  1.00  0.00     0.177 HD
HETATM   25  O1  UNL     1      -0.281  31.624  -2.603  1.00  0.00    -0.267 OA
ENDBRANCH  10  12
ENDBRANCH   5  10
ENDBRANCH   4   5
ENDBRANCH   3   4
TORSDOF 7
ENDMDL
MODEL 4
REMARK VINA RESULT: -6.424599647      2.289      3.236
REMARK  7 active torsions:
REMARK  status: ('A' for Active; 'I' for Inactive)
REMARK    1  A    between atoms: C3_3  and  C4_4 
REMARK    2  A    between atoms: C4_4  and  C5_5 
REMARK    3  A    between atoms: C5_5  and  C6_6 
REMARK    4  A    between atoms: C5_5  and  N1_10 
REMARK    5  A    between atoms: C6_6  and  C7_7 
REMARK    6  A    between atoms: C7_7  and  C8_8 
REMARK    7  A    between atoms: N1_10  and  C10_12 
ROOT
HETATM    1  C1  UNL     1      -0.317  29.958  -8.304  1.00  0.00     0.012 C 
HETATM    2  C2  UNL     1      -0.652  29.288  -7.361  1.00  0.00    -0.117 C 
HETATM    3  C3  UNL     1      -1.037  28.472  -6.213  1.00  0.00     0.095 C 
ENDROOT
BRANCH   3   4
HETATM    4  C4  UNL     1      -1.430  29.374  -5.055  1.00  0.00     0.037 C 
BRANCH   4   5
HETATM    5  C5  UNL     1      -2.465  28.629  -4.238  1.00  0.00     0.083 C 
BRANCH   5   6
HETATM    6  C6  UNL     1      -3.441  29.609  -3.673  1.00  0.00     0.025 C 
BRANCH   6   7
HETATM    7  C7  UNL     1      -4.839  29.274  -4.175  1.00  0.00     0.002 C 
BRANCH   7   8
HETATM    8  C8  UNL     1      -4.968  27.750  -4.361  1.00  0.00    -0.004 C 
HETATM    9  C9  UNL     1      -6.394  27.345  -4.577  1.00  0.00     0.005 C 
ENDBRANCH   7   8
ENDBRANCH   6   7
ENDBRANCH   5   6
BRANCH   5  10
HETATM   10  N1  UNL     1      -1.868  27.711  -3.393  1.00  0.00    -0.371 N 
ATOM     11  H1  UNL     1      -2.480  26.904  -3.276  1.00  0.00     0.161 HD
BRANCH  10  12
HETATM   12  C10 UNL     1      -0.822  27.548  -2.725  1.00  0.00     0.121 A 
HETATM   13  N2  UNL     1      -0.297  28.519  -1.959  1.00  0.00    -0.332 N 
HETATM   14  C11 UNL     1       0.818  28.419  -1.216  1.00  0.00     0.079 A 
ATOM     15  H2  UNL     1      -0.788  29.412  -1.940  1.00  0.00     0.168 HD
HETATM   16  C12 UNL     1       1.287  29.572  -0.417  1.00  0.00     0.089 C 
HETATM   17  N3  UNL     1       1.483  27.244  -1.228  1.00  0.00    -0.339 N 
HETATM   18  C13 UNL     1       0.998  26.216  -1.989  1.00  0.00     0.111 A 
ATOM     19  H3  UNL     1       2.333  27.125  -0.679  1.00  0.00     0.168 HD
HETATM   20  S1  UNL     1       1.515  24.618  -2.277  1.00  0.00     0.008 SA
HETATM   21  C15 UNL     1      -0.134  26.300  -2.750  1.00  0.00     0.111 A 
HETATM   22  N4  UNL     1       0.305  24.119  -3.331  1.00  0.00    -0.291 N 
HETATM   23  C14 UNL     1      -0.478  25.194  -3.442  1.00  0.00     0.268 A 
ATOM     24  H4  UNL     1       0.194  23.210  -3.779  1.00  0.00     0.177 HD
HETATM   25  O1  UNL     1      -1.512  25.091  -4.211  1.00  0.00    -0.267 OA
ENDBRANCH  10  12
ENDBRANCH   5  10
ENDBRANCH   4   5
ENDBRANCH   3   4
TORSDOF 7
ENDMDL
MODEL 5
REMARK VINA RESULT: -6.338790228      3.270      5.797
REMARK  7 active torsions:
REMARK  status: ('A' for Active; 'I' for Inactive)
REMARK    1  A    between atoms: C3_3  and  C4_4 
REMARK    2  A    between atoms: C4_4  and  C5_5 
REMARK    3  A    between atoms: C5_5  and  C6_6 
REMARK    4  A    between atoms: C5_5  and  N1_10 
REMARK    5  A    between atoms: C6_6  and  C7_7 
REMARK    6  A    between atoms: C7_7  and  C8_8 
REMARK    7  A    between atoms: N1_10  and  C10_12 
ROOT
HETATM    1  C1  UNL     1      -6.022  27.745  -4.244  1.00  0.00     0.012 C 
HETATM    2  C2  UNL     1      -5.152  28.575  -4.176  1.00  0.00    -0.117 C 
HETATM    3  C3  UNL     1      -4.104  29.586  -4.073  1.00  0.00     0.095 C 
ENDROOT
BRANCH   3   4
HETATM    4  C4  UNL     1      -2.801  28.931  -3.646  1.00  0.00     0.037 C 
BRANCH   4   5
HETATM    5  C5  UNL     1      -2.188  28.305  -4.882  1.00  0.00     0.083 C 
BRANCH   5   6
HETATM    6  C6  UNL     1      -1.992  26.844  -4.645  1.00  0.00     0.025 C 
BRANCH   6   7
HETATM    7  C7  UNL     1      -1.545  26.622  -3.205  1.00  0.00     0.002 C 
BRANCH   7   8
HETATM    8  C8  UNL     1      -0.878  25.240  -3.081  1.00  0.00    -0.004 C 
HETATM    9  C9  UNL     1      -0.179  25.087  -1.765  1.00  0.00     0.005 C 
ENDBRANCH   7   8
ENDBRANCH   6   7
ENDBRANCH   5   6
BRANCH   5  10
HETATM   10  N1  UNL     1      -1.128  29.059  -5.350  1.00  0.00    -0.371 N 
ATOM     11  H1  UNL     1      -0.747  29.624  -4.592  1.00  0.00     0.161 HD
BRANCH  10  12
HETATM   12  C10 UNL     1      -0.483  29.274  -6.401  1.00  0.00     0.121 A 
HETATM   13  N2  UNL     1       0.092  28.288  -7.109  1.00  0.00    -0.332 N 
HETATM   14  C11 UNL     1       0.797  28.440  -8.242  1.00  0.00     0.079 A 
ATOM     15  H2  UNL     1      -0.016  27.339  -6.754  1.00  0.00     0.168 HD
HETATM   16  C12 UNL     1       1.379  27.263  -8.922  1.00  0.00     0.089 C 
HETATM   17  N3  UNL     1       0.951  29.690  -8.728  1.00  0.00    -0.339 N 
HETATM   18  C13 UNL     1       0.389  30.738  -8.053  1.00  0.00     0.111 A 
ATOM     19  H3  UNL     1       1.479  29.851  -9.586  1.00  0.00     0.168 HD
HETATM   20  S1  UNL     1       0.345  32.421  -8.314  1.00  0.00     0.008 SA
HETATM   21  C15 UNL     1      -0.331  30.601  -6.898  1.00  0.00     0.111 A 
HETATM   22  N4  UNL     1      -0.565  32.888  -6.981  1.00  0.00    -0.291 N 
HETATM   23  C14 UNL     1      -0.820  31.736  -6.356  1.00  0.00     0.268 A 
ATOM     24  H4  UNL     1      -0.854  33.828  -6.712  1.00  0.00     0.177 HD
HETATM   25  O1  UNL     1      -1.521  31.798  -5.271  1.00  0.00    -0.267 OA
ENDBRANCH  10  12
ENDBRANCH   5  10
ENDBRANCH   4   5
ENDBRANCH   3   4
TORSDOF 7
ENDMDL
