MODEL 1
REMARK VINA RESULT: -6.618222353      0.000      0.000
REMARK  7 active torsions:
REMARK  status: ('A' for Active; 'I' for Inactive)
REMARK    1  A    between atoms: O1_1  and  C1_3 
REMARK    2  A    between atoms: C1_3  and  C2_4 
REMARK    3  A    between atoms: C2_4  and  C3_5 
REMARK    4  A    between atoms: C3_5  and  C4_6 
REMARK    5  A    between atoms: C4_6  and  C5_7 
REMARK    6  A    between atoms: C5_7  and  N1_8 
REMARK    7  A    between atoms: N2_11  and  C8_12 
ROOT
HETATM    1  N1  UNL     1      -1.836  27.479  -3.424  1.00  0.00     0.091 N 
HETATM    2  C6  UNL     1      -0.588  28.136  -3.243  1.00  0.00     0.292 C 
HETATM    3  C7  UNL     1       0.204  27.477  -2.162  1.00  0.00     0.153 C 
HETATM    4  N2  UNL     1       0.009  26.057  -2.081  1.00  0.00    -0.376 N 
HETATM    5  C14 UNL     1      -1.106  25.352  -2.670  1.00  0.00     0.153 C 
HETATM    6  C15 UNL     1      -1.584  26.125  -3.878  1.00  0.00     0.292 C 
ENDROOT
BRANCH   4   7
HETATM    7  C8  UNL     1       0.978  25.290  -1.374  1.00  0.00     0.059 A 
HETATM    8  C9  UNL     1       1.276  25.448  -0.039  1.00  0.00     0.119 A 
HETATM    9  N3  UNL     1       2.228  24.579   0.332  1.00  0.00    -0.357 N 
HETATM   10  C10 UNL     1       2.539  23.856  -0.791  1.00  0.00     0.086 A 
ATOM     11  H3  UNL     1       2.637  24.477   1.261  1.00  0.00     0.166 HD
HETATM   12  S1  UNL     1       3.509  22.608  -1.441  1.00  0.00    -0.083 SA
HETATM   13  C13 UNL     1       1.800  24.254  -1.863  1.00  0.00     0.026 A 
HETATM   14  C11 UNL     1       2.953  22.625  -3.048  1.00  0.00     0.053 A 
HETATM   15  C12 UNL     1       2.013  23.617  -3.038  1.00  0.00     0.024 A 
ENDBRANCH   4   7
BRANCH   1  16
HETATM   16  C5  UNL     1      -2.695  28.101  -4.405  1.00  0.00     0.272 C 
BRANCH  16  17
HETATM   17  C4  UNL     1      -3.563  29.172  -3.852  1.00  0.00     0.030 C 
BRANCH  17  18
HETATM   18  C3  UNL     1      -5.001  28.902  -4.200  1.00  0.00     0.004 C 
BRANCH  18  19
HETATM   19  C2  UNL     1      -5.384  27.461  -4.153  1.00  0.00     0.026 C 
BRANCH  19  20
HETATM   20  C1  UNL     1      -6.766  27.282  -4.791  1.00  0.00     0.164 C 
BRANCH  20  21
HETATM   21  O1  UNL     1      -7.431  26.198  -4.230  1.00  0.00    -0.401 OA
ATOM     22  H1  UNL     1      -7.797  25.640  -4.906  1.00  0.00     0.209 HD
ENDBRANCH  20  21
ENDBRANCH  19  20
ENDBRANCH  18  19
ENDBRANCH  17  18
ENDBRANCH  16  17
ENDBRANCH   1  16
TORSDOF 7
ENDMDL
MODEL 2
REMARK VINA RESULT: -6.496135103      0.495      1.194
REMARK  7 active torsions:
REMARK  status: ('A' for Active; 'I' for Inactive)
REMARK    1  A    between atoms: O1_1  and  C1_3 
REMARK    2  A    between atoms: C1_3  and  C2_4 
REMARK    3  A    between atoms: C2_4  and  C3_5 
REMARK    4  A    between atoms: C3_5  and  C4_6 
REMARK    5  A    between atoms: C4_6  and  C5_7 
REMARK    6  A    between atoms: C5_7  and  N1_8 
REMARK    7  A    between atoms: N2_11  and  C8_12 
ROOT
HETATM    1  N1  UNL     1      -1.500  27.599  -4.091  1.00  0.00     0.091 N 
HETATM    2  C6  UNL     1      -1.912  26.281  -3.750  1.00  0.00     0.292 C 
HETATM    3  C7  UNL     1      -0.783  25.516  -3.141  1.00  0.00     0.153 C 
HETATM    4  N2  UNL     1       0.109  26.321  -2.357  1.00  0.00    -0.376 N 
HETATM    5  C14 UNL     1       0.197  27.761  -2.441  1.00  0.00     0.153 C 
HETATM    6  C15 UNL     1      -1.147  28.303  -2.872  1.00  0.00     0.292 C 
ENDROOT
BRANCH   4   7
HETATM    7  C8  UNL     1       0.968  25.660  -1.434  1.00  0.00     0.059 A 
HETATM    8  C9  UNL     1       1.193  26.075  -0.141  1.00  0.00     0.119 A 
HETATM    9  N3  UNL     1       2.049  25.245   0.473  1.00  0.00    -0.357 N 
HETATM   10  C10 UNL     1       2.373  24.284  -0.451  1.00  0.00     0.086 A 
ATOM     11  H3  UNL     1       2.389  25.314   1.432  1.00  0.00     0.166 HD
HETATM   12  S1  UNL     1       3.281  22.868  -0.753  1.00  0.00    -0.083 SA
HETATM   13  C13 UNL     1       1.736  24.494  -1.635  1.00  0.00     0.026 A 
HETATM   14  C11 UNL     1       2.831  22.583  -2.368  1.00  0.00     0.053 A 
HETATM   15  C12 UNL     1       1.972  23.613  -2.635  1.00  0.00     0.024 A 
ENDBRANCH   4   7
BRANCH   1  16
HETATM   16  C5  UNL     1      -2.517  28.384  -4.753  1.00  0.00     0.272 C 
BRANCH  16  17
HETATM   17  C4  UNL     1      -3.405  29.125  -3.821  1.00  0.00     0.030 C 
BRANCH  17  18
HETATM   18  C3  UNL     1      -4.845  28.912  -4.202  1.00  0.00     0.004 C 
BRANCH  18  19
HETATM   19  C2  UNL     1      -5.290  27.489  -4.151  1.00  0.00     0.026 C 
BRANCH  19  20
HETATM   20  C1  UNL     1      -6.700  27.377  -4.741  1.00  0.00     0.164 C 
BRANCH  20  21
HETATM   21  O1  UNL     1      -7.345  26.242  -4.264  1.00  0.00    -0.401 OA
ATOM     22  H1  UNL     1      -8.221  26.175  -4.625  1.00  0.00     0.209 HD
ENDBRANCH  20  21
ENDBRANCH  19  20
ENDBRANCH  18  19
ENDBRANCH  17  18
ENDBRANCH  16  17
ENDBRANCH   1  16
TORSDOF 7
ENDMDL
MODEL 3
REMARK VINA RESULT: -6.427621355      1.982      2.890
REMARK  7 active torsions:
REMARK  status: ('A' for Active; 'I' for Inactive)
REMARK    1  A    between atoms: O1_1  and  C1_3 
REMARK    2  A    between atoms: C1_3  and  C2_4 
REMARK    3  A    between atoms: C2_4  and  C3_5 
REMARK    4  A    between atoms: C3_5  and  C4_6 
REMARK    5  A    between atoms: C4_6  and  C5_7 
REMARK    6  A    between atoms: C5_7  and  N1_8 
REMARK    7  A    between atoms: N2_11  and  C8_12 
ROOT
HETATM    1  N1  UNL     1      -3.638  28.145  -3.779  1.00  0.00     0.091 N 
HETATM    2  C6  UNL     1      -2.809  29.297  -3.681  1.00  0.00     0.292 C 
HETATM    3  C7  UNL     1      -1.511  28.958  -3.024  1.00  0.00     0.153 C 
HETATM    4  N2  UNL     1      -1.039  27.635  -3.314  1.00  0.00    -0.376 N 
HETATM    5  C14 UNL     1      -1.865  26.570  -3.835  1.00  0.00     0.153 C 
HETATM    6  C15 UNL     1      -2.988  27.180  -4.644  1.00  0.00     0.292 C 
ENDROOT
BRANCH   4   7
HETATM    7  C8  UNL     1       0.334  27.348  -3.074  1.00  0.00     0.059 A 
HETATM    8  C9  UNL     1       1.381  27.892  -3.784  1.00  0.00     0.119 A 
HETATM    9  N3  UNL     1       2.550  27.427  -3.320  1.00  0.00    -0.357 N 
HETATM   10  C10 UNL     1       2.238  26.571  -2.295  1.00  0.00     0.086 A 
ATOM     11  H3  UNL     1       3.483  27.663  -3.660  1.00  0.00     0.166 HD
HETATM   12  S1  UNL     1       2.856  25.516  -1.100  1.00  0.00    -0.083 SA
HETATM   13  C13 UNL     1       0.892  26.489  -2.105  1.00  0.00     0.026 A 
HETATM   14  C11 UNL     1       1.396  25.001  -0.396  1.00  0.00     0.053 A 
HETATM   15  C12 UNL     1       0.450  25.673  -1.119  1.00  0.00     0.024 A 
ENDBRANCH   4   7
BRANCH   1  16
HETATM   16  C5  UNL     1      -4.945  28.403  -4.340  1.00  0.00     0.272 C 
BRANCH  16  17
HETATM   17  C4  UNL     1      -6.010  27.511  -3.816  1.00  0.00     0.030 C 
BRANCH  17  18
HETATM   18  C3  UNL     1      -6.708  26.818  -4.954  1.00  0.00     0.004 C 
BRANCH  18  19
HETATM   19  C2  UNL     1      -8.051  27.377  -5.282  1.00  0.00     0.026 C 
BRANCH  19  20
HETATM   20  C1  UNL     1      -9.094  26.256  -5.234  1.00  0.00     0.164 C 
BRANCH  20  21
HETATM   21  O1  UNL     1      -8.866  25.417  -4.149  1.00  0.00    -0.401 OA
ATOM     22  H1  UNL     1      -8.836  24.509  -4.425  1.00  0.00     0.209 HD
ENDBRANCH  20  21
ENDBRANCH  19  20
ENDBRANCH  18  19
ENDBRANCH  17  18
ENDBRANCH  16  17
ENDBRANCH   1  16
TORSDOF 7
ENDMDL
MODEL 4
REMARK VINA RESULT: -6.366800924      2.676      3.547
REMARK  7 active torsions:
REMARK  status: ('A' for Active; 'I' for Inactive)
REMARK    1  A    between atoms: O1_1  and  C1_3 
REMARK    2  A    between atoms: C1_3  and  C2_4 
REMARK    3  A    between atoms: C2_4  and  C3_5 
REMARK    4  A    between atoms: C3_5  and  C4_6 
REMARK    5  A    between atoms: C4_6  and  C5_7 
REMARK    6  A    between atoms: C5_7  and  N1_8 
REMARK    7  A    between atoms: N2_11  and  C8_12 
ROOT
HETATM    1  N1  UNL     1      -3.675  28.430  -3.770  1.00  0.00     0.091 N 
HETATM    2  C6  UNL     1      -2.818  29.556  -3.910  1.00  0.00     0.292 C 
HETATM    3  C7  UNL     1      -1.555  29.356  -3.138  1.00  0.00     0.153 C 
HETATM    4  N2  UNL     1      -1.110  27.993  -3.091  1.00  0.00    -0.376 N 
HETATM    5  C14 UNL     1      -1.947  26.851  -3.382  1.00  0.00     0.153 C 
HETATM    6  C15 UNL     1      -3.021  27.276  -4.357  1.00  0.00     0.292 C 
ENDROOT
BRANCH   4   7
HETATM    7  C8  UNL     1       0.245  27.745  -2.733  1.00  0.00     0.059 A 
HETATM    8  C9  UNL     1       1.207  27.273  -3.597  1.00  0.00     0.119 A 
HETATM    9  N3  UNL     1       2.381  27.144  -2.962  1.00  0.00    -0.357 N 
HETATM   10  C10 UNL     1       2.158  27.542  -1.668  1.00  0.00     0.086 A 
ATOM     11  H3  UNL     1       3.262  26.817  -3.360  1.00  0.00     0.166 HD
HETATM   12  S1  UNL     1       2.853  27.774  -0.124  1.00  0.00    -0.083 SA
HETATM   13  C13 UNL     1       0.864  27.919  -1.478  1.00  0.00     0.026 A 
HETATM   14  C11 UNL     1       1.489  28.341   0.718  1.00  0.00     0.053 A 
HETATM   15  C12 UNL     1       0.512  28.335  -0.238  1.00  0.00     0.024 A 
ENDBRANCH   4   7
BRANCH   1  16
HETATM   16  C5  UNL     1      -4.953  28.574  -4.431  1.00  0.00     0.272 C 
BRANCH  16  17
HETATM   17  C4  UNL     1      -6.038  27.763  -3.821  1.00  0.00     0.030 C 
BRANCH  17  18
HETATM   18  C3  UNL     1      -6.684  26.897  -4.868  1.00  0.00     0.004 C 
BRANCH  18  19
HETATM   19  C2  UNL     1      -8.044  27.346  -5.283  1.00  0.00     0.026 C 
BRANCH  19  20
HETATM   20  C1  UNL     1      -9.018  26.167  -5.194  1.00  0.00     0.164 C 
BRANCH  20  21
HETATM   21  O1  UNL     1      -8.807  25.441  -4.027  1.00  0.00    -0.401 OA
ATOM     22  H1  UNL     1      -8.896  25.998  -3.263  1.00  0.00     0.209 HD
ENDBRANCH  20  21
ENDBRANCH  19  20
ENDBRANCH  18  19
ENDBRANCH  17  18
ENDBRANCH  16  17
ENDBRANCH   1  16
TORSDOF 7
ENDMDL
MODEL 5
REMARK VINA RESULT: -6.248797106      2.205      2.949
REMARK  7 active torsions:
REMARK  status: ('A' for Active; 'I' for Inactive)
REMARK    1  A    between atoms: O1_1  and  C1_3 
REMARK    2  A    between atoms: C1_3  and  C2_4 
REMARK    3  A    between atoms: C2_4  and  C3_5 
REMARK    4  A    between atoms: C3_5  and  C4_6 
REMARK    5  A    between atoms: C4_6  and  C5_7 
REMARK    6  A    between atoms: C5_7  and  N1_8 
REMARK    7  A    between atoms: N2_11  and  C8_12 
ROOT
HETATM    1  N1  UNL     1      -2.668  27.447  -3.657  1.00  0.00     0.091 N 
HETATM    2  C6  UNL     1      -1.891  28.638  -3.650  1.00  0.00     0.292 C 
HETATM    3  C7  UNL     1      -0.737  28.510  -2.710  1.00  0.00     0.153 C 
HETATM    4  N2  UNL     1      -0.198  27.182  -2.627  1.00  0.00    -0.376 N 
HETATM    5  C14 UNL     1      -0.894  25.991  -3.057  1.00  0.00     0.153 C 
HETATM    6  C15 UNL     1      -1.850  26.363  -4.167  1.00  0.00     0.292 C 
ENDROOT
BRANCH   4   7
HETATM    7  C8  UNL     1       1.108  27.026  -2.084  1.00  0.00     0.059 A 
HETATM    8  C9  UNL     1       2.156  26.413  -2.735  1.00  0.00     0.119 A 
HETATM    9  N3  UNL     1       3.253  26.423  -1.964  1.00  0.00    -0.357 N 
HETATM   10  C10 UNL     1       2.893  27.054  -0.800  1.00  0.00     0.086 A 
ATOM     11  H3  UNL     1       4.169  26.039  -2.195  1.00  0.00     0.166 HD
HETATM   12  S1  UNL     1       3.418  27.583   0.737  1.00  0.00    -0.083 SA
HETATM   13  C13 UNL     1       1.589  27.443  -0.826  1.00  0.00     0.026 A 
HETATM   14  C11 UNL     1       1.974  28.280   1.305  1.00  0.00     0.053 A 
HETATM   15  C12 UNL     1       1.106  28.079   0.267  1.00  0.00     0.024 A 
ENDBRANCH   4   7
BRANCH   1  16
HETATM   16  C5  UNL     1      -3.848  27.515  -4.489  1.00  0.00     0.272 C 
BRANCH  16  17
HETATM   17  C4  UNL     1      -4.703  28.699  -4.223  1.00  0.00     0.030 C 
BRANCH  17  18
HETATM   18  C3  UNL     1      -6.155  28.311  -4.290  1.00  0.00     0.004 C 
BRANCH  18  19
HETATM   19  C2  UNL     1      -6.394  26.883  -4.647  1.00  0.00     0.026 C 
BRANCH  19  20
HETATM   20  C1  UNL     1      -7.873  26.688  -4.997  1.00  0.00     0.164 C 
BRANCH  20  21
HETATM   21  O1  UNL     1      -8.437  25.687  -4.215  1.00  0.00    -0.401 OA
ATOM     22  H1  UNL     1      -8.045  24.844  -4.412  1.00  0.00     0.209 HD
ENDBRANCH  20  21
ENDBRANCH  19  20
ENDBRANCH  18  19
ENDBRANCH  17  18
ENDBRANCH  16  17
ENDBRANCH   1  16
TORSDOF 7
ENDMDL
