MODEL 1
REMARK VINA RESULT: -6.671067169      0.000      0.000
REMARK  6 active torsions:
REMARK  status: ('A' for Active; 'I' for Inactive)
REMARK    1  A    between atoms: C2_2  and  C3_3 
REMARK    2  A    between atoms: C3_3  and  C4_4 
REMARK    3  A    between atoms: C4_4  and  C5_5 
REMARK    4  A    between atoms: C5_5  and  N1_6 
REMARK       I    between atoms: N1_6  and  C6_8 
REMARK       I    between atoms: C6_8  and  N4_21 
REMARK    5  A    between atoms: N2_9  and  N3_11 
REMARK    6  A    between atoms: N4_21  and  N5_23 
ROOT
HETATM    1  N1  UNL     1      -2.579  27.127  -4.536  1.00  0.00    -0.223 N 
ATOM      2  H1  UNL     1      -3.220  26.773  -5.246  1.00  0.00     0.177 HD
HETATM    3  C6  UNL     1      -1.232  26.604  -4.488  1.00  0.00     0.712 C 
HETATM    4  N2  UNL     1      -1.092  25.387  -4.128  1.00  0.00    -0.131 N 
ATOM      5  H2  UNL     1      -1.938  24.866  -3.898  1.00  0.00     0.205 HD
HETATM    6  N4  UNL     1      -0.181  27.460  -4.837  1.00  0.00    -0.071 N 
ATOM      7  H4  UNL     1       0.448  27.798  -4.108  1.00  0.00     0.212 HD
ENDROOT
BRANCH   1   8
HETATM    8  C5  UNL     1      -3.038  28.120  -3.625  1.00  0.00     0.138 C 
BRANCH   8   9
HETATM    9  C4  UNL     1      -3.976  29.072  -4.258  1.00  0.00     0.020 C 
BRANCH   9  10
HETATM   10  C3  UNL     1      -5.418  28.784  -4.237  1.00  0.00     0.001 C 
BRANCH  10  11
HETATM   11  C2  UNL     1      -5.892  27.412  -3.970  1.00  0.00    -0.004 C 
HETATM   12  C1  UNL     1      -7.107  27.188  -4.900  1.00  0.00     0.005 C 
ENDBRANCH  10  11
ENDBRANCH   9  10
ENDBRANCH   8   9
ENDBRANCH   1   8
BRANCH   4  13
HETATM   13  N3  UNL     1       0.104  24.720  -4.024  1.00  0.00    -0.295 N 
HETATM   14  C7  UNL     1       0.689  24.390  -2.894  1.00  0.00     0.004 C 
HETATM   15  C8  UNL     1      -0.124  24.840  -1.768  1.00  0.00     0.054 C 
HETATM   16  C14 UNL     1       1.936  23.686  -3.182  1.00  0.00     0.054 C 
HETATM   17  C9  UNL     1       0.415  26.125  -1.193  1.00  0.00     0.006 C 
HETATM   18  C10 UNL     1       1.902  26.145  -1.039  1.00  0.00     0.000 C 
HETATM   19  C11 UNL     1       2.431  25.085  -0.132  1.00  0.00     0.000 C 
HETATM   20  C12 UNL     1       2.644  23.745  -0.756  1.00  0.00     0.000 C 
HETATM   21  C13 UNL     1       3.032  23.818  -2.191  1.00  0.00     0.006 C 
ATOM     22  H3  UNL     1       0.574  24.460  -4.890  1.00  0.00     0.186 HD
ENDBRANCH   4  13
BRANCH   6  23
HETATM   23  N5  UNL     1       0.027  27.865  -6.167  1.00  0.00    -0.024 N 
HETATM   24  O1  UNL     1      -0.754  28.684  -6.685  1.00  0.00    -0.516 OA
HETATM   25  O2  UNL     1       1.062  27.384  -6.897  1.00  0.00    -0.516 OA
ENDBRANCH   6  23
TORSDOF 6
ENDMDL
MODEL 2
REMARK VINA RESULT: -6.601913849      5.982      9.012
REMARK  6 active torsions:
REMARK  status: ('A' for Active; 'I' for Inactive)
REMARK    1  A    between atoms: C2_2  and  C3_3 
REMARK    2  A    between atoms: C3_3  and  C4_4 
REMARK    3  A    between atoms: C4_4  and  C5_5 
REMARK    4  A    between atoms: C5_5  and  N1_6 
REMARK       I    between atoms: N1_6  and  C6_8 
REMARK       I    between atoms: C6_8  and  N4_21 
REMARK    5  A    between atoms: N2_9  and  N3_11 
REMARK    6  A    between atoms: N4_21  and  N5_23 
ROOT
HETATM    1  N1  UNL     1      -1.706  30.825  -4.992  1.00  0.00    -0.223 N 
ATOM      2  H1  UNL     1      -2.446  31.325  -4.500  1.00  0.00     0.177 HD
HETATM    3  C6  UNL     1      -0.734  31.581  -5.748  1.00  0.00     0.712 C 
HETATM    4  N2  UNL     1      -1.147  32.174  -6.801  1.00  0.00    -0.131 N 
ATOM      5  H2  UNL     1      -2.135  32.074  -7.037  1.00  0.00     0.205 HD
HETATM    6  N4  UNL     1       0.585  31.612  -5.280  1.00  0.00    -0.071 N 
ATOM      7  H4  UNL     1       1.307  31.106  -5.792  1.00  0.00     0.212 HD
ENDROOT
BRANCH   1   8
HETATM    8  C5  UNL     1      -1.662  29.403  -4.911  1.00  0.00     0.138 C 
BRANCH   8   9
HETATM    9  C4  UNL     1      -2.718  28.859  -4.031  1.00  0.00     0.020 C 
BRANCH   9  10
HETATM   10  C3  UNL     1      -3.992  29.583  -3.900  1.00  0.00     0.001 C 
BRANCH  10  11
HETATM   11  C2  UNL     1      -5.260  28.911  -4.247  1.00  0.00    -0.004 C 
HETATM   12  C1  UNL     1      -4.913  27.418  -4.453  1.00  0.00     0.005 C 
ENDBRANCH  10  11
ENDBRANCH   9  10
ENDBRANCH   8   9
ENDBRANCH   1   8
BRANCH   4  13
HETATM   13  N3  UNL     1      -0.375  32.936  -7.642  1.00  0.00    -0.295 N 
HETATM   14  C7  UNL     1      -0.441  34.244  -7.752  1.00  0.00     0.004 C 
HETATM   15  C8  UNL     1      -1.461  34.764  -6.846  1.00  0.00     0.054 C 
HETATM   16  C14 UNL     1       0.537  34.697  -8.738  1.00  0.00     0.054 C 
HETATM   17  C9  UNL     1      -2.744  35.050  -7.583  1.00  0.00     0.006 C 
HETATM   18  C10 UNL     1      -2.550  35.743  -8.894  1.00  0.00     0.000 C 
HETATM   19  C11 UNL     1      -1.884  37.073  -8.783  1.00  0.00     0.000 C 
HETATM   20  C12 UNL     1      -0.392  37.049  -8.722  1.00  0.00     0.000 C 
HETATM   21  C13 UNL     1       0.211  35.930  -9.497  1.00  0.00     0.006 C 
ATOM     22  H3  UNL     1       0.304  32.449  -8.227  1.00  0.00     0.186 HD
ENDBRANCH   4  13
BRANCH   6  23
HETATM   23  N5  UNL     1       0.937  32.326  -4.121  1.00  0.00    -0.024 N 
HETATM   24  O1  UNL     1       0.308  32.125  -3.066  1.00  0.00    -0.516 OA
HETATM   25  O2  UNL     1       1.948  33.228  -4.127  1.00  0.00    -0.516 OA
ENDBRANCH   6  23
TORSDOF 6
ENDMDL
MODEL 3
REMARK VINA RESULT: -6.549791289      1.915      2.823
REMARK  6 active torsions:
REMARK  status: ('A' for Active; 'I' for Inactive)
REMARK    1  A    between atoms: C2_2  and  C3_3 
REMARK    2  A    between atoms: C3_3  and  C4_4 
REMARK    3  A    between atoms: C4_4  and  C5_5 
REMARK    4  A    between atoms: C5_5  and  N1_6 
REMARK       I    between atoms: N1_6  and  C6_8 
REMARK       I    between atoms: C6_8  and  N4_21 
REMARK    5  A    between atoms: N2_9  and  N3_11 
REMARK    6  A    between atoms: N4_21  and  N5_23 
ROOT
HETATM    1  N1  UNL     1      -3.403  28.228  -4.522  1.00  0.00    -0.223 N 
ATOM      2  H1  UNL     1      -3.263  27.547  -5.269  1.00  0.00     0.177 HD
HETATM    3  C6  UNL     1      -2.249  28.747  -3.825  1.00  0.00     0.712 C 
HETATM    4  N2  UNL     1      -1.603  27.936  -3.079  1.00  0.00    -0.131 N 
ATOM      5  H2  UNL     1      -1.946  26.977  -3.025  1.00  0.00     0.205 HD
HETATM    6  N4  UNL     1      -1.918  30.095  -4.013  1.00  0.00    -0.071 N 
ATOM      7  H4  UNL     1      -2.065  30.754  -3.249  1.00  0.00     0.212 HD
ENDROOT
BRANCH   1   8
HETATM    8  C5  UNL     1      -4.729  28.635  -4.200  1.00  0.00     0.138 C 
BRANCH   8   9
HETATM    9  C4  UNL     1      -5.667  27.494  -4.134  1.00  0.00     0.020 C 
BRANCH   9  10
HETATM   10  C3  UNL     1      -6.929  27.555  -4.887  1.00  0.00     0.001 C 
BRANCH  10  11
HETATM   11  C2  UNL     1      -7.854  26.404  -4.869  1.00  0.00    -0.004 C 
HETATM   12  C1  UNL     1      -9.189  26.917  -5.458  1.00  0.00     0.005 C 
ENDBRANCH  10  11
ENDBRANCH   9  10
ENDBRANCH   8   9
ENDBRANCH   1   8
BRANCH   4  13
HETATM   13  N3  UNL     1      -0.487  28.246  -2.344  1.00  0.00    -0.295 N 
HETATM   14  C7  UNL     1       0.546  27.452  -2.166  1.00  0.00     0.004 C 
HETATM   15  C8  UNL     1       0.325  26.191  -2.868  1.00  0.00     0.054 C 
HETATM   16  C14 UNL     1       1.539  28.128  -1.335  1.00  0.00     0.054 C 
HETATM   17  C9  UNL     1      -0.141  25.118  -1.916  1.00  0.00     0.006 C 
HETATM   18  C10 UNL     1       0.613  25.081  -0.626  1.00  0.00     0.000 C 
HETATM   19  C11 UNL     1       2.073  24.824  -0.785  1.00  0.00     0.000 C 
HETATM   20  C12 UNL     1       2.914  26.020  -1.092  1.00  0.00     0.000 C 
HETATM   21  C13 UNL     1       2.399  27.275  -0.478  1.00  0.00     0.006 C 
ATOM     22  H3  UNL     1      -0.455  29.164  -1.901  1.00  0.00     0.186 HD
ENDBRANCH   4  13
BRANCH   6  23
HETATM   23  N5  UNL     1      -1.388  30.559  -5.230  1.00  0.00    -0.024 N 
HETATM   24  O1  UNL     1      -1.013  29.736  -6.086  1.00  0.00    -0.516 OA
HETATM   25  O2  UNL     1      -1.277  31.884  -5.492  1.00  0.00    -0.516 OA
ENDBRANCH   6  23
TORSDOF 6
ENDMDL
MODEL 4
REMARK VINA RESULT: -6.506194960      1.787      6.206
REMARK  6 active torsions:
REMARK  status: ('A' for Active; 'I' for Inactive)
REMARK    1  A    between atoms: C2_2  and  C3_3 
REMARK    2  A    between atoms: C3_3  and  C4_4 
REMARK    3  A    between atoms: C4_4  and  C5_5 
REMARK    4  A    between atoms: C5_5  and  N1_6 
REMARK       I    between atoms: N1_6  and  C6_8 
REMARK       I    between atoms: C6_8  and  N4_21 
REMARK    5  A    between atoms: N2_9  and  N3_11 
REMARK    6  A    between atoms: N4_21  and  N5_23 
ROOT
HETATM    1  N1  UNL     1       1.322  27.316  -4.695  1.00  0.00    -0.223 N 
ATOM      2  H1  UNL     1       2.131  27.800  -4.305  1.00  0.00     0.177 HD
HETATM    3  C6  UNL     1       0.107  28.063  -4.928  1.00  0.00     0.712 C 
HETATM    4  N2  UNL     1      -0.530  28.478  -3.901  1.00  0.00    -0.131 N 
ATOM      5  H2  UNL     1      -0.138  28.253  -2.986  1.00  0.00     0.205 HD
HETATM    6  N4  UNL     1      -0.287  28.281  -6.254  1.00  0.00    -0.071 N 
ATOM      7  H4  UNL     1      -1.101  27.788  -6.618  1.00  0.00     0.212 HD
ENDROOT
BRANCH   1   8
HETATM    8  C5  UNL     1       1.425  25.927  -4.992  1.00  0.00     0.138 C 
BRANCH   8   9
HETATM    9  C4  UNL     1       0.331  25.140  -4.384  1.00  0.00     0.020 C 
BRANCH   9  10
HETATM   10  C3  UNL     1       0.511  24.575  -3.038  1.00  0.00     0.001 C 
BRANCH  10  11
HETATM   11  C2  UNL     1      -0.245  25.130  -1.899  1.00  0.00    -0.004 C 
HETATM   12  C1  UNL     1       0.738  25.161  -0.705  1.00  0.00     0.005 C 
ENDBRANCH  10  11
ENDBRANCH   9  10
ENDBRANCH   8   9
ENDBRANCH   1   8
BRANCH   4  13
HETATM   13  N3  UNL     1      -1.697  29.200  -3.926  1.00  0.00    -0.295 N 
HETATM   14  C7  UNL     1      -2.899  28.700  -3.745  1.00  0.00     0.004 C 
HETATM   15  C8  UNL     1      -2.805  27.261  -3.516  1.00  0.00     0.054 C 
HETATM   16  C14 UNL     1      -3.887  29.771  -3.834  1.00  0.00     0.054 C 
HETATM   17  C9  UNL     1      -3.123  26.492  -4.773  1.00  0.00     0.006 C 
HETATM   18  C10 UNL     1      -4.313  27.008  -5.516  1.00  0.00     0.000 C 
HETATM   19  C11 UNL     1      -5.581  26.972  -4.731  1.00  0.00     0.000 C 
HETATM   20  C12 UNL     1      -5.811  28.130  -3.817  1.00  0.00     0.000 C 
HETATM   21  C13 UNL     1      -5.239  29.406  -4.327  1.00  0.00     0.006 C 
ATOM     22  H3  UNL     1      -1.626  30.203  -4.097  1.00  0.00     0.186 HD
ENDBRANCH   4  13
BRANCH   6  23
HETATM   23  N5  UNL     1       0.414  29.165  -7.094  1.00  0.00    -0.024 N 
HETATM   24  O1  UNL     1       1.464  29.693  -6.683  1.00  0.00    -0.516 OA
HETATM   25  O2  UNL     1      -0.028  29.453  -8.341  1.00  0.00    -0.516 OA
ENDBRANCH   6  23
TORSDOF 6
ENDMDL
MODEL 5
REMARK VINA RESULT: -6.484575136      0.965      1.046
REMARK  6 active torsions:
REMARK  status: ('A' for Active; 'I' for Inactive)
REMARK    1  A    between atoms: C2_2  and  C3_3 
REMARK    2  A    between atoms: C3_3  and  C4_4 
REMARK    3  A    between atoms: C4_4  and  C5_5 
REMARK    4  A    between atoms: C5_5  and  N1_6 
REMARK       I    between atoms: N1_6  and  C6_8 
REMARK       I    between atoms: C6_8  and  N4_21 
REMARK    5  A    between atoms: N2_9  and  N3_11 
REMARK    6  A    between atoms: N4_21  and  N5_23 
ROOT
HETATM    1  N1  UNL     1      -1.908  27.929  -5.131  1.00  0.00    -0.223 N 
ATOM      2  H1  UNL     1      -2.693  27.484  -5.608  1.00  0.00     0.177 HD
HETATM    3  C6  UNL     1      -0.603  27.315  -5.213  1.00  0.00     0.712 C 
HETATM    4  N2  UNL     1      -0.444  26.199  -4.612  1.00  0.00    -0.131 N 
ATOM      5  H2  UNL     1      -1.249  25.816  -4.116  1.00  0.00     0.205 HD
HETATM    6  N4  UNL     1       0.393  27.980  -5.938  1.00  0.00    -0.071 N 
ATOM      7  H4  UNL     1       1.169  28.414  -5.437  1.00  0.00     0.212 HD
ENDROOT
BRANCH   1   8
HETATM    8  C5  UNL     1      -2.135  29.134  -4.407  1.00  0.00     0.138 C 
BRANCH   8   9
HETATM    9  C4  UNL     1      -3.522  29.235  -3.904  1.00  0.00     0.020 C 
BRANCH   9  10
HETATM   10  C3  UNL     1      -4.459  28.128  -4.149  1.00  0.00     0.001 C 
BRANCH  10  11
HETATM   11  C2  UNL     1      -5.902  28.403  -4.296  1.00  0.00    -0.004 C 
HETATM   12  C1  UNL     1      -6.561  27.054  -4.668  1.00  0.00     0.005 C 
ENDBRANCH  10  11
ENDBRANCH   9  10
ENDBRANCH   8   9
ENDBRANCH   1   8
BRANCH   4  13
HETATM   13  N3  UNL     1       0.719  25.471  -4.579  1.00  0.00    -0.295 N 
HETATM   14  C7  UNL     1       1.092  24.687  -3.591  1.00  0.00     0.004 C 
HETATM   15  C8  UNL     1       0.083  24.709  -2.537  1.00  0.00     0.054 C 
HETATM   16  C14 UNL     1       2.378  24.076  -3.917  1.00  0.00     0.054 C 
HETATM   17  C9  UNL     1       0.495  25.629  -1.415  1.00  0.00     0.006 C 
HETATM   18  C10 UNL     1       1.928  25.493  -1.013  1.00  0.00     0.000 C 
HETATM   19  C11 UNL     1       2.294  24.131  -0.527  1.00  0.00     0.000 C 
HETATM   20  C12 UNL     1       2.631  23.133  -1.585  1.00  0.00     0.000 C 
HETATM   21  C13 UNL     1       3.274  23.739  -2.783  1.00  0.00     0.006 C 
ATOM     22  H3  UNL     1       1.343  25.543  -5.383  1.00  0.00     0.186 HD
ENDBRANCH   4  13
BRANCH   6  23
HETATM   23  N5  UNL     1       0.349  28.064  -7.341  1.00  0.00    -0.024 N 
HETATM   24  O1  UNL     1      -0.536  28.752  -7.884  1.00  0.00    -0.516 OA
HETATM   25  O2  UNL     1       1.249  27.412  -8.116  1.00  0.00    -0.516 OA
ENDBRANCH   6  23
TORSDOF 6
ENDMDL
