MODEL 1
REMARK VINA RESULT: -5.345851294      0.000      0.000
REMARK  6 active torsions:
REMARK  status: ('A' for Active; 'I' for Inactive)
REMARK    1  A    between atoms: C2_2  and  O1_3 
REMARK    2  A    between atoms: O1_3  and  C3_4 
REMARK    3  A    between atoms: C6_10  and  C7_11 
REMARK    4  A    between atoms: C12_16  and  C13_17 
REMARK    5  A    between atoms: C12_16  and  C15_19 
REMARK    6  A    between atoms: C15_19  and  O3_21 
ROOT
HETATM    1  C3  UNL     1      34.321 100.095  35.109  1.00  0.00     0.240 C 
HETATM    2  N1  UNL     1      33.651 100.068  36.405  1.00  0.00    -0.357 N 
ATOM      3  H1  UNL     1      34.152  99.657  37.193  1.00  0.00     0.162 HD
HETATM    4  C4  UNL     1      32.363 100.570  36.633  1.00  0.00     0.075 C 
HETATM    5  S1  UNL     1      31.731 100.602  38.128  1.00  0.00    -0.066 SA
HETATM    6  C5  UNL     1      31.546 101.088  35.507  1.00  0.00     0.075 C 
HETATM    7  C6  UNL     1      32.075 100.458  34.265  1.00  0.00     0.019 C 
HETATM    8  C12 UNL     1      33.523 100.858  34.078  1.00  0.00     0.095 C 
ENDROOT
BRANCH   8   9
HETATM    9  C13 UNL     1      33.765 102.307  34.281  1.00  0.00     0.020 C 
HETATM   10  C14 UNL     1      33.144 103.203  33.277  1.00  0.00     0.006 C 
ENDBRANCH   8   9
BRANCH   8  11
HETATM   11  C15 UNL     1      33.996 100.387  32.730  1.00  0.00     0.272 C 
HETATM   12  O2  UNL     1      34.061  99.185  32.390  1.00  0.00    -0.264 OA
BRANCH  11  13
HETATM   13  O3  UNL     1      34.403 101.314  31.768  1.00  0.00    -0.326 OA
HETATM   14  C16 UNL     1      35.715 101.283  31.240  1.00  0.00     0.213 C 
ENDBRANCH  11  13
ENDBRANCH   8  11
BRANCH   1  15
HETATM   15  O1  UNL     1      35.634 100.450  35.209  1.00  0.00    -0.366 OA
BRANCH  15  16
HETATM   16  C2  UNL     1      36.460  99.358  35.353  1.00  0.00     0.166 C 
HETATM   17  C1  UNL     1      37.312  99.306  34.075  1.00  0.00     0.033 C 
ENDBRANCH  15  16
ENDBRANCH   1  15
BRANCH   7  18
HETATM   18  C7  UNL     1      31.234 100.571  33.056  1.00  0.00    -0.009 C 
HETATM   19  C8  UNL     1      30.067 101.472  33.097  1.00  0.00     0.005 C 
HETATM   20  C9  UNL     1      29.193 100.984  31.961  1.00  0.00     0.000 C 
HETATM   21  C10 UNL     1      29.732  99.606  31.566  1.00  0.00     0.000 C 
HETATM   22  C11 UNL     1      30.610  99.206  32.765  1.00  0.00     0.005 C 
ENDBRANCH   7  18
TORSDOF 6
ENDMDL
MODEL 2
REMARK VINA RESULT: -5.338588575      2.019      3.636
REMARK  6 active torsions:
REMARK  status: ('A' for Active; 'I' for Inactive)
REMARK    1  A    between atoms: C2_2  and  O1_3 
REMARK    2  A    between atoms: O1_3  and  C3_4 
REMARK    3  A    between atoms: C6_10  and  C7_11 
REMARK    4  A    between atoms: C12_16  and  C13_17 
REMARK    5  A    between atoms: C12_16  and  C15_19 
REMARK    6  A    between atoms: C15_19  and  O3_21 
ROOT
HETATM    1  C3  UNL     1      33.029 102.035  34.375  1.00  0.00     0.240 C 
HETATM    2  N1  UNL     1      32.784 101.986  35.812  1.00  0.00    -0.357 N 
ATOM      3  H1  UNL     1      33.025 102.807  36.367  1.00  0.00     0.162 HD
HETATM    4  C4  UNL     1      32.240 100.879  36.478  1.00  0.00     0.075 C 
HETATM    5  S1  UNL     1      31.897 100.942  38.064  1.00  0.00    -0.066 SA
HETATM    6  C5  UNL     1      31.965  99.618  35.743  1.00  0.00     0.075 C 
HETATM    7  C6  UNL     1      32.841  99.622  34.538  1.00  0.00     0.019 C 
HETATM    8  C12 UNL     1      32.494 100.812  33.670  1.00  0.00     0.095 C 
ENDROOT
BRANCH   8   9
HETATM    9  C13 UNL     1      31.035 100.990  33.470  1.00  0.00     0.020 C 
HETATM   10  C14 UNL     1      30.406 100.060  32.503  1.00  0.00     0.006 C 
ENDBRANCH   8   9
BRANCH   8  11
HETATM   11  C15 UNL     1      33.236 100.706  32.365  1.00  0.00     0.272 C 
HETATM   12  O2  UNL     1      32.733 100.273  31.306  1.00  0.00    -0.264 OA
BRANCH  11  13
HETATM   13  O3  UNL     1      34.574 101.102  32.287  1.00  0.00    -0.326 OA
HETATM   14  C16 UNL     1      35.032 101.897  31.211  1.00  0.00     0.213 C 
ENDBRANCH  11  13
ENDBRANCH   8  11
BRANCH   1  15
HETATM   15  O1  UNL     1      32.666 103.230  33.826  1.00  0.00    -0.366 OA
BRANCH  15  16
HETATM   16  C2  UNL     1      33.665 104.173  33.921  1.00  0.00     0.166 C 
HETATM   17  C1  UNL     1      33.329 105.245  32.873  1.00  0.00     0.033 C 
ENDBRANCH  15  16
ENDBRANCH   1  15
BRANCH   7  18
HETATM   18  C7  UNL     1      32.979  98.340  33.817  1.00  0.00    -0.009 C 
HETATM   19  C8  UNL     1      32.067  97.236  34.172  1.00  0.00     0.005 C 
HETATM   20  C9  UNL     1      32.775  96.002  33.653  1.00  0.00     0.000 C 
HETATM   21  C10 UNL     1      34.216  96.426  33.356  1.00  0.00     0.000 C 
HETATM   22  C11 UNL     1      34.361  97.758  34.112  1.00  0.00     0.005 C 
ENDBRANCH   7  18
TORSDOF 6
ENDMDL
MODEL 3
REMARK VINA RESULT: -5.134514756      2.986      4.244
REMARK  6 active torsions:
REMARK  status: ('A' for Active; 'I' for Inactive)
REMARK    1  A    between atoms: C2_2  and  O1_3 
REMARK    2  A    between atoms: O1_3  and  C3_4 
REMARK    3  A    between atoms: C6_10  and  C7_11 
REMARK    4  A    between atoms: C12_16  and  C13_17 
REMARK    5  A    between atoms: C12_16  and  C15_19 
REMARK    6  A    between atoms: C15_19  and  O3_21 
ROOT
HETATM    1  C3  UNL     1      34.992  98.689  34.816  1.00  0.00     0.240 C 
HETATM    2  N1  UNL     1      35.883  99.500  33.994  1.00  0.00    -0.357 N 
ATOM      3  H1  UNL     1      36.837  99.647  34.323  1.00  0.00     0.162 HD
HETATM    4  C4  UNL     1      35.509 100.091  32.779  1.00  0.00     0.075 C 
HETATM    5  S1  UNL     1      36.591 100.888  31.868  1.00  0.00    -0.066 SA
HETATM    6  C5  UNL     1      34.108  99.998  32.296  1.00  0.00     0.075 C 
HETATM    7  C6  UNL     1      33.256  99.747  33.492  1.00  0.00     0.019 C 
HETATM    8  C12 UNL     1      33.667  98.440  34.135  1.00  0.00     0.095 C 
ENDROOT
BRANCH   8   9
HETATM    9  C13 UNL     1      33.845  97.334  33.162  1.00  0.00     0.020 C 
HETATM   10  C14 UNL     1      32.604  96.625  32.771  1.00  0.00     0.006 C 
ENDBRANCH   8   9
BRANCH   8  11
HETATM   11  C15 UNL     1      32.684  98.089  35.219  1.00  0.00     0.272 C 
HETATM   12  O2  UNL     1      32.223  98.913  36.040  1.00  0.00    -0.264 OA
BRANCH  11  13
HETATM   13  O3  UNL     1      32.233  96.775  35.356  1.00  0.00    -0.326 OA
HETATM   14  C16 UNL     1      32.599  95.996  36.479  1.00  0.00     0.213 C 
ENDBRANCH  11  13
ENDBRANCH   8  11
BRANCH   1  15
HETATM   15  O1  UNL     1      35.610  97.579  35.313  1.00  0.00    -0.366 OA
BRANCH  15  16
HETATM   16  C2  UNL     1      36.476  97.880  36.340  1.00  0.00     0.166 C 
HETATM   17  C1  UNL     1      35.590  98.192  37.556  1.00  0.00     0.033 C 
ENDBRANCH  15  16
ENDBRANCH   1  15
BRANCH   7  18
HETATM   18  C7  UNL     1      31.800  99.926  33.317  1.00  0.00    -0.009 C 
HETATM   19  C8  UNL     1      31.202  99.559  32.020  1.00  0.00     0.005 C 
HETATM   20  C9  UNL     1      29.884 100.306  32.005  1.00  0.00     0.000 C 
HETATM   21  C10 UNL     1      29.966 101.344  33.129  1.00  0.00     0.000 C 
HETATM   22  C11 UNL     1      31.471 101.413  33.444  1.00  0.00     0.005 C 
ENDBRANCH   7  18
TORSDOF 6
ENDMDL
MODEL 4
REMARK VINA RESULT: -5.098531487      2.920      4.215
REMARK  6 active torsions:
REMARK  status: ('A' for Active; 'I' for Inactive)
REMARK    1  A    between atoms: C2_2  and  O1_3 
REMARK    2  A    between atoms: O1_3  and  C3_4 
REMARK    3  A    between atoms: C6_10  and  C7_11 
REMARK    4  A    between atoms: C12_16  and  C13_17 
REMARK    5  A    between atoms: C12_16  and  C15_19 
REMARK    6  A    between atoms: C15_19  and  O3_21 
ROOT
HETATM    1  C3  UNL     1      35.025  98.671  34.901  1.00  0.00     0.240 C 
HETATM    2  N1  UNL     1      35.915  99.491  34.087  1.00  0.00    -0.357 N 
ATOM      3  H1  UNL     1      36.864  99.650  34.427  1.00  0.00     0.162 HD
HETATM    4  C4  UNL     1      35.548 100.075  32.867  1.00  0.00     0.075 C 
HETATM    5  S1  UNL     1      36.630 100.883  31.967  1.00  0.00    -0.066 SA
HETATM    6  C5  UNL     1      34.153  99.965  32.369  1.00  0.00     0.075 C 
HETATM    7  C6  UNL     1      33.291  99.706  33.556  1.00  0.00     0.019 C 
HETATM    8  C12 UNL     1      33.710  98.405  34.206  1.00  0.00     0.095 C 
ENDROOT
BRANCH   8   9
HETATM    9  C13 UNL     1      33.912  97.300  33.237  1.00  0.00     0.020 C 
HETATM   10  C14 UNL     1      32.714  96.474  32.956  1.00  0.00     0.006 C 
ENDBRANCH   8   9
BRANCH   8  11
HETATM   11  C15 UNL     1      32.720  98.046  35.280  1.00  0.00     0.272 C 
HETATM   12  O2  UNL     1      32.270  96.893  35.460  1.00  0.00    -0.264 OA
BRANCH  11  13
HETATM   13  O3  UNL     1      32.242  99.029  36.149  1.00  0.00    -0.326 OA
HETATM   14  C16 UNL     1      32.201  98.803  37.545  1.00  0.00     0.213 C 
ENDBRANCH  11  13
ENDBRANCH   8  11
BRANCH   1  15
HETATM   15  O1  UNL     1      35.650  97.570  35.407  1.00  0.00    -0.366 OA
BRANCH  15  16
HETATM   16  C2  UNL     1      35.977  97.720  36.737  1.00  0.00     0.166 C 
HETATM   17  C1  UNL     1      35.367  96.508  37.457  1.00  0.00     0.033 C 
ENDBRANCH  15  16
ENDBRANCH   1  15
BRANCH   7  18
HETATM   18  C7  UNL     1      31.835  99.867  33.364  1.00  0.00    -0.009 C 
HETATM   19  C8  UNL     1      31.252  99.468  32.070  1.00  0.00     0.005 C 
HETATM   20  C9  UNL     1      29.928 100.202  32.028  1.00  0.00     0.000 C 
HETATM   21  C10 UNL     1      29.990 101.264  33.130  1.00  0.00     0.000 C 
HETATM   22  C11 UNL     1      31.491 101.354  33.456  1.00  0.00     0.005 C 
ENDBRANCH   7  18
TORSDOF 6
ENDMDL
MODEL 5
REMARK VINA RESULT: -5.014659357      1.064      1.291
REMARK  6 active torsions:
REMARK  status: ('A' for Active; 'I' for Inactive)
REMARK    1  A    between atoms: C2_2  and  O1_3 
REMARK    2  A    between atoms: O1_3  and  C3_4 
REMARK    3  A    between atoms: C6_10  and  C7_11 
REMARK    4  A    between atoms: C12_16  and  C13_17 
REMARK    5  A    between atoms: C12_16  and  C15_19 
REMARK    6  A    between atoms: C15_19  and  O3_21 
ROOT
HETATM    1  C3  UNL     1      34.712 100.346  34.897  1.00  0.00     0.240 C 
HETATM    2  N1  UNL     1      34.238  99.522  36.003  1.00  0.00    -0.357 N 
ATOM      3  H1  UNL     1      34.932  99.026  36.563  1.00  0.00     0.162 HD
HETATM    4  C4  UNL     1      32.887  99.369  36.345  1.00  0.00     0.075 C 
HETATM    5  S1  UNL     1      32.448  98.521  37.659  1.00  0.00    -0.066 SA
HETATM    6  C5  UNL     1      31.824  99.982  35.509  1.00  0.00     0.075 C 
HETATM    7  C6  UNL     1      32.408 100.188  34.154  1.00  0.00     0.019 C 
HETATM    8  C12 UNL     1      33.590 101.127  34.255  1.00  0.00     0.095 C 
ENDROOT
BRANCH   8   9
HETATM    9  C13 UNL     1      33.322 102.325  35.087  1.00  0.00     0.020 C 
HETATM   10  C14 UNL     1      34.252 103.462  34.886  1.00  0.00     0.006 C 
ENDBRANCH   8   9
BRANCH   8  11
HETATM   11  C15 UNL     1      34.054 101.490  32.871  1.00  0.00     0.272 C 
HETATM   12  O2  UNL     1      33.790 102.574  32.304  1.00  0.00    -0.264 OA
BRANCH  11  13
HETATM   13  O3  UNL     1      34.828 100.591  32.133  1.00  0.00    -0.326 OA
HETATM   14  C16 UNL     1      35.787 101.054  31.202  1.00  0.00     0.213 C 
ENDBRANCH  11  13
ENDBRANCH   8  11
BRANCH   1  15
HETATM   15  O1  UNL     1      35.816 101.075  35.227  1.00  0.00    -0.366 OA
BRANCH  15  16
HETATM   16  C2  UNL     1      36.986 100.392  34.979  1.00  0.00     0.166 C 
HETATM   17  C1  UNL     1      37.910 101.391  34.265  1.00  0.00     0.033 C 
ENDBRANCH  15  16
ENDBRANCH   1  15
BRANCH   7  18
HETATM   18  C7  UNL     1      31.458 100.494  33.064  1.00  0.00    -0.009 C 
HETATM   19  C8  UNL     1      30.357 101.435  33.341  1.00  0.00     0.005 C 
HETATM   20  C9  UNL     1      29.345 101.138  32.253  1.00  0.00     0.000 C 
HETATM   21  C10 UNL     1      29.760  99.799  31.636  1.00  0.00     0.000 C 
HETATM   22  C11 UNL     1      30.728  99.209  32.676  1.00  0.00     0.005 C 
ENDBRANCH   7  18
TORSDOF 6
ENDMDL
