MODEL 1
REMARK VINA RESULT: -6.574621348      0.000      0.000
REMARK  6 active torsions:
REMARK  status: ('A' for Active; 'I' for Inactive)
REMARK    1  A    between atoms: N1_2  and  C3_4 
REMARK    2  A    between atoms: C3_4  and  C4_5 
REMARK    3  A    between atoms: C4_5  and  O1_6 
REMARK    4  A    between atoms: O1_6  and  C5_7 
REMARK    5  A    between atoms: C8_12  and  N3_13 
REMARK    6  A    between atoms: N3_13  and  C9_15 
ROOT
HETATM    1  C5  UNL     1      32.151  99.165  36.962  1.00  0.00     0.158 A 
HETATM    2  C6  UNL     1      31.789 100.048  37.972  1.00  0.00     0.074 A 
HETATM    3  C7  UNL     1      31.709 101.402  37.650  1.00  0.00     0.110 A 
HETATM    4  N2  UNL     1      31.973 101.833  36.404  1.00  0.00    -0.202 N 
ATOM      5  H2  UNL     1      31.909 102.829  36.191  1.00  0.00     0.183 HD
HETATM    6  C8  UNL     1      32.322 100.969  35.437  1.00  0.00     0.680 A 
HETATM    7  N4  UNL     1      32.396  99.685  35.750  1.00  0.00    -0.171 N 
ATOM      8  H4  UNL     1      32.661  99.037  35.008  1.00  0.00     0.186 HD
ENDROOT
BRANCH   1   9
HETATM    9  O1  UNL     1      32.250  97.795  37.220  1.00  0.00    -0.333 OA
BRANCH   9  10
HETATM   10  C4  UNL     1      33.520  97.201  37.076  1.00  0.00     0.219 C 
BRANCH  10  11
HETATM   11  C3  UNL     1      33.496  96.062  36.078  1.00  0.00     0.180 C 
HETATM   12  C15 UNL     1      34.475  96.399  34.976  1.00  0.00     0.044 C 
HETATM   13  C16 UNL     1      33.632  96.876  33.814  1.00  0.00     0.003 C 
HETATM   14  C17 UNL     1      32.355  96.050  33.959  1.00  0.00     0.003 C 
HETATM   15  C18 UNL     1      32.121  96.020  35.460  1.00  0.00     0.044 C 
BRANCH  11  16
HETATM   16  N1  UNL     1      33.884  94.825  36.675  1.00  0.00     0.091 N 
HETATM   17  C1  UNL     1      33.672  94.765  38.084  1.00  0.00     0.310 C 
HETATM   18  C2  UNL     1      35.177  94.348  36.273  1.00  0.00     0.310 C 
ENDBRANCH  11  16
ENDBRANCH  10  11
ENDBRANCH   9  10
ENDBRANCH   1   9
BRANCH   6  19
HETATM   19  N3  UNL     1      32.574 101.375  34.248  1.00  0.00    -0.221 N 
ATOM     20  H3  UNL     1      33.461 101.855  34.094  1.00  0.00     0.178 HD
BRANCH  19  21
HETATM   21  C9  UNL     1      31.703 101.207  33.111  1.00  0.00     0.099 C 
HETATM   22  C10 UNL     1      30.247 101.294  33.488  1.00  0.00     0.026 C 
HETATM   23  C11 UNL     1      29.461 101.186  32.173  1.00  0.00     0.002 C 
HETATM   24  C12 UNL     1      29.608  99.796  31.592  1.00  0.00     0.000 C 
HETATM   25  C13 UNL     1      30.755  99.046  32.235  1.00  0.00     0.002 C 
HETATM   26  C14 UNL     1      31.959  99.902  32.440  1.00  0.00     0.026 C 
ENDBRANCH  19  21
ENDBRANCH   6  19
TORSDOF 6
ENDMDL
MODEL 2
REMARK VINA RESULT: -6.255339905      0.745      2.138
REMARK  6 active torsions:
REMARK  status: ('A' for Active; 'I' for Inactive)
REMARK    1  A    between atoms: N1_2  and  C3_4 
REMARK    2  A    between atoms: C3_4  and  C4_5 
REMARK    3  A    between atoms: C4_5  and  O1_6 
REMARK    4  A    between atoms: O1_6  and  C5_7 
REMARK    5  A    between atoms: C8_12  and  N3_13 
REMARK    6  A    between atoms: N3_13  and  C9_15 
ROOT
HETATM    1  C5  UNL     1      32.533  99.359  37.035  1.00  0.00     0.158 A 
HETATM    2  C6  UNL     1      31.941 100.179  37.989  1.00  0.00     0.074 A 
HETATM    3  C7  UNL     1      31.589 101.471  37.604  1.00  0.00     0.110 A 
HETATM    4  N2  UNL     1      31.815 101.905  36.352  1.00  0.00    -0.202 N 
ATOM      5  H2  UNL     1      31.550 102.856  36.092  1.00  0.00     0.183 HD
HETATM    6  C8  UNL     1      32.387 101.103  35.439  1.00  0.00     0.680 A 
HETATM    7  N4  UNL     1      32.719  99.877  35.811  1.00  0.00    -0.171 N 
ATOM      8  H4  UNL     1      33.153  99.276  35.110  1.00  0.00     0.186 HD
ENDROOT
BRANCH   1   9
HETATM    9  O1  UNL     1      32.909  98.053  37.357  1.00  0.00    -0.333 OA
BRANCH   9  10
HETATM   10  C4  UNL     1      34.012  97.511  36.667  1.00  0.00     0.219 C 
BRANCH  10  11
HETATM   11  C3  UNL     1      33.722  96.114  36.158  1.00  0.00     0.180 C 
HETATM   12  C15 UNL     1      32.562  95.566  36.961  1.00  0.00     0.044 C 
HETATM   13  C16 UNL     1      33.176  94.617  37.966  1.00  0.00     0.003 C 
HETATM   14  C17 UNL     1      34.377  94.050  37.209  1.00  0.00     0.003 C 
HETATM   15  C18 UNL     1      34.922  95.254  36.460  1.00  0.00     0.044 C 
BRANCH  11  16
HETATM   16  N1  UNL     1      33.362  96.116  34.777  1.00  0.00     0.091 N 
HETATM   17  C1  UNL     1      34.107  97.038  33.982  1.00  0.00     0.310 C 
HETATM   18  C2  UNL     1      31.949  96.161  34.528  1.00  0.00     0.310 C 
ENDBRANCH  11  16
ENDBRANCH  10  11
ENDBRANCH   9  10
ENDBRANCH   1   9
BRANCH   6  19
HETATM   19  N3  UNL     1      32.605 101.513  34.244  1.00  0.00    -0.221 N 
ATOM     20  H3  UNL     1      33.445 102.068  34.083  1.00  0.00     0.178 HD
BRANCH  19  21
HETATM   21  C9  UNL     1      31.755 101.250  33.109  1.00  0.00     0.099 C 
HETATM   22  C10 UNL     1      30.295 101.230  33.480  1.00  0.00     0.026 C 
HETATM   23  C11 UNL     1      29.525 101.030  32.166  1.00  0.00     0.002 C 
HETATM   24  C12 UNL     1      29.784  99.642  31.618  1.00  0.00     0.000 C 
HETATM   25  C13 UNL     1      30.983  99.000  32.284  1.00  0.00     0.002 C 
HETATM   26  C14 UNL     1      32.115  99.953  32.471  1.00  0.00     0.026 C 
ENDBRANCH  19  21
ENDBRANCH   6  19
TORSDOF 6
ENDMDL
MODEL 3
REMARK VINA RESULT: -6.157520064      5.140      8.611
REMARK  6 active torsions:
REMARK  status: ('A' for Active; 'I' for Inactive)
REMARK    1  A    between atoms: N1_2  and  C3_4 
REMARK    2  A    between atoms: C3_4  and  C4_5 
REMARK    3  A    between atoms: C4_5  and  O1_6 
REMARK    4  A    between atoms: O1_6  and  C5_7 
REMARK    5  A    between atoms: C8_12  and  N3_13 
REMARK    6  A    between atoms: N3_13  and  C9_15 
ROOT
HETATM    1  C5  UNL     1      34.455 103.668  32.109  1.00  0.00     0.158 A 
HETATM    2  C6  UNL     1      35.523 103.212  31.344  1.00  0.00     0.074 A 
HETATM    3  C7  UNL     1      35.844 101.858  31.423  1.00  0.00     0.110 A 
HETATM    4  N2  UNL     1      35.142 101.026  32.211  1.00  0.00    -0.202 N 
ATOM      5  H2  UNL     1      35.395 100.038  32.254  1.00  0.00     0.183 HD
HETATM    6  C8  UNL     1      34.112 101.479  32.944  1.00  0.00     0.680 A 
HETATM    7  N4  UNL     1      33.812 102.766  32.865  1.00  0.00    -0.171 N 
ATOM      8  H4  UNL     1      33.028 103.100  33.425  1.00  0.00     0.186 HD
ENDROOT
BRANCH   1   9
HETATM    9  O1  UNL     1      34.083 105.014  32.075  1.00  0.00    -0.333 OA
BRANCH   9  10
HETATM   10  C4  UNL     1      35.033 105.958  32.514  1.00  0.00     0.219 C 
BRANCH  10  11
HETATM   11  C3  UNL     1      34.372 107.218  33.032  1.00  0.00     0.180 C 
HETATM   12  C15 UNL     1      32.891 107.107  32.750  1.00  0.00     0.044 C 
HETATM   13  C16 UNL     1      32.640 107.978  31.539  1.00  0.00     0.003 C 
HETATM   14  C17 UNL     1      33.663 109.101  31.711  1.00  0.00     0.003 C 
HETATM   15  C18 UNL     1      34.897 108.379  32.226  1.00  0.00     0.044 C 
BRANCH  11  16
HETATM   16  N1  UNL     1      34.560 107.377  34.439  1.00  0.00     0.091 N 
HETATM   17  C1  UNL     1      33.347 107.499  35.179  1.00  0.00     0.310 C 
HETATM   18  C2  UNL     1      35.551 108.349  34.802  1.00  0.00     0.310 C 
ENDBRANCH  11  16
ENDBRANCH  10  11
ENDBRANCH   9  10
ENDBRANCH   1   9
BRANCH   6  19
HETATM   19  N3  UNL     1      33.439 100.689  33.697  1.00  0.00    -0.221 N 
ATOM     20  H3  UNL     1      33.806 100.502  34.630  1.00  0.00     0.178 HD
BRANCH  19  21
HETATM   21  C9  UNL     1      32.203 100.044  33.328  1.00  0.00     0.099 C 
HETATM   22  C10 UNL     1      32.088  99.835  31.840  1.00  0.00     0.026 C 
HETATM   23  C11 UNL     1      30.776  99.067  31.620  1.00  0.00     0.002 C 
HETATM   24  C12 UNL     1      29.594  99.950  31.959  1.00  0.00     0.000 C 
HETATM   25  C13 UNL     1      30.021 101.163  32.758  1.00  0.00     0.002 C 
HETATM   26  C14 UNL     1      31.034 100.836  33.803  1.00  0.00     0.026 C 
ENDBRANCH  19  21
ENDBRANCH   6  19
TORSDOF 6
ENDMDL
MODEL 4
REMARK VINA RESULT: -6.085186273      5.458      8.951
REMARK  6 active torsions:
REMARK  status: ('A' for Active; 'I' for Inactive)
REMARK    1  A    between atoms: N1_2  and  C3_4 
REMARK    2  A    between atoms: C3_4  and  C4_5 
REMARK    3  A    between atoms: C4_5  and  O1_6 
REMARK    4  A    between atoms: O1_6  and  C5_7 
REMARK    5  A    between atoms: C8_12  and  N3_13 
REMARK    6  A    between atoms: N3_13  and  C9_15 
ROOT
HETATM    1  C5  UNL     1      33.561 104.778  33.645  1.00  0.00     0.158 A 
HETATM    2  C6  UNL     1      34.271 104.717  32.451  1.00  0.00     0.074 A 
HETATM    3  C7  UNL     1      34.520 103.458  31.909  1.00  0.00     0.110 A 
HETATM    4  N2  UNL     1      34.086 102.343  32.523  1.00  0.00    -0.202 N 
ATOM      5  H2  UNL     1      34.280 101.431  32.108  1.00  0.00     0.183 HD
HETATM    6  C8  UNL     1      33.401 102.415  33.676  1.00  0.00     0.680 A 
HETATM    7  N4  UNL     1      33.168 103.614  34.186  1.00  0.00    -0.171 N 
ATOM      8  H4  UNL     1      32.647 103.658  35.061  1.00  0.00     0.186 HD
ENDROOT
BRANCH   1   9
HETATM    9  O1  UNL     1      33.279 106.009  34.241  1.00  0.00    -0.333 OA
BRANCH   9  10
HETATM   10  C4  UNL     1      34.354 106.905  34.411  1.00  0.00     0.219 C 
BRANCH  10  11
HETATM   11  C3  UNL     1      33.969 108.320  34.031  1.00  0.00     0.180 C 
HETATM   12  C15 UNL     1      32.804 108.235  33.071  1.00  0.00     0.044 C 
HETATM   13  C16 UNL     1      33.390 108.476  31.697  1.00  0.00     0.003 C 
HETATM   14  C17 UNL     1      34.534 109.448  31.982  1.00  0.00     0.003 C 
HETATM   15  C18 UNL     1      35.126 108.927  33.280  1.00  0.00     0.044 C 
BRANCH  11  16
HETATM   16  N1  UNL     1      33.571 109.085  35.169  1.00  0.00     0.091 N 
HETATM   17  C1  UNL     1      34.178 108.671  36.392  1.00  0.00     0.310 C 
HETATM   18  C2  UNL     1      32.156 109.299  35.278  1.00  0.00     0.310 C 
ENDBRANCH  11  16
ENDBRANCH  10  11
ENDBRANCH   9  10
ENDBRANCH   1   9
BRANCH   6  19
HETATM   19  N3  UNL     1      32.985 101.355  34.264  1.00  0.00    -0.221 N 
ATOM     20  H3  UNL     1      33.433 101.099  35.144  1.00  0.00     0.178 HD
BRANCH  19  21
HETATM   21  C9  UNL     1      31.933 100.495  33.780  1.00  0.00     0.099 C 
HETATM   22  C10 UNL     1      32.207  99.984  32.390  1.00  0.00     0.026 C 
HETATM   23  C11 UNL     1      31.054  99.025  32.056  1.00  0.00     0.002 C 
HETATM   24  C12 UNL     1      29.759  99.797  31.916  1.00  0.00     0.000 C 
HETATM   25  C13 UNL     1      29.879 101.188  32.500  1.00  0.00     0.002 C 
HETATM   26  C14 UNL     1      30.625 101.207  33.793  1.00  0.00     0.026 C 
ENDBRANCH  19  21
ENDBRANCH   6  19
TORSDOF 6
ENDMDL
MODEL 5
REMARK VINA RESULT: -5.966276833      3.336      5.783
REMARK  6 active torsions:
REMARK  status: ('A' for Active; 'I' for Inactive)
REMARK    1  A    between atoms: N1_2  and  C3_4 
REMARK    2  A    between atoms: C3_4  and  C4_5 
REMARK    3  A    between atoms: C4_5  and  O1_6 
REMARK    4  A    between atoms: O1_6  and  C5_7 
REMARK    5  A    between atoms: C8_12  and  N3_13 
REMARK    6  A    between atoms: N3_13  and  C9_15 
ROOT
HETATM    1  C5  UNL     1      35.184  98.253  33.696  1.00  0.00     0.158 A 
HETATM    2  C6  UNL     1      35.587  96.938  33.896  1.00  0.00     0.074 A 
HETATM    3  C7  UNL     1      34.705  95.926  33.521  1.00  0.00     0.110 A 
HETATM    4  N2  UNL     1      33.507  96.217  32.985  1.00  0.00    -0.202 N 
ATOM      5  H2  UNL     1      32.877  95.460  32.718  1.00  0.00     0.183 HD
HETATM    6  C8  UNL     1      33.130  97.492  32.796  1.00  0.00     0.680 A 
HETATM    7  N4  UNL     1      33.972  98.448  33.154  1.00  0.00    -0.171 N 
ATOM      8  H4  UNL     1      33.676  99.413  33.006  1.00  0.00     0.186 HD
ENDROOT
BRANCH   1   9
HETATM    9  O1  UNL     1      36.021  99.314  34.050  1.00  0.00    -0.333 OA
BRANCH   9  10
HETATM   10  C4  UNL     1      35.412 100.558  34.312  1.00  0.00     0.219 C 
BRANCH  10  11
HETATM   11  C3  UNL     1      35.835 101.610  33.308  1.00  0.00     0.180 C 
HETATM   12  C15 UNL     1      34.626 101.950  32.465  1.00  0.00     0.044 C 
HETATM   13  C16 UNL     1      34.827 101.223  31.153  1.00  0.00     0.003 C 
HETATM   14  C17 UNL     1      36.346 101.238  30.986  1.00  0.00     0.003 C 
HETATM   15  C18 UNL     1      36.860 100.989  32.393  1.00  0.00     0.044 C 
BRANCH  11  16
HETATM   16  N1  UNL     1      36.297 102.800  33.948  1.00  0.00     0.091 N 
HETATM   17  C1  UNL     1      35.588 103.978  33.569  1.00  0.00     0.310 C 
HETATM   18  C2  UNL     1      37.722 102.965  33.943  1.00  0.00     0.310 C 
ENDBRANCH  11  16
ENDBRANCH  10  11
ENDBRANCH   9  10
ENDBRANCH   1   9
BRANCH   6  19
HETATM   19  N3  UNL     1      31.989  97.774  32.284  1.00  0.00    -0.221 N 
ATOM     20  H3  UNL     1      31.405  96.995  31.978  1.00  0.00     0.178 HD
BRANCH  19  21
HETATM   21  C9  UNL     1      31.466  99.106  32.106  1.00  0.00     0.099 C 
HETATM   22  C10 UNL     1      30.839  99.647  33.364  1.00  0.00     0.026 C 
HETATM   23  C11 UNL     1      30.415 101.088  33.041  1.00  0.00     0.002 C 
HETATM   24  C12 UNL     1      29.281 101.084  32.037  1.00  0.00     0.000 C 
HETATM   25  C13 UNL     1      29.144  99.735  31.364  1.00  0.00     0.002 C 
HETATM   26  C14 UNL     1      30.462  99.134  31.006  1.00  0.00     0.026 C 
ENDBRANCH  19  21
ENDBRANCH   6  19
TORSDOF 6
ENDMDL
