MODEL 1
REMARK VINA RESULT: -6.167915000      0.000      0.000
REMARK  5 active torsions:
REMARK  status: ('A' for Active; 'I' for Inactive)
REMARK    1  A    between atoms: C2_2  and  C4_4 
REMARK    2  A    between atoms: C4_4  and  C5_5 
REMARK    3  A    between atoms: C5_5  and  N1_6 
REMARK    4  A    between atoms: C12_15  and  C13_16 
REMARK       I    between atoms: C13_16  and  N2_18 
REMARK    5  A    between atoms: N2_18  and  C14_20 
ROOT
HETATM    1  N1  UNL     1      32.613  98.245  32.879  1.00  0.00    -0.253 N 
HETATM    2  O1  UNL     1      32.261  97.144  33.485  1.00  0.00    -0.239 OA
HETATM    3  C6  UNL     1      33.044  96.701  34.475  1.00  0.00     0.183 C 
HETATM    4  C7  UNL     1      32.127  95.918  35.475  1.00  0.00     0.081 C 
HETATM    5  C8  UNL     1      34.057  95.623  34.046  1.00  0.00     0.081 C 
HETATM    6  O2  UNL     1      33.701  97.619  35.217  1.00  0.00    -0.341 OA
HETATM    7  C9  UNL     1      33.951  98.846  34.746  1.00  0.00     0.089 C 
HETATM    8  C10 UNL     1      33.004  99.839  35.373  1.00  0.00     0.048 C 
HETATM    9  C11 UNL     1      35.401  99.205  35.055  1.00  0.00     0.048 C 
HETATM   10  C12 UNL     1      33.804  98.889  33.192  1.00  0.00     0.239 C 
ENDROOT
BRANCH  10  11
HETATM   11  C13 UNL     1      34.086 100.238  32.736  1.00  0.00     0.246 C 
HETATM   12  O3  UNL     1      34.926 100.350  31.757  1.00  0.00    -0.271 OA
HETATM   13  N2  UNL     1      33.590 101.470  33.196  1.00  0.00    -0.355 N 
ATOM     14  H2  UNL     1      32.927 101.477  33.971  1.00  0.00     0.162 HD
BRANCH  13  15
HETATM   15  C14 UNL     1      33.995 102.751  32.593  1.00  0.00     0.084 C 
HETATM   16  C15 UNL     1      33.214 103.940  33.098  1.00  0.00     0.025 C 
HETATM   17  C16 UNL     1      34.518 104.713  33.085  1.00  0.00     0.004 C 
HETATM   18  C17 UNL     1      35.230 103.362  33.182  1.00  0.00     0.025 C 
ENDBRANCH  13  15
ENDBRANCH  10  11
BRANCH   1  19
HETATM   19  C5  UNL     1      31.690  98.753  31.954  1.00  0.00     0.091 C 
BRANCH  19  20
HETATM   20  C4  UNL     1      30.350  99.203  32.402  1.00  0.00     0.050 C 
BRANCH  20  21
HETATM   21  C2  UNL     1      29.950 100.606  32.103  1.00  0.00    -0.018 C 
HETATM   22  C1  UNL     1      30.079 101.555  33.272  1.00  0.00     0.010 C 
HETATM   23  C3  UNL     1      28.624 100.703  31.399  1.00  0.00     0.010 C 
ENDBRANCH  20  21
ENDBRANCH  19  20
ENDBRANCH   1  19
TORSDOF 5
ENDMDL
MODEL 2
REMARK VINA RESULT: -5.994347251      1.963      5.093
REMARK  5 active torsions:
REMARK  status: ('A' for Active; 'I' for Inactive)
REMARK    1  A    between atoms: C2_2  and  C4_4 
REMARK    2  A    between atoms: C4_4  and  C5_5 
REMARK    3  A    between atoms: C5_5  and  N1_6 
REMARK    4  A    between atoms: C12_15  and  C13_16 
REMARK       I    between atoms: C13_16  and  N2_18 
REMARK    5  A    between atoms: N2_18  and  C14_20 
ROOT
HETATM    1  N1  UNL     1      33.760  98.021  33.173  1.00  0.00    -0.253 N 
HETATM    2  O1  UNL     1      34.929  98.167  33.734  1.00  0.00    -0.239 OA
HETATM    3  C6  UNL     1      35.313  99.406  34.059  1.00  0.00     0.183 C 
HETATM    4  C7  UNL     1      36.265  99.286  35.297  1.00  0.00     0.081 C 
HETATM    5  C8  UNL     1      36.220 100.081  33.013  1.00  0.00     0.081 C 
HETATM    6  O2  UNL     1      34.356 100.290  34.413  1.00  0.00    -0.341 OA
HETATM    7  C9  UNL     1      33.083 100.128  34.033  1.00  0.00     0.089 C 
HETATM    8  C10 UNL     1      32.262  99.627  35.196  1.00  0.00     0.048 C 
HETATM    9  C11 UNL     1      32.549 101.462  33.523  1.00  0.00     0.048 C 
HETATM   10  C12 UNL     1      32.979  99.122  32.844  1.00  0.00     0.239 C 
ENDROOT
BRANCH  10  11
HETATM   11  C13 UNL     1      31.582  98.985  32.473  1.00  0.00     0.246 C 
HETATM   12  O3  UNL     1      30.884  98.139  33.162  1.00  0.00    -0.271 OA
HETATM   13  N2  UNL     1      30.846  99.630  31.464  1.00  0.00    -0.355 N 
ATOM     14  H2  UNL     1      31.319 100.309  30.866  1.00  0.00     0.162 HD
BRANCH  13  15
HETATM   15  C14 UNL     1      29.416  99.359  31.242  1.00  0.00     0.084 C 
HETATM   16  C15 UNL     1      28.554 100.597  31.223  1.00  0.00     0.025 C 
HETATM   17  C16 UNL     1      27.784  99.958  30.083  1.00  0.00     0.004 C 
HETATM   18  C17 UNL     1      29.034  99.118  29.813  1.00  0.00     0.025 C 
ENDBRANCH  13  15
ENDBRANCH  10  11
BRANCH   1  19
HETATM   19  C5  UNL     1      33.334  96.698  32.987  1.00  0.00     0.091 C 
BRANCH  19  20
HETATM   20  C4  UNL     1      33.780  95.630  33.914  1.00  0.00     0.050 C 
BRANCH  20  21
HETATM   21  C2  UNL     1      33.512  95.811  35.367  1.00  0.00    -0.018 C 
HETATM   22  C1  UNL     1      34.260  94.853  36.264  1.00  0.00     0.010 C 
HETATM   23  C3  UNL     1      32.045  95.907  35.688  1.00  0.00     0.010 C 
ENDBRANCH  20  21
ENDBRANCH  19  20
ENDBRANCH   1  19
TORSDOF 5
ENDMDL
MODEL 3
REMARK VINA RESULT: -5.968677845      1.613      5.301
REMARK  5 active torsions:
REMARK  status: ('A' for Active; 'I' for Inactive)
REMARK    1  A    between atoms: C2_2  and  C4_4 
REMARK    2  A    between atoms: C4_4  and  C5_5 
REMARK    3  A    between atoms: C5_5  and  N1_6 
REMARK    4  A    between atoms: C12_15  and  C13_16 
REMARK       I    between atoms: C13_16  and  N2_18 
REMARK    5  A    between atoms: N2_18  and  C14_20 
ROOT
HETATM    1  N1  UNL     1      32.377 101.695  34.331  1.00  0.00    -0.253 N 
HETATM    2  O1  UNL     1      32.468 102.913  33.874  1.00  0.00    -0.239 OA
HETATM    3  C6  UNL     1      33.682 103.470  33.826  1.00  0.00     0.183 C 
HETATM    4  C7  UNL     1      33.675 104.497  32.642  1.00  0.00     0.081 C 
HETATM    5  C8  UNL     1      34.017 104.366  35.033  1.00  0.00     0.081 C 
HETATM    6  O2  UNL     1      34.739 102.659  33.604  1.00  0.00    -0.341 OA
HETATM    7  C9  UNL     1      34.681 101.350  33.873  1.00  0.00     0.089 C 
HETATM    8  C10 UNL     1      34.527 100.569  32.591  1.00  0.00     0.048 C 
HETATM    9  C11 UNL     1      35.952 100.942  34.611  1.00  0.00     0.048 C 
HETATM   10  C12 UNL     1      33.490 101.029  34.830  1.00  0.00     0.239 C 
ENDROOT
BRANCH  10  11
HETATM   11  C13 UNL     1      33.473  99.600  35.089  1.00  0.00     0.246 C 
HETATM   12  O3  UNL     1      33.478  99.241  36.332  1.00  0.00    -0.271 OA
HETATM   13  N2  UNL     1      33.458  98.519  34.190  1.00  0.00    -0.355 N 
ATOM     14  H2  UNL     1      33.461  98.710  33.188  1.00  0.00     0.162 HD
BRANCH  13  15
HETATM   15  C14 UNL     1      33.436  97.120  34.649  1.00  0.00     0.084 C 
HETATM   16  C15 UNL     1      33.097  96.125  33.566  1.00  0.00     0.025 C 
HETATM   17  C16 UNL     1      34.149  95.216  34.170  1.00  0.00     0.004 C 
HETATM   18  C17 UNL     1      34.783  96.474  34.766  1.00  0.00     0.025 C 
ENDBRANCH  13  15
ENDBRANCH  10  11
BRANCH   1  19
HETATM   19  C5  UNL     1      31.113 101.097  34.224  1.00  0.00     0.091 C 
BRANCH  19  20
HETATM   20  C4  UNL     1      30.300 101.276  32.996  1.00  0.00     0.050 C 
BRANCH  20  21
HETATM   21  C2  UNL     1      29.943 100.060  32.214  1.00  0.00    -0.018 C 
HETATM   22  C1  UNL     1      31.122  99.348  31.594  1.00  0.00     0.010 C 
HETATM   23  C3  UNL     1      28.811 100.292  31.250  1.00  0.00     0.010 C 
ENDBRANCH  20  21
ENDBRANCH  19  20
ENDBRANCH   1  19
TORSDOF 5
ENDMDL
MODEL 4
REMARK VINA RESULT: -5.951167733      0.972      1.269
REMARK  5 active torsions:
REMARK  status: ('A' for Active; 'I' for Inactive)
REMARK    1  A    between atoms: C2_2  and  C4_4 
REMARK    2  A    between atoms: C4_4  and  C5_5 
REMARK    3  A    between atoms: C5_5  and  N1_6 
REMARK    4  A    between atoms: C12_15  and  C13_16 
REMARK       I    between atoms: C13_16  and  N2_18 
REMARK    5  A    between atoms: N2_18  and  C14_20 
ROOT
HETATM    1  N1  UNL     1      32.843  98.967  32.886  1.00  0.00    -0.253 N 
HETATM    2  O1  UNL     1      32.357  97.776  33.099  1.00  0.00    -0.239 OA
HETATM    3  C6  UNL     1      32.893  97.053  34.089  1.00  0.00     0.183 C 
HETATM    4  C7  UNL     1      31.770  96.106  34.632  1.00  0.00     0.081 C 
HETATM    5  C8  UNL     1      33.970  96.052  33.630  1.00  0.00     0.081 C 
HETATM    6  O2  UNL     1      33.371  97.715  35.165  1.00  0.00    -0.341 OA
HETATM    7  C9  UNL     1      33.728  99.002  35.089  1.00  0.00     0.089 C 
HETATM    8  C10 UNL     1      32.670  99.866  35.728  1.00  0.00     0.048 C 
HETATM    9  C11 UNL     1      35.073  99.180  35.786  1.00  0.00     0.048 C 
HETATM   10  C12 UNL     1      33.936  99.437  33.604  1.00  0.00     0.239 C 
ENDROOT
BRANCH  10  11
HETATM   11  C13 UNL     1      34.322 100.836  33.580  1.00  0.00     0.246 C 
HETATM   12  O3  UNL     1      35.453 101.111  33.012  1.00  0.00    -0.271 OA
HETATM   13  N2  UNL     1      33.657 101.967  34.087  1.00  0.00    -0.355 N 
ATOM     14  H2  UNL     1      32.761 101.842  34.559  1.00  0.00     0.162 HD
BRANCH  13  15
HETATM   15  C14 UNL     1      34.213 103.324  33.959  1.00  0.00     0.084 C 
HETATM   16  C15 UNL     1      33.351 104.265  33.152  1.00  0.00     0.025 C 
HETATM   17  C16 UNL     1      33.703 105.340  34.161  1.00  0.00     0.004 C 
HETATM   18  C17 UNL     1      33.995 104.209  35.149  1.00  0.00     0.025 C 
ENDBRANCH  13  15
ENDBRANCH  10  11
BRANCH   1  19
HETATM   19  C5  UNL     1      32.155  99.746  31.944  1.00  0.00     0.091 C 
BRANCH  19  20
HETATM   20  C4  UNL     1      30.801  99.349  31.489  1.00  0.00     0.050 C 
BRANCH  20  21
HETATM   21  C2  UNL     1      29.634 100.079  32.057  1.00  0.00    -0.018 C 
HETATM   22  C1  UNL     1      28.562 100.423  31.049  1.00  0.00     0.010 C 
HETATM   23  C3  UNL     1      30.032 101.241  32.925  1.00  0.00     0.010 C 
ENDBRANCH  20  21
ENDBRANCH  19  20
ENDBRANCH   1  19
TORSDOF 5
ENDMDL
MODEL 5
REMARK VINA RESULT: -5.944718708      1.898      5.465
REMARK  5 active torsions:
REMARK  status: ('A' for Active; 'I' for Inactive)
REMARK    1  A    between atoms: C2_2  and  C4_4 
REMARK    2  A    between atoms: C4_4  and  C5_5 
REMARK    3  A    between atoms: C5_5  and  N1_6 
REMARK    4  A    between atoms: C12_15  and  C13_16 
REMARK       I    between atoms: C13_16  and  N2_18 
REMARK    5  A    between atoms: N2_18  and  C14_20 
ROOT
HETATM    1  N1  UNL     1      32.175 101.684  34.444  1.00  0.00    -0.253 N 
HETATM    2  O1  UNL     1      32.478 102.685  33.665  1.00  0.00    -0.239 OA
HETATM    3  C6  UNL     1      33.737 103.135  33.690  1.00  0.00     0.183 C 
HETATM    4  C7  UNL     1      34.046 103.726  32.273  1.00  0.00     0.081 C 
HETATM    5  C8  UNL     1      33.955 104.353  34.607  1.00  0.00     0.081 C 
HETATM    6  O2  UNL     1      34.720 102.243  33.942  1.00  0.00    -0.341 OA
HETATM    7  C9  UNL     1      34.471 101.095  34.581  1.00  0.00     0.089 C 
HETATM    8  C10 UNL     1      34.454  99.952  33.595  1.00  0.00     0.048 C 
HETATM    9  C11 UNL     1      35.543 100.882  35.645  1.00  0.00     0.048 C 
HETATM   10  C12 UNL     1      33.105 101.159  35.334  1.00  0.00     0.239 C 
ENDROOT
BRANCH  10  11
HETATM   11  C13 UNL     1      32.886  99.892  36.008  1.00  0.00     0.246 C 
HETATM   12  O3  UNL     1      32.593  99.954  37.268  1.00  0.00    -0.271 OA
HETATM   13  N2  UNL     1      32.946  98.579  35.508  1.00  0.00    -0.355 N 
ATOM     14  H2  UNL     1      33.179  98.435  34.525  1.00  0.00     0.162 HD
BRANCH  13  15
HETATM   15  C14 UNL     1      32.684  97.405  36.357  1.00  0.00     0.084 C 
HETATM   16  C15 UNL     1      32.300  96.165  35.587  1.00  0.00     0.025 C 
HETATM   17  C16 UNL     1      33.154  95.380  36.563  1.00  0.00     0.004 C 
HETATM   18  C17 UNL     1      33.908  96.684  36.832  1.00  0.00     0.025 C 
ENDBRANCH  13  15
ENDBRANCH  10  11
BRANCH   1  19
HETATM   19  C5  UNL     1      30.890 101.148  34.277  1.00  0.00     0.091 C 
BRANCH  19  20
HETATM   20  C4  UNL     1      30.198 101.254  32.969  1.00  0.00     0.050 C 
BRANCH  20  21
HETATM   21  C2  UNL     1      30.251 100.078  32.057  1.00  0.00    -0.018 C 
HETATM   22  C1  UNL     1      28.992  99.857  31.251  1.00  0.00     0.010 C 
HETATM   23  C3  UNL     1      30.753  98.831  32.732  1.00  0.00     0.010 C 
ENDBRANCH  20  21
ENDBRANCH  19  20
ENDBRANCH   1  19
TORSDOF 5
ENDMDL
