MODEL 1
REMARK VINA RESULT: -5.376798762      0.000      0.000
REMARK  5 active torsions:
REMARK  status: ('A' for Active; 'I' for Inactive)
REMARK    1  A    between atoms: S1_2  and  C2_3 
REMARK    2  A    between atoms: C2_3  and  C3_4 
REMARK    3  A    between atoms: C3_4  and  C4_5 
REMARK    4  A    between atoms: C3_4  and  N1_12 
REMARK    5  A    between atoms: C4_5  and  C5_6 
REMARK       I    between atoms: N1_12  and  C10_14 
REMARK       I    between atoms: C10_14  and  N2_16 
ROOT
HETATM    1  C3  UNL     1      33.248 103.019  33.344  1.00  0.00     0.095 C 
ENDROOT
BRANCH   1   2
HETATM    2  C2  UNL     1      34.656 102.472  33.055  1.00  0.00     0.098 C 
BRANCH   2   3
HETATM    3  S1  UNL     1      35.099 102.621  31.325  1.00  0.00    -0.172 SA
HETATM    4  C1  UNL     1      36.367 103.914  31.105  1.00  0.00     0.089 C 
ENDBRANCH   2   3
ENDBRANCH   1   2
BRANCH   1   5
HETATM    5  C4  UNL     1      32.570 101.965  34.151  1.00  0.00     0.030 C 
BRANCH   5   6
HETATM    6  C5  UNL     1      31.841 100.919  33.380  1.00  0.00    -0.011 C 
HETATM    7  C6  UNL     1      32.094  99.520  33.833  1.00  0.00     0.015 C 
HETATM    8  C7  UNL     1      31.168  98.565  33.114  1.00  0.00     0.074 C 
HETATM    9  S2  UNL     1      30.481  99.341  31.603  1.00  0.00    -0.169 SA
HETATM   10  C8  UNL     1      29.650 100.872  32.180  1.00  0.00     0.074 C 
HETATM   11  C9  UNL     1      30.351 101.252  33.467  1.00  0.00     0.015 C 
ENDBRANCH   5   6
ENDBRANCH   1   5
BRANCH   1  12
HETATM   12  N1  UNL     1      33.321 104.296  34.013  1.00  0.00    -0.338 N 
HETATM   13  C10 UNL     1      33.260 105.538  33.371  1.00  0.00     0.318 C 
HETATM   14  O1  UNL     1      33.133 105.562  32.118  1.00  0.00    -0.247 OA
HETATM   15  N2  UNL     1      33.334 106.754  34.057  1.00  0.00    -0.330 N 
HETATM   16  C11 UNL     1      33.480 106.876  35.482  1.00  0.00     0.153 C 
HETATM   17  C14 UNL     1      33.265 108.045  33.345  1.00  0.00     0.153 C 
HETATM   18  C12 UNL     1      34.715 107.773  35.674  1.00  0.00     0.187 C 
HETATM   19  O2  UNL     1      34.479 109.030  35.187  1.00  0.00    -0.388 OA
HETATM   20  C13 UNL     1      33.423 109.170  34.330  1.00  0.00     0.187 C 
ATOM     21  H1  UNL     1      33.425 104.293  35.028  1.00  0.00     0.164 HD
ENDBRANCH   1  12
TORSDOF 5
ENDMDL
MODEL 2
REMARK VINA RESULT: -5.375805870      3.232      5.574
REMARK  5 active torsions:
REMARK  status: ('A' for Active; 'I' for Inactive)
REMARK    1  A    between atoms: S1_2  and  C2_3 
REMARK    2  A    between atoms: C2_3  and  C3_4 
REMARK    3  A    between atoms: C3_4  and  C4_5 
REMARK    4  A    between atoms: C3_4  and  N1_12 
REMARK    5  A    between atoms: C4_5  and  C5_6 
REMARK       I    between atoms: N1_12  and  C10_14 
REMARK       I    between atoms: C10_14  and  N2_16 
ROOT
HETATM    1  C3  UNL     1      31.648  98.947  32.340  1.00  0.00     0.095 C 
ENDROOT
BRANCH   1   2
HETATM    2  C2  UNL     1      30.793  98.991  31.062  1.00  0.00     0.098 C 
BRANCH   2   3
HETATM    3  S1  UNL     1      29.189  99.738  31.346  1.00  0.00    -0.172 SA
HETATM    4  C1  UNL     1      28.090  99.438  29.922  1.00  0.00     0.089 C 
ENDBRANCH   2   3
ENDBRANCH   1   2
BRANCH   1   5
HETATM    5  C4  UNL     1      32.193  97.561  32.406  1.00  0.00     0.030 C 
BRANCH   5   6
HETATM    6  C5  UNL     1      32.854  97.179  33.685  1.00  0.00    -0.011 C 
HETATM    7  C6  UNL     1      32.044  96.287  34.564  1.00  0.00     0.015 C 
HETATM    8  C7  UNL     1      32.877  95.814  35.734  1.00  0.00     0.074 C 
HETATM    9  S2  UNL     1      34.344  96.888  35.964  1.00  0.00    -0.169 SA
HETATM   10  C8  UNL     1      35.236  96.839  34.362  1.00  0.00     0.074 C 
HETATM   11  C9  UNL     1      34.184  96.514  33.323  1.00  0.00     0.015 C 
ENDBRANCH   5   6
ENDBRANCH   1   5
BRANCH   1  12
HETATM   12  N1  UNL     1      32.670  99.966  32.309  1.00  0.00    -0.338 N 
HETATM   13  C10 UNL     1      32.547 101.239  32.875  1.00  0.00     0.318 C 
HETATM   14  O1  UNL     1      31.469 101.536  33.458  1.00  0.00    -0.247 OA
HETATM   15  N2  UNL     1      33.563 102.198  32.824  1.00  0.00    -0.330 N 
HETATM   16  C11 UNL     1      34.838 101.996  32.193  1.00  0.00     0.153 C 
HETATM   17  C14 UNL     1      33.395 103.531  33.434  1.00  0.00     0.153 C 
HETATM   18  C12 UNL     1      34.977 103.168  31.205  1.00  0.00     0.187 C 
HETATM   19  O2  UNL     1      35.045 104.359  31.875  1.00  0.00    -0.388 OA
HETATM   20  C13 UNL     1      34.623 104.359  33.176  1.00  0.00     0.187 C 
ATOM     21  H1  UNL     1      33.548  99.740  31.841  1.00  0.00     0.164 HD
ENDBRANCH   1  12
TORSDOF 5
ENDMDL
MODEL 3
REMARK VINA RESULT: -5.372232479      4.391      5.961
REMARK  5 active torsions:
REMARK  status: ('A' for Active; 'I' for Inactive)
REMARK    1  A    between atoms: S1_2  and  C2_3 
REMARK    2  A    between atoms: C2_3  and  C3_4 
REMARK    3  A    between atoms: C3_4  and  C4_5 
REMARK    4  A    between atoms: C3_4  and  N1_12 
REMARK    5  A    between atoms: C4_5  and  C5_6 
REMARK       I    between atoms: N1_12  and  C10_14 
REMARK       I    between atoms: C10_14  and  N2_16 
ROOT
HETATM    1  C3  UNL     1      32.323  99.521  33.899  1.00  0.00     0.095 C 
ENDROOT
BRANCH   1   2
HETATM    2  C2  UNL     1      33.762  99.214  33.452  1.00  0.00     0.098 C 
BRANCH   2   3
HETATM    3  S1  UNL     1      34.418 100.481  32.368  1.00  0.00    -0.172 SA
HETATM    4  C1  UNL     1      33.716 102.109  32.798  1.00  0.00     0.089 C 
ENDBRANCH   2   3
ENDBRANCH   1   2
BRANCH   1   5
HETATM    5  C4  UNL     1      31.458  98.585  33.125  1.00  0.00     0.030 C 
BRANCH   5   6
HETATM    6  C5  UNL     1      30.364  99.212  32.331  1.00  0.00    -0.011 C 
HETATM    7  C6  UNL     1      30.011 100.601  32.743  1.00  0.00     0.015 C 
HETATM    8  C7  UNL     1      29.032 101.202  31.760  1.00  0.00     0.074 C 
HETATM    9  S2  UNL     1      28.224  99.893  30.765  1.00  0.00    -0.169 SA
HETATM   10  C8  UNL     1      29.596  98.976  29.964  1.00  0.00     0.074 C 
HETATM   11  C9  UNL     1      30.797  99.179  30.864  1.00  0.00     0.015 C 
ENDBRANCH   5   6
ENDBRANCH   1   5
BRANCH   1  12
HETATM   12  N1  UNL     1      32.188  99.377  35.330  1.00  0.00    -0.338 N 
HETATM   13  C10 UNL     1      31.899 100.422  36.214  1.00  0.00     0.318 C 
HETATM   14  O1  UNL     1      31.744 101.581  35.744  1.00  0.00    -0.247 OA
HETATM   15  N2  UNL     1      31.776 100.240  37.594  1.00  0.00    -0.330 N 
HETATM   16  C11 UNL     1      31.928  98.977  38.263  1.00  0.00     0.153 C 
HETATM   17  C14 UNL     1      31.470 101.367  38.495  1.00  0.00     0.153 C 
HETATM   18  C12 UNL     1      32.993  99.233  39.344  1.00  0.00     0.187 C 
HETATM   19  O2  UNL     1      32.534 100.125  40.274  1.00  0.00    -0.388 OA
HETATM   20  C13 UNL     1      31.452 100.882  39.918  1.00  0.00     0.187 C 
ATOM     21  H1  UNL     1      32.311  98.444  35.724  1.00  0.00     0.164 HD
ENDBRANCH   1  12
TORSDOF 5
ENDMDL
MODEL 4
REMARK VINA RESULT: -5.220293596      5.355      6.269
REMARK  5 active torsions:
REMARK  status: ('A' for Active; 'I' for Inactive)
REMARK    1  A    between atoms: S1_2  and  C2_3 
REMARK    2  A    between atoms: C2_3  and  C3_4 
REMARK    3  A    between atoms: C3_4  and  C4_5 
REMARK    4  A    between atoms: C3_4  and  N1_12 
REMARK    5  A    between atoms: C4_5  and  C5_6 
REMARK       I    between atoms: N1_12  and  C10_14 
REMARK       I    between atoms: C10_14  and  N2_16 
ROOT
HETATM    1  C3  UNL     1      32.431  99.468  34.064  1.00  0.00     0.095 C 
ENDROOT
BRANCH   1   2
HETATM    2  C2  UNL     1      33.862  99.076  33.660  1.00  0.00     0.098 C 
BRANCH   2   3
HETATM    3  S1  UNL     1      34.012  97.323  33.316  1.00  0.00    -0.172 SA
HETATM    4  C1  UNL     1      34.328  96.400  34.858  1.00  0.00     0.089 C 
ENDBRANCH   2   3
ENDBRANCH   1   2
BRANCH   1   5
HETATM    5  C4  UNL     1      31.537  98.542  33.311  1.00  0.00     0.030 C 
BRANCH   5   6
HETATM    6  C5  UNL     1      30.477  99.185  32.485  1.00  0.00    -0.011 C 
HETATM    7  C6  UNL     1      30.124 100.575  32.894  1.00  0.00     0.015 C 
HETATM    8  C7  UNL     1      29.186 101.193  31.882  1.00  0.00     0.074 C 
HETATM    9  S2  UNL     1      28.399  99.898  30.851  1.00  0.00    -0.169 SA
HETATM   10  C8  UNL     1      29.789  98.972  30.092  1.00  0.00     0.074 C 
HETATM   11  C9  UNL     1      30.960  99.157  31.033  1.00  0.00     0.015 C 
ENDBRANCH   5   6
ENDBRANCH   1   5
BRANCH   1  12
HETATM   12  N1  UNL     1      32.262  99.390  35.497  1.00  0.00    -0.338 N 
HETATM   13  C10 UNL     1      31.897 100.462  36.317  1.00  0.00     0.318 C 
HETATM   14  O1  UNL     1      31.697 101.587  35.784  1.00  0.00    -0.247 OA
HETATM   15  N2  UNL     1      31.743 100.345  37.701  1.00  0.00    -0.330 N 
HETATM   16  C11 UNL     1      31.940  99.127  38.440  1.00  0.00     0.153 C 
HETATM   17  C14 UNL     1      31.355 101.499  38.534  1.00  0.00     0.153 C 
HETATM   18  C12 UNL     1      32.959  99.492  39.533  1.00  0.00     0.187 C 
HETATM   19  O2  UNL     1      32.429 100.406  40.402  1.00  0.00    -0.388 OA
HETATM   20  C13 UNL     1      31.321 101.087  39.979  1.00  0.00     0.187 C 
ATOM     21  H1  UNL     1      32.421  98.486  35.942  1.00  0.00     0.164 HD
ENDBRANCH   1  12
TORSDOF 5
ENDMDL
MODEL 5
REMARK VINA RESULT: -5.168825489      2.465      4.549
REMARK  5 active torsions:
REMARK  status: ('A' for Active; 'I' for Inactive)
REMARK    1  A    between atoms: S1_2  and  C2_3 
REMARK    2  A    between atoms: C2_3  and  C3_4 
REMARK    3  A    between atoms: C3_4  and  C4_5 
REMARK    4  A    between atoms: C3_4  and  N1_12 
REMARK    5  A    between atoms: C4_5  and  C5_6 
REMARK       I    between atoms: N1_12  and  C10_14 
REMARK       I    between atoms: C10_14  and  N2_16 
ROOT
HETATM    1  C3  UNL     1      31.322 100.409  33.301  1.00  0.00     0.095 C 
ENDROOT
BRANCH   1   2
HETATM    2  C2  UNL     1      29.967 100.669  32.623  1.00  0.00     0.098 C 
BRANCH   2   3
HETATM    3  S1  UNL     1      29.615  99.474  31.334  1.00  0.00    -0.172 SA
HETATM    4  C1  UNL     1      28.085  99.928  30.450  1.00  0.00     0.089 C 
ENDBRANCH   2   3
ENDBRANCH   1   2
BRANCH   1   5
HETATM    5  C4  UNL     1      31.865  99.183  32.648  1.00  0.00     0.030 C 
BRANCH   5   6
HETATM    6  C5  UNL     1      32.165  98.038  33.552  1.00  0.00    -0.011 C 
HETATM    7  C6  UNL     1      32.752  96.846  32.876  1.00  0.00     0.015 C 
HETATM    8  C7  UNL     1      33.188  95.827  33.905  1.00  0.00     0.074 C 
HETATM    9  S2  UNL     1      32.375  96.142  35.516  1.00  0.00    -0.169 SA
HETATM   10  C8  UNL     1      32.824  97.865  35.957  1.00  0.00     0.074 C 
HETATM   11  C9  UNL     1      33.106  98.559  34.641  1.00  0.00     0.015 C 
ENDBRANCH   5   6
ENDBRANCH   1   5
BRANCH   1  12
HETATM   12  N1  UNL     1      32.188 101.558  33.176  1.00  0.00    -0.338 N 
HETATM   13  C10 UNL     1      32.681 102.307  34.250  1.00  0.00     0.318 C 
HETATM   14  O1  UNL     1      32.355 101.968  35.419  1.00  0.00    -0.247 OA
HETATM   15  N2  UNL     1      33.518 103.414  34.086  1.00  0.00    -0.330 N 
HETATM   16  C11 UNL     1      33.968 103.911  32.814  1.00  0.00     0.153 C 
HETATM   17  C14 UNL     1      34.019 104.179  35.244  1.00  0.00     0.153 C 
HETATM   18  C12 UNL     1      33.571 105.398  32.812  1.00  0.00     0.187 C 
HETATM   19  O2  UNL     1      34.260 106.083  33.775  1.00  0.00    -0.388 OA
HETATM   20  C13 UNL     1      34.847 105.337  34.760  1.00  0.00     0.187 C 
ATOM     21  H1  UNL     1      32.460 101.844  32.235  1.00  0.00     0.164 HD
ENDBRANCH   1  12
TORSDOF 5
ENDMDL
