MODEL 1
REMARK VINA RESULT: -6.370522736      0.000      0.000
REMARK  6 active torsions:
REMARK  status: ('A' for Active; 'I' for Inactive)
REMARK    1  A    between atoms: O1_2  and  C2_3 
REMARK    2  A    between atoms: C7_8  and  O2_9 
REMARK    3  A    between atoms: C9_11  and  C10_12 
REMARK    4  A    between atoms: C10_12  and  C11_13 
REMARK    5  A    between atoms: C11_13  and  N1_14 
REMARK    6  A    between atoms: C18_21  and  O3_22 
ROOT
HETATM    1  C2  UNL     1      32.153 101.419  35.891  1.00  0.00     0.102 A 
HETATM    2  C3  UNL     1      31.273 101.345  34.853  1.00  0.00     0.047 A 
HETATM    3  C4  UNL     1      31.408 100.476  33.757  1.00  0.00    -0.046 A 
HETATM    4  C5  UNL     1      32.510  99.649  33.744  1.00  0.00    -0.045 A 
HETATM    5  C6  UNL     1      33.408  99.715  34.784  1.00  0.00     0.047 A 
HETATM    6  C7  UNL     1      33.238 100.576  35.834  1.00  0.00     0.102 A 
HETATM    7  C9  UNL     1      32.881  98.650  32.717  1.00  0.00     0.021 C 
HETATM    8  C16 UNL     1      31.677  98.084  32.053  1.00  0.00     0.012 C 
HETATM    9  C17 UNL     1      31.022  99.128  31.155  1.00  0.00     0.033 C 
HETATM   10  C18 UNL     1      29.825  99.612  31.986  1.00  0.00     0.122 C 
HETATM   11  C19 UNL     1      30.269 100.728  32.835  1.00  0.00     0.070 C 
ENDROOT
BRANCH   7  12
HETATM   12  C10 UNL     1      33.814  97.576  33.138  1.00  0.00     0.039 C 
BRANCH  12  13
HETATM   13  C11 UNL     1      33.325  96.204  33.308  1.00  0.00     0.273 C 
BRANCH  13  14
HETATM   14  N1  UNL     1      33.439  95.636  34.639  1.00  0.00     0.088 N 
HETATM   15  C12 UNL     1      32.256  96.143  35.365  1.00  0.00     0.272 C 
HETATM   16  C13 UNL     1      32.566  95.621  36.767  1.00  0.00     0.032 C 
HETATM   17  C14 UNL     1      34.073  95.863  36.838  1.00  0.00     0.032 C 
HETATM   18  C15 UNL     1      34.467  96.300  35.421  1.00  0.00     0.272 C 
ENDBRANCH  13  14
ENDBRANCH  12  13
ENDBRANCH   7  12
BRANCH   6  19
HETATM   19  O2  UNL     1      34.154 100.630  36.880  1.00  0.00    -0.353 OA
HETATM   20  C8  UNL     1      34.273  99.527  37.738  1.00  0.00     0.210 C 
ENDBRANCH   6  19
BRANCH  10  21
HETATM   21  O3  UNL     1      28.867 100.077  31.100  1.00  0.00    -0.395 OA
ATOM     22  H3  UNL     1      28.518  99.324  30.638  1.00  0.00     0.210 HD
ENDBRANCH  10  21
BRANCH   1  23
HETATM   23  O1  UNL     1      31.972 102.306  36.970  1.00  0.00    -0.353 OA
HETATM   24  C1  UNL     1      31.120 101.936  38.035  1.00  0.00     0.210 C 
ENDBRANCH   1  23
TORSDOF 6
ENDMDL
MODEL 2
REMARK VINA RESULT: -6.012111844      2.222      4.977
REMARK  6 active torsions:
REMARK  status: ('A' for Active; 'I' for Inactive)
REMARK    1  A    between atoms: O1_2  and  C2_3 
REMARK    2  A    between atoms: C7_8  and  O2_9 
REMARK    3  A    between atoms: C9_11  and  C10_12 
REMARK    4  A    between atoms: C10_12  and  C11_13 
REMARK    5  A    between atoms: C11_13  and  N1_14 
REMARK    6  A    between atoms: C18_21  and  O3_22 
ROOT
HETATM    1  C2  UNL     1      31.971 100.695  38.440  1.00  0.00     0.102 A 
HETATM    2  C3  UNL     1      31.990  99.351  38.668  1.00  0.00     0.047 A 
HETATM    3  C4  UNL     1      32.169  98.379  37.669  1.00  0.00    -0.046 A 
HETATM    4  C5  UNL     1      32.336  98.829  36.378  1.00  0.00    -0.045 A 
HETATM    5  C6  UNL     1      32.317 100.182  36.134  1.00  0.00     0.047 A 
HETATM    6  C7  UNL     1      32.140 101.097  37.137  1.00  0.00     0.102 A 
HETATM    7  C9  UNL     1      32.544  98.019  35.157  1.00  0.00     0.021 C 
HETATM    8  C16 UNL     1      33.251  96.749  35.463  1.00  0.00     0.012 C 
HETATM    9  C17 UNL     1      32.339  95.801  36.234  1.00  0.00     0.033 C 
HETATM   10  C18 UNL     1      32.825  95.938  37.684  1.00  0.00     0.122 C 
HETATM   11  C19 UNL     1      32.091  97.043  38.318  1.00  0.00     0.070 C 
ENDROOT
BRANCH   7  12
HETATM   12  C10 UNL     1      33.161  98.709  33.997  1.00  0.00     0.039 C 
BRANCH  12  13
HETATM   13  C11 UNL     1      32.486  98.703  32.696  1.00  0.00     0.273 C 
BRANCH  13  14
HETATM   14  N1  UNL     1      31.115  99.179  32.675  1.00  0.00     0.088 N 
HETATM   15  C12 UNL     1      30.724  99.132  31.251  1.00  0.00     0.272 C 
HETATM   16  C13 UNL     1      29.349  99.793  31.335  1.00  0.00     0.032 C 
HETATM   17  C14 UNL     1      29.624 100.899  32.352  1.00  0.00     0.032 C 
HETATM   18  C15 UNL     1      31.041 100.617  32.867  1.00  0.00     0.272 C 
ENDBRANCH  13  14
ENDBRANCH  12  13
ENDBRANCH   7  12
BRANCH   6  19
HETATM   19  O2  UNL     1      32.124 102.463  36.874  1.00  0.00    -0.353 OA
HETATM   20  C8  UNL     1      33.341 103.132  36.676  1.00  0.00     0.210 C 
ENDBRANCH   6  19
BRANCH  10  21
HETATM   21  O3  UNL     1      32.511  94.758  38.339  1.00  0.00    -0.395 OA
ATOM     22  H3  UNL     1      33.321  94.402  38.685  1.00  0.00     0.210 HD
ENDBRANCH  10  21
BRANCH   1  23
HETATM   23  O1  UNL     1      31.789 101.632  39.476  1.00  0.00    -0.353 OA
HETATM   24  C1  UNL     1      30.478 101.944  39.904  1.00  0.00     0.210 C 
ENDBRANCH   1  23
TORSDOF 6
ENDMDL
MODEL 3
REMARK VINA RESULT: -5.732011859      2.529      6.025
REMARK  6 active torsions:
REMARK  status: ('A' for Active; 'I' for Inactive)
REMARK    1  A    between atoms: O1_2  and  C2_3 
REMARK    2  A    between atoms: C7_8  and  O2_9 
REMARK    3  A    between atoms: C9_11  and  C10_12 
REMARK    4  A    between atoms: C10_12  and  C11_13 
REMARK    5  A    between atoms: C11_13  and  N1_14 
REMARK    6  A    between atoms: C18_21  and  O3_22 
ROOT
HETATM    1  C2  UNL     1      32.306  96.579  37.111  1.00  0.00     0.102 A 
HETATM    2  C3  UNL     1      32.108  97.544  38.053  1.00  0.00     0.047 A 
HETATM    3  C4  UNL     1      32.160  98.925  37.798  1.00  0.00    -0.046 A 
HETATM    4  C5  UNL     1      32.431  99.315  36.505  1.00  0.00    -0.045 A 
HETATM    5  C6  UNL     1      32.635  98.352  35.545  1.00  0.00     0.047 A 
HETATM    6  C7  UNL     1      32.575  97.015  35.835  1.00  0.00     0.102 A 
HETATM    7  C9  UNL     1      32.536 100.694  35.979  1.00  0.00     0.021 C 
HETATM    8  C16 UNL     1      31.667 101.631  36.737  1.00  0.00     0.012 C 
HETATM    9  C17 UNL     1      32.221 101.860  38.139  1.00  0.00     0.033 C 
HETATM   10  C18 UNL     1      31.331 100.975  39.023  1.00  0.00     0.122 C 
HETATM   11  C19 UNL     1      31.928  99.632  39.086  1.00  0.00     0.070 C 
ENDROOT
BRANCH   7  12
HETATM   12  C10 UNL     1      32.359 100.865  34.516  1.00  0.00     0.039 C 
BRANCH  12  13
HETATM   13  C11 UNL     1      31.051 101.248  33.975  1.00  0.00     0.273 C 
BRANCH  13  14
HETATM   14  N1  UNL     1      30.399 100.281  33.111  1.00  0.00     0.088 N 
HETATM   15  C12 UNL     1      31.441  99.886  32.140  1.00  0.00     0.272 C 
HETATM   16  C13 UNL     1      30.609  99.008  31.206  1.00  0.00     0.032 C 
HETATM   17  C14 UNL     1      29.309  99.808  31.142  1.00  0.00     0.032 C 
HETATM   18  C15 UNL     1      29.480 100.920  32.184  1.00  0.00     0.272 C 
ENDBRANCH  13  14
ENDBRANCH  12  13
ENDBRANCH   7  12
BRANCH   6  19
HETATM   19  O2  UNL     1      32.782  96.053  34.852  1.00  0.00    -0.353 OA
HETATM   20  C8  UNL     1      32.627  96.410  33.505  1.00  0.00     0.210 C 
ENDBRANCH   6  19
BRANCH  10  21
HETATM   21  O3  UNL     1      31.333 101.525  40.294  1.00  0.00    -0.395 OA
ATOM     22  H3  UNL     1      30.544 101.228  40.733  1.00  0.00     0.210 HD
ENDBRANCH  10  21
BRANCH   1  23
HETATM   23  O1  UNL     1      32.243  95.205  37.415  1.00  0.00    -0.353 OA
HETATM   24  C1  UNL     1      33.350  94.582  38.033  1.00  0.00     0.210 C 
ENDBRANCH   1  23
TORSDOF 6
ENDMDL
MODEL 4
REMARK VINA RESULT: -5.719454892      3.103      6.031
REMARK  6 active torsions:
REMARK  status: ('A' for Active; 'I' for Inactive)
REMARK    1  A    between atoms: O1_2  and  C2_3 
REMARK    2  A    between atoms: C7_8  and  O2_9 
REMARK    3  A    between atoms: C9_11  and  C10_12 
REMARK    4  A    between atoms: C10_12  and  C11_13 
REMARK    5  A    between atoms: C11_13  and  N1_14 
REMARK    6  A    between atoms: C18_21  and  O3_22 
ROOT
HETATM    1  C2  UNL     1      33.711  95.613  38.610  1.00  0.00     0.102 A 
HETATM    2  C3  UNL     1      34.289  95.210  37.443  1.00  0.00     0.047 A 
HETATM    3  C4  UNL     1      34.052  95.804  36.192  1.00  0.00    -0.046 A 
HETATM    4  C5  UNL     1      33.172  96.864  36.157  1.00  0.00    -0.045 A 
HETATM    5  C6  UNL     1      32.580  97.279  37.327  1.00  0.00     0.047 A 
HETATM    6  C7  UNL     1      32.839  96.673  38.526  1.00  0.00     0.102 A 
HETATM    7  C9  UNL     1      32.757  97.658  34.979  1.00  0.00     0.021 C 
HETATM    8  C16 UNL     1      33.836  97.718  33.959  1.00  0.00     0.012 C 
HETATM    9  C17 UNL     1      34.016  96.360  33.289  1.00  0.00     0.033 C 
HETATM   10  C18 UNL     1      35.265  95.787  33.974  1.00  0.00     0.122 C 
HETATM   11  C19 UNL     1      34.841  95.055  35.178  1.00  0.00     0.070 C 
ENDROOT
BRANCH   7  12
HETATM   12  C10 UNL     1      32.199  99.006  35.247  1.00  0.00     0.039 C 
BRANCH  12  13
HETATM   13  C11 UNL     1      32.044  99.967  34.151  1.00  0.00     0.273 C 
BRANCH  13  14
HETATM   14  N1  UNL     1      30.747 100.001  33.499  1.00  0.00     0.088 N 
HETATM   15  C12 UNL     1      30.998  99.480  32.139  1.00  0.00     0.272 C 
HETATM   16  C13 UNL     1      29.624  99.711  31.512  1.00  0.00     0.032 C 
HETATM   17  C14 UNL     1      29.262 101.071  32.107  1.00  0.00     0.032 C 
HETATM   18  C15 UNL     1      30.362 101.355  33.137  1.00  0.00     0.272 C 
ENDBRANCH  13  14
ENDBRANCH  12  13
ENDBRANCH   7  12
BRANCH   6  19
HETATM   19  O2  UNL     1      32.232  97.105  39.701  1.00  0.00    -0.353 OA
HETATM   20  C8  UNL     1      32.596  98.349  40.237  1.00  0.00     0.210 C 
ENDBRANCH   6  19
BRANCH  10  21
HETATM   21  O3  UNL     1      35.849  94.894  33.091  1.00  0.00    -0.395 OA
ATOM     22  H3  UNL     1      35.166  94.586  32.506  1.00  0.00     0.210 HD
ENDBRANCH  10  21
BRANCH   1  23
HETATM   23  O1  UNL     1      33.982  94.985  39.841  1.00  0.00    -0.353 OA
HETATM   24  C1  UNL     1      34.397  93.634  39.852  1.00  0.00     0.210 C 
ENDBRANCH   1  23
TORSDOF 6
ENDMDL
MODEL 5
REMARK VINA RESULT: -5.647232997      2.792      5.323
REMARK  6 active torsions:
REMARK  status: ('A' for Active; 'I' for Inactive)
REMARK    1  A    between atoms: O1_2  and  C2_3 
REMARK    2  A    between atoms: C7_8  and  O2_9 
REMARK    3  A    between atoms: C9_11  and  C10_12 
REMARK    4  A    between atoms: C10_12  and  C11_13 
REMARK    5  A    between atoms: C11_13  and  N1_14 
REMARK    6  A    between atoms: C18_21  and  O3_22 
ROOT
HETATM    1  C2  UNL     1      32.261  97.691  38.796  1.00  0.00     0.102 A 
HETATM    2  C3  UNL     1      32.629  96.818  37.816  1.00  0.00     0.047 A 
HETATM    3  C4  UNL     1      32.680  97.134  36.448  1.00  0.00    -0.046 A 
HETATM    4  C5  UNL     1      32.331  98.416  36.087  1.00  0.00    -0.045 A 
HETATM    5  C6  UNL     1      31.956  99.308  37.065  1.00  0.00     0.047 A 
HETATM    6  C7  UNL     1      31.921  98.959  38.388  1.00  0.00     0.102 A 
HETATM    7  C9  UNL     1      32.304  98.999  34.726  1.00  0.00     0.021 C 
HETATM    8  C16 UNL     1      33.319  98.364  33.845  1.00  0.00     0.012 C 
HETATM    9  C17 UNL     1      32.915  96.933  33.508  1.00  0.00     0.033 C 
HETATM   10  C18 UNL     1      33.797  96.086  34.437  1.00  0.00     0.122 C 
HETATM   11  C19 UNL     1      33.089  95.907  35.714  1.00  0.00     0.070 C 
ENDROOT
BRANCH   7  12
HETATM   12  C10 UNL     1      32.365 100.478  34.633  1.00  0.00     0.039 C 
BRANCH  12  13
HETATM   13  C11 UNL     1      31.708 101.171  33.520  1.00  0.00     0.273 C 
BRANCH  13  14
HETATM   14  N1  UNL     1      30.476 100.581  33.027  1.00  0.00     0.088 N 
HETATM   15  C12 UNL     1      30.866  99.888  31.781  1.00  0.00     0.272 C 
HETATM   16  C13 UNL     1      29.489  99.453  31.281  1.00  0.00     0.032 C 
HETATM   17  C14 UNL     1      28.656 100.687  31.626  1.00  0.00     0.032 C 
HETATM   18  C15 UNL     1      29.596 101.579  32.446  1.00  0.00     0.272 C 
ENDBRANCH  13  14
ENDBRANCH  12  13
ENDBRANCH   7  12
BRANCH   6  19
HETATM   19  O2  UNL     1      31.540  99.873  39.366  1.00  0.00    -0.353 OA
HETATM   20  C8  UNL     1      32.338 101.004  39.588  1.00  0.00     0.210 C 
ENDBRANCH   6  19
BRANCH  10  21
HETATM   21  O3  UNL     1      33.958  94.847  33.838  1.00  0.00    -0.395 OA
ATOM     22  H3  UNL     1      33.161  94.353  33.989  1.00  0.00     0.210 HD
ENDBRANCH  10  21
BRANCH   1  23
HETATM   23  O1  UNL     1      32.227  97.327  40.156  1.00  0.00    -0.353 OA
HETATM   24  C1  UNL     1      33.442  97.095  40.841  1.00  0.00     0.210 C 
ENDBRANCH   1  23
TORSDOF 6
ENDMDL
