MODEL 1
REMARK VINA RESULT: -5.768148338      0.000      0.000
REMARK  6 active torsions:
REMARK  status: ('A' for Active; 'I' for Inactive)
REMARK    1  A    between atoms: C7_11  and  C8_12 
REMARK    2  A    between atoms: C8_12  and  N3_13 
REMARK    3  A    between atoms: C13_21  and  C14_22 
REMARK    4  A    between atoms: C14_22  and  C15_23 
REMARK    5  A    between atoms: C15_23  and  N5_24 
REMARK    6  A    between atoms: N5_24  and  C16_27 
ROOT
HETATM    1  C1  UNL     1      -8.362  17.350  24.695  1.00  0.00     0.045 C 
HETATM    2  C2  UNL     1      -8.305  16.362  25.573  1.00  0.00     0.050 A 
HETATM    3  N1  UNL     1      -8.190  14.970  25.306  1.00  0.00    -0.358 N 
ATOM      4  H1  UNL     1      -8.136  14.544  24.381  1.00  0.00     0.166 HD
HETATM    5  C3  UNL     1      -8.166  14.338  26.429  1.00  0.00     0.019 A 
HETATM    6  C4  UNL     1      -8.054  12.871  26.572  1.00  0.00     0.069 C 
HETATM    7  C5  UNL     1      -8.265  15.263  27.559  1.00  0.00     0.023 A 
HETATM    8  C6  UNL     1      -8.350  16.518  27.000  1.00  0.00     0.071 A 
HETATM    9  N2  UNL     1      -8.442  17.407  28.025  1.00  0.00    -0.355 N 
ATOM     10  H2  UNL     1      -8.519  18.417  27.902  1.00  0.00     0.166 HD
HETATM   11  C7  UNL     1      -8.420  16.797  29.210  1.00  0.00     0.045 A 
HETATM   12  C13 UNL     1      -8.308  15.432  28.925  1.00  0.00    -0.018 A 
ENDROOT
BRANCH  11  13
HETATM   13  C8  UNL     1      -8.514  17.408  30.551  1.00  0.00     0.330 C 
BRANCH  13  14
HETATM   14  N3  UNL     1      -9.342  18.597  30.480  1.00  0.00     0.097 N 
HETATM   15  C9  UNL     1     -10.642  18.205  31.036  1.00  0.00     0.300 C 
HETATM   16  C10 UNL     1     -11.518  19.390  31.320  1.00  0.00     0.262 C 
HETATM   17  N4  UNL     1     -10.885  20.340  32.216  1.00  0.00    -0.072 N 
HETATM   18  C11 UNL     1      -9.559  19.874  32.586  1.00  0.00     0.262 C 
ATOM     19  H42 UNL     1     -10.861  21.280  31.820  1.00  0.00     0.277 HD
ATOM     20  H41 UNL     1     -11.462  20.536  33.033  1.00  0.00     0.277 HD
HETATM   21  C12 UNL     1      -8.774  19.661  31.311  1.00  0.00     0.300 C 
ENDBRANCH  13  14
ENDBRANCH  11  13
BRANCH  12  22
HETATM   22  C14 UNL     1      -8.242  14.344  29.902  1.00  0.00     0.069 C 
BRANCH  22  23
HETATM   23  C15 UNL     1      -9.589  13.747  30.258  1.00  0.00     0.237 C 
BRANCH  23  24
HETATM   24  N5  UNL     1      -9.394  12.422  30.811  1.00  0.00    -0.071 N 
ATOM     25  H52 UNL     1      -8.404  12.240  30.978  1.00  0.00     0.277 HD
ATOM     26  H51 UNL     1      -9.738  12.375  31.770  1.00  0.00     0.277 HD
BRANCH  24  27
HETATM   27  C16 UNL     1      -9.972  11.388  30.014  1.00  0.00     0.177 C 
HETATM   28  C17 UNL     1      -8.888  10.577  29.344  1.00  0.00     0.039 C 
HETATM   29  C18 UNL     1     -10.790  12.051  28.907  1.00  0.00     0.039 C 
ENDBRANCH  24  27
ENDBRANCH  23  24
ENDBRANCH  22  23
ENDBRANCH  12  22
TORSDOF 6
ENDMDL
MODEL 2
REMARK VINA RESULT: -5.703619334      1.023      1.239
REMARK  6 active torsions:
REMARK  status: ('A' for Active; 'I' for Inactive)
REMARK    1  A    between atoms: C7_11  and  C8_12 
REMARK    2  A    between atoms: C8_12  and  N3_13 
REMARK    3  A    between atoms: C13_21  and  C14_22 
REMARK    4  A    between atoms: C14_22  and  C15_23 
REMARK    5  A    between atoms: C15_23  and  N5_24 
REMARK    6  A    between atoms: N5_24  and  C16_27 
ROOT
HETATM    1  C1  UNL     1      -8.251  17.476  24.828  1.00  0.00     0.045 C 
HETATM    2  C2  UNL     1      -8.198  16.474  25.689  1.00  0.00     0.050 A 
HETATM    3  N1  UNL     1      -7.972  15.099  25.407  1.00  0.00    -0.358 N 
ATOM      4  H1  UNL     1      -7.817  14.699  24.482  1.00  0.00     0.166 HD
HETATM    5  C3  UNL     1      -7.994  14.444  26.517  1.00  0.00     0.019 A 
HETATM    6  C4  UNL     1      -7.798  12.983  26.641  1.00  0.00     0.069 C 
HETATM    7  C5  UNL     1      -8.241  15.333  27.651  1.00  0.00     0.023 A 
HETATM    8  C6  UNL     1      -8.365  16.593  27.111  1.00  0.00     0.071 A 
HETATM    9  N2  UNL     1      -8.595  17.450  28.141  1.00  0.00    -0.355 N 
ATOM     10  H2  UNL     1      -8.728  18.456  28.031  1.00  0.00     0.166 HD
HETATM   11  C7  UNL     1      -8.626  16.814  29.313  1.00  0.00     0.045 A 
HETATM   12  C13 UNL     1      -8.402  15.466  29.013  1.00  0.00    -0.018 A 
ENDROOT
BRANCH  11  13
HETATM   13  C8  UNL     1      -8.864  17.386  30.653  1.00  0.00     0.330 C 
BRANCH  13  14
HETATM   14  N3  UNL     1     -10.259  17.207  31.011  1.00  0.00     0.097 N 
HETATM   15  C9  UNL     1     -10.250  16.687  32.383  1.00  0.00     0.300 C 
HETATM   16  C10 UNL     1     -11.610  16.733  33.016  1.00  0.00     0.262 C 
HETATM   17  N4  UNL     1     -12.170  18.072  33.018  1.00  0.00    -0.072 N 
HETATM   18  C11 UNL     1     -11.247  19.004  32.392  1.00  0.00     0.262 C 
ATOM     19  H42 UNL     1     -13.092  18.100  32.584  1.00  0.00     0.277 HD
ATOM     20  H41 UNL     1     -12.436  18.371  33.956  1.00  0.00     0.277 HD
HETATM   21  C12 UNL     1     -10.956  18.495  30.998  1.00  0.00     0.300 C 
ENDBRANCH  13  14
ENDBRANCH  11  13
BRANCH  12  22
HETATM   22  C14 UNL     1      -8.342  14.363  29.971  1.00  0.00     0.069 C 
BRANCH  22  23
HETATM   23  C15 UNL     1      -9.671  13.673  30.209  1.00  0.00     0.237 C 
BRANCH  23  24
HETATM   24  N5  UNL     1      -9.433  12.326  30.687  1.00  0.00    -0.071 N 
ATOM     25  H52 UNL     1      -8.437  12.169  30.848  1.00  0.00     0.277 HD
ATOM     26  H51 UNL     1      -9.777  12.213  31.640  1.00  0.00     0.277 HD
BRANCH  24  27
HETATM   27  C16 UNL     1      -9.974  11.321  29.830  1.00  0.00     0.177 C 
HETATM   28  C17 UNL     1      -8.861  10.497  29.223  1.00  0.00     0.039 C 
HETATM   29  C18 UNL     1     -10.694  12.022  28.680  1.00  0.00     0.039 C 
ENDBRANCH  24  27
ENDBRANCH  23  24
ENDBRANCH  22  23
ENDBRANCH  12  22
TORSDOF 6
ENDMDL
MODEL 3
REMARK VINA RESULT: -5.684251097      1.076      1.430
REMARK  6 active torsions:
REMARK  status: ('A' for Active; 'I' for Inactive)
REMARK    1  A    between atoms: C7_11  and  C8_12 
REMARK    2  A    between atoms: C8_12  and  N3_13 
REMARK    3  A    between atoms: C13_21  and  C14_22 
REMARK    4  A    between atoms: C14_22  and  C15_23 
REMARK    5  A    between atoms: C15_23  and  N5_24 
REMARK    6  A    between atoms: N5_24  and  C16_27 
ROOT
HETATM    1  C1  UNL     1      -8.228  17.444  24.760  1.00  0.00     0.045 C 
HETATM    2  C2  UNL     1      -8.276  16.435  25.614  1.00  0.00     0.050 A 
HETATM    3  N1  UNL     1      -8.237  15.045  25.316  1.00  0.00    -0.358 N 
ATOM      4  H1  UNL     1      -8.166  14.638  24.385  1.00  0.00     0.166 HD
HETATM    5  C3  UNL     1      -8.307  14.388  26.423  1.00  0.00     0.019 A 
HETATM    6  C4  UNL     1      -8.296  12.913  26.532  1.00  0.00     0.069 C 
HETATM    7  C5  UNL     1      -8.400  15.290  27.570  1.00  0.00     0.023 A 
HETATM    8  C6  UNL     1      -8.378  16.561  27.041  1.00  0.00     0.071 A 
HETATM    9  N2  UNL     1      -8.462  17.430  28.083  1.00  0.00    -0.355 N 
ATOM     10  H2  UNL     1      -8.468  18.446  27.984  1.00  0.00     0.166 HD
HETATM   11  C7  UNL     1      -8.536  16.793  29.252  1.00  0.00     0.045 A 
HETATM   12  C13 UNL     1      -8.497  15.430  28.937  1.00  0.00    -0.018 A 
ENDROOT
BRANCH  11  13
HETATM   13  C8  UNL     1      -8.654  17.377  30.602  1.00  0.00     0.330 C 
BRANCH  13  14
HETATM   14  N3  UNL     1      -9.447  18.591  30.533  1.00  0.00     0.097 N 
HETATM   15  C9  UNL     1     -10.769  18.227  31.055  1.00  0.00     0.300 C 
HETATM   16  C10 UNL     1     -11.618  19.433  31.338  1.00  0.00     0.262 C 
HETATM   17  N4  UNL     1     -10.977  20.350  32.263  1.00  0.00    -0.072 N 
HETATM   18  C11 UNL     1      -9.674  19.841  32.654  1.00  0.00     0.262 C 
ATOM     19  H42 UNL     1     -10.919  21.295  31.883  1.00  0.00     0.277 HD
ATOM     20  H41 UNL     1     -11.567  20.550  33.071  1.00  0.00     0.277 HD
HETATM   21  C12 UNL     1      -8.867  19.625  31.393  1.00  0.00     0.300 C 
ENDBRANCH  13  14
ENDBRANCH  11  13
BRANCH  12  22
HETATM   22  C14 UNL     1      -8.548  14.319  29.887  1.00  0.00     0.069 C 
BRANCH  22  23
HETATM   23  C15 UNL     1      -9.865  13.568  29.896  1.00  0.00     0.237 C 
BRANCH  23  24
HETATM   24  N5  UNL     1     -10.831  14.303  30.685  1.00  0.00    -0.071 N 
ATOM     25  H52 UNL     1     -10.364  14.889  31.378  1.00  0.00     0.277 HD
ATOM     26  H51 UNL     1     -11.279  15.030  30.126  1.00  0.00     0.277 HD
BRANCH  24  27
HETATM   27  C16 UNL     1     -11.807  13.466  31.304  1.00  0.00     0.177 C 
HETATM   28  C17 UNL     1     -11.580  13.414  32.798  1.00  0.00     0.039 C 
HETATM   29  C18 UNL     1     -11.615  12.048  30.770  1.00  0.00     0.039 C 
ENDBRANCH  24  27
ENDBRANCH  23  24
ENDBRANCH  22  23
ENDBRANCH  12  22
TORSDOF 6
ENDMDL
MODEL 4
REMARK VINA RESULT: -5.598581761      2.503      5.626
REMARK  6 active torsions:
REMARK  status: ('A' for Active; 'I' for Inactive)
REMARK    1  A    between atoms: C7_11  and  C8_12 
REMARK    2  A    between atoms: C8_12  and  N3_13 
REMARK    3  A    between atoms: C13_21  and  C14_22 
REMARK    4  A    between atoms: C14_22  and  C15_23 
REMARK    5  A    between atoms: C15_23  and  N5_24 
REMARK    6  A    between atoms: N5_24  and  C16_27 
ROOT
HETATM    1  C1  UNL     1     -10.412  16.071  32.596  1.00  0.00     0.045 C 
HETATM    2  C2  UNL     1     -10.506  15.027  31.789  1.00  0.00     0.050 A 
HETATM    3  N1  UNL     1     -11.261  13.839  31.993  1.00  0.00    -0.358 N 
ATOM      4  H1  UNL     1     -11.841  13.634  32.806  1.00  0.00     0.166 HD
HETATM    5  C3  UNL     1     -11.089  13.066  30.976  1.00  0.00     0.019 A 
HETATM    6  C4  UNL     1     -11.710  11.734  30.812  1.00  0.00     0.069 C 
HETATM    7  C5  UNL     1     -10.194  13.675  29.993  1.00  0.00     0.023 A 
HETATM    8  C6  UNL     1      -9.843  14.897  30.521  1.00  0.00     0.071 A 
HETATM    9  N2  UNL     1      -9.008  15.494  29.630  1.00  0.00    -0.355 N 
ATOM     10  H2  UNL     1      -8.591  16.416  29.765  1.00  0.00     0.166 HD
HETATM   11  C7  UNL     1      -8.802  14.729  28.559  1.00  0.00     0.045 A 
HETATM   12  C13 UNL     1      -9.552  13.568  28.779  1.00  0.00    -0.018 A 
ENDROOT
BRANCH  11  13
HETATM   13  C8  UNL     1      -7.952  15.014  27.386  1.00  0.00     0.330 C 
BRANCH  13  14
HETATM   14  N3  UNL     1      -8.696  15.822  26.438  1.00  0.00     0.097 N 
HETATM   15  C9  UNL     1      -7.809  16.937  26.088  1.00  0.00     0.300 C 
HETATM   16  C10 UNL     1      -8.300  17.700  24.893  1.00  0.00     0.262 C 
HETATM   17  N4  UNL     1      -8.473  16.848  23.731  1.00  0.00    -0.072 N 
HETATM   18  C11 UNL     1      -8.125  15.475  24.058  1.00  0.00     0.262 C 
ATOM     19  H42 UNL     1      -9.414  16.920  23.342  1.00  0.00     0.277 HD
ATOM     20  H41 UNL     1      -7.951  17.192  22.925  1.00  0.00     0.277 HD
HETATM   21  C12 UNL     1      -8.983  15.049  25.227  1.00  0.00     0.300 C 
ENDBRANCH  13  14
ENDBRANCH  11  13
BRANCH  12  22
HETATM   22  C14 UNL     1      -9.654  12.418  27.881  1.00  0.00     0.069 C 
BRANCH  22  23
HETATM   23  C15 UNL     1      -8.960  11.169  28.388  1.00  0.00     0.237 C 
BRANCH  23  24
HETATM   24  N5  UNL     1      -7.713  10.989  27.672  1.00  0.00    -0.071 N 
ATOM     25  H52 UNL     1      -7.764  10.181  27.052  1.00  0.00     0.277 HD
ATOM     26  H51 UNL     1      -7.583  11.725  26.978  1.00  0.00     0.277 HD
BRANCH  24  27
HETATM   27  C16 UNL     1      -6.578  10.898  28.533  1.00  0.00     0.177 C 
HETATM   28  C17 UNL     1      -7.023  10.754  29.971  1.00  0.00     0.039 C 
HETATM   29  C18 UNL     1      -5.804  12.210  28.430  1.00  0.00     0.039 C 
ENDBRANCH  24  27
ENDBRANCH  23  24
ENDBRANCH  22  23
ENDBRANCH  12  22
TORSDOF 6
ENDMDL
MODEL 5
REMARK VINA RESULT: -5.564714308      1.452      4.467
REMARK  6 active torsions:
REMARK  status: ('A' for Active; 'I' for Inactive)
REMARK    1  A    between atoms: C7_11  and  C8_12 
REMARK    2  A    between atoms: C8_12  and  N3_13 
REMARK    3  A    between atoms: C13_21  and  C14_22 
REMARK    4  A    between atoms: C14_22  and  C15_23 
REMARK    5  A    between atoms: C15_23  and  N5_24 
REMARK    6  A    between atoms: N5_24  and  C16_27 
ROOT
HETATM    1  C1  UNL     1     -11.579  11.748  30.675  1.00  0.00     0.045 C 
HETATM    2  C2  UNL     1     -10.682  12.279  29.861  1.00  0.00     0.050 A 
HETATM    3  N1  UNL     1     -10.002  11.643  28.786  1.00  0.00    -0.358 N 
ATOM      4  H1  UNL     1     -10.121  10.673  28.498  1.00  0.00     0.166 HD
HETATM    5  C3  UNL     1      -9.210  12.500  28.238  1.00  0.00     0.019 A 
HETATM    6  C4  UNL     1      -8.329  12.221  27.084  1.00  0.00     0.069 C 
HETATM    7  C5  UNL     1      -9.292  13.799  28.906  1.00  0.00     0.023 A 
HETATM    8  C6  UNL     1     -10.216  13.637  29.914  1.00  0.00     0.071 A 
HETATM    9  N2  UNL     1     -10.319  14.829  30.558  1.00  0.00    -0.355 N 
ATOM     10  H2  UNL     1     -10.934  15.000  31.354  1.00  0.00     0.166 HD
HETATM   11  C7  UNL     1      -9.516  15.749  30.023  1.00  0.00     0.045 A 
HETATM   12  C13 UNL     1      -8.857  15.104  28.971  1.00  0.00    -0.018 A 
ENDROOT
BRANCH  11  13
HETATM   13  C8  UNL     1      -9.329  17.152  30.446  1.00  0.00     0.330 C 
BRANCH  13  14
HETATM   14  N3  UNL     1     -10.359  17.506  31.405  1.00  0.00     0.097 N 
HETATM   15  C9  UNL     1      -9.662  17.688  32.683  1.00  0.00     0.300 C 
HETATM   16  C10 UNL     1     -10.529  18.353  33.713  1.00  0.00     0.262 C 
HETATM   17  N4  UNL     1     -11.035  19.635  33.259  1.00  0.00    -0.072 N 
HETATM   18  C11 UNL     1     -10.559  19.917  31.915  1.00  0.00     0.262 C 
ATOM     19  H42 UNL     1     -12.051  19.688  33.322  1.00  0.00     0.277 HD
ATOM     20  H41 UNL     1     -10.805  20.386  33.910  1.00  0.00     0.277 HD
HETATM   21  C12 UNL     1     -10.990  18.772  31.026  1.00  0.00     0.300 C 
ENDBRANCH  13  14
ENDBRANCH  11  13
BRANCH  12  22
HETATM   22  C14 UNL     1      -7.868  15.699  28.072  1.00  0.00     0.069 C 
BRANCH  22  23
HETATM   23  C15 UNL     1      -8.465  16.436  26.890  1.00  0.00     0.237 C 
BRANCH  23  24
HETATM   24  N5  UNL     1      -8.522  15.546  25.749  1.00  0.00    -0.071 N 
ATOM     25  H52 UNL     1      -7.932  14.727  25.898  1.00  0.00     0.277 HD
ATOM     26  H51 UNL     1      -9.432  15.089  25.690  1.00  0.00     0.277 HD
BRANCH  24  27
HETATM   27  C16 UNL     1      -8.197  16.189  24.516  1.00  0.00     0.177 C 
HETATM   28  C17 UNL     1      -8.279  17.690  24.673  1.00  0.00     0.039 C 
HETATM   29  C18 UNL     1      -9.248  15.785  23.485  1.00  0.00     0.039 C 
ENDBRANCH  24  27
ENDBRANCH  23  24
ENDBRANCH  22  23
ENDBRANCH  12  22
TORSDOF 6
ENDMDL
