MODEL 1
REMARK VINA RESULT: -6.360807321      0.000      0.000
REMARK  15 active torsions:
REMARK  status: ('A' for Active; 'I' for Inactive)
REMARK    1  A    between atoms: N1_1  and  N2_4 
REMARK    2  A    between atoms: N2_4  and  C1_5 
REMARK    3  A    between atoms: C1_5  and  N3_6 
REMARK    4  A    between atoms: C1_5  and  C2_10 
REMARK    5  A    between atoms: N4_12  and  C4_13 
REMARK    6  A    between atoms: C6_15  and  C7_16 
REMARK    7  A    between atoms: C6_15  and  C8_19 
REMARK    8  A    between atoms: C7_16  and  O1_17 
REMARK    9  A    between atoms: C8_19  and  N5_20 
REMARK   10  A    between atoms: N5_20  and  C9_22 
REMARK   11  A    between atoms: C13_33  and  C14_34 
REMARK   12  A    between atoms: C15_38  and  C16_39 
REMARK   13  A    between atoms: C16_39  and  N10_40 
REMARK   14  A    between atoms: C16_39  and  C17_44 
REMARK   15  A    between atoms: C18_49  and  O6_50 
ROOT
HETATM    1  C9  UNL     1      31.952  29.718  24.340  1.00  0.00     0.131 C 
HETATM    2  N6  UNL     1      32.136  30.851  24.910  1.00  0.00    -0.337 N 
ATOM      3  H6  UNL     1      32.094  31.616  24.235  1.00  0.00     0.167 HD
HETATM    4  C10 UNL     1      32.380  31.333  26.216  1.00  0.00     0.108 A 
HETATM    5  C11 UNL     1      32.108  30.840  27.484  1.00  0.00     0.140 A 
HETATM    6  N7  UNL     1      32.467  31.518  28.566  1.00  0.00    -0.292 N 
ATOM      7  H7  UNL     1      32.267  31.155  29.498  1.00  0.00     0.172 HD
HETATM    8  C12 UNL     1      33.107  32.711  28.407  1.00  0.00     0.326 A 
HETATM    9  O2  UNL     1      33.454  33.366  29.428  1.00  0.00    -0.247 OA
HETATM   10  N8  UNL     1      33.383  33.213  27.190  1.00  0.00    -0.304 N 
ATOM     11  H8  UNL     1      33.864  34.109  27.112  1.00  0.00     0.171 HD
HETATM   12  C13 UNL     1      33.031  32.547  26.072  1.00  0.00     0.105 A 
HETATM   13  N9  UNL     1      31.456  29.632  27.900  1.00  0.00    -0.328 N 
ATOM     14  H9  UNL     1      31.090  29.681  28.851  1.00  0.00     0.169 HD
HETATM   15  C15 UNL     1      31.237  28.511  27.335  1.00  0.00     0.122 C 
HETATM   16  N11 UNL     1      31.548  27.993  26.057  1.00  0.00    -0.345 N 
ATOM     17  H11 UNL     1      31.489  26.977  26.120  1.00  0.00     0.163 HD
HETATM   18  C18 UNL     1      31.909  28.310  24.720  1.00  0.00     0.288 C 
ENDROOT
BRANCH   1  19
HETATM   19  N5  UNL     1      31.746  29.905  22.922  1.00  0.00    -0.353 N 
ATOM     20  H5  UNL     1      31.246  29.163  22.432  1.00  0.00     0.166 HD
BRANCH  19  21
HETATM   21  C8  UNL     1      32.164  31.003  22.146  1.00  0.00     0.102 C 
BRANCH  21  22
HETATM   22  C6  UNL     1      31.084  31.996  21.768  1.00  0.00     0.120 C 
HETATM   23  C5  UNL     1      29.917  31.200  21.175  1.00  0.00     0.100 C 
HETATM   24  C4  UNL     1      29.154  32.176  21.991  1.00  0.00     0.233 C 
HETATM   25  O7  UNL     1      30.254  32.358  22.808  1.00  0.00    -0.347 OA
BRANCH  24  26
HETATM   26  N4  UNL     1      28.002  31.607  22.695  1.00  0.00    -0.324 N 
HETATM   27  C3  UNL     1      26.744  31.952  22.503  1.00  0.00     0.123 A 
HETATM   28  C2  UNL     1      25.909  31.217  23.355  1.00  0.00     0.074 A 
HETATM   29  N12 UNL     1      26.755  30.426  24.051  1.00  0.00    -0.352 N 
HETATM   30  C19 UNL     1      28.035  30.664  23.648  1.00  0.00     0.185 A 
ATOM     31  H12 UNL     1      26.479  29.754  24.767  1.00  0.00     0.166 HD
BRANCH  28  32
HETATM   32  C1  UNL     1      24.436  31.264  23.498  1.00  0.00     0.345 C 
BRANCH  32  33
HETATM   33  N2  UNL     1      24.031  31.389  24.885  1.00  0.00    -0.108 NA
BRANCH  33  34
HETATM   34  N1  UNL     1      24.217  32.703  25.326  1.00  0.00    -0.346 N 
ATOM     35  H12 UNL     1      23.713  33.508  24.953  1.00  0.00     0.172 HD
ATOM     36  H11 UNL     1      24.920  32.731  26.064  1.00  0.00     0.172 HD
ENDBRANCH  33  34
ENDBRANCH  32  33
BRANCH  32  37
HETATM   37  N3  UNL     1      23.913  32.465  22.828  1.00  0.00    -0.054 N 
ATOM     38  H33 UNL     1      23.215  32.968  23.375  1.00  0.00     0.276 HD
ATOM     39  H32 UNL     1      24.588  33.227  22.766  1.00  0.00     0.276 HD
ATOM     40  H31 UNL     1      23.572  32.144  21.922  1.00  0.00     0.276 HD
ENDBRANCH  32  37
ENDBRANCH  28  32
ENDBRANCH  24  26
BRANCH  22  41
HETATM   41  C7  UNL     1      31.522  33.125  20.860  1.00  0.00     0.208 C 
BRANCH  41  42
HETATM   42  O1  UNL     1      32.755  33.640  21.251  1.00  0.00    -0.398 OA
ATOM     43  H1  UNL     1      32.688  34.112  22.073  1.00  0.00     0.209 HD
ENDBRANCH  41  42
ENDBRANCH  22  41
ENDBRANCH  21  22
ENDBRANCH  19  21
ENDBRANCH   1  19
BRANCH  18  44
HETATM   44  O6  UNL     1      33.106  27.689  24.325  1.00  0.00    -0.369 OA
ATOM     45  H6  UNL     1      32.903  26.874  23.880  1.00  0.00     0.212 HD
ENDBRANCH  18  44
BRANCH  12  46
HETATM   46  C14 UNL     1      33.325  33.083  24.755  1.00  0.00     0.290 C 
HETATM   47  O3  UNL     1      32.627  34.010  24.278  1.00  0.00    -0.300 OA
ENDBRANCH  12  46
BRANCH  15  48
HETATM   48  C16 UNL     1      30.504  27.593  28.232  1.00  0.00     0.349 C 
BRANCH  48  49
HETATM   49  N10 UNL     1      29.702  26.660  27.458  1.00  0.00    -0.058 N 
ATOM     50 3H10 UNL     1      29.312  27.097  26.623  1.00  0.00     0.275 HD
ATOM     51 2H10 UNL     1      30.277  25.951  27.004  1.00  0.00     0.275 HD
ATOM     52 1H10 UNL     1      28.977  26.245  28.043  1.00  0.00     0.275 HD
ENDBRANCH  48  49
BRANCH  48  53
HETATM   53  C17 UNL     1      31.502  26.871  29.067  1.00  0.00     0.212 C 
HETATM   54  O4  UNL     1      32.695  26.835  28.621  1.00  0.00    -0.646 OA
HETATM   55  O5  UNL     1      31.150  26.280  30.251  1.00  0.00    -0.646 OA
ENDBRANCH  48  53
ENDBRANCH  15  48
TORSDOF 15
ENDMDL
MODEL 2
REMARK VINA RESULT: -6.305072299      0.827      1.319
REMARK  15 active torsions:
REMARK  status: ('A' for Active; 'I' for Inactive)
REMARK    1  A    between atoms: N1_1  and  N2_4 
REMARK    2  A    between atoms: N2_4  and  C1_5 
REMARK    3  A    between atoms: C1_5  and  N3_6 
REMARK    4  A    between atoms: C1_5  and  C2_10 
REMARK    5  A    between atoms: N4_12  and  C4_13 
REMARK    6  A    between atoms: C6_15  and  C7_16 
REMARK    7  A    between atoms: C6_15  and  C8_19 
REMARK    8  A    between atoms: C7_16  and  O1_17 
REMARK    9  A    between atoms: C8_19  and  N5_20 
REMARK   10  A    between atoms: N5_20  and  C9_22 
REMARK   11  A    between atoms: C13_33  and  C14_34 
REMARK   12  A    between atoms: C15_38  and  C16_39 
REMARK   13  A    between atoms: C16_39  and  N10_40 
REMARK   14  A    between atoms: C16_39  and  C17_44 
REMARK   15  A    between atoms: C18_49  and  O6_50 
ROOT
HETATM    1  C9  UNL     1      31.746  29.866  24.312  1.00  0.00     0.131 C 
HETATM    2  N6  UNL     1      32.011  30.967  24.914  1.00  0.00    -0.337 N 
ATOM      3  H6  UNL     1      31.966  31.759  24.272  1.00  0.00     0.167 HD
HETATM    4  C10 UNL     1      32.349  31.384  26.221  1.00  0.00     0.108 A 
HETATM    5  C11 UNL     1      32.127  30.851  27.483  1.00  0.00     0.140 A 
HETATM    6  N7  UNL     1      32.575  31.469  28.567  1.00  0.00    -0.292 N 
ATOM      7  H7  UNL     1      32.412  31.077  29.494  1.00  0.00     0.172 HD
HETATM    8  C12 UNL     1      33.258  32.639  28.418  1.00  0.00     0.326 A 
HETATM    9  O2  UNL     1      33.689  33.237  29.442  1.00  0.00    -0.247 OA
HETATM   10  N8  UNL     1      33.487  33.179  27.208  1.00  0.00    -0.304 N 
ATOM     11  H8  UNL     1      34.003  34.056  27.137  1.00  0.00     0.171 HD
HETATM   12  C13 UNL     1      33.045  32.575  26.087  1.00  0.00     0.105 A 
HETATM   13  N9  UNL     1      31.446  29.656  27.889  1.00  0.00    -0.328 N 
ATOM     14  H9  UNL     1      31.136  29.681  28.860  1.00  0.00     0.169 HD
HETATM   15  C15 UNL     1      31.146  28.569  27.294  1.00  0.00     0.122 C 
HETATM   16  N11 UNL     1      31.362  28.091  25.982  1.00  0.00    -0.345 N 
ATOM     17  H11 UNL     1      31.262  27.077  26.009  1.00  0.00     0.163 HD
HETATM   18  C18 UNL     1      31.663  28.447  24.639  1.00  0.00     0.288 C 
ENDROOT
BRANCH   1  19
HETATM   19  N5  UNL     1      31.470  30.120  22.917  1.00  0.00    -0.353 N 
ATOM     20  H5  UNL     1      30.597  29.743  22.548  1.00  0.00     0.166 HD
BRANCH  19  21
HETATM   21  C8  UNL     1      32.282  30.831  22.011  1.00  0.00     0.102 C 
BRANCH  21  22
HETATM   22  C6  UNL     1      31.674  32.090  21.426  1.00  0.00     0.120 C 
HETATM   23  C5  UNL     1      30.472  31.666  20.576  1.00  0.00     0.100 C 
HETATM   24  C4  UNL     1      29.896  32.869  21.225  1.00  0.00     0.233 C 
HETATM   25  O7  UNL     1      30.796  32.742  22.266  1.00  0.00    -0.347 OA
BRANCH  24  26
HETATM   26  N4  UNL     1      28.502  32.720  21.647  1.00  0.00    -0.324 N 
HETATM   27  C3  UNL     1      28.041  31.765  22.430  1.00  0.00     0.123 A 
HETATM   28  C2  UNL     1      26.660  31.920  22.616  1.00  0.00     0.074 A 
HETATM   29  N12 UNL     1      26.348  33.020  21.895  1.00  0.00    -0.352 N 
HETATM   30  C19 UNL     1      27.474  33.509  21.303  1.00  0.00     0.185 A 
ATOM     31  H12 UNL     1      25.415  33.422  21.808  1.00  0.00     0.166 HD
BRANCH  28  32
HETATM   32  C1  UNL     1      25.718  31.093  23.405  1.00  0.00     0.345 C 
BRANCH  32  33
HETATM   33  N2  UNL     1      26.400  30.035  24.125  1.00  0.00    -0.108 NA
BRANCH  33  34
HETATM   34  N1  UNL     1      25.468  29.182  24.726  1.00  0.00    -0.346 N 
ATOM     35  H12 UNL     1      24.964  28.446  24.230  1.00  0.00     0.172 HD
ATOM     36  H11 UNL     1      25.373  29.405  25.717  1.00  0.00     0.172 HD
ENDBRANCH  33  34
ENDBRANCH  32  33
BRANCH  32  37
HETATM   37  N3  UNL     1      25.081  31.923  24.439  1.00  0.00    -0.054 N 
ATOM     38  H33 UNL     1      25.291  31.625  25.391  1.00  0.00     0.276 HD
ATOM     39  H32 UNL     1      25.477  32.859  24.515  1.00  0.00     0.276 HD
ATOM     40  H31 UNL     1      24.085  31.916  24.217  1.00  0.00     0.276 HD
ENDBRANCH  32  37
ENDBRANCH  28  32
ENDBRANCH  24  26
BRANCH  22  41
HETATM   41  C7  UNL     1      32.627  32.982  20.660  1.00  0.00     0.208 C 
BRANCH  41  42
HETATM   42  O1  UNL     1      33.507  33.636  21.517  1.00  0.00    -0.398 OA
ATOM     43  H1  UNL     1      33.050  34.008  22.264  1.00  0.00     0.209 HD
ENDBRANCH  41  42
ENDBRANCH  22  41
ENDBRANCH  21  22
ENDBRANCH  19  21
ENDBRANCH   1  19
BRANCH  18  44
HETATM   44  O6  UNL     1      32.807  27.793  24.153  1.00  0.00    -0.369 OA
ATOM     45  H6  UNL     1      33.368  27.560  24.884  1.00  0.00     0.212 HD
ENDBRANCH  18  44
BRANCH  12  46
HETATM   46  C14 UNL     1      33.288  33.151  24.777  1.00  0.00     0.290 C 
HETATM   47  O3  UNL     1      32.604  34.123  24.375  1.00  0.00    -0.300 OA
ENDBRANCH  12  46
BRANCH  15  48
HETATM   48  C16 UNL     1      30.425  27.647  28.196  1.00  0.00     0.349 C 
BRANCH  48  49
HETATM   49  N10 UNL     1      29.589  26.738  27.429  1.00  0.00    -0.058 N 
ATOM     50 3H10 UNL     1      28.954  27.239  26.808  1.00  0.00     0.275 HD
ATOM     51 2H10 UNL     1      30.126  26.233  26.723  1.00  0.00     0.275 HD
ATOM     52 1H10 UNL     1      29.089  26.103  28.052  1.00  0.00     0.275 HD
ENDBRANCH  48  49
BRANCH  48  53
HETATM   53  C17 UNL     1      31.435  26.897  28.992  1.00  0.00     0.212 C 
HETATM   54  O4  UNL     1      32.607  26.828  28.500  1.00  0.00    -0.646 OA
HETATM   55  O5  UNL     1      31.113  26.317  30.190  1.00  0.00    -0.646 OA
ENDBRANCH  48  53
ENDBRANCH  15  48
TORSDOF 15
ENDMDL
MODEL 3
REMARK VINA RESULT: -6.300021939      3.903      9.194
REMARK  15 active torsions:
REMARK  status: ('A' for Active; 'I' for Inactive)
REMARK    1  A    between atoms: N1_1  and  N2_4 
REMARK    2  A    between atoms: N2_4  and  C1_5 
REMARK    3  A    between atoms: C1_5  and  N3_6 
REMARK    4  A    between atoms: C1_5  and  C2_10 
REMARK    5  A    between atoms: N4_12  and  C4_13 
REMARK    6  A    between atoms: C6_15  and  C7_16 
REMARK    7  A    between atoms: C6_15  and  C8_19 
REMARK    8  A    between atoms: C7_16  and  O1_17 
REMARK    9  A    between atoms: C8_19  and  N5_20 
REMARK   10  A    between atoms: N5_20  and  C9_22 
REMARK   11  A    between atoms: C13_33  and  C14_34 
REMARK   12  A    between atoms: C15_38  and  C16_39 
REMARK   13  A    between atoms: C16_39  and  N10_40 
REMARK   14  A    between atoms: C16_39  and  C17_44 
REMARK   15  A    between atoms: C18_49  and  O6_50 
ROOT
HETATM    1  C9  UNL     1      32.977  28.402  26.417  1.00  0.00     0.131 C 
HETATM    2  N6  UNL     1      32.406  28.651  25.297  1.00  0.00    -0.337 N 
ATOM      3  H6  UNL     1      31.996  27.807  24.895  1.00  0.00     0.167 HD
HETATM    4  C10 UNL     1      32.187  29.772  24.465  1.00  0.00     0.108 A 
HETATM    5  C11 UNL     1      32.126  31.139  24.698  1.00  0.00     0.140 A 
HETATM    6  N7  UNL     1      31.908  31.986  23.702  1.00  0.00    -0.292 N 
ATOM      7  H7  UNL     1      31.863  32.990  23.873  1.00  0.00     0.172 HD
HETATM    8  C12 UNL     1      31.745  31.488  22.444  1.00  0.00     0.326 A 
HETATM    9  O2  UNL     1      31.537  32.284  21.486  1.00  0.00    -0.247 OA
HETATM   10  N8  UNL     1      31.800  30.169  22.189  1.00  0.00    -0.304 N 
ATOM     11  H8  UNL     1      31.674  29.835  21.233  1.00  0.00     0.171 HD
HETATM   12  C13 UNL     1      32.019  29.283  23.180  1.00  0.00     0.105 A 
HETATM   13  N9  UNL     1      32.261  31.889  25.913  1.00  0.00    -0.328 N 
ATOM     14  H9  UNL     1      31.840  32.817  25.861  1.00  0.00     0.169 HD
HETATM   15  C15 UNL     1      32.796  31.644  27.044  1.00  0.00     0.122 C 
HETATM   16  N11 UNL     1      33.480  30.525  27.569  1.00  0.00    -0.345 N 
ATOM     17  H11 UNL     1      34.018  30.849  28.372  1.00  0.00     0.163 HD
HETATM   18  C18 UNL     1      33.724  29.131  27.436  1.00  0.00     0.288 C 
ENDROOT
BRANCH   1  19
HETATM   19  N5  UNL     1      32.848  26.999  26.738  1.00  0.00    -0.353 N 
ATOM     20  H5  UNL     1      33.243  26.339  26.067  1.00  0.00     0.166 HD
BRANCH  19  21
HETATM   21  C8  UNL     1      32.234  26.447  27.879  1.00  0.00     0.102 C 
BRANCH  21  22
HETATM   22  C6  UNL     1      33.134  25.634  28.787  1.00  0.00     0.120 C 
HETATM   23  C5  UNL     1      32.789  24.157  28.573  1.00  0.00     0.100 C 
HETATM   24  C4  UNL     1      34.267  24.052  28.649  1.00  0.00     0.233 C 
HETATM   25  O7  UNL     1      34.384  25.375  28.266  1.00  0.00    -0.347 OA
BRANCH  24  26
HETATM   26  N4  UNL     1      34.857  23.120  27.685  1.00  0.00    -0.324 N 
HETATM   27  C3  UNL     1      34.848  23.270  26.375  1.00  0.00     0.123 A 
HETATM   28  C2  UNL     1      35.488  22.185  25.762  1.00  0.00     0.074 A 
HETATM   29  N12 UNL     1      35.869  21.397  26.793  1.00  0.00    -0.352 N 
HETATM   30  C19 UNL     1      35.483  21.969  27.968  1.00  0.00     0.185 A 
ATOM     31  H12 UNL     1      36.368  20.512  26.704  1.00  0.00     0.166 HD
BRANCH  28  32
HETATM   32  C1  UNL     1      35.716  21.917  24.324  1.00  0.00     0.345 C 
BRANCH  32  33
HETATM   33  N2  UNL     1      36.328  23.047  23.653  1.00  0.00    -0.108 NA
BRANCH  33  34
HETATM   34  N1  UNL     1      37.704  23.069  23.903  1.00  0.00    -0.346 N 
ATOM     35  H12 UNL     1      38.134  22.731  24.764  1.00  0.00     0.172 HD
ATOM     36  H11 UNL     1      38.201  23.468  23.106  1.00  0.00     0.172 HD
ENDBRANCH  33  34
ENDBRANCH  32  33
BRANCH  32  37
HETATM   37  N3  UNL     1      36.671  20.808  24.173  1.00  0.00    -0.054 N 
ATOM     38  H33 UNL     1      36.795  20.502  23.208  1.00  0.00     0.276 HD
ATOM     39  H32 UNL     1      37.640  21.076  24.341  1.00  0.00     0.276 HD
ATOM     40  H31 UNL     1      36.335  20.073  24.796  1.00  0.00     0.276 HD
ENDBRANCH  32  37
ENDBRANCH  28  32
ENDBRANCH  24  26
BRANCH  22  41
HETATM   41  C7  UNL     1      33.105  26.020  30.250  1.00  0.00     0.208 C 
BRANCH  41  42
HETATM   42  O1  UNL     1      31.799  26.126  30.721  1.00  0.00    -0.398 OA
ATOM     43  H1  UNL     1      31.468  27.012  30.623  1.00  0.00     0.209 HD
ENDBRANCH  41  42
ENDBRANCH  22  41
ENDBRANCH  21  22
ENDBRANCH  19  21
ENDBRANCH   1  19
BRANCH  18  44
HETATM   44  O6  UNL     1      35.092  28.835  27.306  1.00  0.00    -0.369 OA
ATOM     45  H6  UNL     1      35.438  29.289  26.546  1.00  0.00     0.212 HD
ENDBRANCH  18  44
BRANCH  12  46
HETATM   46  C14 UNL     1      32.079  27.857  22.913  1.00  0.00     0.290 C 
HETATM   47  O3  UNL     1      33.186  27.281  22.786  1.00  0.00    -0.300 OA
ENDBRANCH  12  46
BRANCH  15  48
HETATM   48  C16 UNL     1      32.648  32.790  27.965  1.00  0.00     0.349 C 
BRANCH  48  49
HETATM   49  N10 UNL     1      31.840  32.416  29.114  1.00  0.00    -0.058 N 
ATOM     50 3H10 UNL     1      31.051  31.827  28.847  1.00  0.00     0.275 HD
ATOM     51 2H10 UNL     1      32.325  31.754  29.720  1.00  0.00     0.275 HD
ATOM     52 1H10 UNL     1      31.538  33.247  29.622  1.00  0.00     0.275 HD
ENDBRANCH  48  49
BRANCH  48  53
HETATM   53  C17 UNL     1      34.009  33.218  28.389  1.00  0.00     0.212 C 
HETATM   54  O4  UNL     1      34.430  32.755  29.499  1.00  0.00    -0.646 OA
HETATM   55  O5  UNL     1      34.764  34.064  27.621  1.00  0.00    -0.646 OA
ENDBRANCH  48  53
ENDBRANCH  15  48
TORSDOF 15
ENDMDL
MODEL 4
REMARK VINA RESULT: -6.282777791      2.110      3.428
REMARK  15 active torsions:
REMARK  status: ('A' for Active; 'I' for Inactive)
REMARK    1  A    between atoms: N1_1  and  N2_4 
REMARK    2  A    between atoms: N2_4  and  C1_5 
REMARK    3  A    between atoms: C1_5  and  N3_6 
REMARK    4  A    between atoms: C1_5  and  C2_10 
REMARK    5  A    between atoms: N4_12  and  C4_13 
REMARK    6  A    between atoms: C6_15  and  C7_16 
REMARK    7  A    between atoms: C6_15  and  C8_19 
REMARK    8  A    between atoms: C7_16  and  O1_17 
REMARK    9  A    between atoms: C8_19  and  N5_20 
REMARK   10  A    between atoms: N5_20  and  C9_22 
REMARK   11  A    between atoms: C13_33  and  C14_34 
REMARK   12  A    between atoms: C15_38  and  C16_39 
REMARK   13  A    between atoms: C16_39  and  N10_40 
REMARK   14  A    between atoms: C16_39  and  C17_44 
REMARK   15  A    between atoms: C18_49  and  O6_50 
ROOT
HETATM    1  C9  UNL     1      32.145  29.703  24.166  1.00  0.00     0.131 C 
HETATM    2  N6  UNL     1      32.140  30.664  25.014  1.00  0.00    -0.337 N 
ATOM      3  H6  UNL     1      31.556  31.437  24.694  1.00  0.00     0.167 HD
HETATM    4  C10 UNL     1      32.721  30.947  26.271  1.00  0.00     0.108 A 
HETATM    5  C11 UNL     1      33.195  30.154  27.307  1.00  0.00     0.140 A 
HETATM    6  N7  UNL     1      33.709  30.703  28.399  1.00  0.00    -0.292 N 
ATOM      7  H7  UNL     1      34.058  30.119  29.159  1.00  0.00     0.172 HD
HETATM    8  C12 UNL     1      33.762  32.061  28.485  1.00  0.00     0.326 A 
HETATM    9  O2  UNL     1      34.249  32.596  29.519  1.00  0.00    -0.247 OA
HETATM   10  N8  UNL     1      33.310  32.855  27.497  1.00  0.00    -0.304 N 
ATOM     11  H8  UNL     1      33.368  33.868  27.599  1.00  0.00     0.171 HD
HETATM   12  C13 UNL     1      32.782  32.327  26.375  1.00  0.00     0.105 A 
HETATM   13  N9  UNL     1      33.244  28.727  27.447  1.00  0.00    -0.328 N 
ATOM     14  H9  UNL     1      33.316  28.422  28.418  1.00  0.00     0.169 HD
HETATM   15  C15 UNL     1      33.217  27.760  26.618  1.00  0.00     0.122 C 
HETATM   16  N11 UNL     1      33.127  27.694  25.209  1.00  0.00    -0.345 N 
ATOM     17  H11 UNL     1      33.459  26.772  24.927  1.00  0.00     0.163 HD
HETATM   18  C18 UNL     1      32.761  28.389  24.024  1.00  0.00     0.288 C 
ENDROOT
BRANCH   1  19
HETATM   19  N5  UNL     1      31.316  30.040  23.032  1.00  0.00    -0.353 N 
ATOM     20  H5  UNL     1      31.044  29.270  22.420  1.00  0.00     0.166 HD
BRANCH  19  21
HETATM   21  C8  UNL     1      30.844  31.321  22.681  1.00  0.00     0.102 C 
BRANCH  21  22
HETATM   22  C6  UNL     1      29.371  31.574  22.928  1.00  0.00     0.120 C 
HETATM   23  C5  UNL     1      28.599  30.382  22.353  1.00  0.00     0.100 C 
HETATM   24  C4  UNL     1      27.835  30.581  23.609  1.00  0.00     0.233 C 
HETATM   25  O7  UNL     1      28.931  31.201  24.181  1.00  0.00    -0.347 OA
BRANCH  24  26
HETATM   26  N4  UNL     1      27.456  29.340  24.289  1.00  0.00    -0.324 N 
HETATM   27  C3  UNL     1      28.291  28.511  24.884  1.00  0.00     0.123 A 
HETATM   28  C2  UNL     1      27.589  27.422  25.417  1.00  0.00     0.074 A 
HETATM   29  N12 UNL     1      26.299  27.667  25.096  1.00  0.00    -0.352 N 
HETATM   30  C19 UNL     1      26.218  28.840  24.407  1.00  0.00     0.185 A 
ATOM     31  H12 UNL     1      25.509  27.068  25.333  1.00  0.00     0.166 HD
BRANCH  28  32
HETATM   32  C1  UNL     1      28.098  26.248  26.162  1.00  0.00     0.345 C 
BRANCH  32  33
HETATM   33  N2  UNL     1      29.186  26.602  27.052  1.00  0.00    -0.108 NA
BRANCH  33  34
HETATM   34  N1  UNL     1      29.955  25.472  27.349  1.00  0.00    -0.346 N 
ATOM     35  H12 UNL     1      29.783  24.545  26.959  1.00  0.00     0.172 HD
ATOM     36  H11 UNL     1      30.700  25.714  28.003  1.00  0.00     0.172 HD
ENDBRANCH  33  34
ENDBRANCH  32  33
BRANCH  32  37
HETATM   37  N3  UNL     1      27.037  25.717  27.032  1.00  0.00    -0.054 N 
ATOM     38  H33 UNL     1      26.931  24.704  26.978  1.00  0.00     0.276 HD
ATOM     39  H32 UNL     1      27.261  25.761  28.026  1.00  0.00     0.276 HD
ATOM     40  H31 UNL     1      26.194  26.232  26.778  1.00  0.00     0.276 HD
ENDBRANCH  32  37
ENDBRANCH  28  32
ENDBRANCH  24  26
BRANCH  22  41
HETATM   41  C7  UNL     1      28.840  32.896  22.418  1.00  0.00     0.208 C 
BRANCH  41  42
HETATM   42  O1  UNL     1      29.191  33.943  23.266  1.00  0.00    -0.398 OA
ATOM     43  H1  UNL     1      29.138  34.781  22.821  1.00  0.00     0.209 HD
ENDBRANCH  41  42
ENDBRANCH  22  41
ENDBRANCH  21  22
ENDBRANCH  19  21
ENDBRANCH   1  19
BRANCH  18  44
HETATM   44  O6  UNL     1      33.818  28.471  23.101  1.00  0.00    -0.369 OA
ATOM     45  H6  UNL     1      33.658  27.863  22.388  1.00  0.00     0.212 HD
ENDBRANCH  18  44
BRANCH  12  46
HETATM   46  C14 UNL     1      32.291  33.176  25.305  1.00  0.00     0.290 C 
HETATM   47  O3  UNL     1      31.110  33.596  25.320  1.00  0.00    -0.300 OA
ENDBRANCH  12  46
BRANCH  15  48
HETATM   48  C16 UNL     1      33.298  26.457  27.311  1.00  0.00     0.349 C 
BRANCH  48  49
HETATM   49  N10 UNL     1      34.574  25.816  27.039  1.00  0.00    -0.058 N 
ATOM     50 3H10 UNL     1      35.141  25.725  27.882  1.00  0.00     0.275 HD
ATOM     51 2H10 UNL     1      34.463  24.826  26.823  1.00  0.00     0.275 HD
ATOM     52 1H10 UNL     1      35.070  26.313  26.299  1.00  0.00     0.275 HD
ENDBRANCH  48  49
BRANCH  48  53
HETATM   53  C17 UNL     1      33.126  26.701  28.769  1.00  0.00     0.212 C 
HETATM   54  O4  UNL     1      34.192  26.865  29.447  1.00  0.00    -0.646 OA
HETATM   55  O5  UNL     1      31.884  26.747  29.345  1.00  0.00    -0.646 OA
ENDBRANCH  48  53
ENDBRANCH  15  48
TORSDOF 15
ENDMDL
MODEL 5
REMARK VINA RESULT: -6.275387082      2.963      6.955
REMARK  15 active torsions:
REMARK  status: ('A' for Active; 'I' for Inactive)
REMARK    1  A    between atoms: N1_1  and  N2_4 
REMARK    2  A    between atoms: N2_4  and  C1_5 
REMARK    3  A    between atoms: C1_5  and  N3_6 
REMARK    4  A    between atoms: C1_5  and  C2_10 
REMARK    5  A    between atoms: N4_12  and  C4_13 
REMARK    6  A    between atoms: C6_15  and  C7_16 
REMARK    7  A    between atoms: C6_15  and  C8_19 
REMARK    8  A    between atoms: C7_16  and  O1_17 
REMARK    9  A    between atoms: C8_19  and  N5_20 
REMARK   10  A    between atoms: N5_20  and  C9_22 
REMARK   11  A    between atoms: C13_33  and  C14_34 
REMARK   12  A    between atoms: C15_38  and  C16_39 
REMARK   13  A    between atoms: C16_39  and  N10_40 
REMARK   14  A    between atoms: C16_39  and  C17_44 
REMARK   15  A    between atoms: C18_49  and  O6_50 
ROOT
HETATM    1  C9  UNL     1      30.745  31.746  25.258  1.00  0.00     0.131 C 
HETATM    2  N6  UNL     1      31.507  31.406  24.285  1.00  0.00    -0.337 N 
ATOM      3  H6  UNL     1      32.339  31.994  24.244  1.00  0.00     0.167 HD
HETATM    4  C10 UNL     1      31.511  30.440  23.254  1.00  0.00     0.108 A 
HETATM    5  C11 UNL     1      30.916  29.195  23.106  1.00  0.00     0.140 A 
HETATM    6  N7  UNL     1      31.089  28.489  21.997  1.00  0.00    -0.292 N 
ATOM      7  H7  UNL     1      30.652  27.574  21.889  1.00  0.00     0.172 HD
HETATM    8  C12 UNL     1      31.863  29.011  21.005  1.00  0.00     0.326 A 
HETATM    9  O2  UNL     1      32.036  28.349  19.944  1.00  0.00    -0.247 OA
HETATM   10  N8  UNL     1      32.451  30.215  21.120  1.00  0.00    -0.304 N 
ATOM     11  H8  UNL     1      33.023  30.571  20.354  1.00  0.00     0.171 HD
HETATM   12  C13 UNL     1      32.295  30.956  22.234  1.00  0.00     0.105 A 
HETATM   13  N9  UNL     1      30.075  28.447  23.996  1.00  0.00    -0.328 N 
ATOM     14  H9  UNL     1      30.064  27.448  23.792  1.00  0.00     0.169 HD
HETATM   15  C15 UNL     1      29.339  28.765  24.986  1.00  0.00     0.122 C 
HETATM   16  N11 UNL     1      29.046  29.993  25.620  1.00  0.00    -0.345 N 
ATOM     17  H11 UNL     1      28.183  29.863  26.148  1.00  0.00     0.163 HD
HETATM   18  C18 UNL     1      29.464  31.337  25.824  1.00  0.00     0.288 C 
ENDROOT
BRANCH   1  19
HETATM   19  N5  UNL     1      31.325  32.857  25.976  1.00  0.00    -0.353 N 
ATOM     20  H5  UNL     1      31.534  33.694  25.431  1.00  0.00     0.166 HD
BRANCH  19  21
HETATM   21  C8  UNL     1      31.634  32.907  27.350  1.00  0.00     0.102 C 
BRANCH  21  22
HETATM   22  C6  UNL     1      32.957  32.289  27.754  1.00  0.00     0.120 C 
HETATM   23  C5  UNL     1      32.646  31.072  28.630  1.00  0.00     0.100 C 
HETATM   24  C4  UNL     1      33.754  30.509  27.819  1.00  0.00     0.233 C 
HETATM   25  O7  UNL     1      33.492  31.428  26.819  1.00  0.00    -0.347 OA
BRANCH  24  26
HETATM   26  N4  UNL     1      33.548  29.122  27.393  1.00  0.00    -0.324 N 
HETATM   27  C3  UNL     1      33.678  28.061  28.165  1.00  0.00     0.123 A 
HETATM   28  C2  UNL     1      33.422  26.897  27.428  1.00  0.00     0.074 A 
HETATM   29  N12 UNL     1      33.134  27.345  26.186  1.00  0.00    -0.352 N 
HETATM   30  C19 UNL     1      33.212  28.706  26.164  1.00  0.00     0.185 A 
ATOM     31  H12 UNL     1      32.897  26.756  25.388  1.00  0.00     0.166 HD
BRANCH  28  32
HETATM   32  C1  UNL     1      33.450  25.482  27.865  1.00  0.00     0.345 C 
BRANCH  32  33
HETATM   33  N2  UNL     1      34.262  25.299  29.052  1.00  0.00    -0.108 NA
BRANCH  33  34
HETATM   34  N1  UNL     1      33.514  24.678  30.058  1.00  0.00    -0.346 N 
ATOM     35  H12 UNL     1      32.933  23.852  29.911  1.00  0.00     0.172 HD
ATOM     36  H11 UNL     1      33.636  25.170  30.943  1.00  0.00     0.172 HD
ENDBRANCH  33  34
ENDBRANCH  32  33
BRANCH  32  37
HETATM   37  N3  UNL     1      32.095  25.057  28.248  1.00  0.00    -0.054 N 
ATOM     38  H33 UNL     1      31.988  24.045  28.320  1.00  0.00     0.276 HD
ATOM     39  H32 UNL     1      31.855  25.273  29.215  1.00  0.00     0.276 HD
ATOM     40  H31 UNL     1      31.471  25.487  27.565  1.00  0.00     0.276 HD
ENDBRANCH  32  37
ENDBRANCH  28  32
ENDBRANCH  24  26
BRANCH  22  41
HETATM   41  C7  UNL     1      33.943  33.229  28.413  1.00  0.00     0.208 C 
BRANCH  41  42
HETATM   42  O1  UNL     1      33.513  33.604  29.683  1.00  0.00    -0.398 OA
ATOM     43  H1  UNL     1      33.966  34.383  29.985  1.00  0.00     0.209 HD
ENDBRANCH  41  42
ENDBRANCH  22  41
ENDBRANCH  21  22
ENDBRANCH  19  21
ENDBRANCH   1  19
BRANCH  18  44
HETATM   44  O6  UNL     1      28.478  32.268  25.455  1.00  0.00    -0.369 OA
ATOM     45  H6  UNL     1      27.627  31.946  25.730  1.00  0.00     0.212 HD
ENDBRANCH  18  44
BRANCH  12  46
HETATM   46  C14 UNL     1      32.927  32.256  22.367  1.00  0.00     0.290 C 
HETATM   47  O3  UNL     1      32.259  33.305  22.204  1.00  0.00    -0.300 OA
ENDBRANCH  12  46
BRANCH  15  48
HETATM   48  C16 UNL     1      28.673  27.577  25.562  1.00  0.00     0.349 C 
BRANCH  48  49
HETATM   49  N10 UNL     1      28.159  26.723  24.505  1.00  0.00    -0.058 N 
ATOM     50 3H10 UNL     1      27.139  26.718  24.482  1.00  0.00     0.275 HD
ATOM     51 2H10 UNL     1      28.330  27.118  23.580  1.00  0.00     0.275 HD
ATOM     52 1H10 UNL     1      28.541  25.781  24.592  1.00  0.00     0.275 HD
ENDBRANCH  48  49
BRANCH  48  53
HETATM   53  C17 UNL     1      29.669  26.851  26.396  1.00  0.00     0.212 C 
HETATM   54  O4  UNL     1      30.424  26.026  25.789  1.00  0.00    -0.646 OA
HETATM   55  O5  UNL     1      29.763  27.067  27.746  1.00  0.00    -0.646 OA
ENDBRANCH  48  53
ENDBRANCH  15  48
TORSDOF 15
ENDMDL
