MODEL 1
REMARK VINA RESULT: -6.418094897      0.000      0.000
REMARK  18 active torsions:
REMARK  status: ('A' for Active; 'I' for Inactive)
REMARK    1  A    between atoms: C2_2  and  O1_3 
REMARK    2  A    between atoms: O1_3  and  C3_4 
REMARK    3  A    between atoms: C3_4  and  C4_6 
REMARK    4  A    between atoms: C4_6  and  N1_7 
REMARK    5  A    between atoms: C4_6  and  C15_33 
REMARK    6  A    between atoms: N1_7  and  C5_9 
REMARK    7  A    between atoms: C6_10  and  N2_11 
REMARK    8  A    between atoms: N2_11  and  C7_13 
REMARK    9  A    between atoms: C7_13  and  O3_15 
REMARK   10  A    between atoms: C9_17  and  O4_18 
REMARK   11  A    between atoms: C11_21  and  O5_23 
REMARK   12  A    between atoms: C13_25  and  C14_26 
REMARK   13  A    between atoms: C14_26  and  N3_27 
REMARK   14  A    between atoms: C14_26  and  O6_31 
REMARK   15  A    between atoms: C17_35  and  N4_36 
REMARK   16  A    between atoms: C18_40  and  N5_41 
REMARK   17  A    between atoms: C20_45  and  N7_46 
REMARK   18  A    between atoms: C21_49  and  O7_50 
ROOT
HETATM    1  C4  UNL     1      32.937  30.166  26.158  1.00  0.00     0.208 C 
ENDROOT
BRANCH   1   2
HETATM    2  C3  UNL     1      33.507  31.033  27.274  1.00  0.00     0.283 C 
HETATM    3  O2  UNL     1      34.163  30.476  28.173  1.00  0.00    -0.263 OA
BRANCH   2   4
HETATM    4  O1  UNL     1      33.324  32.392  27.316  1.00  0.00    -0.320 OA
BRANCH   4   5
HETATM    5  C2  UNL     1      33.492  33.121  28.536  1.00  0.00     0.174 C 
HETATM    6  C1  UNL     1      32.213  33.161  29.321  1.00  0.00     0.034 C 
ENDBRANCH   4   5
ENDBRANCH   2   4
ENDBRANCH   1   2
BRANCH   1   7
HETATM    7  N1  UNL     1      32.059  30.948  25.432  1.00  0.00    -0.400 N 
ATOM      8  H1  UNL     1      31.299  31.408  25.932  1.00  0.00     0.154 HD
BRANCH   7   9
HETATM    9  C5  UNL     1      32.155  31.145  24.044  1.00  0.00     0.113 C 
HETATM   10  C6  UNL     1      30.792  31.095  23.394  1.00  0.00     0.130 C 
HETATM   11  C9  UNL     1      30.407  32.175  22.484  1.00  0.00     0.145 C 
HETATM   12  C10 UNL     1      31.513  32.911  21.777  1.00  0.00     0.071 C 
HETATM   13  C11 UNL     1      32.871  32.383  22.100  1.00  0.00     0.066 C 
HETATM   14  C12 UNL     1      33.895  33.257  21.428  1.00  0.00     0.046 C 
HETATM   15  C13 UNL     1      33.066  32.246  23.603  1.00  0.00     0.100 C 
BRANCH  10  16
HETATM   16  N2  UNL     1      29.787  30.989  24.452  1.00  0.00    -0.388 N 
ATOM     17  H2  UNL     1      29.978  31.262  25.417  1.00  0.00     0.156 HD
BRANCH  16  18
HETATM   18  C7  UNL     1      28.527  30.480  24.042  1.00  0.00     0.209 C 
HETATM   19  C8  UNL     1      28.173  29.198  24.805  1.00  0.00     0.062 C 
BRANCH  18  20
HETATM   20  O3  UNL     1      27.561  31.424  24.493  1.00  0.00    -0.378 OA
ATOM     21  H3  UNL     1      27.211  31.070  25.302  1.00  0.00     0.212 HD
ENDBRANCH  18  20
ENDBRANCH  16  18
ENDBRANCH  10  16
BRANCH  11  22
HETATM   22  O4  UNL     1      29.482  33.106  23.018  1.00  0.00    -0.393 OA
ATOM     23  H4  UNL     1      28.844  33.438  22.398  1.00  0.00     0.210 HD
ENDBRANCH  11  22
BRANCH  13  24
HETATM   24  O5  UNL     1      32.953  31.109  21.496  1.00  0.00    -0.390 OA
ATOM     25  H5  UNL     1      32.395  31.143  20.728  1.00  0.00     0.210 HD
ENDBRANCH  13  24
BRANCH  15  26
HETATM   26  C14 UNL     1      32.937  33.547  24.262  1.00  0.00     0.325 C 
BRANCH  26  27
HETATM   27  N3  UNL     1      34.148  33.935  24.967  1.00  0.00    -0.052 N 
ATOM     28  H33 UNL     1      34.976  33.547  24.516  1.00  0.00     0.277 HD
ATOM     29  H32 UNL     1      34.343  34.928  24.842  1.00  0.00     0.277 HD
ATOM     30  H31 UNL     1      34.119  33.689  25.956  1.00  0.00     0.277 HD
ENDBRANCH  26  27
BRANCH  26  31
HETATM   31  O6  UNL     1      31.902  33.739  25.140  1.00  0.00    -0.369 OA
ATOM     32  H6  UNL     1      32.103  34.010  26.028  1.00  0.00     0.212 HD
ENDBRANCH  26  31
ENDBRANCH  15  26
ENDBRANCH   7   9
ENDBRANCH   1   7
BRANCH   1  33
HETATM   33  C15 UNL     1      32.523  28.927  26.827  1.00  0.00     0.222 C 
HETATM   34  C16 UNL     1      31.259  28.265  26.402  1.00  0.00     0.072 C 
HETATM   35  C17 UNL     1      31.390  26.888  27.091  1.00  0.00     0.237 C 
HETATM   36  C18 UNL     1      32.666  26.995  27.859  1.00  0.00     0.338 C 
HETATM   37  N9  UNL     1      33.466  27.847  26.933  1.00  0.00    -0.044 N 
ATOM     38  H92 UNL     1      33.778  27.418  26.062  1.00  0.00     0.280 HD
ATOM     39  H91 UNL     1      34.414  28.085  27.224  1.00  0.00     0.280 HD
BRANCH  35  40
HETATM   40  N4  UNL     1      30.278  26.756  28.022  1.00  0.00    -0.071 N 
ATOM     41  H43 UNL     1      30.326  27.420  28.794  1.00  0.00     0.274 HD
ATOM     42  H42 UNL     1      29.392  27.071  27.628  1.00  0.00     0.274 HD
ATOM     43  H41 UNL     1      30.253  25.785  28.333  1.00  0.00     0.274 HD
ENDBRANCH  35  40
BRANCH  36  44
HETATM   44  N5  UNL     1      33.325  25.794  28.218  1.00  0.00    -0.252 N 
HETATM   45  C19 UNL     1      33.196  25.240  29.409  1.00  0.00     0.204 A 
HETATM   46  N6  UNL     1      33.844  24.092  29.768  1.00  0.00    -0.334 N 
HETATM   47  C20 UNL     1      34.651  23.476  28.888  1.00  0.00     0.153 A 
ATOM     48  H6  UNL     1      33.714  23.703  30.701  1.00  0.00     0.168 HD
HETATM   49  C21 UNL     1      34.782  24.057  27.643  1.00  0.00     0.200 A 
HETATM   50  N8  UNL     1      34.126  25.190  27.330  1.00  0.00    -0.272 N 
ATOM     51  H8  UNL     1      34.242  25.595  26.401  1.00  0.00     0.189 HD
BRANCH  47  52
HETATM   52  N7  UNL     1      35.282  22.390  29.190  1.00  0.00    -0.382 N 
ATOM     53  H72 UNL     1      35.679  22.251  30.119  1.00  0.00     0.157 HD
ATOM     54  H71 UNL     1      35.404  21.636  28.515  1.00  0.00     0.157 HD
ENDBRANCH  47  52
BRANCH  49  55
HETATM   55  O7  UNL     1      35.619  23.414  26.736  1.00  0.00    -0.342 OA
ATOM     56  H7  UNL     1      35.412  23.516  25.814  1.00  0.00     0.219 HD
ENDBRANCH  49  55
ENDBRANCH  36  44
ENDBRANCH   1  33
TORSDOF 18
ENDMDL
MODEL 2
REMARK VINA RESULT: -6.363138824      2.556      7.996
REMARK  18 active torsions:
REMARK  status: ('A' for Active; 'I' for Inactive)
REMARK    1  A    between atoms: C2_2  and  O1_3 
REMARK    2  A    between atoms: O1_3  and  C3_4 
REMARK    3  A    between atoms: C3_4  and  C4_6 
REMARK    4  A    between atoms: C4_6  and  N1_7 
REMARK    5  A    between atoms: C4_6  and  C15_33 
REMARK    6  A    between atoms: N1_7  and  C5_9 
REMARK    7  A    between atoms: C6_10  and  N2_11 
REMARK    8  A    between atoms: N2_11  and  C7_13 
REMARK    9  A    between atoms: C7_13  and  O3_15 
REMARK   10  A    between atoms: C9_17  and  O4_18 
REMARK   11  A    between atoms: C11_21  and  O5_23 
REMARK   12  A    between atoms: C13_25  and  C14_26 
REMARK   13  A    between atoms: C14_26  and  N3_27 
REMARK   14  A    between atoms: C14_26  and  O6_31 
REMARK   15  A    between atoms: C17_35  and  N4_36 
REMARK   16  A    between atoms: C18_40  and  N5_41 
REMARK   17  A    between atoms: C20_45  and  N7_46 
REMARK   18  A    between atoms: C21_49  and  O7_50 
ROOT
HETATM    1  C4  UNL     1      31.553  29.639  26.601  1.00  0.00     0.208 C 
ENDROOT
BRANCH   1   2
HETATM    2  C3  UNL     1      32.934  30.262  26.439  1.00  0.00     0.283 C 
HETATM    3  O2  UNL     1      33.791  29.629  25.795  1.00  0.00    -0.263 OA
BRANCH   2   4
HETATM    4  O1  UNL     1      33.257  31.484  26.973  1.00  0.00    -0.320 OA
BRANCH   4   5
HETATM    5  C2  UNL     1      33.236  31.698  28.389  1.00  0.00     0.174 C 
HETATM    6  C1  UNL     1      32.168  32.681  28.769  1.00  0.00     0.034 C 
ENDBRANCH   4   5
ENDBRANCH   2   4
ENDBRANCH   1   2
BRANCH   1   7
HETATM    7  N1  UNL     1      31.705  28.267  26.535  1.00  0.00    -0.400 N 
ATOM      8  H1  UNL     1      31.978  27.856  25.643  1.00  0.00     0.154 HD
BRANCH   7   9
HETATM    9  C5  UNL     1      31.504  27.407  27.628  1.00  0.00     0.113 C 
HETATM   10  C6  UNL     1      30.804  26.139  27.199  1.00  0.00     0.130 C 
HETATM   11  C9  UNL     1      31.369  24.852  27.606  1.00  0.00     0.145 C 
HETATM   12  C10 UNL     1      32.195  24.825  28.863  1.00  0.00     0.071 C 
HETATM   13  C11 UNL     1      32.280  26.153  29.539  1.00  0.00     0.066 C 
HETATM   14  C12 UNL     1      33.211  26.032  30.715  1.00  0.00     0.046 C 
HETATM   15  C13 UNL     1      32.667  27.248  28.554  1.00  0.00     0.100 C 
BRANCH  10  16
HETATM   16  N2  UNL     1      30.679  26.160  25.740  1.00  0.00    -0.388 N 
ATOM     17  H2  UNL     1      31.491  26.137  25.122  1.00  0.00     0.156 HD
BRANCH  16  18
HETATM   18  C7  UNL     1      29.349  26.214  25.247  1.00  0.00     0.209 C 
HETATM   19  C8  UNL     1      28.336  26.272  26.395  1.00  0.00     0.062 C 
BRANCH  18  20
HETATM   20  O3  UNL     1      29.222  27.482  24.614  1.00  0.00    -0.378 OA
ATOM     21  H3  UNL     1      28.489  27.400  24.015  1.00  0.00     0.212 HD
ENDBRANCH  18  20
ENDBRANCH  16  18
ENDBRANCH  10  16
BRANCH  11  22
HETATM   22  O4  UNL     1      32.043  24.143  26.580  1.00  0.00    -0.393 OA
ATOM     23  H4  UNL     1      32.490  23.354  26.864  1.00  0.00     0.210 HD
ENDBRANCH  11  22
BRANCH  13  24
HETATM   24  O5  UNL     1      30.993  26.418  30.055  1.00  0.00    -0.390 OA
ATOM     25  H5  UNL     1      30.590  27.040  29.460  1.00  0.00     0.210 HD
ENDBRANCH  13  24
BRANCH  15  26
HETATM   26  C14 UNL     1      33.979  26.973  27.966  1.00  0.00     0.325 C 
BRANCH  26  27
HETATM   27  N3  UNL     1      34.903  28.084  28.125  1.00  0.00    -0.052 N 
ATOM     28  H33 UNL     1      34.469  28.965  27.850  1.00  0.00     0.277 HD
ATOM     29  H32 UNL     1      35.070  28.284  29.111  1.00  0.00     0.277 HD
ATOM     30  H31 UNL     1      35.781  27.936  27.628  1.00  0.00     0.277 HD
ENDBRANCH  26  27
BRANCH  26  31
HETATM   31  O6  UNL     1      34.043  26.606  26.647  1.00  0.00    -0.369 OA
ATOM     32  H6  UNL     1      33.942  27.277  25.982  1.00  0.00     0.212 HD
ENDBRANCH  26  31
ENDBRANCH  15  26
ENDBRANCH   7   9
ENDBRANCH   1   7
BRANCH   1  33
HETATM   33  C15 UNL     1      30.700  30.385  25.668  1.00  0.00     0.222 C 
HETATM   34  C16 UNL     1      29.708  31.352  26.213  1.00  0.00     0.072 C 
HETATM   35  C17 UNL     1      29.299  32.121  24.936  1.00  0.00     0.237 C 
HETATM   36  C18 UNL     1      30.061  31.436  23.849  1.00  0.00     0.338 C 
HETATM   37  N9  UNL     1      31.315  31.092  24.577  1.00  0.00    -0.044 N 
ATOM     38  H92 UNL     1      31.938  31.863  24.818  1.00  0.00     0.280 HD
ATOM     39  H91 UNL     1      32.036  30.596  24.051  1.00  0.00     0.280 HD
BRANCH  35  40
HETATM   40  N4  UNL     1      27.873  31.908  24.732  1.00  0.00    -0.071 N 
ATOM     41  H43 UNL     1      27.372  31.719  25.600  1.00  0.00     0.274 HD
ATOM     42  H42 UNL     1      27.377  32.760  24.474  1.00  0.00     0.274 HD
ATOM     43  H41 UNL     1      27.770  31.163  24.043  1.00  0.00     0.274 HD
ENDBRANCH  35  40
BRANCH  36  44
HETATM   44  N5  UNL     1      30.292  32.152  22.650  1.00  0.00    -0.252 N 
HETATM   45  C19 UNL     1      29.337  32.403  21.775  1.00  0.00     0.204 A 
HETATM   46  N6  UNL     1      29.558  33.077  20.607  1.00  0.00    -0.334 N 
HETATM   47  C20 UNL     1      30.792  33.517  20.313  1.00  0.00     0.153 A 
ATOM     48  H6  UNL     1      28.787  33.246  19.961  1.00  0.00     0.168 HD
HETATM   49  C21 UNL     1      31.788  33.255  21.230  1.00  0.00     0.200 A 
HETATM   50  N8  UNL     1      31.528  32.587  22.370  1.00  0.00    -0.272 N 
ATOM     51  H8  UNL     1      32.285  32.408  23.030  1.00  0.00     0.189 HD
BRANCH  47  52
HETATM   52  N7  UNL     1      31.041  34.157  19.218  1.00  0.00    -0.382 N 
ATOM     53  H72 UNL     1      30.888  33.725  18.308  1.00  0.00     0.157 HD
ATOM     54  H71 UNL     1      31.397  35.113  19.226  1.00  0.00     0.157 HD
ENDBRANCH  47  52
BRANCH  49  55
HETATM   55  O7  UNL     1      33.065  33.715  20.920  1.00  0.00    -0.342 OA
ATOM     56  H7  UNL     1      33.795  33.250  21.311  1.00  0.00     0.219 HD
ENDBRANCH  49  55
ENDBRANCH  36  44
ENDBRANCH   1  33
TORSDOF 18
ENDMDL
MODEL 3
REMARK VINA RESULT: -6.306201625      1.669      2.064
REMARK  18 active torsions:
REMARK  status: ('A' for Active; 'I' for Inactive)
REMARK    1  A    between atoms: C2_2  and  O1_3 
REMARK    2  A    between atoms: O1_3  and  C3_4 
REMARK    3  A    between atoms: C3_4  and  C4_6 
REMARK    4  A    between atoms: C4_6  and  N1_7 
REMARK    5  A    between atoms: C4_6  and  C15_33 
REMARK    6  A    between atoms: N1_7  and  C5_9 
REMARK    7  A    between atoms: C6_10  and  N2_11 
REMARK    8  A    between atoms: N2_11  and  C7_13 
REMARK    9  A    between atoms: C7_13  and  O3_15 
REMARK   10  A    between atoms: C9_17  and  O4_18 
REMARK   11  A    between atoms: C11_21  and  O5_23 
REMARK   12  A    between atoms: C13_25  and  C14_26 
REMARK   13  A    between atoms: C14_26  and  N3_27 
REMARK   14  A    between atoms: C14_26  and  O6_31 
REMARK   15  A    between atoms: C17_35  and  N4_36 
REMARK   16  A    between atoms: C18_40  and  N5_41 
REMARK   17  A    between atoms: C20_45  and  N7_46 
REMARK   18  A    between atoms: C21_49  and  O7_50 
ROOT
HETATM    1  C4  UNL     1      31.576  29.761  25.956  1.00  0.00     0.208 C 
ENDROOT
BRANCH   1   2
HETATM    2  C3  UNL     1      32.274  30.948  26.608  1.00  0.00     0.283 C 
HETATM    3  O2  UNL     1      33.481  31.125  26.363  1.00  0.00    -0.263 OA
BRANCH   2   4
HETATM    4  O1  UNL     1      31.621  31.816  27.446  1.00  0.00    -0.320 OA
BRANCH   4   5
HETATM    5  C2  UNL     1      31.950  31.887  28.838  1.00  0.00     0.174 C 
HETATM    6  C1  UNL     1      32.286  33.292  29.241  1.00  0.00     0.034 C 
ENDBRANCH   4   5
ENDBRANCH   2   4
ENDBRANCH   1   2
BRANCH   1   7
HETATM    7  N1  UNL     1      30.347  30.201  25.503  1.00  0.00    -0.400 N 
ATOM      8  H1  UNL     1      29.586  30.278  26.176  1.00  0.00     0.154 HD
BRANCH   7   9
HETATM    9  C5  UNL     1      30.087  30.546  24.165  1.00  0.00     0.113 C 
HETATM   10  C6  UNL     1      28.723  30.060  23.735  1.00  0.00     0.130 C 
HETATM   11  C9  UNL     1      27.816  31.003  23.079  1.00  0.00     0.145 C 
HETATM   12  C10 UNL     1      28.435  32.155  22.336  1.00  0.00     0.071 C 
HETATM   13  C11 UNL     1      29.927  32.135  22.356  1.00  0.00     0.066 C 
HETATM   14  C12 UNL     1      30.431  33.381  21.680  1.00  0.00     0.046 C 
HETATM   15  C13 UNL     1      30.456  31.940  23.769  1.00  0.00     0.100 C 
BRANCH  10  16
HETATM   16  N2  UNL     1      28.050  29.496  24.907  1.00  0.00    -0.388 N 
ATOM     17  H2  UNL     1      28.186  29.868  25.847  1.00  0.00     0.156 HD
BRANCH  16  18
HETATM   18  C7  UNL     1      27.195  28.394  24.641  1.00  0.00     0.209 C 
HETATM   19  C8  UNL     1      27.523  27.208  25.555  1.00  0.00     0.062 C 
BRANCH  18  20
HETATM   20  O3  UNL     1      25.897  28.800  25.061  1.00  0.00    -0.378 OA
ATOM     21  H3  UNL     1      25.401  28.946  24.264  1.00  0.00     0.212 HD
ENDBRANCH  18  20
ENDBRANCH  16  18
ENDBRANCH  10  16
BRANCH  11  22
HETATM   22  O4  UNL     1      26.755  31.477  23.892  1.00  0.00    -0.393 OA
ATOM     23  H4  UNL     1      26.160  32.080  23.462  1.00  0.00     0.210 HD
ENDBRANCH  11  22
BRANCH  13  24
HETATM   24  O5  UNL     1      30.317  31.041  21.552  1.00  0.00    -0.390 OA
ATOM     25  H5  UNL     1      29.613  30.406  21.606  1.00  0.00     0.210 HD
ENDBRANCH  13  24
BRANCH  15  26
HETATM   26  C14 UNL     1      30.025  33.037  24.638  1.00  0.00     0.325 C 
BRANCH  26  27
HETATM   27  N3  UNL     1      31.144  33.786  25.184  1.00  0.00    -0.052 N 
ATOM     28  H33 UNL     1      31.652  34.275  24.448  1.00  0.00     0.277 HD
ATOM     29  H32 UNL     1      30.819  34.590  25.722  1.00  0.00     0.277 HD
ATOM     30  H31 UNL     1      31.771  33.204  25.739  1.00  0.00     0.277 HD
ENDBRANCH  26  27
BRANCH  26  31
HETATM   31  O6  UNL     1      29.201  32.751  25.695  1.00  0.00    -0.369 OA
ATOM     32  H6  UNL     1      29.580  32.369  26.478  1.00  0.00     0.212 HD
ENDBRANCH  26  31
ENDBRANCH  15  26
ENDBRANCH   7   9
ENDBRANCH   1   7
BRANCH   1  33
HETATM   33  C15 UNL     1      31.715  28.670  26.928  1.00  0.00     0.222 C 
HETATM   34  C16 UNL     1      30.490  27.978  27.416  1.00  0.00     0.072 C 
HETATM   35  C17 UNL     1      31.098  26.740  28.114  1.00  0.00     0.237 C 
HETATM   36  C18 UNL     1      32.571  26.946  27.983  1.00  0.00     0.338 C 
HETATM   37  N9  UNL     1      32.633  27.600  26.645  1.00  0.00    -0.044 N 
ATOM     38  H92 UNL     1      32.427  27.017  25.834  1.00  0.00     0.280 HD
ATOM     39  H91 UNL     1      33.556  27.860  26.298  1.00  0.00     0.280 HD
BRANCH  35  40
HETATM   40  N4  UNL     1      30.726  26.803  29.520  1.00  0.00    -0.071 N 
ATOM     41  H43 UNL     1      31.512  26.632  30.147  1.00  0.00     0.274 HD
ATOM     42  H42 UNL     1      30.510  27.749  29.832  1.00  0.00     0.274 HD
ATOM     43  H41 UNL     1      29.955  26.151  29.663  1.00  0.00     0.274 HD
ENDBRANCH  35  40
BRANCH  36  44
HETATM   44  N5  UNL     1      33.409  25.809  28.085  1.00  0.00    -0.252 N 
HETATM   45  C19 UNL     1      33.500  25.088  29.187  1.00  0.00     0.204 A 
HETATM   46  N6  UNL     1      34.321  24.002  29.297  1.00  0.00    -0.334 N 
HETATM   47  C20 UNL     1      35.079  23.627  28.254  1.00  0.00     0.153 A 
ATOM     48  H6  UNL     1      34.358  23.477  30.171  1.00  0.00     0.168 HD
HETATM   49  C21 UNL     1      34.980  24.381  27.103  1.00  0.00     0.200 A 
HETATM   50  N8  UNL     1      34.159  25.445  27.035  1.00  0.00    -0.272 N 
ATOM     51  H8  UNL     1      34.106  25.984  26.170  1.00  0.00     0.189 HD
BRANCH  47  52
HETATM   52  N7  UNL     1      35.869  22.607  28.320  1.00  0.00    -0.382 N 
ATOM     53  H72 UNL     1      36.026  22.007  27.512  1.00  0.00     0.157 HD
ATOM     54  H71 UNL     1      36.363  22.367  29.180  1.00  0.00     0.157 HD
ENDBRANCH  47  52
BRANCH  49  55
HETATM   55  O7  UNL     1      35.767  23.987  26.025  1.00  0.00    -0.342 OA
ATOM     56  H7  UNL     1      35.927  24.637  25.350  1.00  0.00     0.219 HD
ENDBRANCH  49  55
ENDBRANCH  36  44
ENDBRANCH   1  33
TORSDOF 18
ENDMDL
MODEL 4
REMARK VINA RESULT: -6.266220280      2.797      7.977
REMARK  18 active torsions:
REMARK  status: ('A' for Active; 'I' for Inactive)
REMARK    1  A    between atoms: C2_2  and  O1_3 
REMARK    2  A    between atoms: O1_3  and  C3_4 
REMARK    3  A    between atoms: C3_4  and  C4_6 
REMARK    4  A    between atoms: C4_6  and  N1_7 
REMARK    5  A    between atoms: C4_6  and  C15_33 
REMARK    6  A    between atoms: N1_7  and  C5_9 
REMARK    7  A    between atoms: C6_10  and  N2_11 
REMARK    8  A    between atoms: N2_11  and  C7_13 
REMARK    9  A    between atoms: C7_13  and  O3_15 
REMARK   10  A    between atoms: C9_17  and  O4_18 
REMARK   11  A    between atoms: C11_21  and  O5_23 
REMARK   12  A    between atoms: C13_25  and  C14_26 
REMARK   13  A    between atoms: C14_26  and  N3_27 
REMARK   14  A    between atoms: C14_26  and  O6_31 
REMARK   15  A    between atoms: C17_35  and  N4_36 
REMARK   16  A    between atoms: C18_40  and  N5_41 
REMARK   17  A    between atoms: C20_45  and  N7_46 
REMARK   18  A    between atoms: C21_49  and  O7_50 
ROOT
HETATM    1  C4  UNL     1      31.463  30.274  27.076  1.00  0.00     0.208 C 
ENDROOT
BRANCH   1   2
HETATM    2  C3  UNL     1      32.894  30.776  27.222  1.00  0.00     0.283 C 
HETATM    3  O2  UNL     1      33.583  30.892  26.191  1.00  0.00    -0.263 OA
BRANCH   2   4
HETATM    4  O1  UNL     1      33.440  31.101  28.438  1.00  0.00    -0.320 OA
BRANCH   4   5
HETATM    5  C2  UNL     1      33.869  32.437  28.720  1.00  0.00     0.174 C 
HETATM    6  C1  UNL     1      32.781  33.223  29.390  1.00  0.00     0.034 C 
ENDBRANCH   4   5
ENDBRANCH   2   4
ENDBRANCH   1   2
BRANCH   1   7
HETATM    7  N1  UNL     1      31.524  28.934  26.744  1.00  0.00    -0.400 N 
ATOM      8  H1  UNL     1      31.679  28.688  25.767  1.00  0.00     0.154 HD
BRANCH   7   9
HETATM    9  C5  UNL     1      31.385  27.892  27.677  1.00  0.00     0.113 C 
HETATM   10  C6  UNL     1      30.597  26.743  27.092  1.00  0.00     0.130 C 
HETATM   11  C9  UNL     1      31.142  25.389  27.203  1.00  0.00     0.145 C 
HETATM   12  C10 UNL     1      32.073  25.110  28.351  1.00  0.00     0.071 C 
HETATM   13  C11 UNL     1      32.274  26.288  29.245  1.00  0.00     0.066 C 
HETATM   14  C12 UNL     1      33.299  25.928  30.286  1.00  0.00     0.046 C 
HETATM   15  C13 UNL     1      32.617  27.535  28.444  1.00  0.00     0.100 C 
BRANCH  10  16
HETATM   16  N2  UNL     1      30.345  27.036  25.680  1.00  0.00    -0.388 N 
ATOM     17  H2  UNL     1      31.099  27.130  24.998  1.00  0.00     0.156 HD
BRANCH  16  18
HETATM   18  C7  UNL     1      28.977  27.180  25.326  1.00  0.00     0.209 C 
HETATM   19  C8  UNL     1      28.062  26.579  26.400  1.00  0.00     0.062 C 
BRANCH  18  20
HETATM   20  O3  UNL     1      28.706  28.575  25.388  1.00  0.00    -0.378 OA
ATOM     21  H3  UNL     1      28.319  28.802  24.550  1.00  0.00     0.212 HD
ENDBRANCH  18  20
ENDBRANCH  16  18
ENDBRANCH  10  16
BRANCH  11  22
HETATM   22  O4  UNL     1      31.692  24.866  26.006  1.00  0.00    -0.393 OA
ATOM     23  H4  UNL     1      32.575  24.524  26.087  1.00  0.00     0.210 HD
ENDBRANCH  11  22
BRANCH  13  24
HETATM   24  O5  UNL     1      31.049  26.484  29.920  1.00  0.00    -0.390 OA
ATOM     25  H5  UNL     1      30.375  26.498  29.251  1.00  0.00     0.210 HD
ENDBRANCH  13  24
BRANCH  15  26
HETATM   26  C14 UNL     1      33.860  27.342  27.694  1.00  0.00     0.325 C 
BRANCH  26  27
HETATM   27  N3  UNL     1      34.844  28.375  27.972  1.00  0.00    -0.052 N 
ATOM     28  H33 UNL     1      34.895  29.049  27.209  1.00  0.00     0.277 HD
ATOM     29  H32 UNL     1      34.525  28.994  28.717  1.00  0.00     0.277 HD
ATOM     30  H31 UNL     1      35.765  27.990  28.184  1.00  0.00     0.277 HD
ENDBRANCH  26  27
BRANCH  26  31
HETATM   31  O6  UNL     1      33.792  27.233  26.329  1.00  0.00    -0.369 OA
ATOM     32  H6  UNL     1      34.433  27.697  25.803  1.00  0.00     0.212 HD
ENDBRANCH  26  31
ENDBRANCH  15  26
ENDBRANCH   7   9
ENDBRANCH   1   7
BRANCH   1  33
HETATM   33  C15 UNL     1      30.807  31.271  26.221  1.00  0.00     0.222 C 
HETATM   34  C16 UNL     1      31.310  32.672  26.231  1.00  0.00     0.072 C 
HETATM   35  C17 UNL     1      30.595  33.261  24.993  1.00  0.00     0.237 C 
HETATM   36  C18 UNL     1      29.741  32.135  24.508  1.00  0.00     0.338 C 
HETATM   37  N9  UNL     1      30.621  30.975  24.827  1.00  0.00    -0.044 N 
ATOM     38  H92 UNL     1      31.463  30.862  24.261  1.00  0.00     0.280 HD
ATOM     39  H91 UNL     1      30.268  30.047  24.592  1.00  0.00     0.280 HD
BRANCH  35  40
HETATM   40  N4  UNL     1      29.741  34.347  25.455  1.00  0.00    -0.071 N 
ATOM     41  H43 UNL     1      30.036  35.258  25.107  1.00  0.00     0.274 HD
ATOM     42  H42 UNL     1      28.815  34.333  25.029  1.00  0.00     0.274 HD
ATOM     43  H41 UNL     1      29.711  34.301  26.474  1.00  0.00     0.274 HD
ENDBRANCH  35  40
BRANCH  36  44
HETATM   44  N5  UNL     1      29.321  32.160  23.156  1.00  0.00    -0.252 N 
HETATM   45  C19 UNL     1      29.833  31.364  22.237  1.00  0.00     0.204 A 
HETATM   46  N6  UNL     1      29.444  31.396  20.927  1.00  0.00    -0.334 N 
HETATM   47  C20 UNL     1      28.499  32.264  20.531  1.00  0.00     0.153 A 
ATOM     48  H6  UNL     1      29.870  30.761  20.253  1.00  0.00     0.168 HD
HETATM   49  C21 UNL     1      27.964  33.093  21.495  1.00  0.00     0.200 A 
HETATM   50  N8  UNL     1      28.375  33.030  22.775  1.00  0.00    -0.272 N 
ATOM     51  H8  UNL     1      27.961  33.656  23.467  1.00  0.00     0.189 HD
BRANCH  47  52
HETATM   52  N7  UNL     1      28.106  32.325  19.302  1.00  0.00    -0.382 N 
ATOM     53  H72 UNL     1      28.688  32.753  18.582  1.00  0.00     0.157 HD
ATOM     54  H71 UNL     1      27.204  31.949  19.008  1.00  0.00     0.157 HD
ENDBRANCH  47  52
BRANCH  49  55
HETATM   55  O7  UNL     1      26.984  33.990  21.078  1.00  0.00    -0.342 OA
ATOM     56  H7  UNL     1      26.097  33.656  21.012  1.00  0.00     0.219 HD
ENDBRANCH  49  55
ENDBRANCH  36  44
ENDBRANCH   1  33
TORSDOF 18
ENDMDL
MODEL 5
REMARK VINA RESULT: -6.242161320      1.324      1.585
REMARK  18 active torsions:
REMARK  status: ('A' for Active; 'I' for Inactive)
REMARK    1  A    between atoms: C2_2  and  O1_3 
REMARK    2  A    between atoms: O1_3  and  C3_4 
REMARK    3  A    between atoms: C3_4  and  C4_6 
REMARK    4  A    between atoms: C4_6  and  N1_7 
REMARK    5  A    between atoms: C4_6  and  C15_33 
REMARK    6  A    between atoms: N1_7  and  C5_9 
REMARK    7  A    between atoms: C6_10  and  N2_11 
REMARK    8  A    between atoms: N2_11  and  C7_13 
REMARK    9  A    between atoms: C7_13  and  O3_15 
REMARK   10  A    between atoms: C9_17  and  O4_18 
REMARK   11  A    between atoms: C11_21  and  O5_23 
REMARK   12  A    between atoms: C13_25  and  C14_26 
REMARK   13  A    between atoms: C14_26  and  N3_27 
REMARK   14  A    between atoms: C14_26  and  O6_31 
REMARK   15  A    between atoms: C17_35  and  N4_36 
REMARK   16  A    between atoms: C18_40  and  N5_41 
REMARK   17  A    between atoms: C20_45  and  N7_46 
REMARK   18  A    between atoms: C21_49  and  O7_50 
ROOT
HETATM    1  C4  UNL     1      33.241  29.791  26.665  1.00  0.00     0.208 C 
ENDROOT
BRANCH   1   2
HETATM    2  C3  UNL     1      33.809  30.737  27.717  1.00  0.00     0.283 C 
HETATM    3  O2  UNL     1      34.549  30.260  28.596  1.00  0.00    -0.263 OA
BRANCH   2   4
HETATM    4  O1  UNL     1      33.533  32.081  27.722  1.00  0.00    -0.320 OA
BRANCH   4   5
HETATM    5  C2  UNL     1      33.577  32.838  28.937  1.00  0.00     0.174 C 
HETATM    6  C1  UNL     1      32.199  33.236  29.374  1.00  0.00     0.034 C 
ENDBRANCH   4   5
ENDBRANCH   2   4
ENDBRANCH   1   2
BRANCH   1   7
HETATM    7  N1  UNL     1      32.175  30.432  26.063  1.00  0.00    -0.400 N 
ATOM      8  H1  UNL     1      31.427  30.785  26.659  1.00  0.00     0.154 HD
BRANCH   7   9
HETATM    9  C5  UNL     1      32.064  30.624  24.675  1.00  0.00     0.113 C 
HETATM   10  C6  UNL     1      30.645  30.397  24.209  1.00  0.00     0.130 C 
HETATM   11  C9  UNL     1      30.013  31.411  23.362  1.00  0.00     0.145 C 
HETATM   12  C10 UNL     1      30.917  32.271  22.522  1.00  0.00     0.071 C 
HETATM   13  C11 UNL     1      32.361  31.920  22.661  1.00  0.00     0.066 C 
HETATM   14  C12 UNL     1      33.171  32.907  21.866  1.00  0.00     0.046 C 
HETATM   15  C13 UNL     1      32.765  31.824  24.125  1.00  0.00     0.100 C 
BRANCH  10  16
HETATM   16  N2  UNL     1      29.807  30.179  25.389  1.00  0.00    -0.388 N 
ATOM     17  H2  UNL     1      29.730  30.867  26.139  1.00  0.00     0.156 HD
BRANCH  16  18
HETATM   18  C7  UNL     1      29.110  28.943  25.416  1.00  0.00     0.209 C 
HETATM   19  C8  UNL     1      27.773  29.046  24.673  1.00  0.00     0.062 C 
BRANCH  18  20
HETATM   20  O3  UNL     1      29.876  28.048  24.618  1.00  0.00    -0.378 OA
ATOM     21  H3  UNL     1      30.765  28.101  24.949  1.00  0.00     0.212 HD
ENDBRANCH  18  20
ENDBRANCH  16  18
ENDBRANCH  10  16
BRANCH  11  22
HETATM   22  O4  UNL     1      29.057  32.226  24.018  1.00  0.00    -0.393 OA
ATOM     23  H4  UNL     1      28.643  31.828  24.776  1.00  0.00     0.210 HD
ENDBRANCH  11  22
BRANCH  13  24
HETATM   24  O5  UNL     1      32.521  30.659  22.045  1.00  0.00    -0.390 OA
ATOM     25  H5  UNL     1      32.400  30.802  21.113  1.00  0.00     0.210 HD
ENDBRANCH  13  24
BRANCH  15  26
HETATM   26  C14 UNL     1      32.562  33.107  24.802  1.00  0.00     0.325 C 
BRANCH  26  27
HETATM   27  N3  UNL     1      33.800  33.660  25.327  1.00  0.00    -0.052 N 
ATOM     28  H33 UNL     1      34.140  34.420  24.739  1.00  0.00     0.277 HD
ATOM     29  H32 UNL     1      33.632  34.181  26.188  1.00  0.00     0.277 HD
ATOM     30  H31 UNL     1      34.519  32.950  25.462  1.00  0.00     0.277 HD
ENDBRANCH  26  27
BRANCH  26  31
HETATM   31  O6  UNL     1      31.648  33.173  25.821  1.00  0.00    -0.369 OA
ATOM     32  H6  UNL     1      31.792  32.643  26.597  1.00  0.00     0.212 HD
ENDBRANCH  26  31
ENDBRANCH  15  26
ENDBRANCH   7   9
ENDBRANCH   1   7
BRANCH   1  33
HETATM   33  C15 UNL     1      33.100  28.507  27.361  1.00  0.00     0.222 C 
HETATM   34  C16 UNL     1      31.735  27.965  27.604  1.00  0.00     0.072 C 
HETATM   35  C17 UNL     1      32.054  26.512  28.025  1.00  0.00     0.237 C 
HETATM   36  C18 UNL     1      33.547  26.464  28.029  1.00  0.00     0.338 C 
HETATM   37  N9  UNL     1      33.847  27.374  26.886  1.00  0.00    -0.044 N 
ATOM     38  H92 UNL     1      33.626  27.032  25.951  1.00  0.00     0.280 HD
ATOM     39  H91 UNL     1      34.830  27.528  26.662  1.00  0.00     0.280 HD
BRANCH  35  40
HETATM   40  N4  UNL     1      31.564  26.332  29.385  1.00  0.00    -0.071 N 
ATOM     41  H43 UNL     1      32.296  26.051  30.037  1.00  0.00     0.274 HD
ATOM     42  H42 UNL     1      31.312  27.211  29.836  1.00  0.00     0.274 HD
ATOM     43  H41 UNL     1      30.791  25.668  29.346  1.00  0.00     0.274 HD
ENDBRANCH  35  40
BRANCH  36  44
HETATM   44  N5  UNL     1      34.168  25.197  27.908  1.00  0.00    -0.252 N 
HETATM   45  C19 UNL     1      34.894  24.856  26.860  1.00  0.00     0.204 A 
HETATM   46  N6  UNL     1      35.480  23.629  26.731  1.00  0.00    -0.334 N 
HETATM   47  C20 UNL     1      35.329  22.710  27.698  1.00  0.00     0.153 A 
ATOM     48  H6  UNL     1      36.031  23.412  25.901  1.00  0.00     0.168 HD
HETATM   49  C21 UNL     1      34.572  23.070  28.794  1.00  0.00     0.200 A 
HETATM   50  N8  UNL     1      34.010  24.290  28.883  1.00  0.00    -0.272 N 
ATOM     51  H8  UNL     1      33.456  24.528  29.705  1.00  0.00     0.189 HD
BRANCH  47  52
HETATM   52  N7  UNL     1      35.866  21.538  27.611  1.00  0.00    -0.382 N 
ATOM     53  H72 UNL     1      35.795  20.986  26.757  1.00  0.00     0.157 HD
ATOM     54  H71 UNL     1      36.381  21.125  28.390  1.00  0.00     0.157 HD
ENDBRANCH  47  52
BRANCH  49  55
HETATM   55  O7  UNL     1      34.420  22.113  29.793  1.00  0.00    -0.342 OA
ATOM     56  H7  UNL     1      35.048  22.135  30.507  1.00  0.00     0.219 HD
ENDBRANCH  49  55
ENDBRANCH  36  44
ENDBRANCH   1  33
TORSDOF 18
ENDMDL
