MODEL 1
REMARK VINA RESULT: -6.062622589      0.000      0.000
REMARK  8 active torsions:
REMARK  status: ('A' for Active; 'I' for Inactive)
REMARK    1  A    between atoms: C1_2  and  N1_3 
REMARK    2  A    between atoms: N1_3  and  C2_5 
REMARK    3  A    between atoms: C2_5  and  C3_6 
REMARK       I    between atoms: N2_7  and  C4_9 
REMARK       I    between atoms: C4_9  and  N3_11 
REMARK    4  A    between atoms: N3_11  and  C5_13 
REMARK    5  A    between atoms: C5_13  and  C6_14 
REMARK    6  A    between atoms: C6_14  and  N4_15 
REMARK    7  A    between atoms: N4_15  and  C7_17 
REMARK    8  A    between atoms: C7_17  and  C8_19 
ROOT
HETATM    1  C3  UNL     1      83.505 188.630 137.267  1.00  0.00     0.085 C 
HETATM    2  N2  UNL     1      83.458 188.527 135.977  1.00  0.00    -0.321 N 
ATOM      3  H2  UNL     1      84.280 188.211 135.463  1.00  0.00     0.169 HD
HETATM    4  C4  UNL     1      82.273 188.851 135.277  1.00  0.00     0.319 C 
HETATM    5  O2  UNL     1      82.194 189.968 134.725  1.00  0.00    -0.247 OA
HETATM    6  N3  UNL     1      81.216 187.936 135.206  1.00  0.00    -0.341 N 
ATOM      7  H3  UNL     1      81.347 187.043 135.681  1.00  0.00     0.164 HD
ENDROOT
BRANCH   6   8
HETATM    8  C5  UNL     1      79.965 188.134 134.528  1.00  0.00     0.143 C 
BRANCH   8   9
HETATM    9  C6  UNL     1      80.072 187.843 133.037  1.00  0.00     0.136 C 
BRANCH   9  10
HETATM   10  N4  UNL     1      79.362 186.677 132.667  1.00  0.00    -0.387 N 
ATOM     11  H4  UNL     1      78.517 186.755 132.100  1.00  0.00     0.156 HD
BRANCH  10  12
HETATM   12  C7  UNL     1      79.812 185.414 133.075  1.00  0.00     0.330 C 
HETATM   13  F1  UNL     1      80.196 184.592 132.016  1.00  0.00    -0.221 F 
BRANCH  12  14
HETATM   14  C8  UNL     1      78.890 184.612 133.944  1.00  0.00     0.406 C 
HETATM   15  F2  UNL     1      77.682 185.170 134.211  1.00  0.00    -0.209 F 
HETATM   16  F3  UNL     1      79.599 184.319 135.112  1.00  0.00    -0.209 F 
ENDBRANCH  12  14
ENDBRANCH  10  12
ENDBRANCH   9  10
ENDBRANCH   8   9
ENDBRANCH   6   8
BRANCH   1  17
HETATM   17  C2  UNL     1      84.741 188.289 137.969  1.00  0.00     0.166 C 
BRANCH  17  18
HETATM   18  N1  UNL     1      85.312 189.428 138.677  1.00  0.00    -0.363 N 
ATOM     19  H1  UNL     1      84.895 190.356 138.604  1.00  0.00     0.162 HD
BRANCH  18  20
HETATM   20  C1  UNL     1      86.458 189.206 139.465  1.00  0.00     0.348 C 
HETATM   21  O1  UNL     1      86.710 188.074 139.906  1.00  0.00    -0.284 OA
ENDBRANCH  18  20
ENDBRANCH  17  18
ENDBRANCH   1  17
TORSDOF 8
ENDMDL
MODEL 2
REMARK VINA RESULT: -5.953556240      2.517      3.102
REMARK  8 active torsions:
REMARK  status: ('A' for Active; 'I' for Inactive)
REMARK    1  A    between atoms: C1_2  and  N1_3 
REMARK    2  A    between atoms: N1_3  and  C2_5 
REMARK    3  A    between atoms: C2_5  and  C3_6 
REMARK       I    between atoms: N2_7  and  C4_9 
REMARK       I    between atoms: C4_9  and  N3_11 
REMARK    4  A    between atoms: N3_11  and  C5_13 
REMARK    5  A    between atoms: C5_13  and  C6_14 
REMARK    6  A    between atoms: C6_14  and  N4_15 
REMARK    7  A    between atoms: N4_15  and  C7_17 
REMARK    8  A    between atoms: C7_17  and  C8_19 
ROOT
HETATM    1  C3  UNL     1      83.863 188.411 136.630  1.00  0.00     0.085 C 
HETATM    2  N2  UNL     1      82.574 188.323 136.546  1.00  0.00    -0.321 N 
ATOM      3  H2  UNL     1      82.023 188.137 137.384  1.00  0.00     0.169 HD
HETATM    4  C4  UNL     1      81.926 188.482 135.300  1.00  0.00     0.319 C 
HETATM    5  O2  UNL     1      81.570 187.460 134.679  1.00  0.00    -0.247 OA
HETATM    6  N3  UNL     1      81.690 189.760 134.779  1.00  0.00    -0.341 N 
ATOM      7  H3  UNL     1      82.009 190.551 135.338  1.00  0.00     0.164 HD
ENDROOT
BRANCH   6   8
HETATM    8  C5  UNL     1      81.042 190.064 133.533  1.00  0.00     0.143 C 
BRANCH   8   9
HETATM    9  C6  UNL     1      79.534 190.211 133.695  1.00  0.00     0.136 C 
BRANCH   9  10
HETATM   10  N4  UNL     1      78.865 188.967 133.634  1.00  0.00    -0.387 N 
ATOM     11  H4  UNL     1      78.929 188.398 132.790  1.00  0.00     0.156 HD
BRANCH  10  12
HETATM   12  C7  UNL     1      78.115 188.512 134.727  1.00  0.00     0.330 C 
HETATM   13  F1  UNL     1      77.139 187.577 134.379  1.00  0.00    -0.221 F 
BRANCH  12  14
HETATM   14  C8  UNL     1      77.446 189.553 135.573  1.00  0.00     0.406 C 
HETATM   15  F2  UNL     1      78.083 189.891 136.723  1.00  0.00    -0.209 F 
HETATM   16  F3  UNL     1      76.147 189.099 135.810  1.00  0.00    -0.209 F 
ENDBRANCH  12  14
ENDBRANCH  10  12
ENDBRANCH   9  10
ENDBRANCH   8   9
ENDBRANCH   6   8
BRANCH   1  17
HETATM   17  C2  UNL     1      84.511 188.243 137.929  1.00  0.00     0.166 C 
BRANCH  17  18
HETATM   18  N1  UNL     1      85.139 189.470 138.403  1.00  0.00    -0.363 N 
ATOM     19  H1  UNL     1      84.830 190.383 138.068  1.00  0.00     0.162 HD
BRANCH  18  20
HETATM   20  C1  UNL     1      86.187 189.355 139.336  1.00  0.00     0.348 C 
HETATM   21  O1  UNL     1      86.651 188.242 139.630  1.00  0.00    -0.284 OA
ENDBRANCH  18  20
ENDBRANCH  17  18
ENDBRANCH   1  17
TORSDOF 8
ENDMDL
MODEL 3
REMARK VINA RESULT: -5.890750716      1.906      2.461
REMARK  8 active torsions:
REMARK  status: ('A' for Active; 'I' for Inactive)
REMARK    1  A    between atoms: C1_2  and  N1_3 
REMARK    2  A    between atoms: N1_3  and  C2_5 
REMARK    3  A    between atoms: C2_5  and  C3_6 
REMARK       I    between atoms: N2_7  and  C4_9 
REMARK       I    between atoms: C4_9  and  N3_11 
REMARK    4  A    between atoms: N3_11  and  C5_13 
REMARK    5  A    between atoms: C5_13  and  C6_14 
REMARK    6  A    between atoms: C6_14  and  N4_15 
REMARK    7  A    between atoms: N4_15  and  C7_17 
REMARK    8  A    between atoms: C7_17  and  C8_19 
ROOT
HETATM    1  C3  UNL     1      84.056 188.408 136.841  1.00  0.00     0.085 C 
HETATM    2  N2  UNL     1      82.765 188.356 136.751  1.00  0.00    -0.321 N 
ATOM      3  H2  UNL     1      82.205 188.195 137.588  1.00  0.00     0.169 HD
HETATM    4  C4  UNL     1      82.127 188.522 135.500  1.00  0.00     0.319 C 
HETATM    5  O2  UNL     1      81.745 187.504 134.887  1.00  0.00    -0.247 OA
HETATM    6  N3  UNL     1      81.931 189.801 134.966  1.00  0.00    -0.341 N 
ATOM      7  H3  UNL     1      82.270 190.588 135.519  1.00  0.00     0.164 HD
ENDROOT
BRANCH   6   8
HETATM    8  C5  UNL     1      81.298 190.111 133.714  1.00  0.00     0.143 C 
BRANCH   8   9
HETATM    9  C6  UNL     1      79.839 190.511 133.896  1.00  0.00     0.136 C 
BRANCH   9  10
HETATM   10  N4  UNL     1      78.961 189.681 133.162  1.00  0.00    -0.387 N 
ATOM     11  H4  UNL     1      78.748 189.903 132.189  1.00  0.00     0.156 HD
BRANCH  10  12
HETATM   12  C7  UNL     1      78.381 188.556 133.763  1.00  0.00     0.330 C 
HETATM   13  F1  UNL     1      78.610 188.480 135.136  1.00  0.00    -0.221 F 
BRANCH  12  14
HETATM   14  C8  UNL     1      78.732 187.219 133.182  1.00  0.00     0.406 C 
HETATM   15  F2  UNL     1      78.928 186.212 134.071  1.00  0.00    -0.209 F 
HETATM   16  F3  UNL     1      79.850 187.420 132.368  1.00  0.00    -0.209 F 
ENDBRANCH  12  14
ENDBRANCH  10  12
ENDBRANCH   9  10
ENDBRANCH   8   9
ENDBRANCH   6   8
BRANCH   1  17
HETATM   17  C2  UNL     1      84.692 188.234 138.145  1.00  0.00     0.166 C 
BRANCH  17  18
HETATM   18  N1  UNL     1      85.325 189.456 138.624  1.00  0.00    -0.363 N 
ATOM     19  H1  UNL     1      84.979 190.373 138.343  1.00  0.00     0.162 HD
BRANCH  18  20
HETATM   20  C1  UNL     1      86.430 189.330 139.488  1.00  0.00     0.348 C 
HETATM   21  O1  UNL     1      86.729 188.227 139.972  1.00  0.00    -0.284 OA
ENDBRANCH  18  20
ENDBRANCH  17  18
ENDBRANCH   1  17
TORSDOF 8
ENDMDL
MODEL 4
REMARK VINA RESULT: -5.880055611      0.746      1.393
REMARK  8 active torsions:
REMARK  status: ('A' for Active; 'I' for Inactive)
REMARK    1  A    between atoms: C1_2  and  N1_3 
REMARK    2  A    between atoms: N1_3  and  C2_5 
REMARK    3  A    between atoms: C2_5  and  C3_6 
REMARK       I    between atoms: N2_7  and  C4_9 
REMARK       I    between atoms: C4_9  and  N3_11 
REMARK    4  A    between atoms: N3_11  and  C5_13 
REMARK    5  A    between atoms: C5_13  and  C6_14 
REMARK    6  A    between atoms: C6_14  and  N4_15 
REMARK    7  A    between atoms: N4_15  and  C7_17 
REMARK    8  A    between atoms: C7_17  and  C8_19 
ROOT
HETATM    1  C3  UNL     1      83.512 188.800 137.273  1.00  0.00     0.085 C 
HETATM    2  N2  UNL     1      83.394 188.593 136.001  1.00  0.00    -0.321 N 
ATOM      3  H2  UNL     1      84.147 188.132 135.490  1.00  0.00     0.169 HD
HETATM    4  C4  UNL     1      82.227 189.003 135.314  1.00  0.00     0.319 C 
HETATM    5  O2  UNL     1      82.261 190.068 134.666  1.00  0.00    -0.247 OA
HETATM    6  N3  UNL     1      81.064 188.226 135.364  1.00  0.00    -0.341 N 
ATOM      7  H3  UNL     1      81.106 187.368 135.914  1.00  0.00     0.164 HD
ENDROOT
BRANCH   6   8
HETATM    8  C5  UNL     1      79.817 188.521 134.714  1.00  0.00     0.143 C 
BRANCH   8   9
HETATM    9  C6  UNL     1      79.531 187.562 133.565  1.00  0.00     0.136 C 
BRANCH   9  10
HETATM   10  N4  UNL     1      78.576 186.580 133.913  1.00  0.00    -0.387 N 
ATOM     11  H4  UNL     1      77.725 186.852 134.406  1.00  0.00     0.156 HD
BRANCH  10  12
HETATM   12  C7  UNL     1      78.791 185.234 133.585  1.00  0.00     0.330 C 
HETATM   13  F1  UNL     1      79.407 184.506 134.604  1.00  0.00    -0.221 F 
BRANCH  12  14
HETATM   14  C8  UNL     1      79.551 184.957 132.323  1.00  0.00     0.406 C 
HETATM   15  F2  UNL     1      79.000 184.048 131.479  1.00  0.00    -0.209 F 
HETATM   16  F3  UNL     1      80.844 184.593 132.709  1.00  0.00    -0.209 F 
ENDBRANCH  12  14
ENDBRANCH  10  12
ENDBRANCH   9  10
ENDBRANCH   8   9
ENDBRANCH   6   8
BRANCH   1  17
HETATM   17  C2  UNL     1      84.727 188.368 137.960  1.00  0.00     0.166 C 
BRANCH  17  18
HETATM   18  N1  UNL     1      85.347 189.442 138.725  1.00  0.00    -0.363 N 
ATOM     19  H1  UNL     1      84.974 190.391 138.698  1.00  0.00     0.162 HD
BRANCH  18  20
HETATM   20  C1  UNL     1      86.479 189.129 139.503  1.00  0.00     0.348 C 
HETATM   21  O1  UNL     1      86.682 187.964 139.879  1.00  0.00    -0.284 OA
ENDBRANCH  18  20
ENDBRANCH  17  18
ENDBRANCH   1  17
TORSDOF 8
ENDMDL
MODEL 5
REMARK VINA RESULT: -5.823552918      1.429      1.684
REMARK  8 active torsions:
REMARK  status: ('A' for Active; 'I' for Inactive)
REMARK    1  A    between atoms: C1_2  and  N1_3 
REMARK    2  A    between atoms: N1_3  and  C2_5 
REMARK    3  A    between atoms: C2_5  and  C3_6 
REMARK       I    between atoms: N2_7  and  C4_9 
REMARK       I    between atoms: C4_9  and  N3_11 
REMARK    4  A    between atoms: N3_11  and  C5_13 
REMARK    5  A    between atoms: C5_13  and  C6_14 
REMARK    6  A    between atoms: C6_14  and  N4_15 
REMARK    7  A    between atoms: N4_15  and  C7_17 
REMARK    8  A    between atoms: C7_17  and  C8_19 
ROOT
HETATM    1  C3  UNL     1      82.498 189.203 135.747  1.00  0.00     0.085 C 
HETATM    2  N2  UNL     1      82.356 189.828 134.622  1.00  0.00    -0.321 N 
ATOM      3  H2  UNL     1      83.155 190.304 134.203  1.00  0.00     0.169 HD
HETATM    4  C4  UNL     1      81.101 189.853 133.971  1.00  0.00     0.319 C 
HETATM    5  O2  UNL     1      80.389 190.871 134.091  1.00  0.00    -0.247 OA
HETATM    6  N3  UNL     1      80.673 188.760 133.209  1.00  0.00    -0.341 N 
ATOM      7  H3  UNL     1      81.304 187.961 133.155  1.00  0.00     0.164 HD
ENDROOT
BRANCH   6   8
HETATM    8  C5  UNL     1      79.430 188.656 132.496  1.00  0.00     0.143 C 
BRANCH   8   9
HETATM    9  C6  UNL     1      79.419 187.470 131.539  1.00  0.00     0.136 C 
BRANCH   9  10
HETATM   10  N4  UNL     1      78.757 186.347 132.086  1.00  0.00    -0.387 N 
ATOM     11  H4  UNL     1      77.756 186.225 131.934  1.00  0.00     0.156 HD
BRANCH  10  12
HETATM   12  C7  UNL     1      79.469 185.401 132.837  1.00  0.00     0.330 C 
HETATM   13  F1  UNL     1      80.165 184.481 132.053  1.00  0.00    -0.221 F 
BRANCH  12  14
HETATM   14  C8  UNL     1      78.694 184.617 133.853  1.00  0.00     0.406 C 
HETATM   15  F2  UNL     1      77.508 185.149 134.243  1.00  0.00    -0.209 F 
HETATM   16  F3  UNL     1      79.553 184.408 134.934  1.00  0.00    -0.209 F 
ENDBRANCH  12  14
ENDBRANCH  10  12
ENDBRANCH   9  10
ENDBRANCH   8   9
ENDBRANCH   6   8
BRANCH   1  17
HETATM   17  C2  UNL     1      83.804 189.191 136.402  1.00  0.00     0.166 C 
BRANCH  17  18
HETATM   18  N1  UNL     1      83.790 188.459 137.662  1.00  0.00    -0.363 N 
ATOM     19  H1  UNL     1      82.920 188.091 138.047  1.00  0.00     0.162 HD
BRANCH  18  20
HETATM   20  C1  UNL     1      85.015 188.278 138.333  1.00  0.00     0.348 C 
HETATM   21  O1  UNL     1      85.791 187.372 137.993  1.00  0.00    -0.284 OA
ENDBRANCH  18  20
ENDBRANCH  17  18
ENDBRANCH   1  17
TORSDOF 8
ENDMDL
