MODEL 1
REMARK VINA RESULT: -6.248228517      0.000      0.000
REMARK  8 active torsions:
REMARK  status: ('A' for Active; 'I' for Inactive)
REMARK    1  A    between atoms: C1_2  and  N1_3 
REMARK    2  A    between atoms: N1_3  and  C2_5 
REMARK    3  A    between atoms: C2_5  and  C3_7 
REMARK       I    between atoms: C3_7  and  N2_9 
REMARK    4  A    between atoms: N2_9  and  C4_11 
REMARK    5  A    between atoms: C4_11  and  C5_12 
REMARK    6  A    between atoms: C5_12  and  N3_13 
REMARK       I    between atoms: N3_13  and  C6_15 
REMARK       I    between atoms: C6_15  and  N4_17 
REMARK    7  A    between atoms: N4_17  and  C7_19 
REMARK    8  A    between atoms: C7_19  and  C8_20 
ROOT
HETATM    1  C4  UNL     1      81.284 189.020 134.651  1.00  0.00     0.142 C 
ENDROOT
BRANCH   1   2
HETATM    2  N2  UNL     1      82.128 188.409 135.654  1.00  0.00    -0.356 N 
HETATM    3  C3  UNL     1      83.218 189.086 136.231  1.00  0.00     0.271 C 
HETATM    4  O2  UNL     1      83.492 190.257 135.881  1.00  0.00    -0.268 OA
ATOM      5  H2  UNL     1      81.927 187.455 135.953  1.00  0.00     0.162 HD
BRANCH   3   6
HETATM    6  C2  UNL     1      84.031 188.387 137.257  1.00  0.00     0.364 C 
HETATM    7  F1  UNL     1      83.232 187.599 138.074  1.00  0.00    -0.216 F 
BRANCH   6   8
HETATM    8  N1  UNL     1      84.782 189.277 138.082  1.00  0.00    -0.330 N 
ATOM      9  H1  UNL     1      84.570 190.275 138.098  1.00  0.00     0.165 HD
BRANCH   8  10
HETATM   10  C1  UNL     1      85.829 188.746 138.881  1.00  0.00     0.351 C 
HETATM   11  O1  UNL     1      86.314 187.587 138.666  1.00  0.00    -0.284 OA
ENDBRANCH   8  10
ENDBRANCH   6   8
ENDBRANCH   3   6
ENDBRANCH   1   2
BRANCH   1  12
HETATM   12  C5  UNL     1      79.830 189.079 135.025  1.00  0.00     0.144 C 
BRANCH  12  13
HETATM   13  N3  UNL     1      78.975 188.329 134.143  1.00  0.00    -0.342 N 
HETATM   14  C6  UNL     1      79.141 186.943 133.905  1.00  0.00     0.316 C 
HETATM   15  O3  UNL     1      80.061 186.272 134.467  1.00  0.00    -0.247 OA
HETATM   16  N4  UNL     1      78.251 186.267 133.006  1.00  0.00    -0.338 N 
ATOM     17  H4  UNL     1      77.518 186.818 132.559  1.00  0.00     0.164 HD
ATOM     18  H3  UNL     1      78.216 188.818 133.669  1.00  0.00     0.164 HD
BRANCH  16  19
HETATM   19  C7  UNL     1      78.324 184.874 132.695  1.00  0.00     0.195 C 
BRANCH  19  20
HETATM   20  C8  UNL     1      79.121 184.570 131.443  1.00  0.00     0.370 C 
HETATM   21  F2  UNL     1      78.543 183.423 130.894  1.00  0.00    -0.213 F 
HETATM   22  F3  UNL     1      80.432 184.353 131.733  1.00  0.00    -0.213 F 
ENDBRANCH  19  20
ENDBRANCH  16  19
ENDBRANCH  12  13
ENDBRANCH   1  12
TORSDOF 8
ENDMDL
MODEL 2
REMARK VINA RESULT: -6.180274515      4.407      5.974
REMARK  8 active torsions:
REMARK  status: ('A' for Active; 'I' for Inactive)
REMARK    1  A    between atoms: C1_2  and  N1_3 
REMARK    2  A    between atoms: N1_3  and  C2_5 
REMARK    3  A    between atoms: C2_5  and  C3_7 
REMARK       I    between atoms: C3_7  and  N2_9 
REMARK    4  A    between atoms: N2_9  and  C4_11 
REMARK    5  A    between atoms: C4_11  and  C5_12 
REMARK    6  A    between atoms: C5_12  and  N3_13 
REMARK       I    between atoms: N3_13  and  C6_15 
REMARK       I    between atoms: C6_15  and  N4_17 
REMARK    7  A    between atoms: N4_17  and  C7_19 
REMARK    8  A    between atoms: C7_19  and  C8_20 
ROOT
HETATM    1  C4  UNL     1      81.422 189.059 134.159  1.00  0.00     0.142 C 
ENDROOT
BRANCH   1   2
HETATM    2  N2  UNL     1      82.080 188.433 135.285  1.00  0.00    -0.356 N 
HETATM    3  C3  UNL     1      83.099 189.075 136.011  1.00  0.00     0.271 C 
HETATM    4  O2  UNL     1      83.472 190.228 135.692  1.00  0.00    -0.268 OA
ATOM      5  H2  UNL     1      81.795 187.494 135.562  1.00  0.00     0.162 HD
BRANCH   3   6
HETATM    6  C2  UNL     1      83.719 188.363 137.156  1.00  0.00     0.364 C 
HETATM    7  F1  UNL     1      82.749 187.818 137.987  1.00  0.00    -0.216 F 
BRANCH   6   8
HETATM    8  N1  UNL     1      84.571 189.195 137.942  1.00  0.00    -0.330 N 
ATOM      9  H1  UNL     1      84.455 190.209 137.938  1.00  0.00     0.165 HD
BRANCH   8  10
HETATM   10  C1  UNL     1      85.583 188.585 138.730  1.00  0.00     0.351 C 
HETATM   11  O1  UNL     1      86.130 187.487 138.383  1.00  0.00    -0.284 OA
ENDBRANCH   8  10
ENDBRANCH   6   8
ENDBRANCH   3   6
ENDBRANCH   1   2
BRANCH   1  12
HETATM   12  C5  UNL     1      80.144 189.767 134.510  1.00  0.00     0.144 C 
BRANCH  12  13
HETATM   13  N3  UNL     1      79.976 191.026 133.835  1.00  0.00    -0.342 N 
HETATM   14  C6  UNL     1      78.925 191.926 134.135  1.00  0.00     0.316 C 
HETATM   15  O3  UNL     1      78.062 191.673 135.032  1.00  0.00    -0.247 OA
HETATM   16  N4  UNL     1      78.821 193.160 133.412  1.00  0.00    -0.338 N 
ATOM     17  H4  UNL     1      79.518 193.350 132.692  1.00  0.00     0.164 HD
ATOM     18  H3  UNL     1      80.644 191.282 133.108  1.00  0.00     0.164 HD
BRANCH  16  19
HETATM   19  C7  UNL     1      77.804 194.141 133.633  1.00  0.00     0.195 C 
BRANCH  19  20
HETATM   20  C8  UNL     1      78.337 195.468 134.134  1.00  0.00     0.370 C 
HETATM   21  F2  UNL     1      79.474 195.162 134.886  1.00  0.00    -0.213 F 
HETATM   22  F3  UNL     1      77.416 196.113 134.900  1.00  0.00    -0.213 F 
ENDBRANCH  19  20
ENDBRANCH  16  19
ENDBRANCH  12  13
ENDBRANCH   1  12
TORSDOF 8
ENDMDL
MODEL 3
REMARK VINA RESULT: -6.136924776      1.251      1.510
REMARK  8 active torsions:
REMARK  status: ('A' for Active; 'I' for Inactive)
REMARK    1  A    between atoms: C1_2  and  N1_3 
REMARK    2  A    between atoms: N1_3  and  C2_5 
REMARK    3  A    between atoms: C2_5  and  C3_7 
REMARK       I    between atoms: C3_7  and  N2_9 
REMARK    4  A    between atoms: N2_9  and  C4_11 
REMARK    5  A    between atoms: C4_11  and  C5_12 
REMARK    6  A    between atoms: C5_12  and  N3_13 
REMARK       I    between atoms: N3_13  and  C6_15 
REMARK       I    between atoms: C6_15  and  N4_17 
REMARK    7  A    between atoms: N4_17  and  C7_19 
REMARK    8  A    between atoms: C7_19  and  C8_20 
ROOT
HETATM    1  C4  UNL     1      81.465 188.985 134.377  1.00  0.00     0.142 C 
ENDROOT
BRANCH   1   2
HETATM    2  N2  UNL     1      82.234 188.379 135.442  1.00  0.00    -0.356 N 
HETATM    3  C3  UNL     1      83.223 189.085 136.149  1.00  0.00     0.271 C 
HETATM    4  O2  UNL     1      83.470 190.281 135.866  1.00  0.00    -0.268 OA
ATOM      5  H2  UNL     1      82.053 187.406 135.688  1.00  0.00     0.162 HD
BRANCH   3   6
HETATM    6  C2  UNL     1      83.964 188.390 137.230  1.00  0.00     0.364 C 
HETATM    7  F1  UNL     1      83.099 187.667 138.041  1.00  0.00    -0.216 F 
BRANCH   6   8
HETATM    8  N1  UNL     1      84.720 189.275 138.055  1.00  0.00    -0.330 N 
ATOM      9  H1  UNL     1      84.502 190.272 138.085  1.00  0.00     0.165 HD
BRANCH   8  10
HETATM   10  C1  UNL     1      85.783 188.743 138.832  1.00  0.00     0.351 C 
HETATM   11  O1  UNL     1      86.237 187.569 138.631  1.00  0.00    -0.284 OA
ENDBRANCH   8  10
ENDBRANCH   6   8
ENDBRANCH   3   6
ENDBRANCH   1   2
BRANCH   1  12
HETATM   12  C5  UNL     1      79.986 189.033 134.639  1.00  0.00     0.144 C 
BRANCH  12  13
HETATM   13  N3  UNL     1      79.215 188.199 133.756  1.00  0.00    -0.342 N 
HETATM   14  C6  UNL     1      79.282 186.785 133.779  1.00  0.00     0.316 C 
HETATM   15  O3  UNL     1      80.032 186.164 134.594  1.00  0.00    -0.247 OA
HETATM   16  N4  UNL     1      78.486 186.023 132.861  1.00  0.00    -0.338 N 
ATOM     17  H4  UNL     1      77.890 186.534 132.210  1.00  0.00     0.164 HD
ATOM     18  H3  UNL     1      78.591 188.646 133.084  1.00  0.00     0.164 HD
BRANCH  16  19
HETATM   19  C7  UNL     1      78.474 184.594 132.798  1.00  0.00     0.195 C 
BRANCH  19  20
HETATM   20  C8  UNL     1      77.185 183.974 133.297  1.00  0.00     0.370 C 
HETATM   21  F2  UNL     1      77.070 184.359 134.635  1.00  0.00    -0.213 F 
HETATM   22  F3  UNL     1      77.215 182.618 133.190  1.00  0.00    -0.213 F 
ENDBRANCH  19  20
ENDBRANCH  16  19
ENDBRANCH  12  13
ENDBRANCH   1  12
TORSDOF 8
ENDMDL
MODEL 4
REMARK VINA RESULT: -6.064750078      2.255      8.135
REMARK  8 active torsions:
REMARK  status: ('A' for Active; 'I' for Inactive)
REMARK    1  A    between atoms: C1_2  and  N1_3 
REMARK    2  A    between atoms: N1_3  and  C2_5 
REMARK    3  A    between atoms: C2_5  and  C3_7 
REMARK       I    between atoms: C3_7  and  N2_9 
REMARK    4  A    between atoms: N2_9  and  C4_11 
REMARK    5  A    between atoms: C4_11  and  C5_12 
REMARK    6  A    between atoms: C5_12  and  N3_13 
REMARK       I    between atoms: N3_13  and  C6_15 
REMARK       I    between atoms: C6_15  and  N4_17 
REMARK    7  A    between atoms: N4_17  and  C7_19 
REMARK    8  A    between atoms: C7_19  and  C8_20 
ROOT
HETATM    1  C4  UNL     1      80.498 188.228 134.864  1.00  0.00     0.142 C 
ENDROOT
BRANCH   1   2
HETATM    2  N2  UNL     1      80.136 187.558 133.634  1.00  0.00    -0.356 N 
HETATM    3  C3  UNL     1      79.939 186.167 133.568  1.00  0.00     0.271 C 
HETATM    4  O2  UNL     1      80.078 185.459 134.592  1.00  0.00    -0.268 OA
ATOM      5  H2  UNL     1      80.021 188.113 132.786  1.00  0.00     0.162 HD
BRANCH   3   6
HETATM    6  C2  UNL     1      79.565 185.560 132.266  1.00  0.00     0.364 C 
HETATM    7  F1  UNL     1      80.325 184.426 132.010  1.00  0.00    -0.216 F 
BRANCH   6   8
HETATM    8  N1  UNL     1      79.706 186.456 131.165  1.00  0.00    -0.330 N 
ATOM      9  H1  UNL     1      79.926 187.440 131.321  1.00  0.00     0.165 HD
BRANCH   8  10
HETATM   10  C1  UNL     1      79.532 185.952 129.849  1.00  0.00     0.351 C 
HETATM   11  O1  UNL     1      80.510 185.845 129.039  1.00  0.00    -0.284 OA
ENDBRANCH   8  10
ENDBRANCH   6   8
ENDBRANCH   3   6
ENDBRANCH   1   2
BRANCH   1  12
HETATM   12  C5  UNL     1      81.938 188.654 134.931  1.00  0.00     0.144 C 
BRANCH  12  13
HETATM   13  N3  UNL     1      82.432 188.810 136.273  1.00  0.00    -0.342 N 
HETATM   14  C6  UNL     1      83.697 188.327 136.688  1.00  0.00     0.316 C 
HETATM   15  O3  UNL     1      84.480 187.727 135.889  1.00  0.00    -0.247 OA
HETATM   16  N4  UNL     1      84.116 188.516 138.047  1.00  0.00    -0.338 N 
ATOM     17  H4  UNL     1      83.477 188.998 138.680  1.00  0.00     0.164 HD
ATOM     18  H3  UNL     1      81.846 189.290 136.956  1.00  0.00     0.164 HD
BRANCH  16  19
HETATM   19  C7  UNL     1      85.370 188.074 138.573  1.00  0.00     0.195 C 
BRANCH  19  20
HETATM   20  C8  UNL     1      86.210 189.188 139.162  1.00  0.00     0.370 C 
HETATM   21  F2  UNL     1      86.792 188.657 140.315  1.00  0.00    -0.213 F 
HETATM   22  F3  UNL     1      85.449 190.273 139.467  1.00  0.00    -0.213 F 
ENDBRANCH  19  20
ENDBRANCH  16  19
ENDBRANCH  12  13
ENDBRANCH   1  12
TORSDOF 8
ENDMDL
MODEL 5
REMARK VINA RESULT: -6.043252571      5.002      6.645
REMARK  8 active torsions:
REMARK  status: ('A' for Active; 'I' for Inactive)
REMARK    1  A    between atoms: C1_2  and  N1_3 
REMARK    2  A    between atoms: N1_3  and  C2_5 
REMARK    3  A    between atoms: C2_5  and  C3_7 
REMARK       I    between atoms: C3_7  and  N2_9 
REMARK    4  A    between atoms: N2_9  and  C4_11 
REMARK    5  A    between atoms: C4_11  and  C5_12 
REMARK    6  A    between atoms: C5_12  and  N3_13 
REMARK       I    between atoms: N3_13  and  C6_15 
REMARK       I    between atoms: C6_15  and  N4_17 
REMARK    7  A    between atoms: N4_17  and  C7_19 
REMARK    8  A    between atoms: C7_19  and  C8_20 
ROOT
HETATM    1  C4  UNL     1      80.434 189.417 133.073  1.00  0.00     0.142 C 
ENDROOT
BRANCH   1   2
HETATM    2  N2  UNL     1      81.361 189.762 134.128  1.00  0.00    -0.356 N 
HETATM    3  C3  UNL     1      81.921 188.795 134.981  1.00  0.00     0.271 C 
HETATM    4  O2  UNL     1      81.622 187.585 134.848  1.00  0.00    -0.268 OA
ATOM      5  H2  UNL     1      81.618 190.741 134.258  1.00  0.00     0.162 HD
BRANCH   3   6
HETATM    6  C2  UNL     1      82.868 189.234 136.036  1.00  0.00     0.364 C 
HETATM    7  F1  UNL     1      83.496 190.419 135.679  1.00  0.00    -0.216 F 
BRANCH   6   8
HETATM    8  N1  UNL     1      83.871 188.263 136.331  1.00  0.00    -0.330 N 
ATOM      9  H1  UNL     1      84.177 187.598 135.620  1.00  0.00     0.165 HD
BRANCH   8  10
HETATM   10  C1  UNL     1      84.436 188.240 137.635  1.00  0.00     0.351 C 
HETATM   11  O1  UNL     1      85.417 187.480 137.926  1.00  0.00    -0.284 OA
ENDBRANCH   8  10
ENDBRANCH   6   8
ENDBRANCH   3   6
ENDBRANCH   1   2
BRANCH   1  12
HETATM   12  C5  UNL     1      79.275 190.364 132.940  1.00  0.00     0.144 C 
BRANCH  12  13
HETATM   13  N3  UNL     1      79.400 191.548 133.747  1.00  0.00    -0.342 N 
HETATM   14  C6  UNL     1      78.562 192.679 133.590  1.00  0.00     0.316 C 
HETATM   15  O3  UNL     1      77.636 192.711 132.721  1.00  0.00    -0.247 OA
HETATM   16  N4  UNL     1      78.754 193.825 134.430  1.00  0.00    -0.338 N 
ATOM     17  H4  UNL     1      79.502 193.788 135.123  1.00  0.00     0.164 HD
ATOM     18  H3  UNL     1      80.124 191.574 134.464  1.00  0.00     0.164 HD
BRANCH  16  19
HETATM   19  C7  UNL     1      77.967 195.016 134.361  1.00  0.00     0.195 C 
BRANCH  19  20
HETATM   20  C8  UNL     1      78.774 196.290 134.508  1.00  0.00     0.370 C 
HETATM   21  F2  UNL     1      79.269 196.575 133.233  1.00  0.00    -0.213 F 
HETATM   22  F3  UNL     1      79.795 196.128 135.392  1.00  0.00    -0.213 F 
ENDBRANCH  19  20
ENDBRANCH  16  19
ENDBRANCH  12  13
ENDBRANCH   1  12
TORSDOF 8
ENDMDL
