MODEL 1
REMARK VINA RESULT: -5.771611263      0.000      0.000
REMARK  9 active torsions:
REMARK  status: ('A' for Active; 'I' for Inactive)
REMARK    1  A    between atoms: C2_2  and  C3_3 
REMARK    2  A    between atoms: C3_3  and  C4_5 
REMARK    3  A    between atoms: C4_5  and  N1_6 
REMARK    4  A    between atoms: C4_5  and  N2_10 
REMARK    5  A    between atoms: N2_10  and  C5_12 
REMARK    6  A    between atoms: C5_12  and  C6_13 
REMARK    7  A    between atoms: C6_13  and  N3_14 
REMARK       I    between atoms: N3_14  and  C7_16 
REMARK       I    between atoms: C7_16  and  N4_18 
REMARK    8  A    between atoms: N4_18  and  C8_20 
REMARK    9  A    between atoms: C8_20  and  C9_21 
ROOT
HETATM    1  C5  UNL     1      82.162 190.001 134.566  1.00  0.00     0.135 C 
ENDROOT
BRANCH   1   2
HETATM    2  N2  UNL     1      80.900 190.451 134.109  1.00  0.00    -0.392 N 
ATOM      3  H2  UNL     1      80.516 191.349 134.405  1.00  0.00     0.155 HD
BRANCH   2   4
HETATM    4  C4  UNL     1      80.188 189.598 133.218  1.00  0.00     0.315 C 
BRANCH   4   5
HETATM    5  C3  UNL     1      78.819 189.224 133.617  1.00  0.00     0.241 C 
HETATM    6  F1  UNL     1      78.861 187.951 134.195  1.00  0.00    -0.241 F 
BRANCH   5   7
HETATM    7  C2  UNL     1      78.335 190.136 134.679  1.00  0.00     0.003 C 
HETATM    8  C1  UNL     1      77.752 189.774 135.804  1.00  0.00     0.010 C 
ENDBRANCH   5   7
ENDBRANCH   4   5
BRANCH   4   9
HETATM    9  N1  UNL     1      80.107 190.294 131.939  1.00  0.00    -0.056 N 
ATOM     10  H13 UNL     1      79.825 189.682 131.173  1.00  0.00     0.276 HD
ATOM     11  H12 UNL     1      79.322 190.943 131.890  1.00  0.00     0.276 HD
ATOM     12  H11 UNL     1      81.006 190.747 131.771  1.00  0.00     0.276 HD
ENDBRANCH   4   9
ENDBRANCH   2   4
ENDBRANCH   1   2
BRANCH   1  13
HETATM   13  C6  UNL     1      81.970 188.687 135.298  1.00  0.00     0.143 C 
BRANCH  13  14
HETATM   14  N3  UNL     1      82.411 188.753 136.660  1.00  0.00    -0.342 N 
HETATM   15  C7  UNL     1      83.753 188.339 136.965  1.00  0.00     0.316 C 
HETATM   16  O1  UNL     1      84.481 187.941 136.051  1.00  0.00    -0.247 OA
HETATM   17  N4  UNL     1      84.220 188.390 138.296  1.00  0.00    -0.338 N 
ATOM     18  H4  UNL     1      83.595 188.716 139.033  1.00  0.00     0.164 HD
ATOM     19  H3  UNL     1      81.788 189.085 137.396  1.00  0.00     0.164 HD
BRANCH  17  20
HETATM   20  C8  UNL     1      85.551 187.995 138.631  1.00  0.00     0.195 C 
BRANCH  20  21
HETATM   21  C9  UNL     1      86.368 189.086 139.227  1.00  0.00     0.370 C 
HETATM   22  F2  UNL     1      85.499 190.161 139.462  1.00  0.00    -0.213 F 
HETATM   23  F3  UNL     1      86.878 188.701 140.460  1.00  0.00    -0.213 F 
ENDBRANCH  20  21
ENDBRANCH  17  20
ENDBRANCH  13  14
ENDBRANCH   1  13
TORSDOF 9
ENDMDL
MODEL 2
REMARK VINA RESULT: -5.759434023      2.475      2.708
REMARK  9 active torsions:
REMARK  status: ('A' for Active; 'I' for Inactive)
REMARK    1  A    between atoms: C2_2  and  C3_3 
REMARK    2  A    between atoms: C3_3  and  C4_5 
REMARK    3  A    between atoms: C4_5  and  N1_6 
REMARK    4  A    between atoms: C4_5  and  N2_10 
REMARK    5  A    between atoms: N2_10  and  C5_12 
REMARK    6  A    between atoms: C5_12  and  C6_13 
REMARK    7  A    between atoms: C6_13  and  N3_14 
REMARK       I    between atoms: N3_14  and  C7_16 
REMARK       I    between atoms: C7_16  and  N4_18 
REMARK    8  A    between atoms: N4_18  and  C8_20 
REMARK    9  A    between atoms: C8_20  and  C9_21 
ROOT
HETATM    1  C5  UNL     1      80.503 188.466 135.080  1.00  0.00     0.135 C 
ENDROOT
BRANCH   1   2
HETATM    2  N2  UNL     1      80.140 187.149 134.707  1.00  0.00    -0.392 N 
ATOM      3  H2  UNL     1      79.914 186.441 135.406  1.00  0.00     0.155 HD
BRANCH   2   4
HETATM    4  C4  UNL     1      80.104 186.854 133.314  1.00  0.00     0.315 C 
BRANCH   4   5
HETATM    5  C3  UNL     1      79.686 185.491 132.940  1.00  0.00     0.241 C 
HETATM    6  F1  UNL     1      80.832 184.701 132.800  1.00  0.00    -0.241 F 
BRANCH   5   7
HETATM    7  C2  UNL     1      78.905 184.882 134.041  1.00  0.00     0.003 C 
HETATM    8  C1  UNL     1      77.677 184.413 133.952  1.00  0.00     0.010 C 
ENDBRANCH   5   7
ENDBRANCH   4   5
BRANCH   4   9
HETATM    9  N1  UNL     1      79.168 187.793 132.706  1.00  0.00    -0.056 N 
ATOM     10  H13 UNL     1      78.562 187.354 132.013  1.00  0.00     0.276 HD
ATOM     11  H12 UNL     1      78.438 188.097 133.351  1.00  0.00     0.276 HD
ATOM     12  H11 UNL     1      79.707 188.570 132.324  1.00  0.00     0.276 HD
ENDBRANCH   4   9
ENDBRANCH   2   4
ENDBRANCH   1   2
BRANCH   1  13
HETATM   13  C6  UNL     1      82.013 188.535 135.200  1.00  0.00     0.143 C 
BRANCH  13  14
HETATM   14  N3  UNL     1      82.445 188.706 136.557  1.00  0.00    -0.342 N 
HETATM   15  C7  UNL     1      83.781 188.309 136.905  1.00  0.00     0.316 C 
HETATM   16  O1  UNL     1      84.513 187.835 136.031  1.00  0.00    -0.247 OA
HETATM   17  N4  UNL     1      84.238 188.462 138.231  1.00  0.00    -0.338 N 
ATOM     18  H4  UNL     1      83.609 188.850 138.935  1.00  0.00     0.164 HD
ATOM     19  H3  UNL     1      81.818 189.100 137.258  1.00  0.00     0.164 HD
BRANCH  17  20
HETATM   20  C8  UNL     1      85.564 188.086 138.607  1.00  0.00     0.195 C 
BRANCH  20  21
HETATM   21  C9  UNL     1      86.334 189.180 139.258  1.00  0.00     0.370 C 
HETATM   22  F2  UNL     1      85.427 190.215 139.519  1.00  0.00    -0.213 F 
HETATM   23  F3  UNL     1      86.838 188.764 140.484  1.00  0.00    -0.213 F 
ENDBRANCH  20  21
ENDBRANCH  17  20
ENDBRANCH  13  14
ENDBRANCH   1  13
TORSDOF 9
ENDMDL
MODEL 3
REMARK VINA RESULT: -5.699514357      2.574      3.043
REMARK  9 active torsions:
REMARK  status: ('A' for Active; 'I' for Inactive)
REMARK    1  A    between atoms: C2_2  and  C3_3 
REMARK    2  A    between atoms: C3_3  and  C4_5 
REMARK    3  A    between atoms: C4_5  and  N1_6 
REMARK    4  A    between atoms: C4_5  and  N2_10 
REMARK    5  A    between atoms: N2_10  and  C5_12 
REMARK    6  A    between atoms: C5_12  and  C6_13 
REMARK    7  A    between atoms: C6_13  and  N3_14 
REMARK       I    between atoms: N3_14  and  C7_16 
REMARK       I    between atoms: C7_16  and  N4_18 
REMARK    8  A    between atoms: N4_18  and  C8_20 
REMARK    9  A    between atoms: C8_20  and  C9_21 
ROOT
HETATM    1  C5  UNL     1      80.765 187.932 134.992  1.00  0.00     0.135 C 
ENDROOT
BRANCH   1   2
HETATM    2  N2  UNL     1      80.571 187.730 133.605  1.00  0.00    -0.392 N 
ATOM      3  H2  UNL     1      81.140 188.218 132.912  1.00  0.00     0.155 HD
BRANCH   2   4
HETATM    4  C4  UNL     1      79.550 186.818 133.216  1.00  0.00     0.315 C 
BRANCH   4   5
HETATM    5  C3  UNL     1      79.885 185.384 133.287  1.00  0.00     0.241 C 
HETATM    6  F1  UNL     1      79.389 184.873 134.490  1.00  0.00    -0.241 F 
BRANCH   5   7
HETATM    7  C2  UNL     1      79.181 184.647 132.212  1.00  0.00     0.003 C 
HETATM    8  C1  UNL     1      79.578 184.536 130.960  1.00  0.00     0.010 C 
ENDBRANCH   5   7
ENDBRANCH   4   5
BRANCH   4   9
HETATM    9  N1  UNL     1      78.411 187.056 134.097  1.00  0.00    -0.056 N 
ATOM     10  H13 UNL     1      77.585 187.379 133.595  1.00  0.00     0.276 HD
ATOM     11  H12 UNL     1      78.014 186.194 134.472  1.00  0.00     0.276 HD
ATOM     12  H11 UNL     1      78.710 187.704 134.826  1.00  0.00     0.276 HD
ENDBRANCH   4   9
ENDBRANCH   2   4
ENDBRANCH   1   2
BRANCH   1  13
HETATM   13  C6  UNL     1      82.087 188.647 135.197  1.00  0.00     0.143 C 
BRANCH  13  14
HETATM   14  N3  UNL     1      82.464 188.711 136.578  1.00  0.00    -0.342 N 
HETATM   15  C7  UNL     1      83.793 188.306 136.944  1.00  0.00     0.316 C 
HETATM   16  O1  UNL     1      84.566 187.917 136.063  1.00  0.00    -0.247 OA
HETATM   17  N4  UNL     1      84.197 188.356 138.295  1.00  0.00    -0.338 N 
ATOM     18  H4  UNL     1      83.536 188.674 139.003  1.00  0.00     0.164 HD
ATOM     19  H3  UNL     1      81.804 189.037 137.285  1.00  0.00     0.164 HD
BRANCH  17  20
HETATM   20  C8  UNL     1      85.514 187.969 138.690  1.00  0.00     0.195 C 
BRANCH  20  21
HETATM   21  C9  UNL     1      86.340 189.094 139.206  1.00  0.00     0.370 C 
HETATM   22  F2  UNL     1      85.460 190.152 139.475  1.00  0.00    -0.213 F 
HETATM   23  F3  UNL     1      86.941 188.751 140.410  1.00  0.00    -0.213 F 
ENDBRANCH  20  21
ENDBRANCH  17  20
ENDBRANCH  13  14
ENDBRANCH   1  13
TORSDOF 9
ENDMDL
MODEL 4
REMARK VINA RESULT: -5.608241270      1.056      1.093
REMARK  9 active torsions:
REMARK  status: ('A' for Active; 'I' for Inactive)
REMARK    1  A    between atoms: C2_2  and  C3_3 
REMARK    2  A    between atoms: C3_3  and  C4_5 
REMARK    3  A    between atoms: C4_5  and  N1_6 
REMARK    4  A    between atoms: C4_5  and  N2_10 
REMARK    5  A    between atoms: N2_10  and  C5_12 
REMARK    6  A    between atoms: C5_12  and  C6_13 
REMARK    7  A    between atoms: C6_13  and  N3_14 
REMARK       I    between atoms: N3_14  and  C7_16 
REMARK       I    between atoms: C7_16  and  N4_18 
REMARK    8  A    between atoms: N4_18  and  C8_20 
REMARK    9  A    between atoms: C8_20  and  C9_21 
ROOT
HETATM    1  C5  UNL     1      81.750 189.818 134.652  1.00  0.00     0.135 C 
ENDROOT
BRANCH   1   2
HETATM    2  N2  UNL     1      81.083 189.605 133.421  1.00  0.00    -0.392 N 
ATOM      3  H2  UNL     1      81.580 189.256 132.601  1.00  0.00     0.155 HD
BRANCH   2   4
HETATM    4  C4  UNL     1      79.691 189.898 133.376  1.00  0.00     0.315 C 
BRANCH   4   5
HETATM    5  C3  UNL     1      79.099 190.479 134.595  1.00  0.00     0.241 C 
HETATM    6  F1  UNL     1      78.459 191.673 134.249  1.00  0.00    -0.241 F 
BRANCH   5   7
HETATM    7  C2  UNL     1      78.039 189.586 135.117  1.00  0.00     0.003 C 
HETATM    8  C1  UNL     1      77.231 189.849 136.124  1.00  0.00     0.010 C 
ENDBRANCH   5   7
ENDBRANCH   4   5
BRANCH   4   9
HETATM    9  N1  UNL     1      79.492 190.846 132.285  1.00  0.00    -0.056 N 
ATOM     10  H13 UNL     1      78.716 190.591 131.676  1.00  0.00     0.276 HD
ATOM     11  H12 UNL     1      79.126 191.744 132.603  1.00  0.00     0.276 HD
ATOM     12  H11 UNL     1      80.376 190.935 131.783  1.00  0.00     0.276 HD
ENDBRANCH   4   9
ENDBRANCH   2   4
ENDBRANCH   1   2
BRANCH   1  13
HETATM   13  C6  UNL     1      81.951 188.477 135.331  1.00  0.00     0.143 C 
BRANCH  13  14
HETATM   14  N3  UNL     1      82.417 188.614 136.679  1.00  0.00    -0.342 N 
HETATM   15  C7  UNL     1      83.782 188.270 136.970  1.00  0.00     0.316 C 
HETATM   16  O1  UNL     1      84.507 187.868 136.055  1.00  0.00    -0.247 OA
HETATM   17  N4  UNL     1      84.274 188.392 138.287  1.00  0.00    -0.338 N 
ATOM     18  H4  UNL     1      83.651 188.718 139.025  1.00  0.00     0.164 HD
ATOM     19  H3  UNL     1      81.795 188.948 137.416  1.00  0.00     0.164 HD
BRANCH  17  20
HETATM   20  C8  UNL     1      85.628 188.066 138.606  1.00  0.00     0.195 C 
BRANCH  20  21
HETATM   21  C9  UNL     1      86.375 189.179 139.252  1.00  0.00     0.370 C 
HETATM   22  F2  UNL     1      85.447 190.202 139.496  1.00  0.00    -0.213 F 
HETATM   23  F3  UNL     1      86.877 188.784 140.485  1.00  0.00    -0.213 F 
ENDBRANCH  20  21
ENDBRANCH  17  20
ENDBRANCH  13  14
ENDBRANCH   1  13
TORSDOF 9
ENDMDL
MODEL 5
REMARK VINA RESULT: -5.487392535      1.411      2.054
REMARK  9 active torsions:
REMARK  status: ('A' for Active; 'I' for Inactive)
REMARK    1  A    between atoms: C2_2  and  C3_3 
REMARK    2  A    between atoms: C3_3  and  C4_5 
REMARK    3  A    between atoms: C4_5  and  N1_6 
REMARK    4  A    between atoms: C4_5  and  N2_10 
REMARK    5  A    between atoms: N2_10  and  C5_12 
REMARK    6  A    between atoms: C5_12  and  C6_13 
REMARK    7  A    between atoms: C6_13  and  N3_14 
REMARK       I    between atoms: N3_14  and  C7_16 
REMARK       I    between atoms: C7_16  and  N4_18 
REMARK    8  A    between atoms: N4_18  and  C8_20 
REMARK    9  A    between atoms: C8_20  and  C9_21 
ROOT
HETATM    1  C5  UNL     1      81.857 189.839 134.608  1.00  0.00     0.135 C 
ENDROOT
BRANCH   1   2
HETATM    2  N2  UNL     1      80.568 189.924 134.030  1.00  0.00    -0.392 N 
ATOM      3  H2  UNL     1      79.742 190.118 134.598  1.00  0.00     0.155 HD
BRANCH   2   4
HETATM    4  C4  UNL     1      80.470 189.728 132.624  1.00  0.00     0.315 C 
BRANCH   4   5
HETATM    5  C3  UNL     1      79.903 188.443 132.176  1.00  0.00     0.241 C 
HETATM    6  F1  UNL     1      78.689 188.241 132.840  1.00  0.00    -0.241 F 
BRANCH   5   7
HETATM    7  C2  UNL     1      79.570 188.513 130.734  1.00  0.00     0.003 C 
HETATM    8  C1  UNL     1      79.789 187.569 129.842  1.00  0.00     0.010 C 
ENDBRANCH   5   7
ENDBRANCH   4   5
BRANCH   4   9
HETATM    9  N1  UNL     1      79.626 190.797 132.103  1.00  0.00    -0.056 N 
ATOM     10  H13 UNL     1      79.376 190.662 131.124  1.00  0.00     0.276 HD
ATOM     11  H12 UNL     1      78.682 190.779 132.489  1.00  0.00     0.276 HD
ATOM     12  H11 UNL     1      80.105 191.683 132.270  1.00  0.00     0.276 HD
ENDBRANCH   4   9
ENDBRANCH   2   4
ENDBRANCH   1   2
BRANCH   1  13
HETATM   13  C6  UNL     1      81.970 188.519 135.346  1.00  0.00     0.143 C 
BRANCH  13  14
HETATM   14  N3  UNL     1      82.448 188.683 136.687  1.00  0.00    -0.342 N 
HETATM   15  C7  UNL     1      83.801 188.301 136.983  1.00  0.00     0.316 C 
HETATM   16  O1  UNL     1      84.508 187.845 136.079  1.00  0.00    -0.247 OA
HETATM   17  N4  UNL     1      84.303 188.448 138.294  1.00  0.00    -0.338 N 
ATOM     18  H4  UNL     1      83.695 188.820 139.024  1.00  0.00     0.164 HD
ATOM     19  H3  UNL     1      81.841 189.062 137.415  1.00  0.00     0.164 HD
BRANCH  17  20
HETATM   20  C8  UNL     1      85.646 188.087 138.619  1.00  0.00     0.195 C 
BRANCH  20  21
HETATM   21  C9  UNL     1      86.424 189.183 139.256  1.00  0.00     0.370 C 
HETATM   22  F2  UNL     1      85.513 190.203 139.561  1.00  0.00    -0.213 F 
HETATM   23  F3  UNL     1      86.975 188.759 140.460  1.00  0.00    -0.213 F 
ENDBRANCH  20  21
ENDBRANCH  17  20
ENDBRANCH  13  14
ENDBRANCH   1  13
TORSDOF 9
ENDMDL
