MODEL 1
REMARK VINA RESULT: -5.761176998      0.000      0.000
REMARK  9 active torsions:
REMARK  status: ('A' for Active; 'I' for Inactive)
REMARK    1  A    between atoms: C1_2  and  N1_3 
REMARK    2  A    between atoms: N1_3  and  C2_5 
REMARK    3  A    between atoms: C2_5  and  C3_6 
REMARK    4  A    between atoms: C2_5  and  C8_20 
REMARK    5  A    between atoms: C3_6  and  N2_7 
REMARK       I    between atoms: N2_7  and  C4_9 
REMARK       I    between atoms: C4_9  and  N3_11 
REMARK    6  A    between atoms: C5_13  and  N4_14 
REMARK    7  A    between atoms: N4_14  and  C6_16 
REMARK    8  A    between atoms: C6_16  and  C7_17 
REMARK    9  A    between atoms: C8_20  and  O3_21 
ROOT
HETATM    1  N2  UNL     1      81.811 189.800 135.072  1.00  0.00    -0.341 N 
ATOM      2  H2  UNL     1      82.024 190.582 135.691  1.00  0.00     0.164 HD
HETATM    3  C4  UNL     1      82.066 188.488 135.508  1.00  0.00     0.321 C 
HETATM    4  O2  UNL     1      81.863 187.436 134.862  1.00  0.00    -0.247 OA
HETATM    5  N3  UNL     1      82.615 188.313 136.821  1.00  0.00    -0.305 N 
ATOM      6  H3  UNL     1      81.992 188.074 137.593  1.00  0.00     0.171 HD
HETATM    7  C5  UNL     1      83.869 188.450 137.052  1.00  0.00     0.180 C 
ENDROOT
BRANCH   1   8
HETATM    8  C3  UNL     1      81.260 190.064 133.782  1.00  0.00     0.154 C 
BRANCH   8   9
HETATM    9  C2  UNL     1      79.758 190.158 133.837  1.00  0.00     0.161 C 
BRANCH   9  10
HETATM   10  N1  UNL     1      79.366 191.350 133.131  1.00  0.00    -0.357 N 
ATOM     11  H1  UNL     1      79.693 191.442 132.170  1.00  0.00     0.162 HD
BRANCH  10  12
HETATM   12  C1  UNL     1      78.587 192.387 133.628  1.00  0.00     0.349 C 
HETATM   13  O1  UNL     1      78.935 193.581 133.468  1.00  0.00    -0.284 OA
ENDBRANCH  10  12
ENDBRANCH   9  10
BRANCH   9  14
HETATM   14  C8  UNL     1      79.177 188.903 133.245  1.00  0.00     0.328 C 
HETATM   15  F3  UNL     1      78.631 188.056 134.153  1.00  0.00    -0.218 F 
BRANCH  14  16
HETATM   16  O3  UNL     1      80.190 188.228 132.567  1.00  0.00    -0.365 OA
ATOM     17  H3  UNL     1      79.793 187.547 132.037  1.00  0.00     0.213 HD
ENDBRANCH  14  16
ENDBRANCH   9  14
ENDBRANCH   8   9
ENDBRANCH   1   8
BRANCH   7  18
HETATM   18  N4  UNL     1      84.369 188.271 138.353  1.00  0.00    -0.381 N 
ATOM     19  H4  UNL     1      83.739 188.318 139.154  1.00  0.00     0.160 HD
BRANCH  18  20
HETATM   20  C6  UNL     1      85.775 188.023 138.552  1.00  0.00     0.191 C 
BRANCH  20  21
HETATM   21  C7  UNL     1      86.446 189.179 139.270  1.00  0.00     0.370 C 
HETATM   22  F1  UNL     1      85.482 190.126 139.560  1.00  0.00    -0.213 F 
HETATM   23  F2  UNL     1      87.023 188.700 140.426  1.00  0.00    -0.213 F 
ENDBRANCH  20  21
ENDBRANCH  18  20
ENDBRANCH   7  18
TORSDOF 9
ENDMDL
MODEL 2
REMARK VINA RESULT: -5.682202126      1.417      1.563
REMARK  9 active torsions:
REMARK  status: ('A' for Active; 'I' for Inactive)
REMARK    1  A    between atoms: C1_2  and  N1_3 
REMARK    2  A    between atoms: N1_3  and  C2_5 
REMARK    3  A    between atoms: C2_5  and  C3_6 
REMARK    4  A    between atoms: C2_5  and  C8_20 
REMARK    5  A    between atoms: C3_6  and  N2_7 
REMARK       I    between atoms: N2_7  and  C4_9 
REMARK       I    between atoms: C4_9  and  N3_11 
REMARK    6  A    between atoms: C5_13  and  N4_14 
REMARK    7  A    between atoms: N4_14  and  C6_16 
REMARK    8  A    between atoms: C6_16  and  C7_17 
REMARK    9  A    between atoms: C8_20  and  O3_21 
ROOT
HETATM    1  N2  UNL     1      81.573 189.675 134.772  1.00  0.00    -0.341 N 
ATOM      2  H2  UNL     1      81.773 190.515 135.316  1.00  0.00     0.164 HD
HETATM    3  C4  UNL     1      81.867 188.414 135.322  1.00  0.00     0.321 C 
HETATM    4  O2  UNL     1      81.684 187.303 134.776  1.00  0.00    -0.247 OA
HETATM    5  N3  UNL     1      82.434 188.372 136.638  1.00  0.00    -0.305 N 
ATOM      6  H3  UNL     1      81.825 188.189 137.436  1.00  0.00     0.171 HD
HETATM    7  C5  UNL     1      83.686 188.561 136.839  1.00  0.00     0.180 C 
ENDROOT
BRANCH   1   8
HETATM    8  C3  UNL     1      81.002 189.807 133.470  1.00  0.00     0.154 C 
BRANCH   8   9
HETATM    9  C2  UNL     1      79.687 190.540 133.522  1.00  0.00     0.161 C 
BRANCH   9  10
HETATM   10  N1  UNL     1      79.360 190.949 132.181  1.00  0.00    -0.357 N 
ATOM     11  H1  UNL     1      78.765 191.772 132.085  1.00  0.00     0.162 HD
BRANCH  10  12
HETATM   12  C1  UNL     1      79.773 190.337 131.005  1.00  0.00     0.349 C 
HETATM   13  O1  UNL     1      80.484 190.956 130.177  1.00  0.00    -0.284 OA
ENDBRANCH  10  12
ENDBRANCH   9  10
BRANCH   9  14
HETATM   14  C8  UNL     1      78.655 189.630 134.131  1.00  0.00     0.328 C 
HETATM   15  F3  UNL     1      78.573 189.701 135.482  1.00  0.00    -0.218 F 
BRANCH  14  16
HETATM   16  O3  UNL     1      78.964 188.317 133.777  1.00  0.00    -0.365 OA
ATOM     17  H3  UNL     1      78.301 188.007 133.172  1.00  0.00     0.213 HD
ENDBRANCH  14  16
ENDBRANCH   9  14
ENDBRANCH   8   9
ENDBRANCH   1   8
BRANCH   7  18
HETATM   18  N4  UNL     1      84.205 188.513 138.145  1.00  0.00    -0.381 N 
ATOM     19  H4  UNL     1      83.617 188.771 138.938  1.00  0.00     0.160 HD
BRANCH  18  20
HETATM   20  C6  UNL     1      85.568 188.099 138.359  1.00  0.00     0.191 C 
BRANCH  20  21
HETATM   21  C7  UNL     1      86.335 189.120 139.179  1.00  0.00     0.370 C 
HETATM   22  F1  UNL     1      85.472 190.151 139.503  1.00  0.00    -0.213 F 
HETATM   23  F2  UNL     1      86.806 188.502 140.318  1.00  0.00    -0.213 F 
ENDBRANCH  20  21
ENDBRANCH  18  20
ENDBRANCH   7  18
TORSDOF 9
ENDMDL
MODEL 3
REMARK VINA RESULT: -5.447362154      2.100      3.063
REMARK  9 active torsions:
REMARK  status: ('A' for Active; 'I' for Inactive)
REMARK    1  A    between atoms: C1_2  and  N1_3 
REMARK    2  A    between atoms: N1_3  and  C2_5 
REMARK    3  A    between atoms: C2_5  and  C3_6 
REMARK    4  A    between atoms: C2_5  and  C8_20 
REMARK    5  A    between atoms: C3_6  and  N2_7 
REMARK       I    between atoms: N2_7  and  C4_9 
REMARK       I    between atoms: C4_9  and  N3_11 
REMARK    6  A    between atoms: C5_13  and  N4_14 
REMARK    7  A    between atoms: N4_14  and  C6_16 
REMARK    8  A    between atoms: C6_16  and  C7_17 
REMARK    9  A    between atoms: C8_20  and  O3_21 
ROOT
HETATM    1  N2  UNL     1      81.476 188.205 135.493  1.00  0.00    -0.341 N 
ATOM      2  H2  UNL     1      81.519 187.249 135.847  1.00  0.00     0.164 HD
HETATM    3  C4  UNL     1      82.623 189.015 135.562  1.00  0.00     0.321 C 
HETATM    4  O2  UNL     1      82.720 190.201 135.177  1.00  0.00    -0.247 OA
HETATM    5  N3  UNL     1      83.811 188.447 136.129  1.00  0.00    -0.305 N 
ATOM      6  H3  UNL     1      84.534 188.084 135.507  1.00  0.00     0.171 HD
HETATM    7  C5  UNL     1      83.990 188.384 137.397  1.00  0.00     0.180 C 
ENDROOT
BRANCH   1   8
HETATM    8  C3  UNL     1      80.252 188.688 134.939  1.00  0.00     0.154 C 
BRANCH   8   9
HETATM    9  C2  UNL     1      80.080 188.234 133.513  1.00  0.00     0.161 C 
BRANCH   9  10
HETATM   10  N1  UNL     1      78.990 187.293 133.481  1.00  0.00    -0.357 N 
ATOM     11  H1  UNL     1      78.091 187.644 133.151  1.00  0.00     0.162 HD
BRANCH  10  12
HETATM   12  C1  UNL     1      79.040 185.956 133.852  1.00  0.00     0.349 C 
HETATM   13  O1  UNL     1      80.114 185.443 134.249  1.00  0.00    -0.284 OA
ENDBRANCH  10  12
ENDBRANCH   9  10
BRANCH   9  14
HETATM   14  C8  UNL     1      79.844 189.443 132.650  1.00  0.00     0.328 C 
HETATM   15  F3  UNL     1      80.101 189.250 131.333  1.00  0.00    -0.218 F 
BRANCH  14  16
HETATM   16  O3  UNL     1      80.657 190.477 133.111  1.00  0.00    -0.365 OA
ATOM     17  H3  UNL     1      81.038 190.915 132.359  1.00  0.00     0.213 HD
ENDBRANCH  14  16
ENDBRANCH   9  14
ENDBRANCH   8   9
ENDBRANCH   1   8
BRANCH   7  18
HETATM   18  N4  UNL     1      85.169 187.818 137.915  1.00  0.00    -0.381 N 
ATOM     19  H4  UNL     1      85.772 187.255 137.316  1.00  0.00     0.160 HD
BRANCH  18  20
HETATM   20  C6  UNL     1      85.522 188.038 139.295  1.00  0.00     0.191 C 
BRANCH  20  21
HETATM   21  C7  UNL     1      86.513 189.178 139.438  1.00  0.00     0.370 C 
HETATM   22  F1  UNL     1      85.803 190.343 139.659  1.00  0.00    -0.213 F 
HETATM   23  F2  UNL     1      87.343 188.904 140.504  1.00  0.00    -0.213 F 
ENDBRANCH  20  21
ENDBRANCH  18  20
ENDBRANCH   7  18
TORSDOF 9
ENDMDL
MODEL 4
REMARK VINA RESULT: -5.360291855      1.323      2.562
REMARK  9 active torsions:
REMARK  status: ('A' for Active; 'I' for Inactive)
REMARK    1  A    between atoms: C1_2  and  N1_3 
REMARK    2  A    between atoms: N1_3  and  C2_5 
REMARK    3  A    between atoms: C2_5  and  C3_6 
REMARK    4  A    between atoms: C2_5  and  C8_20 
REMARK    5  A    between atoms: C3_6  and  N2_7 
REMARK       I    between atoms: N2_7  and  C4_9 
REMARK       I    between atoms: C4_9  and  N3_11 
REMARK    6  A    between atoms: C5_13  and  N4_14 
REMARK    7  A    between atoms: N4_14  and  C6_16 
REMARK    8  A    between atoms: C6_16  and  C7_17 
REMARK    9  A    between atoms: C8_20  and  O3_21 
ROOT
HETATM    1  N2  UNL     1      81.434 189.627 134.557  1.00  0.00    -0.341 N 
ATOM      2  H2  UNL     1      81.607 190.491 135.071  1.00  0.00     0.164 HD
HETATM    3  C4  UNL     1      81.750 188.395 135.159  1.00  0.00     0.321 C 
HETATM    4  O2  UNL     1      81.601 187.260 134.654  1.00  0.00    -0.247 OA
HETATM    5  N3  UNL     1      82.301 188.418 136.482  1.00  0.00    -0.305 N 
ATOM      6  H3  UNL     1      81.687 188.250 137.280  1.00  0.00     0.171 HD
HETATM    7  C5  UNL     1      83.546 188.643 136.691  1.00  0.00     0.180 C 
ENDROOT
BRANCH   1   8
HETATM    8  C3  UNL     1      80.877 189.695 133.245  1.00  0.00     0.154 C 
BRANCH   8   9
HETATM    9  C2  UNL     1      79.375 189.800 133.293  1.00  0.00     0.161 C 
BRANCH   9  10
HETATM   10  N1  UNL     1      78.851 188.484 133.549  1.00  0.00    -0.357 N 
ATOM     11  H1  UNL     1      78.714 188.227 134.527  1.00  0.00     0.162 HD
BRANCH  10  12
HETATM   12  C1  UNL     1      78.511 187.530 132.599  1.00  0.00     0.349 C 
HETATM   13  O1  UNL     1      79.293 186.585 132.335  1.00  0.00    -0.284 OA
ENDBRANCH  10  12
ENDBRANCH   9  10
BRANCH   9  14
HETATM   14  C8  UNL     1      78.999 190.802 134.351  1.00  0.00     0.328 C 
HETATM   15  F3  UNL     1      77.671 190.862 134.618  1.00  0.00    -0.218 F 
BRANCH  14  16
HETATM   16  O3  UNL     1      79.420 192.063 133.930  1.00  0.00    -0.365 OA
ATOM     17  H3  UNL     1      80.352 192.022 133.750  1.00  0.00     0.213 HD
ENDBRANCH  14  16
ENDBRANCH   9  14
ENDBRANCH   8   9
ENDBRANCH   1   8
BRANCH   7  18
HETATM   18  N4  UNL     1      84.048 188.658 138.004  1.00  0.00    -0.381 N 
ATOM     19  H4  UNL     1      83.499 189.071 138.758  1.00  0.00     0.160 HD
BRANCH  18  20
HETATM   20  C6  UNL     1      85.343 188.089 138.281  1.00  0.00     0.191 C 
BRANCH  20  21
HETATM   21  C7  UNL     1      86.208 189.043 139.084  1.00  0.00     0.370 C 
HETATM   22  F1  UNL     1      85.431 190.127 139.449  1.00  0.00    -0.213 F 
HETATM   23  F2  UNL     1      86.672 188.379 140.200  1.00  0.00    -0.213 F 
ENDBRANCH  20  21
ENDBRANCH  18  20
ENDBRANCH   7  18
TORSDOF 9
ENDMDL
MODEL 5
REMARK VINA RESULT: -5.327600185      2.313      3.326
REMARK  9 active torsions:
REMARK  status: ('A' for Active; 'I' for Inactive)
REMARK    1  A    between atoms: C1_2  and  N1_3 
REMARK    2  A    between atoms: N1_3  and  C2_5 
REMARK    3  A    between atoms: C2_5  and  C3_6 
REMARK    4  A    between atoms: C2_5  and  C8_20 
REMARK    5  A    between atoms: C3_6  and  N2_7 
REMARK       I    between atoms: N2_7  and  C4_9 
REMARK       I    between atoms: C4_9  and  N3_11 
REMARK    6  A    between atoms: C5_13  and  N4_14 
REMARK    7  A    between atoms: N4_14  and  C6_16 
REMARK    8  A    between atoms: C6_16  and  C7_17 
REMARK    9  A    between atoms: C8_20  and  O3_21 
ROOT
HETATM    1  N2  UNL     1      81.155 188.104 135.133  1.00  0.00    -0.341 N 
ATOM      2  H2  UNL     1      81.230 187.213 135.626  1.00  0.00     0.164 HD
HETATM    3  C4  UNL     1      82.220 189.019 135.201  1.00  0.00     0.321 C 
HETATM    4  O2  UNL     1      82.269 190.145 134.658  1.00  0.00    -0.247 OA
HETATM    5  N3  UNL     1      83.375 188.648 135.965  1.00  0.00    -0.305 N 
ATOM      6  H3  UNL     1      84.191 188.271 135.481  1.00  0.00     0.171 HD
HETATM    7  C5  UNL     1      83.411 188.775 137.240  1.00  0.00     0.180 C 
ENDROOT
BRANCH   1   8
HETATM    8  C3  UNL     1      79.970 188.391 134.391  1.00  0.00     0.154 C 
BRANCH   8   9
HETATM    9  C2  UNL     1      80.088 187.914 132.967  1.00  0.00     0.161 C 
BRANCH   9  10
HETATM   10  N1  UNL     1      79.204 186.788 132.806  1.00  0.00    -0.357 N 
ATOM     11  H1  UNL     1      78.310 186.968 132.349  1.00  0.00     0.162 HD
BRANCH  10  12
HETATM   12  C1  UNL     1      79.447 185.482 133.211  1.00  0.00     0.349 C 
HETATM   13  O1  UNL     1      80.560 185.157 133.688  1.00  0.00    -0.284 OA
ENDBRANCH  10  12
ENDBRANCH   9  10
BRANCH   9  14
HETATM   14  C8  UNL     1      79.758 189.059 132.049  1.00  0.00     0.328 C 
HETATM   15  F3  UNL     1      80.095 188.852 130.752  1.00  0.00    -0.218 F 
BRANCH  14  16
HETATM   16  O3  UNL     1      80.430 190.193 132.503  1.00  0.00    -0.365 OA
ATOM     17  H3  UNL     1      80.389 190.857 131.826  1.00  0.00     0.213 HD
ENDBRANCH  14  16
ENDBRANCH   9  14
ENDBRANCH   8   9
ENDBRANCH   1   8
BRANCH   7  18
HETATM   18  N4  UNL     1      84.562 188.399 137.954  1.00  0.00    -0.381 N 
ATOM     19  H4  UNL     1      84.845 187.419 137.988  1.00  0.00     0.160 HD
BRANCH  18  20
HETATM   20  C6  UNL     1      85.340 189.400 138.638  1.00  0.00     0.191 C 
BRANCH  20  21
HETATM   21  C7  UNL     1      86.238 188.780 139.692  1.00  0.00     0.370 C 
HETATM   22  F1  UNL     1      86.403 187.442 139.386  1.00  0.00    -0.213 F 
HETATM   23  F2  UNL     1      87.450 189.437 139.675  1.00  0.00    -0.213 F 
ENDBRANCH  20  21
ENDBRANCH  18  20
ENDBRANCH   7  18
TORSDOF 9
ENDMDL
