MODEL 1
REMARK VINA RESULT: -7.093088794      0.000      0.000
REMARK  11 active torsions:
REMARK  status: ('A' for Active; 'I' for Inactive)
REMARK    1  A    between atoms: O1_2  and  C2_3 
REMARK    2  A    between atoms: C2_3  and  O2_4 
REMARK    3  A    between atoms: O2_4  and  C3_5 
REMARK    4  A    between atoms: C7_9  and  C8_10 
REMARK    5  A    between atoms: C8_10  and  N1_11 
REMARK    6  A    between atoms: N1_11  and  C9_12 
REMARK    7  A    between atoms: N1_11  and  C16_19 
REMARK    8  A    between atoms: C9_12  and  C10_13 
REMARK    9  A    between atoms: C18_23  and  N3_24 
REMARK   10  A    between atoms: N4_27  and  C19_28 
REMARK   11  A    between atoms: C21_31  and  O6_32 
ROOT
HETATM    1  N1  UNL     1      10.395  32.399  66.311  1.00  0.00    -0.209 N 
ENDROOT
BRANCH   1   2
HETATM    2  C8  UNL     1      10.715  31.016  66.566  1.00  0.00     0.180 C 
BRANCH   2   3
HETATM    3  C7  UNL     1       9.919  30.022  65.870  1.00  0.00    -0.037 A 
HETATM    4  C6  UNL     1       9.158  29.115  66.546  1.00  0.00     0.009 A 
HETATM    5  C5  UNL     1       8.395  28.150  65.909  1.00  0.00     0.003 A 
HETATM    6  C4  UNL     1       8.388  28.082  64.540  1.00  0.00     0.037 A 
HETATM    7  C3  UNL     1       9.146  28.985  63.833  1.00  0.00     0.072 A 
HETATM    8  C23 UNL     1       9.911  29.955  64.493  1.00  0.00     0.045 A 
BRANCH   7   9
HETATM    9  O2  UNL     1       9.165  28.949  62.456  1.00  0.00    -0.326 OA
BRANCH   9  10
HETATM   10  C2  UNL     1       9.835  29.932  61.706  1.00  0.00     0.344 C 
BRANCH  10  11
HETATM   11  O1  UNL     1      10.967  29.314  61.156  1.00  0.00    -0.371 OA
HETATM   12  C1  UNL     1      10.662  28.103  60.579  1.00  0.00     0.204 C 
ENDBRANCH  10  11
ENDBRANCH   9  10
ENDBRANCH   7   9
ENDBRANCH   2   3
ENDBRANCH   1   2
BRANCH   1  13
HETATM   13  C9  UNL     1       9.077  32.895  66.716  1.00  0.00     0.180 C 
BRANCH  13  14
HETATM   14  C10 UNL     1       9.134  34.092  67.561  1.00  0.00    -0.040 A 
HETATM   15  C11 UNL     1       9.482  33.959  68.887  1.00  0.00     0.009 A 
HETATM   16  C12 UNL     1       9.555  35.036  69.745  1.00  0.00     0.001 A 
HETATM   17  C13 UNL     1       9.267  36.285  69.247  1.00  0.00     0.000 A 
HETATM   18  C14 UNL     1       8.915  36.467  67.927  1.00  0.00     0.001 A 
HETATM   19  C15 UNL     1       8.857  35.363  67.112  1.00  0.00     0.009 A 
ENDBRANCH  13  14
ENDBRANCH   1  13
BRANCH   1  20
HETATM   20  C16 UNL     1      11.320  33.255  65.709  1.00  0.00     0.687 A 
HETATM   21  N2  UNL     1      11.269  33.752  64.474  1.00  0.00    -0.198 N 
HETATM   22  C17 UNL     1      12.294  34.553  64.234  1.00  0.00     0.161 A 
ATOM     23  H2  UNL     1      10.533  33.542  63.800  1.00  0.00     0.183 HD
HETATM   24  C18 UNL     1      13.066  34.573  65.403  1.00  0.00     0.210 A 
HETATM   25  N4  UNL     1      12.449  33.776  66.280  1.00  0.00    -0.124 N 
BRANCH  24  26
HETATM   26  N3  UNL     1      14.269  35.346  65.526  1.00  0.00    -0.096 N 
HETATM   27  O3  UNL     1      14.185  36.603  65.704  1.00  0.00    -0.530 OA
HETATM   28  O4  UNL     1      15.509  34.808  65.462  1.00  0.00    -0.530 OA
ENDBRANCH  24  26
BRANCH  25  29
HETATM   29  C19 UNL     1      12.864  33.496  67.622  1.00  0.00     0.312 C 
HETATM   30  O5  UNL     1      13.159  34.636  68.368  1.00  0.00    -0.354 OA
HETATM   31  C20 UNL     1      13.182  34.194  69.710  1.00  0.00     0.203 C 
HETATM   32  C21 UNL     1      14.598  33.860  70.066  1.00  0.00     0.151 C 
HETATM   33  C22 UNL     1      15.171  32.714  69.303  1.00  0.00     0.112 C 
HETATM   34  S1  UNL     1      14.271  32.365  67.756  1.00  0.00    -0.113 SA
BRANCH  32  35
HETATM   35  O6  UNL     1      15.383  35.016  69.965  1.00  0.00    -0.393 OA
ATOM     36  H6  UNL     1      14.927  35.658  69.435  1.00  0.00     0.210 HD
ENDBRANCH  32  35
ENDBRANCH  25  29
ENDBRANCH   1  20
TORSDOF 11
ENDMDL
MODEL 2
REMARK VINA RESULT: -7.075104533      2.220      4.390
REMARK  11 active torsions:
REMARK  status: ('A' for Active; 'I' for Inactive)
REMARK    1  A    between atoms: O1_2  and  C2_3 
REMARK    2  A    between atoms: C2_3  and  O2_4 
REMARK    3  A    between atoms: O2_4  and  C3_5 
REMARK    4  A    between atoms: C7_9  and  C8_10 
REMARK    5  A    between atoms: C8_10  and  N1_11 
REMARK    6  A    between atoms: N1_11  and  C9_12 
REMARK    7  A    between atoms: N1_11  and  C16_19 
REMARK    8  A    between atoms: C9_12  and  C10_13 
REMARK    9  A    between atoms: C18_23  and  N3_24 
REMARK   10  A    between atoms: N4_27  and  C19_28 
REMARK   11  A    between atoms: C21_31  and  O6_32 
ROOT
HETATM    1  N1  UNL     1      10.000  30.787  65.018  1.00  0.00    -0.209 N 
ENDROOT
BRANCH   1   2
HETATM    2  C8  UNL     1      10.671  29.538  64.755  1.00  0.00     0.180 C 
BRANCH   2   3
HETATM    3  C7  UNL     1      10.461  28.947  63.447  1.00  0.00    -0.037 A 
HETATM    4  C6  UNL     1      10.398  29.711  62.319  1.00  0.00     0.009 A 
HETATM    5  C5  UNL     1      10.190  29.175  61.058  1.00  0.00     0.003 A 
HETATM    6  C4  UNL     1      10.038  27.821  60.911  1.00  0.00     0.037 A 
HETATM    7  C3  UNL     1      10.098  27.027  62.032  1.00  0.00     0.072 A 
HETATM    8  C23 UNL     1      10.309  27.585  63.298  1.00  0.00     0.045 A 
BRANCH   7   9
HETATM    9  O2  UNL     1       9.950  25.661  61.925  1.00  0.00    -0.326 OA
BRANCH   9  10
HETATM   10  C2  UNL     1       9.559  25.059  60.716  1.00  0.00     0.344 C 
BRANCH  10  11
HETATM   11  O1  UNL     1       8.515  24.177  61.028  1.00  0.00    -0.371 OA
HETATM   12  C1  UNL     1       8.623  23.682  62.306  1.00  0.00     0.204 C 
ENDBRANCH  10  11
ENDBRANCH   9  10
ENDBRANCH   7   9
ENDBRANCH   2   3
ENDBRANCH   1   2
BRANCH   1  13
HETATM   13  C9  UNL     1       8.632  30.745  65.543  1.00  0.00     0.180 C 
BRANCH  13  14
HETATM   14  C10 UNL     1       8.179  29.396  65.897  1.00  0.00    -0.040 A 
HETATM   15  C11 UNL     1       7.221  28.786  65.118  1.00  0.00     0.009 A 
HETATM   16  C12 UNL     1       6.743  27.521  65.387  1.00  0.00     0.001 A 
HETATM   17  C13 UNL     1       7.249  26.853  66.478  1.00  0.00     0.000 A 
HETATM   18  C14 UNL     1       8.208  27.423  67.286  1.00  0.00     0.001 A 
HETATM   19  C15 UNL     1       8.653  28.685  66.976  1.00  0.00     0.009 A 
ENDBRANCH  13  14
ENDBRANCH   1  13
BRANCH   1  20
HETATM   20  C16 UNL     1      10.636  32.011  64.797  1.00  0.00     0.687 A 
HETATM   21  N2  UNL     1      10.688  32.694  63.655  1.00  0.00    -0.198 N 
HETATM   22  C17 UNL     1      11.352  33.829  63.803  1.00  0.00     0.161 A 
ATOM     23  H2  UNL     1      10.269  32.382  62.779  1.00  0.00     0.183 HD
HETATM   24  C18 UNL     1      11.759  33.881  65.142  1.00  0.00     0.210 A 
HETATM   25  N4  UNL     1      11.310  32.763  65.720  1.00  0.00    -0.124 N 
BRANCH  24  26
HETATM   26  N3  UNL     1      12.508  34.979  65.684  1.00  0.00    -0.096 N 
HETATM   27  O3  UNL     1      13.760  35.044  65.471  1.00  0.00    -0.530 OA
HETATM   28  O4  UNL     1      11.951  35.968  66.421  1.00  0.00    -0.530 OA
ENDBRANCH  24  26
BRANCH  25  29
HETATM   29  C19 UNL     1      11.476  32.382  67.091  1.00  0.00     0.312 C 
HETATM   30  O5  UNL     1      10.915  33.283  67.995  1.00  0.00    -0.354 OA
HETATM   31  C20 UNL     1      10.852  32.575  69.217  1.00  0.00     0.203 C 
HETATM   32  C21 UNL     1      12.088  32.893  70.002  1.00  0.00     0.151 C 
HETATM   33  C22 UNL     1      13.355  32.413  69.376  1.00  0.00     0.112 C 
HETATM   34  S1  UNL     1      13.190  32.088  67.591  1.00  0.00    -0.113 SA
BRANCH  32  35
HETATM   35  O6  UNL     1      12.115  34.265  70.283  1.00  0.00    -0.393 OA
ATOM     36  H6  UNL     1      12.423  34.395  71.172  1.00  0.00     0.210 HD
ENDBRANCH  32  35
ENDBRANCH  25  29
ENDBRANCH   1  20
TORSDOF 11
ENDMDL
MODEL 3
REMARK VINA RESULT: -7.022343505      3.139      6.493
REMARK  11 active torsions:
REMARK  status: ('A' for Active; 'I' for Inactive)
REMARK    1  A    between atoms: O1_2  and  C2_3 
REMARK    2  A    between atoms: C2_3  and  O2_4 
REMARK    3  A    between atoms: O2_4  and  C3_5 
REMARK    4  A    between atoms: C7_9  and  C8_10 
REMARK    5  A    between atoms: C8_10  and  N1_11 
REMARK    6  A    between atoms: N1_11  and  C9_12 
REMARK    7  A    between atoms: N1_11  and  C16_19 
REMARK    8  A    between atoms: C9_12  and  C10_13 
REMARK    9  A    between atoms: C18_23  and  N3_24 
REMARK   10  A    between atoms: N4_27  and  C19_28 
REMARK   11  A    between atoms: C21_31  and  O6_32 
ROOT
HETATM    1  N1  UNL     1       9.634  29.609  63.978  1.00  0.00    -0.209 N 
ENDROOT
BRANCH   1   2
HETATM    2  C8  UNL     1       8.263  29.284  64.286  1.00  0.00     0.180 C 
BRANCH   2   3
HETATM    3  C7  UNL     1       8.031  28.493  65.479  1.00  0.00    -0.037 A 
HETATM    4  C6  UNL     1       8.833  28.605  66.577  1.00  0.00     0.009 A 
HETATM    5  C5  UNL     1       8.641  27.856  67.727  1.00  0.00     0.003 A 
HETATM    6  C4  UNL     1       7.609  26.957  67.790  1.00  0.00     0.037 A 
HETATM    7  C3  UNL     1       6.785  26.824  66.697  1.00  0.00     0.072 A 
HETATM    8  C23 UNL     1       6.993  27.588  65.543  1.00  0.00     0.045 A 
BRANCH   7   9
HETATM    9  O2  UNL     1       5.738  25.930  66.721  1.00  0.00    -0.326 OA
BRANCH   9  10
HETATM   10  C2  UNL     1       4.536  26.225  67.390  1.00  0.00     0.344 C 
BRANCH  10  11
HETATM   11  O1  UNL     1       4.701  25.799  68.715  1.00  0.00    -0.371 OA
HETATM   12  C1  UNL     1       3.512  25.798  69.407  1.00  0.00     0.204 C 
ENDBRANCH  10  11
ENDBRANCH   9  10
ENDBRANCH   7   9
ENDBRANCH   2   3
ENDBRANCH   1   2
BRANCH   1  13
HETATM   13  C9  UNL     1      10.620  28.525  63.960  1.00  0.00     0.180 C 
BRANCH  13  14
HETATM   14  C10 UNL     1      10.474  27.617  62.818  1.00  0.00    -0.040 A 
HETATM   15  C11 UNL     1      10.981  27.994  61.594  1.00  0.00     0.009 A 
HETATM   16  C12 UNL     1      10.881  27.197  60.474  1.00  0.00     0.001 A 
HETATM   17  C13 UNL     1      10.249  25.981  60.595  1.00  0.00     0.000 A 
HETATM   18  C14 UNL     1       9.727  25.561  61.798  1.00  0.00     0.001 A 
HETATM   19  C15 UNL     1       9.852  26.391  62.886  1.00  0.00     0.009 A 
ENDBRANCH  13  14
ENDBRANCH   1  13
BRANCH   1  20
HETATM   20  C16 UNL     1      10.018  30.920  63.687  1.00  0.00     0.687 A 
HETATM   21  N2  UNL     1       9.985  31.521  62.499  1.00  0.00    -0.198 N 
HETATM   22  C17 UNL     1      10.396  32.776  62.582  1.00  0.00     0.161 A 
ATOM     23  H2  UNL     1       9.682  31.072  61.635  1.00  0.00     0.183 HD
HETATM   24  C18 UNL     1      10.719  33.001  63.927  1.00  0.00     0.210 A 
HETATM   25  N4  UNL     1      10.480  31.856  64.573  1.00  0.00    -0.124 N 
BRANCH  24  26
HETATM   26  N3  UNL     1      11.202  34.264  64.409  1.00  0.00    -0.096 N 
HETATM   27  O3  UNL     1      12.345  34.677  64.035  1.00  0.00    -0.530 OA
HETATM   28  O4  UNL     1      10.500  35.056  65.253  1.00  0.00    -0.530 OA
ENDBRANCH  24  26
BRANCH  25  29
HETATM   29  C19 UNL     1      10.652  31.610  65.973  1.00  0.00     0.312 C 
HETATM   30  O5  UNL     1       9.650  32.165  66.768  1.00  0.00    -0.354 OA
HETATM   31  C20 UNL     1       9.785  31.523  68.019  1.00  0.00     0.203 C 
HETATM   32  C21 UNL     1      10.649  32.381  68.891  1.00  0.00     0.151 C 
HETATM   33  C22 UNL     1      12.054  32.528  68.412  1.00  0.00     0.112 C 
HETATM   34  S1  UNL     1      12.248  32.140  66.641  1.00  0.00    -0.113 SA
BRANCH  32  35
HETATM   35  O6  UNL     1      10.020  33.617  69.091  1.00  0.00    -0.393 OA
ATOM     36  H6  UNL     1       9.365  33.526  69.773  1.00  0.00     0.210 HD
ENDBRANCH  32  35
ENDBRANCH  25  29
ENDBRANCH   1  20
TORSDOF 11
ENDMDL
MODEL 4
REMARK VINA RESULT: -7.017910036      2.535      4.806
REMARK  11 active torsions:
REMARK  status: ('A' for Active; 'I' for Inactive)
REMARK    1  A    between atoms: O1_2  and  C2_3 
REMARK    2  A    between atoms: C2_3  and  O2_4 
REMARK    3  A    between atoms: O2_4  and  C3_5 
REMARK    4  A    between atoms: C7_9  and  C8_10 
REMARK    5  A    between atoms: C8_10  and  N1_11 
REMARK    6  A    between atoms: N1_11  and  C9_12 
REMARK    7  A    between atoms: N1_11  and  C16_19 
REMARK    8  A    between atoms: C9_12  and  C10_13 
REMARK    9  A    between atoms: C18_23  and  N3_24 
REMARK   10  A    between atoms: N4_27  and  C19_28 
REMARK   11  A    between atoms: C21_31  and  O6_32 
ROOT
HETATM    1  N1  UNL     1      10.016  31.361  65.130  1.00  0.00    -0.209 N 
ENDROOT
BRANCH   1   2
HETATM    2  C8  UNL     1      10.186  31.137  63.716  1.00  0.00     0.180 C 
BRANCH   2   3
HETATM    3  C7  UNL     1      10.318  29.758  63.284  1.00  0.00    -0.037 A 
HETATM    4  C6  UNL     1      10.604  28.758  64.166  1.00  0.00     0.009 A 
HETATM    5  C5  UNL     1      10.744  27.434  63.782  1.00  0.00     0.003 A 
HETATM    6  C4  UNL     1      10.594  27.088  62.464  1.00  0.00     0.037 A 
HETATM    7  C3  UNL     1      10.305  28.077  61.554  1.00  0.00     0.072 A 
HETATM    8  C23 UNL     1      10.166  29.410  61.959  1.00  0.00     0.045 A 
BRANCH   7   9
HETATM    9  O2  UNL     1      10.148  27.769  60.220  1.00  0.00    -0.326 OA
BRANCH   9  10
HETATM   10  C2  UNL     1      10.792  26.661  59.642  1.00  0.00     0.344 C 
BRANCH  10  11
HETATM   11  O1  UNL     1       9.794  25.716  59.367  1.00  0.00    -0.371 OA
HETATM   12  C1  UNL     1       9.918  24.593  60.151  1.00  0.00     0.204 C 
ENDBRANCH  10  11
ENDBRANCH   9  10
ENDBRANCH   7   9
ENDBRANCH   2   3
ENDBRANCH   1   2
BRANCH   1  13
HETATM   13  C9  UNL     1       8.680  31.189  65.707  1.00  0.00     0.180 C 
BRANCH  13  14
HETATM   14  C10 UNL     1       8.324  29.788  65.958  1.00  0.00    -0.040 A 
HETATM   15  C11 UNL     1       7.406  29.174  65.134  1.00  0.00     0.009 A 
HETATM   16  C12 UNL     1       7.019  27.862  65.307  1.00  0.00     0.001 A 
HETATM   17  C13 UNL     1       7.576  27.150  66.344  1.00  0.00     0.000 A 
HETATM   18  C14 UNL     1       8.498  27.722  67.193  1.00  0.00     0.001 A 
HETATM   19  C15 UNL     1       8.852  29.033  66.980  1.00  0.00     0.009 A 
ENDBRANCH  13  14
ENDBRANCH   1  13
BRANCH   1  20
HETATM   20  C16 UNL     1      11.097  31.717  65.940  1.00  0.00     0.687 A 
HETATM   21  N2  UNL     1      11.718  30.949  66.833  1.00  0.00    -0.198 N 
HETATM   22  C17 UNL     1      12.720  31.593  67.409  1.00  0.00     0.161 A 
ATOM     23  H2  UNL     1      11.455  29.986  67.046  1.00  0.00     0.183 HD
HETATM   24  C18 UNL     1      12.746  32.875  66.845  1.00  0.00     0.210 A 
HETATM   25  N4  UNL     1      11.748  32.920  65.956  1.00  0.00    -0.124 N 
BRANCH  24  26
HETATM   26  N3  UNL     1      13.711  33.869  67.220  1.00  0.00    -0.096 N 
HETATM   27  O3  UNL     1      14.775  33.992  66.534  1.00  0.00    -0.530 OA
HETATM   28  O4  UNL     1      13.553  34.698  68.278  1.00  0.00    -0.530 OA
ENDBRANCH  24  26
BRANCH  25  29
HETATM   29  C19 UNL     1      11.394  34.030  65.123  1.00  0.00     0.312 C 
HETATM   30  O5  UNL     1      12.436  34.478  64.312  1.00  0.00    -0.354 OA
HETATM   31  C20 UNL     1      11.812  35.290  63.339  1.00  0.00     0.203 C 
HETATM   32  C21 UNL     1      11.862  36.709  63.815  1.00  0.00     0.151 C 
HETATM   33  C22 UNL     1      11.076  36.970  65.055  1.00  0.00     0.112 C 
HETATM   34  S1  UNL     1      10.727  35.458  66.011  1.00  0.00    -0.113 SA
BRANCH  32  35
HETATM   35  O6  UNL     1      13.200  37.108  63.935  1.00  0.00    -0.393 OA
ATOM     36  H6  UNL     1      13.326  37.527  64.778  1.00  0.00     0.210 HD
ENDBRANCH  32  35
ENDBRANCH  25  29
ENDBRANCH   1  20
TORSDOF 11
ENDMDL
MODEL 5
REMARK VINA RESULT: -6.983832808      1.563      2.662
REMARK  11 active torsions:
REMARK  status: ('A' for Active; 'I' for Inactive)
REMARK    1  A    between atoms: O1_2  and  C2_3 
REMARK    2  A    between atoms: C2_3  and  O2_4 
REMARK    3  A    between atoms: O2_4  and  C3_5 
REMARK    4  A    between atoms: C7_9  and  C8_10 
REMARK    5  A    between atoms: C8_10  and  N1_11 
REMARK    6  A    between atoms: N1_11  and  C9_12 
REMARK    7  A    between atoms: N1_11  and  C16_19 
REMARK    8  A    between atoms: C9_12  and  C10_13 
REMARK    9  A    between atoms: C18_23  and  N3_24 
REMARK   10  A    between atoms: N4_27  and  C19_28 
REMARK   11  A    between atoms: C21_31  and  O6_32 
ROOT
HETATM    1  N1  UNL     1      10.445  32.410  66.210  1.00  0.00    -0.209 N 
ENDROOT
BRANCH   1   2
HETATM    2  C8  UNL     1      10.762  31.026  66.461  1.00  0.00     0.180 C 
BRANCH   2   3
HETATM    3  C7  UNL     1       9.967  30.036  65.758  1.00  0.00    -0.037 A 
HETATM    4  C6  UNL     1      10.006  29.923  64.399  1.00  0.00     0.009 A 
HETATM    5  C5  UNL     1       9.252  28.994  63.700  1.00  0.00     0.003 A 
HETATM    6  C4  UNL     1       8.423  28.141  64.381  1.00  0.00     0.037 A 
HETATM    7  C3  UNL     1       8.364  28.233  65.751  1.00  0.00     0.072 A 
HETATM    8  C23 UNL     1       9.134  29.178  66.441  1.00  0.00     0.045 A 
BRANCH   7   9
HETATM    9  O2  UNL     1       7.542  27.394  66.470  1.00  0.00    -0.326 OA
BRANCH   9  10
HETATM   10  C2  UNL     1       6.520  26.656  65.846  1.00  0.00     0.344 C 
BRANCH  10  11
HETATM   11  O1  UNL     1       5.315  27.070  66.430  1.00  0.00    -0.371 OA
HETATM   12  C1  UNL     1       4.914  26.224  67.437  1.00  0.00     0.204 C 
ENDBRANCH  10  11
ENDBRANCH   9  10
ENDBRANCH   7   9
ENDBRANCH   2   3
ENDBRANCH   1   2
BRANCH   1  13
HETATM   13  C9  UNL     1       9.114  32.898  66.580  1.00  0.00     0.180 C 
BRANCH  13  14
HETATM   14  C10 UNL     1       9.141  34.043  67.496  1.00  0.00    -0.040 A 
HETATM   15  C11 UNL     1       9.488  33.838  68.813  1.00  0.00     0.009 A 
HETATM   16  C12 UNL     1       9.534  34.862  69.735  1.00  0.00     0.001 A 
HETATM   17  C13 UNL     1       9.219  36.133  69.311  1.00  0.00     0.000 A 
HETATM   18  C14 UNL     1       8.866  36.386  68.004  1.00  0.00     0.001 A 
HETATM   19  C15 UNL     1       8.835  35.332  67.123  1.00  0.00     0.009 A 
ENDBRANCH  13  14
ENDBRANCH   1  13
BRANCH   1  20
HETATM   20  C16 UNL     1      11.385  33.276  65.645  1.00  0.00     0.687 A 
HETATM   21  N2  UNL     1      11.359  33.801  64.422  1.00  0.00    -0.198 N 
HETATM   22  C17 UNL     1      12.392  34.602  64.219  1.00  0.00     0.161 A 
ATOM     23  H2  UNL     1      10.634  33.610  63.729  1.00  0.00     0.183 HD
HETATM   24  C18 UNL     1      13.142  34.592  65.402  1.00  0.00     0.210 A 
HETATM   25  N4  UNL     1      12.505  33.777  66.249  1.00  0.00    -0.124 N 
BRANCH  24  26
HETATM   26  N3  UNL     1      14.346  35.355  65.565  1.00  0.00    -0.096 N 
HETATM   27  O3  UNL     1      15.472  34.781  65.414  1.00  0.00    -0.530 OA
HETATM   28  O4  UNL     1      14.357  36.672  65.874  1.00  0.00    -0.530 OA
ENDBRANCH  24  26
BRANCH  25  29
HETATM   29  C19 UNL     1      12.895  33.464  67.592  1.00  0.00     0.312 C 
HETATM   30  O5  UNL     1      13.205  34.584  68.362  1.00  0.00    -0.354 OA
HETATM   31  C20 UNL     1      13.198  34.118  69.695  1.00  0.00     0.203 C 
HETATM   32  C21 UNL     1      14.601  33.745  70.066  1.00  0.00     0.151 C 
HETATM   33  C22 UNL     1      15.158  32.600  69.290  1.00  0.00     0.112 C 
HETATM   34  S1  UNL     1      14.274  32.299  67.725  1.00  0.00    -0.113 SA
BRANCH  32  35
HETATM   35  O6  UNL     1      15.413  34.885  69.997  1.00  0.00    -0.393 OA
ATOM     36  H6  UNL     1      15.871  34.991  70.822  1.00  0.00     0.210 HD
ENDBRANCH  32  35
ENDBRANCH  25  29
ENDBRANCH   1  20
TORSDOF 11
ENDMDL
