MODEL 1
REMARK VINA RESULT: -7.193665693      0.000      0.000
REMARK  3 active torsions:
REMARK  status: ('A' for Active; 'I' for Inactive)
REMARK    1  A    between atoms: C2_2  and  C9_18 
REMARK    2  A    between atoms: N1_3  and  N2_5 
REMARK       I    between atoms: N2_5  and  C3_7 
REMARK    3  A    between atoms: C3_7  and  C4_9 
ROOT
HETATM    1  C4  UNL     1      17.058   0.757  13.603  1.00  0.00     0.184 A 
HETATM    2  O2  UNL     1      17.654  -0.374  13.213  1.00  0.00    -0.289 OA
HETATM    3  C5  UNL     1      17.711  -0.496  11.936  1.00  0.00     0.121 A 
HETATM    4  C6  UNL     1      18.312  -1.640  11.145  1.00  0.00     0.098 C 
HETATM    5  N3  UNL     1      17.135   0.586  11.393  1.00  0.00    -0.329 N 
ATOM      6  H3  UNL     1      17.025   0.781  10.399  1.00  0.00     0.168 HD
HETATM    7  C7  UNL     1      16.721   1.380  12.435  1.00  0.00     0.155 A 
HETATM    8  C8  UNL     1      16.055   2.638  12.274  1.00  0.00     0.121 C 
HETATM    9  N4  UNL     1      15.521   3.645  12.115  1.00  0.00    -0.190 NA
ENDROOT
BRANCH   1  10
HETATM   10  C3  UNL     1      16.852   1.162  14.984  1.00  0.00     0.296 C 
HETATM   11  N2  UNL     1      16.049   0.597  15.956  1.00  0.00    -0.264 N 
ATOM     12  H2  UNL     1      15.491  -0.230  15.740  1.00  0.00     0.190 HD
HETATM   13  O1  UNL     1      17.526   2.208  15.342  1.00  0.00    -0.264 OA
BRANCH  11  14
HETATM   14  N1  UNL     1      16.001   1.158  17.235  1.00  0.00    -0.301 N 
HETATM   15  C2  UNL     1      15.217   2.058  17.657  1.00  0.00     0.063 C 
HETATM   16  C1  UNL     1      15.341   2.521  19.082  1.00  0.00     0.071 C 
ATOM     17  H1  UNL     1      16.679   0.800  17.908  1.00  0.00     0.186 HD
BRANCH  15  18
HETATM   18  C9  UNL     1      14.199   2.647  16.770  1.00  0.00     0.400 C 
HETATM   19  F1  UNL     1      13.081   1.832  16.802  1.00  0.00    -0.208 F 
HETATM   20  F2  UNL     1      13.901   3.946  17.063  1.00  0.00    -0.208 F 
ENDBRANCH  15  18
ENDBRANCH  11  14
ENDBRANCH   1  10
TORSDOF 3
ENDMDL
MODEL 2
REMARK VINA RESULT: -7.067927901      1.107      1.311
REMARK  3 active torsions:
REMARK  status: ('A' for Active; 'I' for Inactive)
REMARK    1  A    between atoms: C2_2  and  C9_18 
REMARK    2  A    between atoms: N1_3  and  N2_5 
REMARK       I    between atoms: N2_5  and  C3_7 
REMARK    3  A    between atoms: C3_7  and  C4_9 
ROOT
HETATM    1  C4  UNL     1      17.040   0.881  13.373  1.00  0.00     0.184 A 
HETATM    2  O2  UNL     1      17.638  -0.287  13.115  1.00  0.00    -0.289 OA
HETATM    3  C5  UNL     1      17.706  -0.548  11.859  1.00  0.00     0.121 A 
HETATM    4  C6  UNL     1      18.312  -1.772  11.204  1.00  0.00     0.098 C 
HETATM    5  N3  UNL     1      17.136   0.468  11.196  1.00  0.00    -0.329 N 
ATOM      6  H3  UNL     1      17.035   0.553  10.185  1.00  0.00     0.168 HD
HETATM    7  C7  UNL     1      16.714   1.371  12.140  1.00  0.00     0.155 A 
HETATM    8  C8  UNL     1      16.052   2.604  11.836  1.00  0.00     0.121 C 
HETATM    9  N4  UNL     1      15.521   3.589  11.563  1.00  0.00    -0.190 NA
ENDROOT
BRANCH   1  10
HETATM   10  C3  UNL     1      16.822   1.435  14.699  1.00  0.00     0.296 C 
HETATM   11  N2  UNL     1      15.885   2.357  15.124  1.00  0.00    -0.264 N 
ATOM     12  H2  UNL     1      15.216   2.749  14.460  1.00  0.00     0.190 HD
HETATM   13  O1  UNL     1      17.632   0.989  15.605  1.00  0.00    -0.264 OA
BRANCH  11  14
HETATM   14  N1  UNL     1      15.855   2.754  16.464  1.00  0.00    -0.301 N 
HETATM   15  C2  UNL     1      15.217   2.216  17.416  1.00  0.00     0.063 C 
HETATM   16  C1  UNL     1      15.326   2.812  18.792  1.00  0.00     0.071 C 
ATOM     17  H1  UNL     1      16.412   3.575  16.702  1.00  0.00     0.186 HD
BRANCH  15  18
HETATM   18  C9  UNL     1      14.380   1.026  17.185  1.00  0.00     0.400 C 
HETATM   19  F1  UNL     1      14.977  -0.047  17.824  1.00  0.00    -0.208 F 
HETATM   20  F2  UNL     1      13.078   1.190  17.558  1.00  0.00    -0.208 F 
ENDBRANCH  15  18
ENDBRANCH  11  14
ENDBRANCH   1  10
TORSDOF 3
ENDMDL
MODEL 3
REMARK VINA RESULT: -7.042581686      1.946      2.214
REMARK  3 active torsions:
REMARK  status: ('A' for Active; 'I' for Inactive)
REMARK    1  A    between atoms: C2_2  and  C9_18 
REMARK    2  A    between atoms: N1_3  and  N2_5 
REMARK       I    between atoms: N2_5  and  C3_7 
REMARK    3  A    between atoms: C3_7  and  C4_9 
ROOT
HETATM    1  C4  UNL     1      17.400   1.212  12.632  1.00  0.00     0.184 A 
HETATM    2  O2  UNL     1      17.240  -0.112  12.547  1.00  0.00    -0.289 OA
HETATM    3  C5  UNL     1      18.022  -0.657  11.686  1.00  0.00     0.121 A 
HETATM    4  C6  UNL     1      18.117  -2.125  11.326  1.00  0.00     0.098 C 
HETATM    5  N3  UNL     1      18.767   0.312  11.135  1.00  0.00    -0.329 N 
ATOM      6  H3  UNL     1      19.481   0.196  10.417  1.00  0.00     0.168 HD
HETATM    7  C7  UNL     1      18.382   1.492  11.724  1.00  0.00     0.155 A 
HETATM    8  C8  UNL     1      18.945   2.771  11.409  1.00  0.00     0.121 C 
HETATM    9  N4  UNL     1      19.415   3.786  11.136  1.00  0.00    -0.190 NA
ENDROOT
BRANCH   1  10
HETATM   10  C3  UNL     1      16.654   2.091  13.518  1.00  0.00     0.296 C 
HETATM   11  N2  UNL     1      16.598   2.107  14.898  1.00  0.00    -0.264 N 
ATOM     12  H2  UNL     1      17.136   1.429  15.439  1.00  0.00     0.190 HD
HETATM   13  O1  UNL     1      15.941   2.984  12.910  1.00  0.00    -0.264 OA
BRANCH  11  14
HETATM   14  N1  UNL     1      15.804   3.052  15.554  1.00  0.00    -0.301 N 
HETATM   15  C2  UNL     1      14.990   2.855  16.503  1.00  0.00     0.063 C 
HETATM   16  C1  UNL     1      14.230   4.024  17.065  1.00  0.00     0.071 C 
ATOM     17  H1  UNL     1      15.890   4.015  15.227  1.00  0.00     0.186 HD
BRANCH  15  18
HETATM   18  C9  UNL     1      14.786   1.503  17.052  1.00  0.00     0.400 C 
HETATM   19  F1  UNL     1      15.516   1.403  18.223  1.00  0.00    -0.208 F 
HETATM   20  F2  UNL     1      13.473   1.177  17.232  1.00  0.00    -0.208 F 
ENDBRANCH  15  18
ENDBRANCH  11  14
ENDBRANCH   1  10
TORSDOF 3
ENDMDL
MODEL 4
REMARK VINA RESULT: -7.024379810      3.013      5.804
REMARK  3 active torsions:
REMARK  status: ('A' for Active; 'I' for Inactive)
REMARK    1  A    between atoms: C2_2  and  C9_18 
REMARK    2  A    between atoms: N1_3  and  N2_5 
REMARK       I    between atoms: N2_5  and  C3_7 
REMARK    3  A    between atoms: C3_7  and  C4_9 
ROOT
HETATM    1  C4  UNL     1      15.913   2.074  15.884  1.00  0.00     0.184 A 
HETATM    2  O2  UNL     1      15.845   1.748  17.179  1.00  0.00    -0.289 OA
HETATM    3  C5  UNL     1      15.135   2.568  17.866  1.00  0.00     0.121 A 
HETATM    4  C6  UNL     1      14.840   2.513  19.351  1.00  0.00     0.098 C 
HETATM    5  N3  UNL     1      14.680   3.515  17.033  1.00  0.00    -0.329 N 
ATOM      6  H3  UNL     1      14.088   4.307  17.280  1.00  0.00     0.168 HD
HETATM    7  C7  UNL     1      15.164   3.212  15.785  1.00  0.00     0.155 A 
HETATM    8  C8  UNL     1      14.901   3.987  14.609  1.00  0.00     0.121 C 
HETATM    9  N4  UNL     1      14.674   4.628  13.680  1.00  0.00    -0.190 NA
ENDROOT
BRANCH   1  10
HETATM   10  C3  UNL     1      16.644   1.331  14.870  1.00  0.00     0.296 C 
HETATM   11  N2  UNL     1      17.370   1.797  13.791  1.00  0.00    -0.264 N 
ATOM     12  H2  UNL     1      17.446   2.800  13.621  1.00  0.00     0.190 HD
HETATM   13  O1  UNL     1      16.599   0.045  15.012  1.00  0.00    -0.264 OA
BRANCH  11  14
HETATM   14  N1  UNL     1      18.001   0.893  12.932  1.00  0.00    -0.301 N 
HETATM   15  C2  UNL     1      17.637   0.546  11.770  1.00  0.00     0.063 C 
HETATM   16  C1  UNL     1      18.470  -0.452  11.014  1.00  0.00     0.071 C 
ATOM     17  H1  UNL     1      18.856   0.460  13.284  1.00  0.00     0.186 HD
BRANCH  15  18
HETATM   18  C9  UNL     1      16.417   1.107  11.163  1.00  0.00     0.400 C 
HETATM   19  F1  UNL     1      16.755   2.299  10.549  1.00  0.00    -0.208 F 
HETATM   20  F2  UNL     1      15.782   0.248  10.314  1.00  0.00    -0.208 F 
ENDBRANCH  15  18
ENDBRANCH  11  14
ENDBRANCH   1  10
TORSDOF 3
ENDMDL
MODEL 5
REMARK VINA RESULT: -6.966116111      1.089      1.093
REMARK  3 active torsions:
REMARK  status: ('A' for Active; 'I' for Inactive)
REMARK    1  A    between atoms: C2_2  and  C9_18 
REMARK    2  A    between atoms: N1_3  and  N2_5 
REMARK       I    between atoms: N2_5  and  C3_7 
REMARK    3  A    between atoms: C3_7  and  C4_9 
ROOT
HETATM    1  C4  UNL     1      16.932   1.270  13.191  1.00  0.00     0.184 A 
HETATM    2  O2  UNL     1      17.599   0.312  12.539  1.00  0.00    -0.289 OA
HETATM    3  C5  UNL     1      17.668   0.522  11.274  1.00  0.00     0.121 A 
HETATM    4  C6  UNL     1      18.342  -0.346  10.231  1.00  0.00     0.098 C 
HETATM    5  N3  UNL     1      17.027   1.669  11.012  1.00  0.00    -0.329 N 
ATOM      6  H3  UNL     1      16.909   2.104  10.097  1.00  0.00     0.168 HD
HETATM    7  C7  UNL     1      16.560   2.147  12.212  1.00  0.00     0.155 A 
HETATM    8  C8  UNL     1      15.818   3.362  12.362  1.00  0.00     0.121 C 
HETATM    9  N4  UNL     1      15.222   4.344  12.453  1.00  0.00    -0.190 NA
ENDROOT
BRANCH   1  10
HETATM   10  C3  UNL     1      16.695   1.297  14.626  1.00  0.00     0.296 C 
HETATM   11  N2  UNL     1      16.788   2.353  15.512  1.00  0.00    -0.264 N 
ATOM     12  H2  UNL     1      17.058   3.278  15.178  1.00  0.00     0.190 HD
HETATM   13  O1  UNL     1      16.347   0.158  15.133  1.00  0.00    -0.264 OA
BRANCH  11  14
HETATM   14  N1  UNL     1      16.512   2.152  16.867  1.00  0.00    -0.301 N 
HETATM   15  C2  UNL     1      15.433   2.398  17.483  1.00  0.00     0.063 C 
HETATM   16  C1  UNL     1      15.352   2.103  18.955  1.00  0.00     0.071 C 
ATOM     17  H1  UNL     1      17.270   1.760  17.427  1.00  0.00     0.186 HD
BRANCH  15  18
HETATM   18  C9  UNL     1      14.273   2.965  16.773  1.00  0.00     0.400 C 
HETATM   19  F1  UNL     1      13.236   2.054  16.855  1.00  0.00    -0.208 F 
HETATM   20  F2  UNL     1      13.911   4.203  17.218  1.00  0.00    -0.208 F 
ENDBRANCH  15  18
ENDBRANCH  11  14
ENDBRANCH   1  10
TORSDOF 3
ENDMDL
