MODEL 1
REMARK VINA RESULT: -6.941133560      0.000      0.000
REMARK  4 active torsions:
REMARK  status: ('A' for Active; 'I' for Inactive)
REMARK    1  A    between atoms: C2_2  and  C7_12 
REMARK    2  A    between atoms: N1_3  and  N2_5 
REMARK       I    between atoms: N2_5  and  C3_7 
REMARK    3  A    between atoms: C3_7  and  C4_9 
REMARK    4  A    between atoms: C9_15  and  C10_16 
ROOT
HETATM    1  C1  UNL     1      16.830   0.331  12.614  1.00  0.00     0.072 C 
HETATM    2  C2  UNL     1      17.518   1.616  12.849  1.00  0.00     0.050 C 
HETATM    3  N1  UNL     1      17.274   2.365  13.862  1.00  0.00    -0.300 N 
ATOM      4  H1  UNL     1      17.765   3.249  13.999  1.00  0.00     0.186 HD
ENDROOT
BRANCH   2   5
HETATM    5  C7  UNL     1      18.536   2.071  11.878  1.00  0.00     0.080 A 
HETATM    6  C8  UNL     1      18.880   1.474  10.691  1.00  0.00     0.175 A 
HETATM    7  O2  UNL     1      19.826   2.181  10.115  1.00  0.00    -0.302 OA
HETATM    8  C9  UNL     1      20.109   3.211  10.883  1.00  0.00     0.189 A 
HETATM    9  N3  UNL     1      19.321   3.163  11.983  1.00  0.00    -0.332 N 
ATOM     10  H3  UNL     1      19.320   3.832  12.753  1.00  0.00     0.168 HD
BRANCH   8  11
HETATM   11  C10 UNL     1      21.125   4.276  10.613  1.00  0.00     0.427 C 
HETATM   12  F1  UNL     1      22.182   3.718   9.937  1.00  0.00    -0.205 F 
HETATM   13  F2  UNL     1      21.622   4.781  11.821  1.00  0.00    -0.205 F 
ENDBRANCH   8  11
ENDBRANCH   2   5
BRANCH   3  14
HETATM   14  N2  UNL     1      16.304   1.919  14.776  1.00  0.00    -0.270 N 
HETATM   15  C3  UNL     1      16.734   1.485  16.049  1.00  0.00     0.240 C 
HETATM   16  O1  UNL     1      17.947   1.503  16.339  1.00  0.00    -0.271 OA
ATOM     17  H2  UNL     1      15.316   1.908  14.526  1.00  0.00     0.190 HD
BRANCH  15  18
HETATM   18  C4  UNL     1      15.756   1.010  17.037  1.00  0.00     0.080 A 
HETATM   19  C5  UNL     1      15.252   2.090  17.992  1.00  0.00     0.015 A 
HETATM   20  C6  UNL     1      14.346   1.469  16.986  1.00  0.00     0.015 A 
ENDBRANCH  15  18
ENDBRANCH   3  14
TORSDOF 4
ENDMDL
MODEL 2
REMARK VINA RESULT: -6.849394139      5.312      7.135
REMARK  4 active torsions:
REMARK  status: ('A' for Active; 'I' for Inactive)
REMARK    1  A    between atoms: C2_2  and  C7_12 
REMARK    2  A    between atoms: N1_3  and  N2_5 
REMARK       I    between atoms: N2_5  and  C3_7 
REMARK    3  A    between atoms: C3_7  and  C4_9 
REMARK    4  A    between atoms: C9_15  and  C10_16 
ROOT
HETATM    1  C1  UNL     1      17.874   4.408  13.778  1.00  0.00     0.072 C 
HETATM    2  C2  UNL     1      16.567   3.723  13.774  1.00  0.00     0.050 C 
HETATM    3  N1  UNL     1      15.584   4.093  13.036  1.00  0.00    -0.300 N 
ATOM      4  H1  UNL     1      14.691   3.600  13.055  1.00  0.00     0.186 HD
ENDROOT
BRANCH   2   5
HETATM    5  C7  UNL     1      16.368   2.554  14.659  1.00  0.00     0.080 A 
HETATM    6  C8  UNL     1      16.832   1.276  14.466  1.00  0.00     0.175 A 
HETATM    7  O2  UNL     1      16.446   0.525  15.472  1.00  0.00    -0.302 OA
HETATM    8  C9  UNL     1      15.751   1.265  16.309  1.00  0.00     0.189 A 
HETATM    9  N3  UNL     1      15.689   2.529  15.824  1.00  0.00    -0.332 N 
ATOM     10  H3  UNL     1      15.215   3.319  16.260  1.00  0.00     0.168 HD
BRANCH   8  11
HETATM   11  C10 UNL     1      15.121   0.818  17.590  1.00  0.00     0.427 C 
HETATM   12  F1  UNL     1      13.768   1.035  17.518  1.00  0.00    -0.205 F 
HETATM   13  F2  UNL     1      15.610   1.582  18.657  1.00  0.00    -0.205 F 
ENDBRANCH   8  11
ENDBRANCH   2   5
BRANCH   3  14
HETATM   14  N2  UNL     1      15.788   5.205  12.201  1.00  0.00    -0.270 N 
HETATM   15  C3  UNL     1      14.882   6.283  12.290  1.00  0.00     0.240 C 
HETATM   16  O1  UNL     1      13.929   6.234  13.093  1.00  0.00    -0.271 OA
ATOM     17  H2  UNL     1      16.571   5.231  11.549  1.00  0.00     0.190 HD
BRANCH  15  18
HETATM   18  C4  UNL     1      15.055   7.466  11.437  1.00  0.00     0.080 A 
HETATM   19  C5  UNL     1      14.277   7.412  10.123  1.00  0.00     0.015 A 
HETATM   20  C6  UNL     1      13.920   8.391  11.188  1.00  0.00     0.015 A 
ENDBRANCH  15  18
ENDBRANCH   3  14
TORSDOF 4
ENDMDL
MODEL 3
REMARK VINA RESULT: -6.842456933      0.890      1.105
REMARK  4 active torsions:
REMARK  status: ('A' for Active; 'I' for Inactive)
REMARK    1  A    between atoms: C2_2  and  C7_12 
REMARK    2  A    between atoms: N1_3  and  N2_5 
REMARK       I    between atoms: N2_5  and  C3_7 
REMARK    3  A    between atoms: C3_7  and  C4_9 
REMARK    4  A    between atoms: C9_15  and  C10_16 
ROOT
HETATM    1  C1  UNL     1      16.044   3.124  12.994  1.00  0.00     0.072 C 
HETATM    2  C2  UNL     1      17.216   2.228  13.019  1.00  0.00     0.050 C 
HETATM    3  N1  UNL     1      17.398   1.338  13.926  1.00  0.00    -0.300 N 
ATOM      4  H1  UNL     1      18.220   0.732  13.918  1.00  0.00     0.186 HD
ENDROOT
BRANCH   2   5
HETATM    5  C7  UNL     1      18.235   2.352  11.954  1.00  0.00     0.080 A 
HETATM    6  C8  UNL     1      18.341   1.599  10.812  1.00  0.00     0.175 A 
HETATM    7  O2  UNL     1      19.378   2.015  10.120  1.00  0.00    -0.302 OA
HETATM    8  C9  UNL     1      19.947   3.008  10.769  1.00  0.00     0.189 A 
HETATM    9  N3  UNL     1      19.255   3.234  11.912  1.00  0.00    -0.332 N 
ATOM     10  H3  UNL     1      19.466   3.943  12.613  1.00  0.00     0.168 HD
BRANCH   8  11
HETATM   11  C10 UNL     1      21.157   3.779  10.344  1.00  0.00     0.427 C 
HETATM   12  F1  UNL     1      21.904   4.078  11.456  1.00  0.00    -0.205 F 
HETATM   13  F2  UNL     1      20.772   4.992   9.761  1.00  0.00    -0.205 F 
ENDBRANCH   8  11
ENDBRANCH   2   5
BRANCH   3  14
HETATM   14  N2  UNL     1      16.421   1.232  14.930  1.00  0.00    -0.270 N 
HETATM   15  C3  UNL     1      16.779   1.580  16.251  1.00  0.00     0.240 C 
HETATM   16  O1  UNL     1      17.937   1.969  16.503  1.00  0.00    -0.271 OA
ATOM     17  H2  UNL     1      15.479   0.912  14.711  1.00  0.00     0.190 HD
BRANCH  15  18
HETATM   18  C4  UNL     1      15.791   1.484  17.334  1.00  0.00     0.080 A 
HETATM   19  C5  UNL     1      14.868   2.696  17.451  1.00  0.00     0.015 A 
HETATM   20  C6  UNL     1      14.343   1.367  17.028  1.00  0.00     0.015 A 
ENDBRANCH  15  18
ENDBRANCH   3  14
TORSDOF 4
ENDMDL
MODEL 4
REMARK VINA RESULT: -6.734048350      3.886      7.204
REMARK  4 active torsions:
REMARK  status: ('A' for Active; 'I' for Inactive)
REMARK    1  A    between atoms: C2_2  and  C7_12 
REMARK    2  A    between atoms: N1_3  and  N2_5 
REMARK       I    between atoms: N2_5  and  C3_7 
REMARK    3  A    between atoms: C3_7  and  C4_9 
REMARK    4  A    between atoms: C9_15  and  C10_16 
ROOT
HETATM    1  C1  UNL     1      17.844   4.524  14.606  1.00  0.00     0.072 C 
HETATM    2  C2  UNL     1      17.611   3.177  14.048  1.00  0.00     0.050 C 
HETATM    3  N1  UNL     1      17.991   2.832  12.872  1.00  0.00    -0.300 N 
ATOM      4  H1  UNL     1      17.816   1.893  12.512  1.00  0.00     0.186 HD
ENDROOT
BRANCH   2   5
HETATM    5  C7  UNL     1      16.909   2.171  14.874  1.00  0.00     0.080 A 
HETATM    6  C8  UNL     1      16.903   0.809  14.700  1.00  0.00     0.175 A 
HETATM    7  O2  UNL     1      16.163   0.262  15.638  1.00  0.00    -0.302 OA
HETATM    8  C9  UNL     1      15.691   1.215  16.412  1.00  0.00     0.189 A 
HETATM    9  N3  UNL     1      16.140   2.409  15.956  1.00  0.00    -0.332 N 
ATOM     10  H3  UNL     1      15.935   3.323  16.358  1.00  0.00     0.168 HD
BRANCH   8  11
HETATM   11  C10 UNL     1      14.803   1.042  17.604  1.00  0.00     0.427 C 
HETATM   12  F1  UNL     1      13.495   1.149  17.201  1.00  0.00    -0.205 F 
HETATM   13  F2  UNL     1      15.039   2.066  18.530  1.00  0.00    -0.205 F 
ENDBRANCH   8  11
ENDBRANCH   2   5
BRANCH   3  14
HETATM   14  N2  UNL     1      18.657   3.798  12.100  1.00  0.00    -0.270 N 
HETATM   15  C3  UNL     1      19.819   3.410  11.399  1.00  0.00     0.240 C 
HETATM   16  O1  UNL     1      20.232   2.236  11.474  1.00  0.00    -0.271 OA
ATOM     17  H2  UNL     1      18.310   4.756  12.047  1.00  0.00     0.190 HD
BRANCH  15  18
HETATM   18  C4  UNL     1      20.549   4.386  10.579  1.00  0.00     0.080 A 
HETATM   19  C5  UNL     1      21.748   5.022  11.280  1.00  0.00     0.015 A 
HETATM   20  C6  UNL     1      21.933   4.104  10.121  1.00  0.00     0.015 A 
ENDBRANCH  15  18
ENDBRANCH   3  14
TORSDOF 4
ENDMDL
MODEL 5
REMARK VINA RESULT: -6.642250988      2.224      2.578
REMARK  4 active torsions:
REMARK  status: ('A' for Active; 'I' for Inactive)
REMARK    1  A    between atoms: C2_2  and  C7_12 
REMARK    2  A    between atoms: N1_3  and  N2_5 
REMARK       I    between atoms: N2_5  and  C3_7 
REMARK    3  A    between atoms: C3_7  and  C4_9 
REMARK    4  A    between atoms: C9_15  and  C10_16 
ROOT
HETATM    1  C1  UNL     1      16.856   5.385  14.660  1.00  0.00     0.072 C 
HETATM    2  C2  UNL     1      17.820   4.379  14.174  1.00  0.00     0.050 C 
HETATM    3  N1  UNL     1      17.683   3.120  14.382  1.00  0.00    -0.300 N 
ATOM      4  H1  UNL     1      18.366   2.447  14.034  1.00  0.00     0.186 HD
ENDROOT
BRANCH   2   5
HETATM    5  C7  UNL     1      19.004   4.831  13.411  1.00  0.00     0.080 A 
HETATM    6  C8  UNL     1      19.688   6.012  13.559  1.00  0.00     0.175 A 
HETATM    7  O2  UNL     1      20.679   6.043  12.697  1.00  0.00    -0.302 OA
HETATM    8  C9  UNL     1      20.664   4.929  11.997  1.00  0.00     0.189 A 
HETATM    9  N3  UNL     1      19.632   4.162  12.423  1.00  0.00    -0.332 N 
ATOM     10  H3  UNL     1      19.376   3.243  12.062  1.00  0.00     0.168 HD
BRANCH   8  11
HETATM   11  C10 UNL     1      21.613   4.544  10.907  1.00  0.00     0.427 C 
HETATM   12  F1  UNL     1      21.230   3.329  10.395  1.00  0.00    -0.205 F 
HETATM   13  F2  UNL     1      22.904   4.389  11.427  1.00  0.00    -0.205 F 
ENDBRANCH   8  11
ENDBRANCH   2   5
BRANCH   3  14
HETATM   14  N2  UNL     1      16.553   2.706  15.108  1.00  0.00    -0.270 N 
HETATM   15  C3  UNL     1      16.717   1.699  16.083  1.00  0.00     0.240 C 
HETATM   16  O1  UNL     1      17.842   1.198  16.282  1.00  0.00    -0.271 OA
ATOM     17  H2  UNL     1      15.639   3.123  14.934  1.00  0.00     0.190 HD
BRANCH  15  18
HETATM   18  C4  UNL     1      15.564   1.233  16.866  1.00  0.00     0.080 A 
HETATM   19  C5  UNL     1      15.238   2.101  18.079  1.00  0.00     0.015 A 
HETATM   20  C6  UNL     1      14.312   2.029  16.914  1.00  0.00     0.015 A 
ENDBRANCH  15  18
ENDBRANCH   3  14
TORSDOF 4
ENDMDL
