MODEL 1
REMARK VINA RESULT: -6.309295378      0.000      0.000
REMARK  3 active torsions:
REMARK  status: ('A' for Active; 'I' for Inactive)
REMARK    1  A    between atoms: C4_4  and  N1_5 
REMARK    2  A    between atoms: N1_5  and  C5_8 
REMARK    3  A    between atoms: C5_8  and  C6_9 
ROOT
HETATM    1  N1  UNL     1      17.323   2.934  14.725  1.00  0.00    -0.070 N 
ATOM      2  H11 UNL     1      18.098   2.273  14.676  1.00  0.00     0.277 HD
ATOM      3  H12 UNL     1      17.859   3.802  14.692  1.00  0.00     0.277 HD
ENDROOT
BRANCH   1   4
HETATM    4  C4  UNL     1      16.600   2.808  15.940  1.00  0.00     0.185 C 
HETATM    5  C3  UNL     1      15.177   3.380  15.815  1.00  0.00     0.033 C 
HETATM    6  C2  UNL     1      14.580   3.488  17.202  1.00  0.00     0.002 C 
HETATM    7  C1  UNL     1      14.634   2.180  17.935  1.00  0.00     0.000 C 
HETATM    8  C11 UNL     1      15.108   1.106  17.005  1.00  0.00     0.002 C 
HETATM    9  C10 UNL     1      16.540   1.467  16.583  1.00  0.00     0.033 C 
ENDBRANCH   1   4
BRANCH   1  10
HETATM   10  C5  UNL     1      16.429   2.807  13.575  1.00  0.00     0.239 C 
BRANCH  10  11
HETATM   11  C6  UNL     1      17.136   2.191  12.412  1.00  0.00     0.037 C 
HETATM   12  C7  UNL     1      16.948   0.676  12.426  1.00  0.00     0.034 C 
HETATM   13  C8  UNL     1      17.430   0.381  11.013  1.00  0.00     0.168 C 
HETATM   14  O1  UNL     1      17.256   1.542  10.278  1.00  0.00    -0.391 OA
HETATM   15  C9  UNL     1      16.600   2.489  11.053  1.00  0.00     0.173 C 
ENDBRANCH  10  11
ENDBRANCH   1  10
TORSDOF 3
ENDMDL
MODEL 2
REMARK VINA RESULT: -6.066215976      0.849      1.439
REMARK  3 active torsions:
REMARK  status: ('A' for Active; 'I' for Inactive)
REMARK    1  A    between atoms: C4_4  and  N1_5 
REMARK    2  A    between atoms: N1_5  and  C5_8 
REMARK    3  A    between atoms: C5_8  and  C6_9 
ROOT
HETATM    1  N1  UNL     1      17.287   2.911  14.828  1.00  0.00    -0.070 N 
ATOM      2  H11 UNL     1      18.291   2.833  14.996  1.00  0.00     0.277 HD
ATOM      3  H12 UNL     1      17.267   3.863  14.462  1.00  0.00     0.277 HD
ENDROOT
BRANCH   1   4
HETATM    4  C4  UNL     1      16.543   2.793  16.031  1.00  0.00     0.185 C 
HETATM    5  C3  UNL     1      15.147   3.426  15.897  1.00  0.00     0.033 C 
HETATM    6  C2  UNL     1      14.534   3.534  17.278  1.00  0.00     0.002 C 
HETATM    7  C1  UNL     1      14.524   2.212  17.987  1.00  0.00     0.000 C 
HETATM    8  C11 UNL     1      14.966   1.136  17.043  1.00  0.00     0.002 C 
HETATM    9  C10 UNL     1      16.418   1.445  16.648  1.00  0.00     0.033 C 
ENDBRANCH   1   4
BRANCH   1  10
HETATM   10  C5  UNL     1      16.826   1.940  13.837  1.00  0.00     0.239 C 
BRANCH  10  11
HETATM   11  C6  UNL     1      16.570   2.600  12.521  1.00  0.00     0.037 C 
HETATM   12  C7  UNL     1      17.536   3.765  12.321  1.00  0.00     0.034 C 
HETATM   13  C8  UNL     1      17.303   3.992  10.834  1.00  0.00     0.168 C 
HETATM   14  O1  UNL     1      16.839   2.796  10.312  1.00  0.00    -0.391 OA
HETATM   15  C9  UNL     1      16.881   1.813  11.292  1.00  0.00     0.173 C 
ENDBRANCH  10  11
ENDBRANCH   1  10
TORSDOF 3
ENDMDL
MODEL 3
REMARK VINA RESULT: -6.011729130      0.889      1.623
REMARK  3 active torsions:
REMARK  status: ('A' for Active; 'I' for Inactive)
REMARK    1  A    between atoms: C4_4  and  N1_5 
REMARK    2  A    between atoms: N1_5  and  C5_8 
REMARK    3  A    between atoms: C5_8  and  C6_9 
ROOT
HETATM    1  N1  UNL     1      17.291   2.935  14.387  1.00  0.00    -0.070 N 
ATOM      2  H11 UNL     1      18.096   2.327  14.540  1.00  0.00     0.277 HD
ATOM      3  H12 UNL     1      17.688   3.807  14.737  1.00  0.00     0.277 HD
ENDROOT
BRANCH   1   4
HETATM    4  C4  UNL     1      16.169   2.523  15.152  1.00  0.00     0.185 C 
HETATM    5  C3  UNL     1      16.597   1.820  16.452  1.00  0.00     0.033 C 
HETATM    6  C2  UNL     1      15.381   1.151  17.059  1.00  0.00     0.002 C 
HETATM    7  C1  UNL     1      14.250   2.118  17.248  1.00  0.00     0.000 C 
HETATM    8  C11 UNL     1      14.722   3.506  16.940  1.00  0.00     0.002 C 
HETATM    9  C10 UNL     1      15.121   3.534  15.457  1.00  0.00     0.033 C 
ENDBRANCH   1   4
BRANCH   1  10
HETATM   10  C5  UNL     1      16.945   3.028  12.969  1.00  0.00     0.239 C 
BRANCH  10  11
HETATM   11  C6  UNL     1      17.558   1.907  12.194  1.00  0.00     0.037 C 
HETATM   12  C7  UNL     1      16.477   1.150  11.423  1.00  0.00     0.034 C 
HETATM   13  C8  UNL     1      17.385   0.356  10.495  1.00  0.00     0.168 C 
HETATM   14  O1  UNL     1      18.573   1.061  10.393  1.00  0.00    -0.391 OA
HETATM   15  C9  UNL     1      18.453   2.274  11.058  1.00  0.00     0.173 C 
ENDBRANCH  10  11
ENDBRANCH   1  10
TORSDOF 3
ENDMDL
MODEL 4
REMARK VINA RESULT: -5.973570934      0.783      1.150
REMARK  3 active torsions:
REMARK  status: ('A' for Active; 'I' for Inactive)
REMARK    1  A    between atoms: C4_4  and  N1_5 
REMARK    2  A    between atoms: N1_5  and  C5_8 
REMARK    3  A    between atoms: C5_8  and  C6_9 
ROOT
HETATM    1  N1  UNL     1      17.309   3.074  14.369  1.00  0.00    -0.070 N 
ATOM      2  H11 UNL     1      18.064   2.400  14.240  1.00  0.00     0.277 HD
ATOM      3  H12 UNL     1      17.859   3.932  14.316  1.00  0.00     0.277 HD
ENDROOT
BRANCH   1   4
HETATM    4  C4  UNL     1      16.683   2.928  15.635  1.00  0.00     0.185 C 
HETATM    5  C3  UNL     1      15.205   3.352  15.588  1.00  0.00     0.033 C 
HETATM    6  C2  UNL     1      14.692   3.457  17.009  1.00  0.00     0.002 C 
HETATM    7  C1  UNL     1      14.925   2.193  17.780  1.00  0.00     0.000 C 
HETATM    8  C11 UNL     1      15.443   1.133  16.858  1.00  0.00     0.002 C 
HETATM    9  C10 UNL     1      16.801   1.615  16.326  1.00  0.00     0.033 C 
ENDBRANCH   1   4
BRANCH   1  10
HETATM   10  C5  UNL     1      16.323   2.996  13.292  1.00  0.00     0.239 C 
BRANCH  10  11
HETATM   11  C6  UNL     1      16.781   2.068  12.213  1.00  0.00     0.037 C 
HETATM   12  C7  UNL     1      18.223   2.388  11.824  1.00  0.00     0.034 C 
HETATM   13  C8  UNL     1      18.520   1.126  11.026  1.00  0.00     0.168 C 
HETATM   14  O1  UNL     1      17.657   0.146  11.487  1.00  0.00    -0.391 OA
HETATM   15  C9  UNL     1      16.941   0.630  12.574  1.00  0.00     0.173 C 
ENDBRANCH  10  11
ENDBRANCH   1  10
TORSDOF 3
ENDMDL
MODEL 5
REMARK VINA RESULT: -5.834934918      1.090      1.851
REMARK  3 active torsions:
REMARK  status: ('A' for Active; 'I' for Inactive)
REMARK    1  A    between atoms: C4_4  and  N1_5 
REMARK    2  A    between atoms: N1_5  and  C5_8 
REMARK    3  A    between atoms: C5_8  and  C6_9 
ROOT
HETATM    1  N1  UNL     1      17.467   2.751  13.729  1.00  0.00    -0.070 N 
ATOM      2  H11 UNL     1      17.911   1.845  13.576  1.00  0.00     0.277 HD
ATOM      3  H12 UNL     1      18.275   3.258  14.093  1.00  0.00     0.277 HD
ENDROOT
BRANCH   1   4
HETATM    4  C4  UNL     1      16.422   2.669  14.686  1.00  0.00     0.185 C 
HETATM    5  C3  UNL     1      16.974   2.573  16.119  1.00  0.00     0.033 C 
HETATM    6  C2  UNL     1      15.838   2.189  17.045  1.00  0.00     0.002 C 
HETATM    7  C1  UNL     1      14.674   3.127  16.916  1.00  0.00     0.000 C 
HETATM    8  C11 UNL     1      15.053   4.274  16.030  1.00  0.00     0.002 C 
HETATM    9  C10 UNL     1      15.347   3.697  14.637  1.00  0.00     0.033 C 
ENDBRANCH   1   4
BRANCH   1  10
HETATM   10  C5  UNL     1      16.980   3.334  12.480  1.00  0.00     0.239 C 
BRANCH  10  11
HETATM   11  C6  UNL     1      17.305   2.455  11.316  1.00  0.00     0.037 C 
HETATM   12  C7  UNL     1      18.600   1.690  11.582  1.00  0.00     0.034 C 
HETATM   13  C8  UNL     1      18.485   0.666  10.462  1.00  0.00     0.168 C 
HETATM   14  O1  UNL     1      17.138   0.552  10.157  1.00  0.00    -0.391 OA
HETATM   15  C9  UNL     1      16.393   1.304  11.056  1.00  0.00     0.173 C 
ENDBRANCH  10  11
ENDBRANCH   1  10
TORSDOF 3
ENDMDL
