MODEL 1
REMARK VINA RESULT: -5.477748351      0.000      0.000
REMARK  3 active torsions:
REMARK  status: ('A' for Active; 'I' for Inactive)
REMARK    1  A    between atoms: O1_1  and  C1_3 
REMARK    2  A    between atoms: C1_3  and  C2_4 
REMARK    3  A    between atoms: C2_4  and  C3_5 
ROOT
HETATM    1  C3  UNL     1      16.360   3.923  15.092  1.00  0.00     0.064 C 
HETATM    2  C4  UNL     1      16.262   3.469  13.629  1.00  0.00     0.043 C 
HETATM    3  C5  UNL     1      16.978   4.506  12.808  1.00  0.00    -0.009 C 
HETATM    4  C6  UNL     1      16.316   5.860  12.916  1.00  0.00     0.009 C 
HETATM    5  C7  UNL     1      16.214   6.250  14.368  1.00  0.00    -0.009 C 
HETATM    6  C8  UNL     1      17.641   6.441  14.872  1.00  0.00     0.036 C 
HETATM    7  C9  UNL     1      18.325   5.099  14.747  1.00  0.00     0.123 C 
HETATM    8  C10 UNL     1      18.388   4.639  13.302  1.00  0.00     0.036 C 
HETATM    9  O2  UNL     1      17.667   4.133  15.469  1.00  0.00    -0.375 OA
HETATM   10  C11 UNL     1      15.536   5.177  15.190  1.00  0.00     0.043 C 
ENDROOT
BRANCH   1  11
HETATM   11  C2  UNL     1      15.808   2.792  15.910  1.00  0.00     0.064 C 
BRANCH  11  12
HETATM   12  C1  UNL     1      16.589   1.510  15.762  1.00  0.00     0.167 C 
BRANCH  12  13
HETATM   13  O1  UNL     1      17.814   1.572  16.418  1.00  0.00    -0.401 OA
ATOM     14  H1  UNL     1      18.221   0.716  16.491  1.00  0.00     0.209 HD
ENDBRANCH  12  13
ENDBRANCH  11  12
ENDBRANCH   1  11
TORSDOF 3
ENDMDL
MODEL 2
REMARK VINA RESULT: -5.472512819      1.906      3.302
REMARK  3 active torsions:
REMARK  status: ('A' for Active; 'I' for Inactive)
REMARK    1  A    between atoms: O1_1  and  C1_3 
REMARK    2  A    between atoms: C1_3  and  C2_4 
REMARK    3  A    between atoms: C2_4  and  C3_5 
ROOT
HETATM    1  C3  UNL     1      16.928   4.455  12.680  1.00  0.00     0.064 C 
HETATM    2  C4  UNL     1      18.295   4.443  13.378  1.00  0.00     0.043 C 
HETATM    3  C5  UNL     1      18.044   4.772  14.824  1.00  0.00    -0.009 C 
HETATM    4  C6  UNL     1      17.453   6.153  14.989  1.00  0.00     0.009 C 
HETATM    5  C7  UNL     1      16.206   6.265  14.150  1.00  0.00    -0.009 C 
HETATM    6  C8  UNL     1      15.187   5.302  14.750  1.00  0.00     0.036 C 
HETATM    7  C9  UNL     1      15.774   3.915  14.615  1.00  0.00     0.123 C 
HETATM    8  C10 UNL     1      17.070   3.782  15.393  1.00  0.00     0.036 C 
HETATM    9  O2  UNL     1      16.037   3.609  13.302  1.00  0.00    -0.375 OA
HETATM   10  C11 UNL     1      16.464   5.884  12.710  1.00  0.00     0.043 C 
ENDROOT
BRANCH   1  11
HETATM   11  C2  UNL     1      17.174   3.945  11.291  1.00  0.00     0.064 C 
BRANCH  11  12
HETATM   12  C1  UNL     1      16.862   2.479  11.127  1.00  0.00     0.167 C 
BRANCH  12  13
HETATM   13  O1  UNL     1      15.493   2.248  11.031  1.00  0.00    -0.401 OA
ATOM     14  H1  UNL     1      15.194   2.263  10.129  1.00  0.00     0.209 HD
ENDBRANCH  12  13
ENDBRANCH  11  12
ENDBRANCH   1  11
TORSDOF 3
ENDMDL
MODEL 3
REMARK VINA RESULT: -5.326336380      2.106      3.080
REMARK  3 active torsions:
REMARK  status: ('A' for Active; 'I' for Inactive)
REMARK    1  A    between atoms: O1_1  and  C1_3 
REMARK    2  A    between atoms: C1_3  and  C2_4 
REMARK    3  A    between atoms: C2_4  and  C3_5 
ROOT
HETATM    1  C3  UNL     1      16.574   4.094  13.678  1.00  0.00     0.064 C 
HETATM    2  C4  UNL     1      15.354   4.211  14.601  1.00  0.00     0.043 C 
HETATM    3  C5  UNL     1      15.155   5.677  14.869  1.00  0.00    -0.009 C 
HETATM    4  C6  UNL     1      16.338   6.280  15.590  1.00  0.00     0.009 C 
HETATM    5  C7  UNL     1      17.594   6.006  14.802  1.00  0.00    -0.009 C 
HETATM    6  C8  UNL     1      17.466   6.777  13.493  1.00  0.00     0.036 C 
HETATM    7  C9  UNL     1      16.270   6.203  12.769  1.00  0.00     0.123 C 
HETATM    8  C10 UNL     1      14.992   6.400  13.563  1.00  0.00     0.036 C 
HETATM    9  O2  UNL     1      16.422   4.856  12.542  1.00  0.00    -0.375 OA
HETATM   10  C11 UNL     1      17.754   4.533  14.499  1.00  0.00     0.043 C 
ENDROOT
BRANCH   1  11
HETATM   11  C2  UNL     1      16.644   2.651  13.273  1.00  0.00     0.064 C 
BRANCH  11  12
HETATM   12  C1  UNL     1      16.712   2.450  11.780  1.00  0.00     0.167 C 
BRANCH  12  13
HETATM   13  O1  UNL     1      15.446   2.416  11.204  1.00  0.00    -0.401 OA
ATOM     14  H1  UNL     1      15.173   3.274  10.899  1.00  0.00     0.209 HD
ENDBRANCH  12  13
ENDBRANCH  11  12
ENDBRANCH   1  11
TORSDOF 3
ENDMDL
MODEL 4
REMARK VINA RESULT: -5.293277853      1.205      2.303
REMARK  3 active torsions:
REMARK  status: ('A' for Active; 'I' for Inactive)
REMARK    1  A    between atoms: O1_1  and  C1_3 
REMARK    2  A    between atoms: C1_3  and  C2_4 
REMARK    3  A    between atoms: C2_4  and  C3_5 
ROOT
HETATM    1  C3  UNL     1      16.628   3.963  14.375  1.00  0.00     0.064 C 
HETATM    2  C4  UNL     1      15.540   4.275  15.412  1.00  0.00     0.043 C 
HETATM    3  C5  UNL     1      15.281   5.754  15.333  1.00  0.00    -0.009 C 
HETATM    4  C6  UNL     1      16.508   6.557  15.697  1.00  0.00     0.009 C 
HETATM    5  C7  UNL     1      17.661   6.129  14.824  1.00  0.00    -0.009 C 
HETATM    6  C8  UNL     1      17.304   6.536  13.398  1.00  0.00     0.036 C 
HETATM    7  C9  UNL     1      16.061   5.759  13.027  1.00  0.00     0.123 C 
HETATM    8  C10 UNL     1      14.893   6.113  13.928  1.00  0.00     0.036 C 
HETATM    9  O2  UNL     1      16.271   4.404  13.121  1.00  0.00    -0.375 OA
HETATM   10  C11 UNL     1      17.877   4.633  14.876  1.00  0.00     0.043 C 
ENDROOT
BRANCH   1  11
HETATM   11  C2  UNL     1      16.739   2.467  14.336  1.00  0.00     0.064 C 
BRANCH  11  12
HETATM   12  C1  UNL     1      16.491   1.813  15.673  1.00  0.00     0.167 C 
BRANCH  12  13
HETATM   13  O1  UNL     1      17.679   1.486  16.318  1.00  0.00    -0.401 OA
ATOM     14  H1  UNL     1      18.057   0.683  15.978  1.00  0.00     0.209 HD
ENDBRANCH  12  13
ENDBRANCH  11  12
ENDBRANCH   1  11
TORSDOF 3
ENDMDL
MODEL 5
REMARK VINA RESULT: -5.265037081      0.902      1.033
REMARK  3 active torsions:
REMARK  status: ('A' for Active; 'I' for Inactive)
REMARK    1  A    between atoms: O1_1  and  C1_3 
REMARK    2  A    between atoms: C1_3  and  C2_4 
REMARK    3  A    between atoms: C2_4  and  C3_5 
ROOT
HETATM    1  C3  UNL     1      17.071   4.534  14.805  1.00  0.00     0.064 C 
HETATM    2  C4  UNL     1      16.737   4.184  13.348  1.00  0.00     0.043 C 
HETATM    3  C5  UNL     1      17.633   5.029  12.485  1.00  0.00    -0.009 C 
HETATM    4  C6  UNL     1      17.366   6.504  12.678  1.00  0.00     0.009 C 
HETATM    5  C7  UNL     1      17.490   6.846  14.141  1.00  0.00    -0.009 C 
HETATM    6  C8  UNL     1      18.953   6.634  14.517  1.00  0.00     0.036 C 
HETATM    7  C9  UNL     1      19.244   5.166  14.306  1.00  0.00     0.123 C 
HETATM    8  C10 UNL     1      19.064   4.766  12.854  1.00  0.00     0.036 C 
HETATM    9  O2  UNL     1      18.414   4.377  15.066  1.00  0.00    -0.375 OA
HETATM   10  C11 UNL     1      16.621   5.955  14.999  1.00  0.00     0.043 C 
ENDROOT
BRANCH   1  11
HETATM   11  C2  UNL     1      16.308   3.555  15.647  1.00  0.00     0.064 C 
BRANCH  11  12
HETATM   12  C1  UNL     1      16.772   2.130  15.477  1.00  0.00     0.167 C 
BRANCH  12  13
HETATM   13  O1  UNL     1      17.843   1.831  16.312  1.00  0.00    -0.401 OA
ATOM     14  H1  UNL     1      17.980   2.505  16.968  1.00  0.00     0.209 HD
ENDBRANCH  12  13
ENDBRANCH  11  12
ENDBRANCH   1  11
TORSDOF 3
ENDMDL
