MODEL 1
REMARK VINA RESULT: -7.290893715      0.000      0.000
REMARK  19 active torsions:
REMARK  status: ('A' for Active; 'I' for Inactive)
REMARK    1  A    between atoms: C3_3  and  C5_5 
REMARK    2  A    between atoms: C5_5  and  C6_7 
REMARK    3  A    between atoms: C7_8  and  O2_9 
REMARK    4  A    between atoms: O2_9  and  C8_10 
REMARK       I    between atoms: C8_10  and  N1_12 
REMARK    5  A    between atoms: N1_12  and  C9_14 
REMARK    6  A    between atoms: C13_18  and  C14_19 
REMARK    7  A    between atoms: C15_20  and  C16_21 
REMARK    8  A    between atoms: C16_21  and  O5_23 
REMARK    9  A    between atoms: O5_23  and  C17_24 
REMARK   10  A    between atoms: C21_28  and  C22_29 
REMARK   11  A    between atoms: C22_29  and  O6_30 
REMARK   12  A    between atoms: C22_29  and  C23_32 
REMARK   13  A    between atoms: C23_32  and  C24_33 
REMARK   14  A    between atoms: C27_36  and  O7_37 
REMARK   15  A    between atoms: O7_37  and  C28_38 
REMARK   16  A    between atoms: C28_38  and  O9_40 
REMARK   17  A    between atoms: O9_40  and  C29_41 
REMARK   18  A    between atoms: C29_41  and  C30_42 
REMARK   19  A    between atoms: C33_45  and  C34_46 
ROOT
HETATM    1  C6  UNL     1      37.060  24.717   6.847  1.00  0.00     0.059 A 
HETATM    2  C7  UNL     1      37.868  25.690   7.421  1.00  0.00     0.106 A 
HETATM    3  C13 UNL     1      39.177  25.863   7.013  1.00  0.00     0.011 A 
HETATM    4  C21 UNL     1      39.616  25.010   5.993  1.00  0.00     0.018 A 
HETATM    5  C27 UNL     1      38.810  24.046   5.454  1.00  0.00     0.099 A 
HETATM    6  C33 UNL     1      37.478  23.864   5.855  1.00  0.00    -0.003 A 
ENDROOT
BRANCH   2   7
HETATM    7  O2  UNL     1      37.319  26.464   8.391  1.00  0.00    -0.260 OA
BRANCH   7   8
HETATM    8  C8  UNL     1      36.592  27.621   8.281  1.00  0.00     0.366 C 
HETATM    9  O3  UNL     1      36.246  28.188   9.340  1.00  0.00    -0.238 OA
HETATM   10  N1  UNL     1      36.215  28.189   7.044  1.00  0.00    -0.329 N 
ATOM     11  H1  UNL     1      36.528  27.666   6.226  1.00  0.00     0.165 HD
BRANCH  10  12
HETATM   12  C9  UNL     1      35.481  29.354   6.747  1.00  0.00     0.024 C 
HETATM   13  C10 UNL     1      35.781  30.453   7.714  1.00  0.00     0.037 C 
HETATM   14  C11 UNL     1      34.002  28.969   6.757  1.00  0.00     0.037 C 
HETATM   15  C12 UNL     1      35.841  29.796   5.315  1.00  0.00     0.037 C 
ENDBRANCH  10  12
ENDBRANCH   7   8
ENDBRANCH   2   7
BRANCH   1  16
HETATM   16  C5  UNL     1      35.731  24.627   7.385  1.00  0.00     0.191 C 
HETATM   17  O1  UNL     1      34.854  25.382   6.897  1.00  0.00    -0.287 OA
BRANCH  16  18
HETATM   18  C3  UNL     1      35.355  23.731   8.432  1.00  0.00    -0.015 C 
HETATM   19  C2  UNL     1      34.538  22.710   8.284  1.00  0.00    -0.020 C 
HETATM   20  C1  UNL     1      34.161  21.772   9.355  1.00  0.00     0.036 C 
HETATM   21  C4  UNL     1      35.921  23.916   9.812  1.00  0.00     0.052 C 
ENDBRANCH  16  18
ENDBRANCH   1  16
BRANCH   3  22
HETATM   22  C14 UNL     1      39.923  26.874   7.687  1.00  0.00     0.021 C 
HETATM   23  C15 UNL     1      40.509  26.927   8.849  1.00  0.00     0.083 C 
BRANCH  23  24
HETATM   24  C16 UNL     1      41.220  28.122   9.254  1.00  0.00     0.283 C 
HETATM   25  O4  UNL     1      41.280  29.090   8.422  1.00  0.00    -0.260 OA
BRANCH  24  26
HETATM   26  O5  UNL     1      41.842  28.310  10.470  1.00  0.00    -0.308 OA
BRANCH  26  27
HETATM   27  C17 UNL     1      43.164  27.810  10.717  1.00  0.00     0.060 C 
HETATM   28  C18 UNL     1      44.178  28.635   9.939  1.00  0.00     0.046 C 
HETATM   29  C19 UNL     1      43.357  26.377  10.360  1.00  0.00     0.046 C 
HETATM   30  C20 UNL     1      43.508  27.985  12.194  1.00  0.00     0.046 C 
ENDBRANCH  26  27
ENDBRANCH  24  26
ENDBRANCH  23  24
ENDBRANCH   3  22
BRANCH   6  31
HETATM   31  C34 UNL     1      36.725  22.821   5.238  1.00  0.00     0.014 C 
HETATM   32  C35 UNL     1      35.424  23.355   4.634  1.00  0.00     0.015 C 
HETATM   33  C36 UNL     1      36.376  21.533   5.840  1.00  0.00     0.015 C 
ENDBRANCH   6  31
BRANCH   4  34
HETATM   34  C22 UNL     1      40.923  25.364   5.319  1.00  0.00     0.155 C 
BRANCH  34  35
HETATM   35  O6  UNL     1      41.515  24.287   4.748  1.00  0.00    -0.391 OA
ATOM     36  H6  UNL     1      41.843  24.476   3.877  1.00  0.00     0.210 HD
ENDBRANCH  34  35
BRANCH  34  37
HETATM   37  C23 UNL     1      40.605  26.361   4.162  1.00  0.00     0.040 C 
BRANCH  37  38
HETATM   38  C24 UNL     1      41.602  27.528   4.178  1.00  0.00    -0.020 C 
HETATM   39  C25 UNL     1      42.546  27.458   5.364  1.00  0.00     0.009 C 
HETATM   40  C26 UNL     1      40.674  28.745   4.595  1.00  0.00     0.009 C 
ENDBRANCH  37  38
ENDBRANCH  34  37
ENDBRANCH   4  34
BRANCH   5  41
HETATM   41  O7  UNL     1      39.404  23.177   4.484  1.00  0.00    -0.254 OA
BRANCH  41  42
HETATM   42  C28 UNL     1      38.884  23.334   3.155  1.00  0.00     0.411 C 
HETATM   43  O8  UNL     1      38.745  22.279   2.469  1.00  0.00    -0.229 OA
BRANCH  42  44
HETATM   44  O9  UNL     1      38.527  24.527   2.592  1.00  0.00    -0.297 OA
BRANCH  44  45
HETATM   45  C29 UNL     1      37.621  24.557   1.529  1.00  0.00     0.185 C 
BRANCH  45  46
HETATM   46  C30 UNL     1      36.583  25.628   1.766  1.00  0.00     0.002 C 
HETATM   47  C31 UNL     1      36.493  26.639   0.658  1.00  0.00     0.011 C 
HETATM   48  C32 UNL     1      36.912  26.422   3.033  1.00  0.00     0.011 C 
ENDBRANCH  45  46
ENDBRANCH  44  45
ENDBRANCH  42  44
ENDBRANCH  41  42
ENDBRANCH   5  41
TORSDOF 19
ENDMDL
MODEL 2
REMARK VINA RESULT: -7.257676709      2.554      5.342
REMARK  19 active torsions:
REMARK  status: ('A' for Active; 'I' for Inactive)
REMARK    1  A    between atoms: C3_3  and  C5_5 
REMARK    2  A    between atoms: C5_5  and  C6_7 
REMARK    3  A    between atoms: C7_8  and  O2_9 
REMARK    4  A    between atoms: O2_9  and  C8_10 
REMARK       I    between atoms: C8_10  and  N1_12 
REMARK    5  A    between atoms: N1_12  and  C9_14 
REMARK    6  A    between atoms: C13_18  and  C14_19 
REMARK    7  A    between atoms: C15_20  and  C16_21 
REMARK    8  A    between atoms: C16_21  and  O5_23 
REMARK    9  A    between atoms: O5_23  and  C17_24 
REMARK   10  A    between atoms: C21_28  and  C22_29 
REMARK   11  A    between atoms: C22_29  and  O6_30 
REMARK   12  A    between atoms: C22_29  and  C23_32 
REMARK   13  A    between atoms: C23_32  and  C24_33 
REMARK   14  A    between atoms: C27_36  and  O7_37 
REMARK   15  A    between atoms: O7_37  and  C28_38 
REMARK   16  A    between atoms: C28_38  and  O9_40 
REMARK   17  A    between atoms: O9_40  and  C29_41 
REMARK   18  A    between atoms: C29_41  and  C30_42 
REMARK   19  A    between atoms: C33_45  and  C34_46 
ROOT
HETATM    1  C6  UNL     1      37.601  25.090   7.558  1.00  0.00     0.059 A 
HETATM    2  C7  UNL     1      38.717  25.435   6.805  1.00  0.00     0.106 A 
HETATM    3  C13 UNL     1      39.081  24.702   5.692  1.00  0.00     0.011 A 
HETATM    4  C21 UNL     1      38.253  23.616   5.379  1.00  0.00     0.018 A 
HETATM    5  C27 UNL     1      37.170  23.283   6.144  1.00  0.00     0.099 A 
HETATM    6  C33 UNL     1      36.786  24.022   7.272  1.00  0.00    -0.003 A 
ENDROOT
BRANCH   2   7
HETATM    7  O2  UNL     1      39.428  26.519   7.204  1.00  0.00    -0.260 OA
BRANCH   7   8
HETATM    8  C8  UNL     1      39.429  27.797   6.708  1.00  0.00     0.366 C 
HETATM    9  O3  UNL     1      40.299  28.583   7.139  1.00  0.00    -0.238 OA
HETATM   10  N1  UNL     1      38.500  28.260   5.750  1.00  0.00    -0.329 N 
ATOM     11  H1  UNL     1      37.818  27.564   5.451  1.00  0.00     0.165 HD
BRANCH  10  12
HETATM   12  C9  UNL     1      38.356  29.520   5.137  1.00  0.00     0.024 C 
HETATM   13  C10 UNL     1      39.583  29.904   4.376  1.00  0.00     0.037 C 
HETATM   14  C11 UNL     1      38.028  30.524   6.241  1.00  0.00     0.037 C 
HETATM   15  C12 UNL     1      37.144  29.456   4.188  1.00  0.00     0.037 C 
ENDBRANCH  10  12
ENDBRANCH   7   8
ENDBRANCH   2   7
BRANCH   1  16
HETATM   16  C5  UNL     1      37.354  25.919   8.704  1.00  0.00     0.191 C 
HETATM   17  O1  UNL     1      38.099  25.766   9.704  1.00  0.00    -0.287 OA
BRANCH  16  18
HETATM   18  C3  UNL     1      36.321  26.904   8.768  1.00  0.00    -0.015 C 
HETATM   19  C2  UNL     1      35.961  27.676   7.764  1.00  0.00    -0.020 C 
HETATM   20  C1  UNL     1      34.885  28.679   7.819  1.00  0.00     0.036 C 
HETATM   21  C4  UNL     1      35.550  27.094  10.043  1.00  0.00     0.052 C 
ENDBRANCH  16  18
ENDBRANCH   1  16
BRANCH   3  22
HETATM   22  C14 UNL     1      40.257  25.128   5.009  1.00  0.00     0.021 C 
HETATM   23  C15 UNL     1      41.425  24.586   4.817  1.00  0.00     0.083 C 
BRANCH  23  24
HETATM   24  C16 UNL     1      42.434  25.280   4.045  1.00  0.00     0.283 C 
HETATM   25  O4  UNL     1      42.141  26.435   3.582  1.00  0.00    -0.260 OA
BRANCH  24  26
HETATM   26  O5  UNL     1      43.697  24.803   3.764  1.00  0.00    -0.308 OA
BRANCH  26  27
HETATM   27  C17 UNL     1      43.988  24.150   2.520  1.00  0.00     0.060 C 
HETATM   28  C18 UNL     1      45.479  24.238   2.231  1.00  0.00     0.046 C 
HETATM   29  C19 UNL     1      43.253  24.701   1.348  1.00  0.00     0.046 C 
HETATM   30  C20 UNL     1      43.659  22.664   2.636  1.00  0.00     0.046 C 
ENDBRANCH  26  27
ENDBRANCH  24  26
ENDBRANCH  23  24
ENDBRANCH   3  22
BRANCH   6  31
HETATM   31  C34 UNL     1      35.646  23.584   8.009  1.00  0.00     0.014 C 
HETATM   32  C35 UNL     1      34.412  24.427   7.681  1.00  0.00     0.015 C 
HETATM   33  C36 UNL     1      35.586  23.350   9.453  1.00  0.00     0.015 C 
ENDBRANCH   6  31
BRANCH   4  34
HETATM   34  C22 UNL     1      38.439  22.984   4.018  1.00  0.00     0.155 C 
BRANCH  34  35
HETATM   35  O6  UNL     1      37.694  21.862   3.866  1.00  0.00    -0.391 OA
ATOM     36  H6  UNL     1      36.762  22.042   3.887  1.00  0.00     0.210 HD
ENDBRANCH  34  35
BRANCH  34  37
HETATM   37  C23 UNL     1      37.930  24.001   2.949  1.00  0.00     0.040 C 
BRANCH  37  38
HETATM   38  C24 UNL     1      38.733  23.851   1.649  1.00  0.00    -0.020 C 
HETATM   39  C25 UNL     1      39.988  23.022   1.844  1.00  0.00     0.009 C 
HETATM   40  C26 UNL     1      39.348  25.302   1.475  1.00  0.00     0.009 C 
ENDBRANCH  37  38
ENDBRANCH  34  37
ENDBRANCH   4  34
BRANCH   5  41
HETATM   41  O7  UNL     1      36.459  22.098   5.773  1.00  0.00    -0.254 OA
BRANCH  41  42
HETATM   42  C28 UNL     1      35.133  22.336   5.275  1.00  0.00     0.411 C 
HETATM   43  O8  UNL     1      34.973  23.359   4.546  1.00  0.00    -0.229 OA
BRANCH  42  44
HETATM   44  O9  UNL     1      34.051  21.540   5.524  1.00  0.00    -0.297 OA
BRANCH  44  45
HETATM   45  C29 UNL     1      33.926  20.893   6.755  1.00  0.00     0.185 C 
BRANCH  45  46
HETATM   46  C30 UNL     1      32.522  21.057   7.286  1.00  0.00     0.002 C 
HETATM   47  C31 UNL     1      31.753  22.169   6.630  1.00  0.00     0.011 C 
HETATM   48  C32 UNL     1      32.550  21.391   8.780  1.00  0.00     0.011 C 
ENDBRANCH  45  46
ENDBRANCH  44  45
ENDBRANCH  42  44
ENDBRANCH  41  42
ENDBRANCH   5  41
TORSDOF 19
ENDMDL
MODEL 3
REMARK VINA RESULT: -7.191136349      1.028      1.574
REMARK  19 active torsions:
REMARK  status: ('A' for Active; 'I' for Inactive)
REMARK    1  A    between atoms: C3_3  and  C5_5 
REMARK    2  A    between atoms: C5_5  and  C6_7 
REMARK    3  A    between atoms: C7_8  and  O2_9 
REMARK    4  A    between atoms: O2_9  and  C8_10 
REMARK       I    between atoms: C8_10  and  N1_12 
REMARK    5  A    between atoms: N1_12  and  C9_14 
REMARK    6  A    between atoms: C13_18  and  C14_19 
REMARK    7  A    between atoms: C15_20  and  C16_21 
REMARK    8  A    between atoms: C16_21  and  O5_23 
REMARK    9  A    between atoms: O5_23  and  C17_24 
REMARK   10  A    between atoms: C21_28  and  C22_29 
REMARK   11  A    between atoms: C22_29  and  O6_30 
REMARK   12  A    between atoms: C22_29  and  C23_32 
REMARK   13  A    between atoms: C23_32  and  C24_33 
REMARK   14  A    between atoms: C27_36  and  O7_37 
REMARK   15  A    between atoms: O7_37  and  C28_38 
REMARK   16  A    between atoms: C28_38  and  O9_40 
REMARK   17  A    between atoms: O9_40  and  C29_41 
REMARK   18  A    between atoms: C29_41  and  C30_42 
REMARK   19  A    between atoms: C33_45  and  C34_46 
ROOT
HETATM    1  C6  UNL     1      37.021  24.681   6.914  1.00  0.00     0.059 A 
HETATM    2  C7  UNL     1      37.860  25.604   7.526  1.00  0.00     0.106 A 
HETATM    3  C13 UNL     1      39.162  25.779   7.097  1.00  0.00     0.011 A 
HETATM    4  C21 UNL     1      39.560  24.981   6.016  1.00  0.00     0.018 A 
HETATM    5  C27 UNL     1      38.724  24.066   5.441  1.00  0.00     0.099 A 
HETATM    6  C33 UNL     1      37.398  23.883   5.863  1.00  0.00    -0.003 A 
ENDROOT
BRANCH   2   7
HETATM    7  O2  UNL     1      37.349  26.327   8.554  1.00  0.00    -0.260 OA
BRANCH   7   8
HETATM    8  C8  UNL     1      36.591  27.470   8.530  1.00  0.00     0.366 C 
HETATM    9  O3  UNL     1      36.182  27.914   9.623  1.00  0.00    -0.238 OA
HETATM   10  N1  UNL     1      36.252  28.153   7.341  1.00  0.00    -0.329 N 
ATOM     11  H1  UNL     1      36.617  27.727   6.489  1.00  0.00     0.165 HD
BRANCH  10  12
HETATM   12  C9  UNL     1      35.496  29.323   7.132  1.00  0.00     0.024 C 
HETATM   13  C10 UNL     1      35.470  30.185   8.351  1.00  0.00     0.037 C 
HETATM   14  C11 UNL     1      34.095  28.883   6.709  1.00  0.00     0.037 C 
HETATM   15  C12 UNL     1      36.121  30.093   5.952  1.00  0.00     0.037 C 
ENDBRANCH  10  12
ENDBRANCH   7   8
ENDBRANCH   2   7
BRANCH   1  16
HETATM   16  C5  UNL     1      35.704  24.582   7.479  1.00  0.00     0.191 C 
HETATM   17  O1  UNL     1      34.821  25.358   7.037  1.00  0.00    -0.287 OA
BRANCH  16  18
HETATM   18  C3  UNL     1      35.345  23.653   8.504  1.00  0.00    -0.015 C 
HETATM   19  C2  UNL     1      34.608  22.579   8.314  1.00  0.00    -0.020 C 
HETATM   20  C1  UNL     1      34.250  21.609   9.362  1.00  0.00     0.036 C 
HETATM   21  C4  UNL     1      35.834  23.866   9.908  1.00  0.00     0.052 C 
ENDBRANCH  16  18
ENDBRANCH   1  16
BRANCH   3  22
HETATM   22  C14 UNL     1      39.942  26.734   7.811  1.00  0.00     0.021 C 
HETATM   23  C15 UNL     1      40.337  26.819   9.049  1.00  0.00     0.083 C 
BRANCH  23  24
HETATM   24  C16 UNL     1      41.156  27.933   9.480  1.00  0.00     0.283 C 
HETATM   25  O4  UNL     1      42.424  27.775   9.478  1.00  0.00    -0.260 OA
BRANCH  24  26
HETATM   26  O5  UNL     1      40.685  29.161   9.892  1.00  0.00    -0.308 OA
BRANCH  26  27
HETATM   27  C17 UNL     1      40.545  30.253   8.973  1.00  0.00     0.060 C 
HETATM   28  C18 UNL     1      39.139  30.258   8.391  1.00  0.00     0.046 C 
HETATM   29  C19 UNL     1      41.516  30.237   7.843  1.00  0.00     0.046 C 
HETATM   30  C20 UNL     1      40.705  31.574   9.721  1.00  0.00     0.046 C 
ENDBRANCH  26  27
ENDBRANCH  24  26
ENDBRANCH  23  24
ENDBRANCH   3  22
BRANCH   6  31
HETATM   31  C34 UNL     1      36.612  22.893   5.204  1.00  0.00     0.014 C 
HETATM   32  C35 UNL     1      35.254  23.454   4.776  1.00  0.00     0.015 C 
HETATM   33  C36 UNL     1      36.339  21.539   5.689  1.00  0.00     0.015 C 
ENDBRANCH   6  31
BRANCH   4  34
HETATM   34  C22 UNL     1      40.857  25.353   5.332  1.00  0.00     0.155 C 
BRANCH  34  35
HETATM   35  O6  UNL     1      41.482  24.278   4.796  1.00  0.00    -0.391 OA
ATOM     36  H6  UNL     1      42.425  24.390   4.759  1.00  0.00     0.210 HD
ENDBRANCH  34  35
BRANCH  34  37
HETATM   37  C23 UNL     1      40.511  26.302   4.143  1.00  0.00     0.040 C 
BRANCH  37  38
HETATM   38  C24 UNL     1      41.372  27.571   4.209  1.00  0.00    -0.020 C 
HETATM   39  C25 UNL     1      42.339  27.547   5.377  1.00  0.00     0.009 C 
HETATM   40  C26 UNL     1      40.323  28.654   4.702  1.00  0.00     0.009 C 
ENDBRANCH  37  38
ENDBRANCH  34  37
ENDBRANCH   4  34
BRANCH   5  41
HETATM   41  O7  UNL     1      39.278  23.248   4.406  1.00  0.00    -0.254 OA
BRANCH  41  42
HETATM   42  C28 UNL     1      38.756  23.519   3.095  1.00  0.00     0.411 C 
HETATM   43  O8  UNL     1      38.568  22.522   2.339  1.00  0.00    -0.229 OA
BRANCH  42  44
HETATM   44  O9  UNL     1      38.446  24.763   2.621  1.00  0.00    -0.297 OA
BRANCH  44  45
HETATM   45  C29 UNL     1      37.138  25.056   2.228  1.00  0.00     0.185 C 
BRANCH  45  46
HETATM   46  C30 UNL     1      36.864  26.531   2.404  1.00  0.00     0.002 C 
HETATM   47  C31 UNL     1      37.874  27.419   1.733  1.00  0.00     0.011 C 
HETATM   48  C32 UNL     1      36.896  26.907   3.889  1.00  0.00     0.011 C 
ENDBRANCH  45  46
ENDBRANCH  44  45
ENDBRANCH  42  44
ENDBRANCH  41  42
ENDBRANCH   5  41
TORSDOF 19
ENDMDL
MODEL 4
REMARK VINA RESULT: -7.174363771      2.377      5.965
REMARK  19 active torsions:
REMARK  status: ('A' for Active; 'I' for Inactive)
REMARK    1  A    between atoms: C3_3  and  C5_5 
REMARK    2  A    between atoms: C5_5  and  C6_7 
REMARK    3  A    between atoms: C7_8  and  O2_9 
REMARK    4  A    between atoms: O2_9  and  C8_10 
REMARK       I    between atoms: C8_10  and  N1_12 
REMARK    5  A    between atoms: N1_12  and  C9_14 
REMARK    6  A    between atoms: C13_18  and  C14_19 
REMARK    7  A    between atoms: C15_20  and  C16_21 
REMARK    8  A    between atoms: C16_21  and  O5_23 
REMARK    9  A    between atoms: O5_23  and  C17_24 
REMARK   10  A    between atoms: C21_28  and  C22_29 
REMARK   11  A    between atoms: C22_29  and  O6_30 
REMARK   12  A    between atoms: C22_29  and  C23_32 
REMARK   13  A    between atoms: C23_32  and  C24_33 
REMARK   14  A    between atoms: C27_36  and  O7_37 
REMARK   15  A    between atoms: O7_37  and  C28_38 
REMARK   16  A    between atoms: C28_38  and  O9_40 
REMARK   17  A    between atoms: O9_40  and  C29_41 
REMARK   18  A    between atoms: C29_41  and  C30_42 
REMARK   19  A    between atoms: C33_45  and  C34_46 
ROOT
HETATM    1  C6  UNL     1      38.084  25.662   7.254  1.00  0.00     0.059 A 
HETATM    2  C7  UNL     1      39.158  25.909   6.409  1.00  0.00     0.106 A 
HETATM    3  C13 UNL     1      39.457  25.054   5.366  1.00  0.00     0.011 A 
HETATM    4  C21 UNL     1      38.607  23.950   5.220  1.00  0.00     0.018 A 
HETATM    5  C27 UNL     1      37.566  23.716   6.074  1.00  0.00     0.099 A 
HETATM    6  C33 UNL     1      37.248  24.579   7.134  1.00  0.00    -0.003 A 
ENDROOT
BRANCH   2   7
HETATM    7  O2  UNL     1      39.897  27.023   6.647  1.00  0.00    -0.260 OA
BRANCH   7   8
HETATM    8  C8  UNL     1      41.009  27.185   7.432  1.00  0.00     0.366 C 
HETATM    9  O3  UNL     1      42.015  26.498   7.156  1.00  0.00    -0.238 OA
HETATM   10  N1  UNL     1      41.065  28.076   8.527  1.00  0.00    -0.329 N 
ATOM     11  H1  UNL     1      40.204  28.596   8.694  1.00  0.00     0.165 HD
BRANCH  10  12
HETATM   12  C9  UNL     1      42.108  28.368   9.427  1.00  0.00     0.024 C 
HETATM   13  C10 UNL     1      43.327  28.856   8.716  1.00  0.00     0.037 C 
HETATM   14  C11 UNL     1      42.381  27.095  10.228  1.00  0.00     0.037 C 
HETATM   15  C12 UNL     1      41.604  29.441  10.412  1.00  0.00     0.037 C 
ENDBRANCH  10  12
ENDBRANCH   7   8
ENDBRANCH   2   7
BRANCH   1  16
HETATM   16  C5  UNL     1      37.906  26.615   8.314  1.00  0.00     0.191 C 
HETATM   17  O1  UNL     1      38.626  26.491   9.336  1.00  0.00    -0.287 OA
BRANCH  16  18
HETATM   18  C3  UNL     1      36.966  27.691   8.269  1.00  0.00    -0.015 C 
HETATM   19  C2  UNL     1      36.100  27.968   9.221  1.00  0.00    -0.020 C 
HETATM   20  C1  UNL     1      35.143  29.085   9.188  1.00  0.00     0.036 C 
HETATM   21  C4  UNL     1      36.938  28.607   7.078  1.00  0.00     0.052 C 
ENDBRANCH  16  18
ENDBRANCH   1  16
BRANCH   3  22
HETATM   22  C14 UNL     1      40.595  25.390   4.577  1.00  0.00     0.021 C 
HETATM   23  C15 UNL     1      41.774  24.854   4.436  1.00  0.00     0.083 C 
BRANCH  23  24
HETATM   24  C16 UNL     1      42.735  25.433   3.520  1.00  0.00     0.283 C 
HETATM   25  O4  UNL     1      42.387  26.481   2.876  1.00  0.00    -0.260 OA
BRANCH  24  26
HETATM   26  O5  UNL     1      44.005  24.953   3.282  1.00  0.00    -0.308 OA
BRANCH  26  27
HETATM   27  C17 UNL     1      44.273  24.065   2.187  1.00  0.00     0.060 C 
HETATM   28  C18 UNL     1      45.772  24.001   1.934  1.00  0.00     0.046 C 
HETATM   29  C19 UNL     1      43.601  24.440   0.911  1.00  0.00     0.046 C 
HETATM   30  C20 UNL     1      43.838  22.650   2.559  1.00  0.00     0.046 C 
ENDBRANCH  26  27
ENDBRANCH  24  26
ENDBRANCH  23  24
ENDBRANCH   3  22
BRANCH   6  31
HETATM   31  C34 UNL     1      36.149  24.237   7.975  1.00  0.00     0.014 C 
HETATM   32  C35 UNL     1      34.896  25.036   7.607  1.00  0.00     0.015 C 
HETATM   33  C36 UNL     1      36.161  24.184   9.437  1.00  0.00     0.015 C 
ENDBRANCH   6  31
BRANCH   4  34
HETATM   34  C22 UNL     1      38.713  23.170   3.928  1.00  0.00     0.155 C 
BRANCH  34  35
HETATM   35  O6  UNL     1      37.950  22.052   3.939  1.00  0.00    -0.391 OA
ATOM     36  H6  UNL     1      38.045  21.542   3.143  1.00  0.00     0.210 HD
ENDBRANCH  34  35
BRANCH  34  37
HETATM   37  C23 UNL     1      38.161  24.073   2.782  1.00  0.00     0.040 C 
BRANCH  37  38
HETATM   38  C24 UNL     1      38.924  23.801   1.478  1.00  0.00    -0.020 C 
HETATM   39  C25 UNL     1      40.208  23.030   1.716  1.00  0.00     0.009 C 
HETATM   40  C26 UNL     1      39.490  25.240   1.123  1.00  0.00     0.009 C 
ENDBRANCH  37  38
ENDBRANCH  34  37
ENDBRANCH   4  34
BRANCH   5  41
HETATM   41  O7  UNL     1      36.829  22.506   5.875  1.00  0.00    -0.254 OA
BRANCH  41  42
HETATM   42  C28 UNL     1      35.488  22.702   5.398  1.00  0.00     0.411 C 
HETATM   43  O8  UNL     1      35.321  23.597   4.518  1.00  0.00    -0.229 OA
BRANCH  42  44
HETATM   44  O9  UNL     1      34.399  21.992   5.818  1.00  0.00    -0.297 OA
BRANCH  44  45
HETATM   45  C29 UNL     1      34.500  21.141   6.920  1.00  0.00     0.185 C 
BRANCH  45  46
HETATM   46  C30 UNL     1      33.250  21.238   7.764  1.00  0.00     0.002 C 
HETATM   47  C31 UNL     1      32.271  22.269   7.278  1.00  0.00     0.011 C 
HETATM   48  C32 UNL     1      33.603  21.637   9.199  1.00  0.00     0.011 C 
ENDBRANCH  45  46
ENDBRANCH  44  45
ENDBRANCH  42  44
ENDBRANCH  41  42
ENDBRANCH   5  41
TORSDOF 19
ENDMDL
MODEL 5
REMARK VINA RESULT: -7.127324911      2.519      5.669
REMARK  19 active torsions:
REMARK  status: ('A' for Active; 'I' for Inactive)
REMARK    1  A    between atoms: C3_3  and  C5_5 
REMARK    2  A    between atoms: C5_5  and  C6_7 
REMARK    3  A    between atoms: C7_8  and  O2_9 
REMARK    4  A    between atoms: O2_9  and  C8_10 
REMARK       I    between atoms: C8_10  and  N1_12 
REMARK    5  A    between atoms: N1_12  and  C9_14 
REMARK    6  A    between atoms: C13_18  and  C14_19 
REMARK    7  A    between atoms: C15_20  and  C16_21 
REMARK    8  A    between atoms: C16_21  and  O5_23 
REMARK    9  A    between atoms: O5_23  and  C17_24 
REMARK   10  A    between atoms: C21_28  and  C22_29 
REMARK   11  A    between atoms: C22_29  and  O6_30 
REMARK   12  A    between atoms: C22_29  and  C23_32 
REMARK   13  A    between atoms: C23_32  and  C24_33 
REMARK   14  A    between atoms: C27_36  and  O7_37 
REMARK   15  A    between atoms: O7_37  and  C28_38 
REMARK   16  A    between atoms: C28_38  and  O9_40 
REMARK   17  A    between atoms: O9_40  and  C29_41 
REMARK   18  A    between atoms: C29_41  and  C30_42 
REMARK   19  A    between atoms: C33_45  and  C34_46 
ROOT
HETATM    1  C6  UNL     1      37.656  25.120   7.568  1.00  0.00     0.059 A 
HETATM    2  C7  UNL     1      38.773  25.466   6.817  1.00  0.00     0.106 A 
HETATM    3  C13 UNL     1      39.133  24.738   5.699  1.00  0.00     0.011 A 
HETATM    4  C21 UNL     1      38.302  23.657   5.380  1.00  0.00     0.018 A 
HETATM    5  C27 UNL     1      37.219  23.323   6.145  1.00  0.00     0.099 A 
HETATM    6  C33 UNL     1      36.838  24.056   7.278  1.00  0.00    -0.003 A 
ENDROOT
BRANCH   2   7
HETATM    7  O2  UNL     1      39.488  26.546   7.221  1.00  0.00    -0.260 OA
BRANCH   7   8
HETATM    8  C8  UNL     1      39.848  27.670   6.523  1.00  0.00     0.366 C 
HETATM    9  O3  UNL     1      38.941  28.303   5.942  1.00  0.00    -0.238 OA
HETATM   10  N1  UNL     1      41.179  28.133   6.427  1.00  0.00    -0.329 N 
ATOM     11  H1  UNL     1      41.862  27.560   6.922  1.00  0.00     0.165 HD
BRANCH  10  12
HETATM   12  C9  UNL     1      41.722  29.250   5.765  1.00  0.00     0.024 C 
HETATM   13  C10 UNL     1      41.084  30.522   6.219  1.00  0.00     0.037 C 
HETATM   14  C11 UNL     1      41.536  29.019   4.265  1.00  0.00     0.037 C 
HETATM   15  C12 UNL     1      43.236  29.286   6.048  1.00  0.00     0.037 C 
ENDBRANCH  10  12
ENDBRANCH   7   8
ENDBRANCH   2   7
BRANCH   1  16
HETATM   16  C5  UNL     1      37.414  25.944   8.720  1.00  0.00     0.191 C 
HETATM   17  O1  UNL     1      38.137  25.758   9.731  1.00  0.00    -0.287 OA
BRANCH  16  18
HETATM   18  C3  UNL     1      36.408  26.956   8.778  1.00  0.00    -0.015 C 
HETATM   19  C2  UNL     1      36.128  27.789   7.797  1.00  0.00    -0.020 C 
HETATM   20  C1  UNL     1      35.080  28.822   7.843  1.00  0.00     0.036 C 
HETATM   21  C4  UNL     1      35.572  27.108  10.017  1.00  0.00     0.052 C 
ENDBRANCH  16  18
ENDBRANCH   1  16
BRANCH   3  22
HETATM   22  C14 UNL     1      40.309  25.166   5.017  1.00  0.00     0.021 C 
HETATM   23  C15 UNL     1      41.475  24.619   4.817  1.00  0.00     0.083 C 
BRANCH  23  24
HETATM   24  C16 UNL     1      42.486  25.316   4.049  1.00  0.00     0.283 C 
HETATM   25  O4  UNL     1      43.382  25.961   4.691  1.00  0.00    -0.260 OA
BRANCH  24  26
HETATM   26  O5  UNL     1      42.570  25.342   2.673  1.00  0.00    -0.308 OA
BRANCH  26  27
HETATM   27  C17 UNL     1      43.549  24.563   1.971  1.00  0.00     0.060 C 
HETATM   28  C18 UNL     1      43.118  24.381   0.523  1.00  0.00     0.046 C 
HETATM   29  C19 UNL     1      43.800  23.217   2.555  1.00  0.00     0.046 C 
HETATM   30  C20 UNL     1      44.873  25.323   1.933  1.00  0.00     0.046 C 
ENDBRANCH  26  27
ENDBRANCH  24  26
ENDBRANCH  23  24
ENDBRANCH   3  22
BRANCH   6  31
HETATM   31  C34 UNL     1      35.698  23.617   8.014  1.00  0.00     0.014 C 
HETATM   32  C35 UNL     1      34.463  24.459   7.683  1.00  0.00     0.015 C 
HETATM   33  C36 UNL     1      35.636  23.384   9.457  1.00  0.00     0.015 C 
ENDBRANCH   6  31
BRANCH   4  34
HETATM   34  C22 UNL     1      38.484  23.032   4.015  1.00  0.00     0.155 C 
BRANCH  34  35
HETATM   35  O6  UNL     1      37.763  21.894   3.870  1.00  0.00    -0.391 OA
ATOM     36  H6  UNL     1      38.109  21.333   3.187  1.00  0.00     0.210 HD
ENDBRANCH  34  35
BRANCH  34  37
HETATM   37  C23 UNL     1      37.939  24.039   2.956  1.00  0.00     0.040 C 
BRANCH  37  38
HETATM   38  C24 UNL     1      38.713  23.895   1.639  1.00  0.00    -0.020 C 
HETATM   39  C25 UNL     1      39.982  23.080   1.806  1.00  0.00     0.009 C 
HETATM   40  C26 UNL     1      39.307  25.353   1.446  1.00  0.00     0.009 C 
ENDBRANCH  37  38
ENDBRANCH  34  37
ENDBRANCH   4  34
BRANCH   5  41
HETATM   41  O7  UNL     1      36.504  22.142   5.768  1.00  0.00    -0.254 OA
BRANCH  41  42
HETATM   42  C28 UNL     1      35.187  22.389   5.251  1.00  0.00     0.411 C 
HETATM   43  O8  UNL     1      35.042  23.416   4.526  1.00  0.00    -0.229 OA
BRANCH  42  44
HETATM   44  O9  UNL     1      34.098  21.596   5.479  1.00  0.00    -0.297 OA
BRANCH  44  45
HETATM   45  C29 UNL     1      33.963  20.923   6.695  1.00  0.00     0.185 C 
BRANCH  45  46
HETATM   46  C30 UNL     1      32.553  21.070   7.214  1.00  0.00     0.002 C 
HETATM   47  C31 UNL     1      31.771  22.163   6.542  1.00  0.00     0.011 C 
HETATM   48  C32 UNL     1      32.565  21.419   8.705  1.00  0.00     0.011 C 
ENDBRANCH  45  46
ENDBRANCH  44  45
ENDBRANCH  42  44
ENDBRANCH  41  42
ENDBRANCH   5  41
TORSDOF 19
ENDMDL
