MODEL 1
REMARK VINA RESULT: -10.265710437      0.000      0.000
REMARK  13 active torsions:
REMARK  status: ('A' for Active; 'I' for Inactive)
REMARK    1  A    between atoms: C4_4  and  C5_5 
REMARK    2  A    between atoms: C5_5  and  C6_6 
REMARK    3  A    between atoms: C6_6  and  C7_7 
REMARK    4  A    between atoms: C9_9  and  C10_10 
REMARK    5  A    between atoms: C10_10  and  C11_11 
REMARK    6  A    between atoms: C11_11  and  C12_12 
REMARK    7  A    between atoms: C22_24  and  O3_26 
REMARK    8  A    between atoms: C24_28  and  C25_29 
REMARK    9  A    between atoms: C24_28  and  C26_31 
REMARK   10  A    between atoms: C26_31  and  C27_32 
REMARK   11  A    between atoms: C27_32  and  C28_33 
REMARK   12  A    between atoms: C28_33  and  C29_34 
REMARK   13  A    between atoms: C34_39  and  O5_40 
ROOT
HETATM    1  C12 UNL     1      32.069  21.913   8.040  1.00  0.00     0.183 C 
HETATM    2  C13 UNL     1      31.108  22.613   7.150  1.00  0.00     0.061 C 
HETATM    3  O1  UNL     1      32.929  23.059   8.477  1.00  0.00    -0.216 OA
HETATM    4  O2  UNL     1      33.198  23.651   7.330  1.00  0.00    -0.198 OA
HETATM    5  C14 UNL     1      34.273  23.026   6.688  1.00  0.00     0.214 C 
HETATM    6  C15 UNL     1      34.054  23.002   5.244  1.00  0.00     0.074 C 
HETATM    7  C16 UNL     1      35.304  23.580   4.668  1.00  0.00     0.016 C 
HETATM    8  C17 UNL     1      36.397  23.553   5.766  1.00  0.00    -0.027 C 
HETATM    9  C18 UNL     1      36.690  22.027   5.878  1.00  0.00     0.016 C 
HETATM   10  C19 UNL     1      37.620  24.206   5.370  1.00  0.00     0.006 C 
HETATM   11  C20 UNL     1      37.631  24.043   3.846  1.00  0.00     0.009 C 
HETATM   12  C21 UNL     1      38.865  24.433   3.159  1.00  0.00     0.039 C 
HETATM   13  C22 UNL     1      39.729  25.348   3.895  1.00  0.00     0.069 C 
HETATM   14  C23 UNL     1      40.958  24.684   4.337  1.00  0.00     0.047 C 
HETATM   15  C24 UNL     1      38.995  26.270   4.890  1.00  0.00     0.053 C 
HETATM   16  C32 UNL     1      38.124  25.522   5.871  1.00  0.00     0.003 C 
HETATM   17  C33 UNL     1      38.955  25.274   7.123  1.00  0.00     0.019 C 
HETATM   18  C34 UNL     1      37.053  26.451   6.370  1.00  0.00     0.128 C 
HETATM   19  C35 UNL     1      36.256  25.996   7.539  1.00  0.00     0.033 C 
HETATM   20  C36 UNL     1      35.048  25.261   6.997  1.00  0.00     0.018 C 
HETATM   21  C37 UNL     1      35.576  23.816   6.937  1.00  0.00     0.024 C 
HETATM   22  C38 UNL     1      35.960  23.340   8.281  1.00  0.00     0.022 C 
HETATM   23  O6  UNL     1      34.332  21.730   7.183  1.00  0.00    -0.277 OA
HETATM   24  C39 UNL     1      33.092  21.072   7.421  1.00  0.00     0.299 C 
HETATM   25  O7  UNL     1      33.000  19.862   7.083  1.00  0.00    -0.262 OA
ENDROOT
BRANCH   1  26
HETATM   26  C11 UNL     1      31.508  21.365   9.292  1.00  0.00     0.078 C 
BRANCH  26  27
HETATM   27  C10 UNL     1      31.821  21.952  10.590  1.00  0.00    -0.023 C 
BRANCH  27  28
HETATM   28  C9  UNL     1      31.038  23.032  11.160  1.00  0.00    -0.002 C 
HETATM   29  C7  UNL     1      30.465  22.953  12.369  1.00  0.00    -0.084 C 
HETATM   30  C8  UNL     1      30.597  21.739  13.211  1.00  0.00     0.043 C 
BRANCH  29  31
HETATM   31  C6  UNL     1      29.677  24.095  12.893  1.00  0.00     0.037 C 
BRANCH  31  32
HETATM   32  C5  UNL     1      28.409  23.482  13.502  1.00  0.00     0.031 C 
BRANCH  32  33
HETATM   33  C4  UNL     1      27.184  24.108  12.996  1.00  0.00    -0.024 C 
HETATM   34  C2  UNL     1      26.051  23.432  12.985  1.00  0.00    -0.091 C 
HETATM   35  C1  UNL     1      24.819  24.075  12.472  1.00  0.00     0.042 C 
HETATM   36  C3  UNL     1      25.956  22.023  13.478  1.00  0.00     0.042 C 
ENDBRANCH  32  33
ENDBRANCH  31  32
ENDBRANCH  29  31
ENDBRANCH  27  28
ENDBRANCH  26  27
ENDBRANCH   1  26
BRANCH  18  37
HETATM   37  O5  UNL     1      36.166  26.935   5.434  1.00  0.00    -0.395 OA
ATOM     38  H5  UNL     1      35.390  27.373   5.765  1.00  0.00     0.210 HD
ENDBRANCH  18  37
BRANCH  15  39
HETATM   39  C25 UNL     1      38.152  27.098   3.936  1.00  0.00     0.244 C 
HETATM   40  O4  UNL     1      38.402  28.236   3.612  1.00  0.00    -0.306 OA
ENDBRANCH  15  39
BRANCH  15  41
HETATM   41  C26 UNL     1      40.095  27.114   5.395  1.00  0.00     0.020 C 
BRANCH  41  42
HETATM   42  C27 UNL     1      40.011  28.394   6.035  1.00  0.00     0.002 C 
BRANCH  42  43
HETATM   43  C28 UNL     1      40.561  28.584   7.420  1.00  0.00     0.004 C 
BRANCH  43  44
HETATM   44  C29 UNL     1      41.568  27.657   7.951  1.00  0.00    -0.023 C 
HETATM   45  C30 UNL     1      41.043  27.295   9.380  1.00  0.00     0.009 C 
HETATM   46  C31 UNL     1      42.948  28.161   8.186  1.00  0.00     0.009 C 
ENDBRANCH  43  44
ENDBRANCH  42  43
ENDBRANCH  41  42
ENDBRANCH  15  41
BRANCH  13  47
HETATM   47  O3  UNL     1      40.225  26.300   2.939  1.00  0.00    -0.389 OA
ATOM     48  H3  UNL     1      39.571  26.985   2.876  1.00  0.00     0.210 HD
ENDBRANCH  13  47
TORSDOF 13
ENDMDL
MODEL 2
REMARK VINA RESULT: -10.071921944      0.886      1.288
REMARK  13 active torsions:
REMARK  status: ('A' for Active; 'I' for Inactive)
REMARK    1  A    between atoms: C4_4  and  C5_5 
REMARK    2  A    between atoms: C5_5  and  C6_6 
REMARK    3  A    between atoms: C6_6  and  C7_7 
REMARK    4  A    between atoms: C9_9  and  C10_10 
REMARK    5  A    between atoms: C10_10  and  C11_11 
REMARK    6  A    between atoms: C11_11  and  C12_12 
REMARK    7  A    between atoms: C22_24  and  O3_26 
REMARK    8  A    between atoms: C24_28  and  C25_29 
REMARK    9  A    between atoms: C24_28  and  C26_31 
REMARK   10  A    between atoms: C26_31  and  C27_32 
REMARK   11  A    between atoms: C27_32  and  C28_33 
REMARK   12  A    between atoms: C28_33  and  C29_34 
REMARK   13  A    between atoms: C34_39  and  O5_40 
ROOT
HETATM    1  C12 UNL     1      32.634  21.759   7.698  1.00  0.00     0.183 C 
HETATM    2  C13 UNL     1      31.636  22.395   6.799  1.00  0.00     0.061 C 
HETATM    3  O1  UNL     1      33.336  22.968   8.233  1.00  0.00    -0.216 OA
HETATM    4  O2  UNL     1      33.582  23.651   7.133  1.00  0.00    -0.198 OA
HETATM    5  C14 UNL     1      34.749  23.189   6.512  1.00  0.00     0.214 C 
HETATM    6  C15 UNL     1      34.595  23.222   5.060  1.00  0.00     0.074 C 
HETATM    7  C16 UNL     1      35.794  23.968   4.576  1.00  0.00     0.016 C 
HETATM    8  C17 UNL     1      36.835  24.004   5.723  1.00  0.00    -0.027 C 
HETATM    9  C18 UNL     1      37.297  22.517   5.770  1.00  0.00     0.016 C 
HETATM   10  C19 UNL     1      37.990  24.813   5.420  1.00  0.00     0.006 C 
HETATM   11  C20 UNL     1      38.084  24.738   3.892  1.00  0.00     0.009 C 
HETATM   12  C21 UNL     1      39.292  25.303   3.286  1.00  0.00     0.039 C 
HETATM   13  C22 UNL     1      40.014  26.266   4.109  1.00  0.00     0.069 C 
HETATM   14  C23 UNL     1      41.291  25.722   4.575  1.00  0.00     0.047 C 
HETATM   15  C24 UNL     1      39.136  27.042   5.113  1.00  0.00     0.053 C 
HETATM   16  C32 UNL     1      38.317  26.146   6.011  1.00  0.00     0.003 C 
HETATM   17  C33 UNL     1      39.118  25.924   7.288  1.00  0.00     0.019 C 
HETATM   18  C34 UNL     1      37.126  26.919   6.504  1.00  0.00     0.128 C 
HETATM   19  C35 UNL     1      36.338  26.311   7.609  1.00  0.00     0.033 C 
HETATM   20  C36 UNL     1      35.247  25.476   6.972  1.00  0.00     0.018 C 
HETATM   21  C37 UNL     1      35.941  24.106   6.864  1.00  0.00     0.024 C 
HETATM   22  C38 UNL     1      36.320  23.602   8.199  1.00  0.00     0.022 C 
HETATM   23  O6  UNL     1      34.937  21.882   6.943  1.00  0.00    -0.277 OA
HETATM   24  C39 UNL     1      33.771  21.076   7.087  1.00  0.00     0.299 C 
HETATM   25  O7  UNL     1      33.835  19.884   6.683  1.00  0.00    -0.262 OA
ENDROOT
BRANCH   1  26
HETATM   26  C11 UNL     1      32.087  21.082   8.891  1.00  0.00     0.078 C 
BRANCH  26  27
HETATM   27  C10 UNL     1      31.439  21.829   9.963  1.00  0.00    -0.023 C 
BRANCH  27  28
HETATM   28  C9  UNL     1      31.323  21.305  11.311  1.00  0.00    -0.002 C 
HETATM   29  C7  UNL     1      30.899  22.048  12.344  1.00  0.00    -0.084 C 
HETATM   30  C8  UNL     1      30.518  23.470  12.170  1.00  0.00     0.043 C 
BRANCH  29  31
HETATM   31  C6  UNL     1      30.803  21.449  13.697  1.00  0.00     0.037 C 
BRANCH  31  32
HETATM   32  C5  UNL     1      29.586  22.109  14.359  1.00  0.00     0.031 C 
BRANCH  32  33
HETATM   33  C4  UNL     1      28.439  21.201  14.459  1.00  0.00    -0.024 C 
HETATM   34  C2  UNL     1      27.254  21.582  14.022  1.00  0.00    -0.091 C 
HETATM   35  C1  UNL     1      26.102  20.656  14.127  1.00  0.00     0.042 C 
HETATM   36  C3  UNL     1      27.020  22.928  13.415  1.00  0.00     0.042 C 
ENDBRANCH  32  33
ENDBRANCH  31  32
ENDBRANCH  29  31
ENDBRANCH  27  28
ENDBRANCH  26  27
ENDBRANCH   1  26
BRANCH  18  37
HETATM   37  O5  UNL     1      36.229  27.352   5.553  1.00  0.00    -0.395 OA
ATOM     38  H5  UNL     1      36.326  28.245   5.247  1.00  0.00     0.210 HD
ENDBRANCH  18  37
BRANCH  15  39
HETATM   39  C25 UNL     1      38.244  27.822   4.163  1.00  0.00     0.244 C 
HETATM   40  O4  UNL     1      38.331  29.012   3.963  1.00  0.00    -0.306 OA
ENDBRANCH  15  39
BRANCH  15  41
HETATM   41  C26 UNL     1      40.109  27.976   5.714  1.00  0.00     0.020 C 
BRANCH  41  42
HETATM   42  C27 UNL     1      39.879  28.978   6.712  1.00  0.00     0.002 C 
BRANCH  42  43
HETATM   43  C28 UNL     1      40.843  29.143   7.853  1.00  0.00     0.004 C 
BRANCH  43  44
HETATM   44  C29 UNL     1      41.859  28.116   8.119  1.00  0.00    -0.023 C 
HETATM   45  C30 UNL     1      41.499  27.576   9.542  1.00  0.00     0.009 C 
HETATM   46  C31 UNL     1      43.283  28.536   8.237  1.00  0.00     0.009 C 
ENDBRANCH  43  44
ENDBRANCH  42  43
ENDBRANCH  41  42
ENDBRANCH  15  41
BRANCH  13  47
HETATM   47  O3  UNL     1      40.436  27.321   3.228  1.00  0.00    -0.389 OA
ATOM     48  H3  UNL     1      41.137  26.964   2.696  1.00  0.00     0.210 HD
ENDBRANCH  13  47
TORSDOF 13
ENDMDL
MODEL 3
REMARK VINA RESULT: -9.895038039      1.231      1.821
REMARK  13 active torsions:
REMARK  status: ('A' for Active; 'I' for Inactive)
REMARK    1  A    between atoms: C4_4  and  C5_5 
REMARK    2  A    between atoms: C5_5  and  C6_6 
REMARK    3  A    between atoms: C6_6  and  C7_7 
REMARK    4  A    between atoms: C9_9  and  C10_10 
REMARK    5  A    between atoms: C10_10  and  C11_11 
REMARK    6  A    between atoms: C11_11  and  C12_12 
REMARK    7  A    between atoms: C22_24  and  O3_26 
REMARK    8  A    between atoms: C24_28  and  C25_29 
REMARK    9  A    between atoms: C24_28  and  C26_31 
REMARK   10  A    between atoms: C26_31  and  C27_32 
REMARK   11  A    between atoms: C27_32  and  C28_33 
REMARK   12  A    between atoms: C28_33  and  C29_34 
REMARK   13  A    between atoms: C34_39  and  O5_40 
ROOT
HETATM    1  C12 UNL     1      32.650  21.778   7.674  1.00  0.00     0.183 C 
HETATM    2  C13 UNL     1      31.647  22.399   6.770  1.00  0.00     0.061 C 
HETATM    3  O1  UNL     1      33.344  22.998   8.198  1.00  0.00    -0.216 OA
HETATM    4  O2  UNL     1      33.584  23.672   7.092  1.00  0.00    -0.198 OA
HETATM    5  C14 UNL     1      34.754  23.213   6.475  1.00  0.00     0.214 C 
HETATM    6  C15 UNL     1      34.599  23.232   5.023  1.00  0.00     0.074 C 
HETATM    7  C16 UNL     1      35.792  23.983   4.531  1.00  0.00     0.016 C 
HETATM    8  C17 UNL     1      36.834  24.036   5.677  1.00  0.00    -0.027 C 
HETATM    9  C18 UNL     1      37.307  22.554   5.738  1.00  0.00     0.016 C 
HETATM   10  C19 UNL     1      37.982  24.851   5.367  1.00  0.00     0.006 C 
HETATM   11  C20 UNL     1      38.077  24.764   3.839  1.00  0.00     0.009 C 
HETATM   12  C21 UNL     1      39.280  25.333   3.227  1.00  0.00     0.039 C 
HETATM   13  C22 UNL     1      39.994  26.308   4.041  1.00  0.00     0.069 C 
HETATM   14  C23 UNL     1      41.276  25.778   4.512  1.00  0.00     0.047 C 
HETATM   15  C24 UNL     1      39.111  27.087   5.040  1.00  0.00     0.053 C 
HETATM   16  C32 UNL     1      38.300  26.192   5.946  1.00  0.00     0.003 C 
HETATM   17  C33 UNL     1      39.102  25.988   7.224  1.00  0.00     0.019 C 
HETATM   18  C34 UNL     1      37.103  26.961   6.433  1.00  0.00     0.128 C 
HETATM   19  C35 UNL     1      36.320  26.357   7.543  1.00  0.00     0.033 C 
HETATM   20  C36 UNL     1      35.235  25.508   6.914  1.00  0.00     0.018 C 
HETATM   21  C37 UNL     1      35.939  24.142   6.818  1.00  0.00     0.024 C 
HETATM   22  C38 UNL     1      36.323  23.653   8.158  1.00  0.00     0.022 C 
HETATM   23  O6  UNL     1      34.952  21.911   6.917  1.00  0.00    -0.277 OA
HETATM   24  C39 UNL     1      33.792  21.098   7.068  1.00  0.00     0.299 C 
HETATM   25  O7  UNL     1      33.865  19.903   6.675  1.00  0.00    -0.262 OA
ENDROOT
BRANCH   1  26
HETATM   26  C11 UNL     1      32.109  21.107   8.873  1.00  0.00     0.078 C 
BRANCH  26  27
HETATM   27  C10 UNL     1      31.463  21.861   9.944  1.00  0.00    -0.023 C 
BRANCH  27  28
HETATM   28  C9  UNL     1      31.321  21.330  11.286  1.00  0.00    -0.002 C 
HETATM   29  C7  UNL     1      30.884  22.069  12.315  1.00  0.00    -0.084 C 
HETATM   30  C8  UNL     1      30.513  23.495  12.144  1.00  0.00     0.043 C 
BRANCH  29  31
HETATM   31  C6  UNL     1      30.761  21.464  13.664  1.00  0.00     0.037 C 
BRANCH  31  32
HETATM   32  C5  UNL     1      29.539  22.130  14.310  1.00  0.00     0.031 C 
BRANCH  32  33
HETATM   33  C4  UNL     1      28.401  21.214  14.438  1.00  0.00    -0.024 C 
HETATM   34  C2  UNL     1      27.209  21.576  14.008  1.00  0.00    -0.091 C 
HETATM   35  C1  UNL     1      26.066  20.642  14.142  1.00  0.00     0.042 C 
HETATM   36  C3  UNL     1      26.956  22.909  13.378  1.00  0.00     0.042 C 
ENDBRANCH  32  33
ENDBRANCH  31  32
ENDBRANCH  29  31
ENDBRANCH  27  28
ENDBRANCH  26  27
ENDBRANCH   1  26
BRANCH  18  37
HETATM   37  O5  UNL     1      36.202  27.378   5.478  1.00  0.00    -0.395 OA
ATOM     38  H5  UNL     1      35.404  26.871   5.391  1.00  0.00     0.210 HD
ENDBRANCH  18  37
BRANCH  15  39
HETATM   39  C25 UNL     1      38.214  27.852   4.082  1.00  0.00     0.244 C 
HETATM   40  O4  UNL     1      38.336  29.026   3.819  1.00  0.00    -0.306 OA
ENDBRANCH  15  39
BRANCH  15  41
HETATM   41  C26 UNL     1      40.078  28.033   5.631  1.00  0.00     0.020 C 
BRANCH  41  42
HETATM   42  C27 UNL     1      39.823  29.325   6.196  1.00  0.00     0.002 C 
BRANCH  42  43
HETATM   43  C28 UNL     1      39.590  29.471   7.673  1.00  0.00     0.004 C 
BRANCH  43  44
HETATM   44  C29 UNL     1      38.304  29.974   8.175  1.00  0.00    -0.023 C 
HETATM   45  C30 UNL     1      37.612  30.586   6.913  1.00  0.00     0.009 C 
HETATM   46  C31 UNL     1      38.312  31.087   9.163  1.00  0.00     0.009 C 
ENDBRANCH  43  44
ENDBRANCH  42  43
ENDBRANCH  41  42
ENDBRANCH  15  41
BRANCH  13  47
HETATM   47  O3  UNL     1      40.409  27.358   3.151  1.00  0.00    -0.389 OA
ATOM     48  H3  UNL     1      41.292  27.145   2.876  1.00  0.00     0.210 HD
ENDBRANCH  13  47
TORSDOF 13
ENDMDL
MODEL 4
REMARK VINA RESULT: -9.399160783      1.329      1.962
REMARK  13 active torsions:
REMARK  status: ('A' for Active; 'I' for Inactive)
REMARK    1  A    between atoms: C4_4  and  C5_5 
REMARK    2  A    between atoms: C5_5  and  C6_6 
REMARK    3  A    between atoms: C6_6  and  C7_7 
REMARK    4  A    between atoms: C9_9  and  C10_10 
REMARK    5  A    between atoms: C10_10  and  C11_11 
REMARK    6  A    between atoms: C11_11  and  C12_12 
REMARK    7  A    between atoms: C22_24  and  O3_26 
REMARK    8  A    between atoms: C24_28  and  C25_29 
REMARK    9  A    between atoms: C24_28  and  C26_31 
REMARK   10  A    between atoms: C26_31  and  C27_32 
REMARK   11  A    between atoms: C27_32  and  C28_33 
REMARK   12  A    between atoms: C28_33  and  C29_34 
REMARK   13  A    between atoms: C34_39  and  O5_40 
ROOT
HETATM    1  C12 UNL     1      32.704  21.807   8.077  1.00  0.00     0.183 C 
HETATM    2  C13 UNL     1      31.616  22.456   7.298  1.00  0.00     0.061 C 
HETATM    3  O1  UNL     1      33.484  23.007   8.517  1.00  0.00    -0.216 OA
HETATM    4  O2  UNL     1      33.609  23.680   7.390  1.00  0.00    -0.198 OA
HETATM    5  C14 UNL     1      34.685  23.195   6.639  1.00  0.00     0.214 C 
HETATM    6  C15 UNL     1      34.361  23.223   5.215  1.00  0.00     0.074 C 
HETATM    7  C16 UNL     1      35.506  23.947   4.586  1.00  0.00     0.016 C 
HETATM    8  C17 UNL     1      36.676  23.970   5.601  1.00  0.00    -0.027 C 
HETATM    9  C18 UNL     1      37.117  22.477   5.605  1.00  0.00     0.016 C 
HETATM   10  C19 UNL     1      37.800  24.758   5.159  1.00  0.00     0.006 C 
HETATM   11  C20 UNL     1      37.711  24.674   3.630  1.00  0.00     0.009 C 
HETATM   12  C21 UNL     1      38.847  25.216   2.881  1.00  0.00     0.039 C 
HETATM   13  C22 UNL     1      39.677  26.171   3.606  1.00  0.00     0.069 C 
HETATM   14  C23 UNL     1      40.991  25.608   3.922  1.00  0.00     0.047 C 
HETATM   15  C24 UNL     1      38.937  26.967   4.702  1.00  0.00     0.053 C 
HETATM   16  C32 UNL     1      38.216  26.089   5.697  1.00  0.00     0.003 C 
HETATM   17  C33 UNL     1      39.159  25.861   6.871  1.00  0.00     0.019 C 
HETATM   18  C34 UNL     1      37.104  26.885   6.322  1.00  0.00     0.128 C 
HETATM   19  C35 UNL     1      36.444  26.296   7.517  1.00  0.00     0.033 C 
HETATM   20  C36 UNL     1      35.271  25.476   7.020  1.00  0.00     0.018 C 
HETATM   21  C37 UNL     1      35.926  24.094   6.840  1.00  0.00     0.024 C 
HETATM   22  C38 UNL     1      36.452  23.590   8.125  1.00  0.00     0.022 C 
HETATM   23  O6  UNL     1      34.902  21.887   7.054  1.00  0.00    -0.277 OA
HETATM   24  C39 UNL     1      33.750  21.102   7.340  1.00  0.00     0.299 C 
HETATM   25  O7  UNL     1      33.745  19.907   6.940  1.00  0.00    -0.262 OA
ENDROOT
BRANCH   1  26
HETATM   26  C11 UNL     1      32.292  21.145   9.331  1.00  0.00     0.078 C 
BRANCH  26  27
HETATM   27  C10 UNL     1      31.397  21.798  10.281  1.00  0.00    -0.023 C 
BRANCH  27  28
HETATM   28  C9  UNL     1      31.235  21.325  11.643  1.00  0.00    -0.002 C 
HETATM   29  C7  UNL     1      30.719  22.086  12.618  1.00  0.00    -0.084 C 
HETATM   30  C8  UNL     1      30.277  23.478  12.363  1.00  0.00     0.043 C 
BRANCH  29  31
HETATM   31  C6  UNL     1      30.581  21.540  13.990  1.00  0.00     0.037 C 
BRANCH  31  32
HETATM   32  C5  UNL     1      29.254  22.093  14.527  1.00  0.00     0.031 C 
BRANCH  32  33
HETATM   33  C4  UNL     1      28.225  21.058  14.659  1.00  0.00    -0.024 C 
HETATM   34  C2  UNL     1      27.015  21.263  14.176  1.00  0.00    -0.091 C 
HETATM   35  C1  UNL     1      25.983  20.209  14.315  1.00  0.00     0.042 C 
HETATM   36  C3  UNL     1      26.635  22.532  13.483  1.00  0.00     0.042 C 
ENDBRANCH  32  33
ENDBRANCH  31  32
ENDBRANCH  29  31
ENDBRANCH  27  28
ENDBRANCH  26  27
ENDBRANCH   1  26
BRANCH  18  37
HETATM   37  O5  UNL     1      36.108  27.327   5.481  1.00  0.00    -0.395 OA
ATOM     38  H5  UNL     1      36.356  27.959   4.816  1.00  0.00     0.210 HD
ENDBRANCH  18  37
BRANCH  15  39
HETATM   39  C25 UNL     1      37.952  27.757   3.858  1.00  0.00     0.244 C 
HETATM   40  O4  UNL     1      38.031  28.944   3.643  1.00  0.00    -0.306 OA
ENDBRANCH  15  39
BRANCH  15  41
HETATM   41  C26 UNL     1      39.989  27.887   5.176  1.00  0.00     0.020 C 
BRANCH  41  42
HETATM   42  C27 UNL     1      39.835  29.118   5.895  1.00  0.00     0.002 C 
BRANCH  42  43
HETATM   43  C28 UNL     1      40.578  30.347   5.456  1.00  0.00     0.004 C 
BRANCH  43  44
HETATM   44  C29 UNL     1      41.520  30.282   4.331  1.00  0.00    -0.023 C 
HETATM   45  C30 UNL     1      42.769  31.083   4.827  1.00  0.00     0.009 C 
HETATM   46  C31 UNL     1      41.148  30.942   3.050  1.00  0.00     0.009 C 
ENDBRANCH  43  44
ENDBRANCH  42  43
ENDBRANCH  41  42
ENDBRANCH  15  41
BRANCH  13  47
HETATM   47  O3  UNL     1      40.009  27.214   2.674  1.00  0.00    -0.389 OA
ATOM     48  H3  UNL     1      40.779  27.648   3.018  1.00  0.00     0.210 HD
ENDBRANCH  13  47
TORSDOF 13
ENDMDL
MODEL 5
REMARK VINA RESULT: -9.381132535      1.163      1.351
REMARK  13 active torsions:
REMARK  status: ('A' for Active; 'I' for Inactive)
REMARK    1  A    between atoms: C4_4  and  C5_5 
REMARK    2  A    between atoms: C5_5  and  C6_6 
REMARK    3  A    between atoms: C6_6  and  C7_7 
REMARK    4  A    between atoms: C9_9  and  C10_10 
REMARK    5  A    between atoms: C10_10  and  C11_11 
REMARK    6  A    between atoms: C11_11  and  C12_12 
REMARK    7  A    between atoms: C22_24  and  O3_26 
REMARK    8  A    between atoms: C24_28  and  C25_29 
REMARK    9  A    between atoms: C24_28  and  C26_31 
REMARK   10  A    between atoms: C26_31  and  C27_32 
REMARK   11  A    between atoms: C27_32  and  C28_33 
REMARK   12  A    between atoms: C28_33  and  C29_34 
REMARK   13  A    between atoms: C34_39  and  O5_40 
ROOT
HETATM    1  C12 UNL     1      32.584  21.719   7.798  1.00  0.00     0.183 C 
HETATM    2  C13 UNL     1      31.604  22.422   6.928  1.00  0.00     0.061 C 
HETATM    3  O1  UNL     1      33.207  22.881   8.509  1.00  0.00    -0.216 OA
HETATM    4  O2  UNL     1      33.477  23.699   7.511  1.00  0.00    -0.198 OA
HETATM    5  C14 UNL     1      34.690  23.358   6.903  1.00  0.00     0.214 C 
HETATM    6  C15 UNL     1      34.606  23.559   5.459  1.00  0.00     0.074 C 
HETATM    7  C16 UNL     1      35.793  24.402   5.130  1.00  0.00     0.016 C 
HETATM    8  C17 UNL     1      36.776  24.338   6.327  1.00  0.00    -0.027 C 
HETATM    9  C18 UNL     1      37.298  22.875   6.224  1.00  0.00     0.016 C 
HETATM   10  C19 UNL     1      37.908  25.220   6.184  1.00  0.00     0.006 C 
HETATM   11  C20 UNL     1      38.079  25.332   4.664  1.00  0.00     0.009 C 
HETATM   12  C21 UNL     1      39.289  26.010   4.194  1.00  0.00     0.039 C 
HETATM   13  C22 UNL     1      39.928  26.894   5.162  1.00  0.00     0.069 C 
HETATM   14  C23 UNL     1      41.203  26.345   5.628  1.00  0.00     0.047 C 
HETATM   15  C24 UNL     1      38.970  27.511   6.203  1.00  0.00     0.053 C 
HETATM   16  C32 UNL     1      38.148  26.484   6.944  1.00  0.00     0.003 C 
HETATM   17  C33 UNL     1      38.895  26.140   8.226  1.00  0.00     0.019 C 
HETATM   18  C34 UNL     1      36.902  27.147   7.461  1.00  0.00     0.128 C 
HETATM   19  C35 UNL     1      36.089  26.383   8.443  1.00  0.00     0.033 C 
HETATM   20  C36 UNL     1      35.067  25.590   7.655  1.00  0.00     0.018 C 
HETATM   21  C37 UNL     1      35.823  24.269   7.423  1.00  0.00     0.024 C 
HETATM   22  C38 UNL     1      36.159  23.624   8.708  1.00  0.00     0.022 C 
HETATM   23  O6  UNL     1      34.913  22.016   7.186  1.00  0.00    -0.277 OA
HETATM   24  C39 UNL     1      33.778  21.157   7.172  1.00  0.00     0.299 C 
HETATM   25  O7  UNL     1      33.912  20.025   6.634  1.00  0.00    -0.262 OA
ENDROOT
BRANCH   1  26
HETATM   26  C11 UNL     1      32.010  20.884   8.872  1.00  0.00     0.078 C 
BRANCH  26  27
HETATM   27  C10 UNL     1      32.026  21.316  10.266  1.00  0.00    -0.023 C 
BRANCH  27  28
HETATM   28  C9  UNL     1      31.331  22.507  10.715  1.00  0.00    -0.002 C 
HETATM   29  C7  UNL     1      30.798  22.618  11.940  1.00  0.00    -0.084 C 
HETATM   30  C8  UNL     1      30.887  21.514  12.926  1.00  0.00     0.043 C 
BRANCH  29  31
HETATM   31  C6  UNL     1      30.101  23.865  12.336  1.00  0.00     0.037 C 
BRANCH  31  32
HETATM   32  C5  UNL     1      29.108  23.458  13.433  1.00  0.00     0.031 C 
BRANCH  32  33
HETATM   33  C4  UNL     1      27.720  23.763  13.076  1.00  0.00    -0.024 C 
HETATM   34  C2  UNL     1      26.767  22.884  13.320  1.00  0.00    -0.091 C 
HETATM   35  C1  UNL     1      25.366  23.202  12.955  1.00  0.00     0.042 C 
HETATM   36  C3  UNL     1      27.042  21.561  13.959  1.00  0.00     0.042 C 
ENDBRANCH  32  33
ENDBRANCH  31  32
ENDBRANCH  29  31
ENDBRANCH  27  28
ENDBRANCH  26  27
ENDBRANCH   1  26
BRANCH  18  37
HETATM   37  O5  UNL     1      36.034  27.658   6.521  1.00  0.00    -0.395 OA
ATOM     38  H5  UNL     1      35.267  28.113   6.848  1.00  0.00     0.210 HD
ENDBRANCH  18  37
BRANCH  15  39
HETATM   39  C25 UNL     1      38.093  28.366   5.305  1.00  0.00     0.244 C 
HETATM   40  O4  UNL     1      38.181  29.568   5.203  1.00  0.00    -0.306 OA
ENDBRANCH  15  39
BRANCH  15  41
HETATM   41  C26 UNL     1      39.872  28.401   6.960  1.00  0.00     0.020 C 
BRANCH  41  42
HETATM   42  C27 UNL     1      39.528  29.531   7.771  1.00  0.00     0.002 C 
BRANCH  42  43
HETATM   43  C28 UNL     1      40.425  29.949   8.903  1.00  0.00     0.004 C 
BRANCH  43  44
HETATM   44  C29 UNL     1      41.629  29.171   9.220  1.00  0.00    -0.023 C 
HETATM   45  C30 UNL     1      41.930  29.518  10.716  1.00  0.00     0.009 C 
HETATM   46  C31 UNL     1      42.896  29.496   8.508  1.00  0.00     0.009 C 
ENDBRANCH  43  44
ENDBRANCH  42  43
ENDBRANCH  41  42
ENDBRANCH  15  41
BRANCH  13  47
HETATM   47  O3  UNL     1      40.347  28.061   4.435  1.00  0.00    -0.389 OA
ATOM     48  H3  UNL     1      40.822  28.606   5.050  1.00  0.00     0.210 HD
ENDBRANCH  13  47
TORSDOF 13
ENDMDL
