MODEL 1
REMARK VINA RESULT: -7.979200193      0.000      0.000
REMARK  5 active torsions:
REMARK  status: ('A' for Active; 'I' for Inactive)
REMARK    1  A    between atoms: C5_9  and  O1_10 
REMARK    2  A    between atoms: C5_9  and  C6_12 
REMARK    3  A    between atoms: C6_12  and  N2_13 
REMARK       I    between atoms: N2_13  and  C7_15 
REMARK    4  A    between atoms: C7_15  and  O3_17 
REMARK    5  A    between atoms: O3_17  and  C8_18 
ROOT
HETATM    1  C1  UNL     1      27.236  41.936  -0.137  1.00  0.00     0.150 C 
HETATM    2  N1  UNL     1      26.441  41.109   0.688  1.00  0.00    -0.344 N 
HETATM    3  C2  UNL     1      26.305  39.787   0.268  1.00  0.00     0.337 C 
HETATM    4  F1  UNL     1      25.323  39.784  -0.741  1.00  0.00    -0.181 F 
HETATM    5  F2  UNL     1      27.477  39.451  -0.433  1.00  0.00    -0.181 F 
HETATM    6  C3  UNL     1      25.995  38.754   1.271  1.00  0.00     0.180 C 
HETATM    7 CL1  UNL     1      27.490  37.791   1.561  1.00  0.00    -0.117 Cl
HETATM    8  C4  UNL     1      25.366  39.197   2.541  1.00  0.00     0.070 C 
HETATM    9  C5  UNL     1      25.303  40.660   2.778  1.00  0.00     0.100 C 
HETATM   10  C12 UNL     1      26.331  41.445   2.037  1.00  0.00     0.065 C 
HETATM   11  C13 UNL     1      26.138  42.930   2.121  1.00  0.00     0.034 C 
HETATM   12  C14 UNL     1      26.461  43.325   3.524  1.00  0.00     0.003 C 
HETATM   13  C15 UNL     1      27.595  42.425   3.866  1.00  0.00     0.003 C 
HETATM   14  C16 UNL     1      27.641  41.329   2.823  1.00  0.00     0.034 C 
ENDROOT
BRANCH   9  15
HETATM   15  O1  UNL     1      25.586  40.844   4.155  1.00  0.00    -0.386 OA
ATOM     16  H1  UNL     1      25.266  40.065   4.594  1.00  0.00     0.210 HD
ENDBRANCH   9  15
BRANCH   9  17
HETATM   17  C6  UNL     1      23.901  41.194   2.610  1.00  0.00     0.165 C 
BRANCH  17  18
HETATM   18  N2  UNL     1      23.123  41.109   3.832  1.00  0.00    -0.334 N 
HETATM   19  C7  UNL     1      21.988  41.956   3.926  1.00  0.00     0.361 C 
HETATM   20  O2  UNL     1      21.643  42.753   3.014  1.00  0.00    -0.238 OA
ATOM     21  H2  UNL     1      23.379  40.473   4.586  1.00  0.00     0.164 HD
BRANCH  19  22
HETATM   22  O3  UNL     1      21.218  41.920   5.053  1.00  0.00    -0.294 OA
BRANCH  22  23
HETATM   23  C8  UNL     1      20.614  40.768   5.592  1.00  0.00     0.061 C 
HETATM   24  C9  UNL     1      19.463  40.265   4.749  1.00  0.00     0.046 C 
HETATM   25  C10 UNL     1      21.573  39.660   5.876  1.00  0.00     0.046 C 
HETATM   26  C11 UNL     1      20.005  41.190   6.933  1.00  0.00     0.046 C 
ENDBRANCH  22  23
ENDBRANCH  19  22
ENDBRANCH  17  18
ENDBRANCH   9  17
TORSDOF 5
ENDMDL
MODEL 2
REMARK VINA RESULT: -7.890251923      1.101      1.392
REMARK  5 active torsions:
REMARK  status: ('A' for Active; 'I' for Inactive)
REMARK    1  A    between atoms: C5_9  and  O1_10 
REMARK    2  A    between atoms: C5_9  and  C6_12 
REMARK    3  A    between atoms: C6_12  and  N2_13 
REMARK       I    between atoms: N2_13  and  C7_15 
REMARK    4  A    between atoms: C7_15  and  O3_17 
REMARK    5  A    between atoms: O3_17  and  C8_18 
ROOT
HETATM    1  C1  UNL     1      28.241  42.135   0.321  1.00  0.00     0.150 C 
HETATM    2  N1  UNL     1      26.989  41.539   0.596  1.00  0.00    -0.344 N 
HETATM    3  C2  UNL     1      26.509  40.664  -0.377  1.00  0.00     0.337 C 
HETATM    4  F1  UNL     1      25.947  41.460  -1.393  1.00  0.00    -0.181 F 
HETATM    5  F2  UNL     1      27.628  40.092  -1.009  1.00  0.00    -0.181 F 
HETATM    6  C3  UNL     1      25.555  39.615   0.022  1.00  0.00     0.180 C 
HETATM    7 CL1  UNL     1      26.430  38.040   0.033  1.00  0.00    -0.117 Cl
HETATM    8  C4  UNL     1      24.783  39.829   1.272  1.00  0.00     0.070 C 
HETATM    9  C5  UNL     1      25.195  40.974   2.122  1.00  0.00     0.100 C 
HETATM   10  C12 UNL     1      26.611  41.400   1.931  1.00  0.00     0.065 C 
HETATM   11  C13 UNL     1      26.963  42.675   2.638  1.00  0.00     0.034 C 
HETATM   12  C14 UNL     1      26.971  42.366   4.099  1.00  0.00     0.003 C 
HETATM   13  C15 UNL     1      27.535  40.990   4.140  1.00  0.00     0.003 C 
HETATM   14  C16 UNL     1      27.485  40.431   2.734  1.00  0.00     0.034 C 
ENDROOT
BRANCH   9  15
HETATM   15  O1  UNL     1      25.099  40.520   3.461  1.00  0.00    -0.386 OA
ATOM     16  H1  UNL     1      25.528  41.180   3.992  1.00  0.00     0.210 HD
ENDBRANCH   9  15
BRANCH   9  17
HETATM   17  C6  UNL     1      24.208  42.113   2.040  1.00  0.00     0.165 C 
BRANCH  17  18
HETATM   18  N2  UNL     1      23.387  42.224   3.232  1.00  0.00    -0.334 N 
HETATM   19  C7  UNL     1      21.998  41.978   3.075  1.00  0.00     0.361 C 
HETATM   20  O2  UNL     1      21.470  41.675   1.973  1.00  0.00    -0.238 OA
ATOM     21  H2  UNL     1      23.788  42.467   4.137  1.00  0.00     0.164 HD
BRANCH  19  22
HETATM   22  O3  UNL     1      21.177  42.067   4.162  1.00  0.00    -0.294 OA
BRANCH  22  23
HETATM   23  C8  UNL     1      20.878  41.015   5.048  1.00  0.00     0.061 C 
HETATM   24  C9  UNL     1      21.876  39.880   4.963  1.00  0.00     0.046 C 
HETATM   25  C10 UNL     1      20.705  41.449   6.465  1.00  0.00     0.046 C 
HETATM   26  C11 UNL     1      19.536  40.435   4.588  1.00  0.00     0.046 C 
ENDBRANCH  22  23
ENDBRANCH  19  22
ENDBRANCH  17  18
ENDBRANCH   9  17
TORSDOF 5
ENDMDL
MODEL 3
REMARK VINA RESULT: -7.343350797      3.283      5.016
REMARK  5 active torsions:
REMARK  status: ('A' for Active; 'I' for Inactive)
REMARK    1  A    between atoms: C5_9  and  O1_10 
REMARK    2  A    between atoms: C5_9  and  C6_12 
REMARK    3  A    between atoms: C6_12  and  N2_13 
REMARK       I    between atoms: N2_13  and  C7_15 
REMARK    4  A    between atoms: C7_15  and  O3_17 
REMARK    5  A    between atoms: O3_17  and  C8_18 
ROOT
HETATM    1  C1  UNL     1      28.879  38.233  -3.427  1.00  0.00     0.150 C 
HETATM    2  N1  UNL     1      28.879  38.007  -2.032  1.00  0.00    -0.344 N 
HETATM    3  C2  UNL     1      29.685  36.961  -1.588  1.00  0.00     0.337 C 
HETATM    4  F1  UNL     1      28.966  35.772  -1.816  1.00  0.00    -0.181 F 
HETATM    5  F2  UNL     1      30.761  36.855  -2.489  1.00  0.00    -0.181 F 
HETATM    6  C3  UNL     1      30.181  36.988  -0.201  1.00  0.00     0.180 C 
HETATM    7 CL1  UNL     1      31.931  37.415  -0.242  1.00  0.00    -0.117 Cl
HETATM    8  C4  UNL     1      29.432  37.814   0.779  1.00  0.00     0.070 C 
HETATM    9  C5  UNL     1      28.382  38.709   0.232  1.00  0.00     0.100 C 
HETATM   10  C12 UNL     1      28.581  39.083  -1.197  1.00  0.00     0.065 C 
HETATM   11  C13 UNL     1      27.420  39.818  -1.800  1.00  0.00     0.034 C 
HETATM   12  C14 UNL     1      27.396  41.171  -1.169  1.00  0.00     0.003 C 
HETATM   13  C15 UNL     1      28.842  41.493  -1.027  1.00  0.00     0.003 C 
HETATM   14  C16 UNL     1      29.619  40.210  -1.228  1.00  0.00     0.034 C 
ENDROOT
BRANCH   9  15
HETATM   15  O1  UNL     1      28.474  39.915   0.971  1.00  0.00    -0.386 OA
ATOM     16  H1  UNL     1      28.407  39.667   1.885  1.00  0.00     0.210 HD
ENDBRANCH   9  15
BRANCH   9  17
HETATM   17  C6  UNL     1      26.995  38.191   0.531  1.00  0.00     0.165 C 
BRANCH  17  18
HETATM   18  N2  UNL     1      26.346  38.925   1.602  1.00  0.00    -0.334 N 
HETATM   19  C7  UNL     1      25.106  39.540   1.294  1.00  0.00     0.361 C 
HETATM   20  O2  UNL     1      24.564  39.473   0.159  1.00  0.00    -0.238 OA
ATOM     21  H2  UNL     1      26.762  38.995   2.531  1.00  0.00     0.164 HD
BRANCH  19  22
HETATM   22  O3  UNL     1      24.450  40.244   2.262  1.00  0.00    -0.294 OA
BRANCH  22  23
HETATM   23  C8  UNL     1      24.837  41.501   2.762  1.00  0.00     0.061 C 
HETATM   24  C9  UNL     1      25.868  41.397   3.865  1.00  0.00     0.046 C 
HETATM   25  C10 UNL     1      25.298  42.453   1.710  1.00  0.00     0.046 C 
HETATM   26  C11 UNL     1      23.587  42.112   3.406  1.00  0.00     0.046 C 
ENDBRANCH  22  23
ENDBRANCH  19  22
ENDBRANCH  17  18
ENDBRANCH   9  17
TORSDOF 5
ENDMDL
MODEL 4
REMARK VINA RESULT: -7.328402063      2.990      5.164
REMARK  5 active torsions:
REMARK  status: ('A' for Active; 'I' for Inactive)
REMARK    1  A    between atoms: C5_9  and  O1_10 
REMARK    2  A    between atoms: C5_9  and  C6_12 
REMARK    3  A    between atoms: C6_12  and  N2_13 
REMARK       I    between atoms: N2_13  and  C7_15 
REMARK    4  A    between atoms: C7_15  and  O3_17 
REMARK    5  A    between atoms: O3_17  and  C8_18 
ROOT
HETATM    1  C1  UNL     1      30.165  40.515  -0.612  1.00  0.00     0.150 C 
HETATM    2  N1  UNL     1      28.809  40.135  -0.490  1.00  0.00    -0.344 N 
HETATM    3  C2  UNL     1      27.876  41.151  -0.690  1.00  0.00     0.337 C 
HETATM    4  F1  UNL     1      27.815  41.885   0.509  1.00  0.00    -0.181 F 
HETATM    5  F2  UNL     1      28.447  42.067  -1.591  1.00  0.00    -0.181 F 
HETATM    6  C3  UNL     1      26.516  40.787  -1.124  1.00  0.00     0.180 C 
HETATM    7 CL1  UNL     1      26.350  41.223  -2.864  1.00  0.00    -0.117 Cl
HETATM    8  C4  UNL     1      26.057  39.401  -0.855  1.00  0.00     0.070 C 
HETATM    9  C5  UNL     1      27.081  38.443  -0.369  1.00  0.00     0.100 C 
HETATM   10  C12 UNL     1      28.480  38.803  -0.737  1.00  0.00     0.065 C 
HETATM   11  C13 UNL     1      29.521  37.948  -0.078  1.00  0.00     0.034 C 
HETATM   12  C14 UNL     1      29.420  36.594  -0.700  1.00  0.00     0.003 C 
HETATM   13  C15 UNL     1      29.112  36.909  -2.121  1.00  0.00     0.003 C 
HETATM   14  C16 UNL     1      28.692  38.362  -2.189  1.00  0.00     0.034 C 
ENDROOT
BRANCH   9  15
HETATM   15  O1  UNL     1      26.806  37.215  -1.022  1.00  0.00    -0.386 OA
ATOM     16  H1  UNL     1      26.647  36.582  -0.331  1.00  0.00     0.210 HD
ENDBRANCH   9  15
BRANCH   9  17
HETATM   17  C6  UNL     1      26.905  38.135   1.099  1.00  0.00     0.165 C 
BRANCH  17  18
HETATM   18  N2  UNL     1      25.783  38.844   1.686  1.00  0.00    -0.334 N 
HETATM   19  C7  UNL     1      26.074  39.711   2.771  1.00  0.00     0.361 C 
HETATM   20  O2  UNL     1      27.235  39.882   3.227  1.00  0.00    -0.238 OA
ATOM     21  H2  UNL     1      24.833  38.725   1.336  1.00  0.00     0.164 HD
BRANCH  19  22
HETATM   22  O3  UNL     1      25.058  40.405   3.363  1.00  0.00    -0.294 OA
BRANCH  22  23
HETATM   23  C8  UNL     1      24.723  41.746   3.098  1.00  0.00     0.061 C 
HETATM   24  C9  UNL     1      25.606  42.725   3.840  1.00  0.00     0.046 C 
HETATM   25  C10 UNL     1      24.681  42.082   1.645  1.00  0.00     0.046 C 
HETATM   26  C11 UNL     1      23.306  41.951   3.648  1.00  0.00     0.046 C 
ENDBRANCH  22  23
ENDBRANCH  19  22
ENDBRANCH  17  18
ENDBRANCH   9  17
TORSDOF 5
ENDMDL
MODEL 5
REMARK VINA RESULT: -7.267198701      3.802      5.681
REMARK  5 active torsions:
REMARK  status: ('A' for Active; 'I' for Inactive)
REMARK    1  A    between atoms: C5_9  and  O1_10 
REMARK    2  A    between atoms: C5_9  and  C6_12 
REMARK    3  A    between atoms: C6_12  and  N2_13 
REMARK       I    between atoms: N2_13  and  C7_15 
REMARK    4  A    between atoms: C7_15  and  O3_17 
REMARK    5  A    between atoms: O3_17  and  C8_18 
ROOT
HETATM    1  C1  UNL     1      28.198  37.028  -2.681  1.00  0.00     0.150 C 
HETATM    2  N1  UNL     1      28.885  37.476  -1.530  1.00  0.00    -0.344 N 
HETATM    3  C2  UNL     1      30.119  36.873  -1.291  1.00  0.00     0.337 C 
HETATM    4  F1  UNL     1      29.851  35.629  -0.690  1.00  0.00    -0.181 F 
HETATM    5  F2  UNL     1      30.654  36.511  -2.540  1.00  0.00    -0.181 F 
HETATM    6  C3  UNL     1      31.122  37.605  -0.499  1.00  0.00     0.180 C 
HETATM    7 CL1  UNL     1      32.398  38.199  -1.624  1.00  0.00    -0.117 Cl
HETATM    8  C4  UNL     1      30.634  38.681   0.402  1.00  0.00     0.070 C 
HETATM    9  C5  UNL     1      29.209  39.068   0.265  1.00  0.00     0.100 C 
HETATM   10  C12 UNL     1      28.617  38.764  -1.069  1.00  0.00     0.065 C 
HETATM   11  C13 UNL     1      27.133  38.971  -1.137  1.00  0.00     0.034 C 
HETATM   12  C14 UNL     1      26.903  40.445  -1.073  1.00  0.00     0.003 C 
HETATM   13  C15 UNL     1      28.044  40.989  -1.857  1.00  0.00     0.003 C 
HETATM   14  C16 UNL     1      29.058  39.878  -2.023  1.00  0.00     0.034 C 
ENDROOT
BRANCH   9  15
HETATM   15  O1  UNL     1      29.175  40.479   0.396  1.00  0.00    -0.386 OA
ATOM     16  H1  UNL     1      28.830  40.652   1.265  1.00  0.00     0.210 HD
ENDBRANCH   9  15
BRANCH   9  17
HETATM   17  C6  UNL     1      28.379  38.564   1.421  1.00  0.00     0.165 C 
BRANCH  17  18
HETATM   18  N2  UNL     1      28.006  39.622   2.342  1.00  0.00    -0.334 N 
HETATM   19  C7  UNL     1      26.620  39.787   2.599  1.00  0.00     0.361 C 
HETATM   20  O2  UNL     1      25.730  39.069   2.072  1.00  0.00    -0.238 OA
ATOM     21  H2  UNL     1      28.707  40.218   2.783  1.00  0.00     0.164 HD
BRANCH  19  22
HETATM   22  O3  UNL     1      26.212  40.767   3.457  1.00  0.00    -0.294 OA
BRANCH  22  23
HETATM   23  C8  UNL     1      26.330  42.151   3.232  1.00  0.00     0.061 C 
HETATM   24  C9  UNL     1      27.455  42.777   4.027  1.00  0.00     0.046 C 
HETATM   25  C10 UNL     1      26.445  42.521   1.790  1.00  0.00     0.046 C 
HETATM   26  C11 UNL     1      25.037  42.784   3.757  1.00  0.00     0.046 C 
ENDBRANCH  22  23
ENDBRANCH  19  22
ENDBRANCH  17  18
ENDBRANCH   9  17
TORSDOF 5
ENDMDL
