MODEL 1
REMARK VINA RESULT: -6.527741179      0.000      0.000
REMARK  7 active torsions:
REMARK  status: ('A' for Active; 'I' for Inactive)
REMARK    1  A    between atoms: S1_2  and  C2_3 
REMARK    2  A    between atoms: C2_3  and  C3_4 
REMARK    3  A    between atoms: C3_4  and  C4_5 
REMARK    4  A    between atoms: C4_5  and  C5_6 
REMARK       I    between atoms: C5_6  and  N1_8 
REMARK    5  A    between atoms: N1_8  and  C6_10 
REMARK    6  A    between atoms: C10_14  and  C11_15 
REMARK    7  A    between atoms: C11_15  and  N2_16 
ROOT
HETATM    1  C6  UNL     1      16.416   2.673  14.046  1.00  0.00     0.084 C 
HETATM    2  C7  UNL     1      16.287   2.001  15.371  1.00  0.00     0.025 C 
HETATM    3  C8  UNL     1      15.696   2.921  16.433  1.00  0.00     0.002 C 
HETATM    4  C9  UNL     1      14.812   3.910  15.742  1.00  0.00     0.006 C 
HETATM    5  C10 UNL     1      15.658   4.829  14.923  1.00  0.00     0.005 C 
HETATM    6  C16 UNL     1      16.834   4.130  14.280  1.00  0.00     0.031 C 
ENDROOT
BRANCH   1   7
HETATM    7  N1  UNL     1      17.360   1.972  13.234  1.00  0.00    -0.356 N 
HETATM    8  C5  UNL     1      17.084   1.527  11.890  1.00  0.00     0.217 C 
HETATM    9  O1  UNL     1      15.933   1.802  11.470  1.00  0.00    -0.274 OA
ATOM     10  H1  UNL     1      18.280   1.775  13.626  1.00  0.00     0.162 HD
BRANCH   8  11
HETATM   11  C4  UNL     1      18.091   0.813  11.106  1.00  0.00     0.103 C 
BRANCH  11  12
HETATM   12  C3  UNL     1      19.449   1.415  11.072  1.00  0.00     0.019 C 
BRANCH  12  13
HETATM   13  C2  UNL     1      19.560   2.762  10.446  1.00  0.00     0.074 C 
BRANCH  13  14
HETATM   14  S1  UNL     1      20.060   4.036  11.644  1.00  0.00    -0.173 SA
HETATM   15  C1  UNL     1      18.953   5.463  11.488  1.00  0.00     0.089 C 
ENDBRANCH  13  14
ENDBRANCH  12  13
ENDBRANCH  11  12
ENDBRANCH   8  11
ENDBRANCH   1   7
BRANCH   5  16
HETATM   16  C11 UNL     1      14.855   5.616  13.911  1.00  0.00     0.125 C 
BRANCH  16  17
HETATM   17  N2  UNL     1      15.706   6.275  12.969  1.00  0.00    -0.380 N 
HETATM   18  C12 UNL     1      15.344   7.206  12.174  1.00  0.00     0.072 C 
HETATM   19  C13 UNL     1      14.011   7.842  12.003  1.00  0.00     0.077 C 
HETATM   20  N3  UNL     1      16.208   7.848  11.244  1.00  0.00    -0.380 N 
HETATM   21  C14 UNL     1      14.043   8.159  10.501  1.00  0.00     0.027 C 
HETATM   22  C15 UNL     1      15.442   8.712  10.364  1.00  0.00     0.121 C 
ATOM     23  H3  UNL     1      17.219   7.719  11.202  1.00  0.00     0.160 HD
ATOM     24  H2  UNL     1      16.681   5.977  12.930  1.00  0.00     0.160 HD
ENDBRANCH  16  17
ENDBRANCH   5  16
TORSDOF 7
ENDMDL
MODEL 2
REMARK VINA RESULT: -6.453971569      1.588      2.331
REMARK  7 active torsions:
REMARK  status: ('A' for Active; 'I' for Inactive)
REMARK    1  A    between atoms: S1_2  and  C2_3 
REMARK    2  A    between atoms: C2_3  and  C3_4 
REMARK    3  A    between atoms: C3_4  and  C4_5 
REMARK    4  A    between atoms: C4_5  and  C5_6 
REMARK       I    between atoms: C5_6  and  N1_8 
REMARK    5  A    between atoms: N1_8  and  C6_10 
REMARK    6  A    between atoms: C10_14  and  C11_15 
REMARK    7  A    between atoms: C11_15  and  N2_16 
ROOT
HETATM    1  C6  UNL     1      16.580   3.277  13.975  1.00  0.00     0.084 C 
HETATM    2  C7  UNL     1      16.348   2.412  15.167  1.00  0.00     0.025 C 
HETATM    3  C8  UNL     1      15.486   3.097  16.222  1.00  0.00     0.002 C 
HETATM    4  C9  UNL     1      14.586   4.065  15.520  1.00  0.00     0.006 C 
HETATM    5  C10 UNL     1      15.411   5.184  14.972  1.00  0.00     0.005 C 
HETATM    6  C16 UNL     1      16.755   4.725  14.452  1.00  0.00     0.031 C 
ENDROOT
BRANCH   1   7
HETATM    7  N1  UNL     1      17.721   2.814  13.250  1.00  0.00    -0.356 N 
HETATM    8  C5  UNL     1      18.016   3.197  11.892  1.00  0.00     0.217 C 
HETATM    9  O1  UNL     1      17.185   3.983  11.374  1.00  0.00    -0.274 OA
ATOM     10  H1  UNL     1      18.363   2.176  13.720  1.00  0.00     0.162 HD
BRANCH   8  11
HETATM   11  C4  UNL     1      19.201   2.689  11.202  1.00  0.00     0.103 C 
BRANCH  11  12
HETATM   12  C3  UNL     1      19.257   1.221  10.981  1.00  0.00     0.019 C 
BRANCH  12  13
HETATM   13  C2  UNL     1      18.021   0.584  10.449  1.00  0.00     0.074 C 
BRANCH  13  14
HETATM   14  S1  UNL     1      17.309  -0.615  11.617  1.00  0.00    -0.173 SA
HETATM   15  C1  UNL     1      18.125  -2.218  11.392  1.00  0.00     0.089 C 
ENDBRANCH  13  14
ENDBRANCH  12  13
ENDBRANCH  11  12
ENDBRANCH   8  11
ENDBRANCH   1   7
BRANCH   5  16
HETATM   16  C11 UNL     1      14.668   6.009  13.945  1.00  0.00     0.125 C 
BRANCH  16  17
HETATM   17  N2  UNL     1      15.520   6.377  12.857  1.00  0.00    -0.380 N 
HETATM   18  C12 UNL     1      15.234   7.236  11.955  1.00  0.00     0.072 C 
HETATM   19  C13 UNL     1      14.007   8.056  11.781  1.00  0.00     0.077 C 
HETATM   20  N3  UNL     1      16.097   7.586  10.880  1.00  0.00    -0.380 N 
HETATM   21  C14 UNL     1      13.948   8.150  10.250  1.00  0.00     0.027 C 
HETATM   22  C15 UNL     1      15.397   8.435   9.933  1.00  0.00     0.121 C 
ATOM     23  H3  UNL     1      17.067   7.285  10.789  1.00  0.00     0.160 HD
ATOM     24  H2  UNL     1      16.428   5.917  12.796  1.00  0.00     0.160 HD
ENDBRANCH  16  17
ENDBRANCH   5  16
TORSDOF 7
ENDMDL
MODEL 3
REMARK VINA RESULT: -6.409799193      2.688      5.129
REMARK  7 active torsions:
REMARK  status: ('A' for Active; 'I' for Inactive)
REMARK    1  A    between atoms: S1_2  and  C2_3 
REMARK    2  A    between atoms: C2_3  and  C3_4 
REMARK    3  A    between atoms: C3_4  and  C4_5 
REMARK    4  A    between atoms: C4_5  and  C5_6 
REMARK       I    between atoms: C5_6  and  N1_8 
REMARK    5  A    between atoms: N1_8  and  C6_10 
REMARK    6  A    between atoms: C10_14  and  C11_15 
REMARK    7  A    between atoms: C11_15  and  N2_16 
ROOT
HETATM    1  C6  UNL     1      17.942   5.067  13.406  1.00  0.00     0.084 C 
HETATM    2  C7  UNL     1      18.773   6.198  13.909  1.00  0.00     0.025 C 
HETATM    3  C8  UNL     1      17.947   7.233  14.666  1.00  0.00     0.002 C 
HETATM    4  C9  UNL     1      16.774   6.529  15.271  1.00  0.00     0.006 C 
HETATM    5  C10 UNL     1      15.855   6.088  14.179  1.00  0.00     0.005 C 
HETATM    6  C16 UNL     1      16.591   5.626  12.942  1.00  0.00     0.031 C 
ENDROOT
BRANCH   1   7
HETATM    7  N1  UNL     1      18.628   4.389  12.352  1.00  0.00    -0.356 N 
HETATM    8  C5  UNL     1      18.485   2.980  12.080  1.00  0.00     0.217 C 
HETATM    9  O1  UNL     1      17.699   2.372  12.849  1.00  0.00    -0.274 OA
ATOM     10  H1  UNL     1      19.255   4.931  11.758  1.00  0.00     0.162 HD
BRANCH   8  11
HETATM   11  C4  UNL     1      19.215   2.341  10.986  1.00  0.00     0.103 C 
BRANCH  11  12
HETATM   12  C3  UNL     1      19.218   0.855  10.974  1.00  0.00     0.019 C 
BRANCH  12  13
HETATM   13  C2  UNL     1      17.994   0.194  10.445  1.00  0.00     0.074 C 
BRANCH  13  14
HETATM   14  S1  UNL     1      17.299  -1.008  11.620  1.00  0.00    -0.173 SA
HETATM   15  C1  UNL     1      18.091  -2.618  11.358  1.00  0.00     0.089 C 
ENDBRANCH  13  14
ENDBRANCH  12  13
ENDBRANCH  11  12
ENDBRANCH   8  11
ENDBRANCH   1   7
BRANCH   5  16
HETATM   16  C11 UNL     1      14.845   5.062  14.644  1.00  0.00     0.125 C 
BRANCH  16  17
HETATM   17  N2  UNL     1      15.458   3.787  14.856  1.00  0.00    -0.380 N 
HETATM   18  C12 UNL     1      15.170   2.980  15.802  1.00  0.00     0.072 C 
HETATM   19  C13 UNL     1      14.173   3.118  16.897  1.00  0.00     0.077 C 
HETATM   20  N3  UNL     1      15.793   1.715  15.995  1.00  0.00    -0.380 N 
HETATM   21  C14 UNL     1      14.884   2.352  18.021  1.00  0.00     0.027 C 
HETATM   22  C15 UNL     1      15.380   1.143  17.263  1.00  0.00     0.121 C 
ATOM     23  H3  UNL     1      16.436   1.276  15.337  1.00  0.00     0.160 HD
ATOM     24  H2  UNL     1      16.183   3.500  14.198  1.00  0.00     0.160 HD
ENDBRANCH  16  17
ENDBRANCH   5  16
TORSDOF 7
ENDMDL
MODEL 4
REMARK VINA RESULT: -6.368136411      2.950      5.200
REMARK  7 active torsions:
REMARK  status: ('A' for Active; 'I' for Inactive)
REMARK    1  A    between atoms: S1_2  and  C2_3 
REMARK    2  A    between atoms: C2_3  and  C3_4 
REMARK    3  A    between atoms: C3_4  and  C4_5 
REMARK    4  A    between atoms: C4_5  and  C5_6 
REMARK       I    between atoms: C5_6  and  N1_8 
REMARK    5  A    between atoms: N1_8  and  C6_10 
REMARK    6  A    between atoms: C10_14  and  C11_15 
REMARK    7  A    between atoms: C11_15  and  N2_16 
ROOT
HETATM    1  C6  UNL     1      17.304   0.855  12.962  1.00  0.00     0.084 C 
HETATM    2  C7  UNL     1      17.180  -0.340  12.080  1.00  0.00     0.025 C 
HETATM    3  C8  UNL     1      17.589  -0.044  10.641  1.00  0.00     0.002 C 
HETATM    4  C9  UNL     1      18.602   1.057  10.670  1.00  0.00     0.006 C 
HETATM    5  C10 UNL     1      17.934   2.320  11.105  1.00  0.00     0.005 C 
HETATM    6  C16 UNL     1      16.879   2.094  12.163  1.00  0.00     0.031 C 
ENDROOT
BRANCH   1   7
HETATM    7  N1  UNL     1      16.507   0.679  14.136  1.00  0.00    -0.356 N 
HETATM    8  C5  UNL     1      16.669   1.460  15.337  1.00  0.00     0.217 C 
HETATM    9  O1  UNL     1      17.578   2.325  15.285  1.00  0.00    -0.274 OA
ATOM     10  H1  UNL     1      15.783  -0.039  14.123  1.00  0.00     0.162 HD
BRANCH   8  11
HETATM   11  C4  UNL     1      15.823   1.233  16.508  1.00  0.00     0.103 C 
BRANCH  11  12
HETATM   12  C3  UNL     1      15.462   2.435  17.303  1.00  0.00     0.019 C 
BRANCH  12  13
HETATM   13  C2  UNL     1      14.287   3.215  16.826  1.00  0.00     0.074 C 
BRANCH  13  14
HETATM   14  S1  UNL     1      14.780   4.702  15.900  1.00  0.00    -0.173 SA
HETATM   15  C1  UNL     1      14.708   4.345  14.125  1.00  0.00     0.089 C 
ENDBRANCH  13  14
ENDBRANCH  12  13
ENDBRANCH  11  12
ENDBRANCH   8  11
ENDBRANCH   1   7
BRANCH   5  16
HETATM   16  C11 UNL     1      18.920   3.390  11.520  1.00  0.00     0.125 C 
BRANCH  16  17
HETATM   17  N2  UNL     1      18.686   3.822  12.863  1.00  0.00    -0.380 N 
HETATM   18  C12 UNL     1      18.316   4.996  13.205  1.00  0.00     0.072 C 
HETATM   19  C13 UNL     1      18.038   6.186  12.360  1.00  0.00     0.077 C 
HETATM   20  N3  UNL     1      18.089   5.404  14.549  1.00  0.00    -0.380 N 
HETATM   21  C14 UNL     1      18.485   7.310  13.306  1.00  0.00     0.027 C 
HETATM   22  C15 UNL     1      17.875   6.839  14.605  1.00  0.00     0.121 C 
ATOM     23  H3  UNL     1      18.077   4.779  15.354  1.00  0.00     0.160 HD
ATOM     24  H2  UNL     1      18.824   3.138  13.607  1.00  0.00     0.160 HD
ENDBRANCH  16  17
ENDBRANCH   5  16
TORSDOF 7
ENDMDL
MODEL 5
REMARK VINA RESULT: -6.350515460      3.110      6.339
REMARK  7 active torsions:
REMARK  status: ('A' for Active; 'I' for Inactive)
REMARK    1  A    between atoms: S1_2  and  C2_3 
REMARK    2  A    between atoms: C2_3  and  C3_4 
REMARK    3  A    between atoms: C3_4  and  C4_5 
REMARK    4  A    between atoms: C4_5  and  C5_6 
REMARK       I    between atoms: C5_6  and  N1_8 
REMARK    5  A    between atoms: N1_8  and  C6_10 
REMARK    6  A    between atoms: C10_14  and  C11_15 
REMARK    7  A    between atoms: C11_15  and  N2_16 
ROOT
HETATM    1  C6  UNL     1      17.487   5.949  14.135  1.00  0.00     0.084 C 
HETATM    2  C7  UNL     1      18.140   7.276  14.316  1.00  0.00     0.025 C 
HETATM    3  C8  UNL     1      19.533   7.326  13.698  1.00  0.00     0.002 C 
HETATM    4  C9  UNL     1      19.561   6.365  12.552  1.00  0.00     0.006 C 
HETATM    5  C10 UNL     1      19.471   4.972  13.085  1.00  0.00     0.005 C 
HETATM    6  C16 UNL     1      18.555   4.858  14.282  1.00  0.00     0.031 C 
ENDROOT
BRANCH   1   7
HETATM    7  N1  UNL     1      16.431   5.792  15.085  1.00  0.00    -0.356 N 
HETATM    8  C5  UNL     1      15.368   4.827  14.947  1.00  0.00     0.217 C 
HETATM    9  O1  UNL     1      15.431   4.118  13.913  1.00  0.00    -0.274 OA
ATOM     10  H1  UNL     1      16.429   6.395  15.907  1.00  0.00     0.162 HD
BRANCH   8  11
HETATM   11  C4  UNL     1      14.313   4.713  15.954  1.00  0.00     0.103 C 
BRANCH  11  12
HETATM   12  C3  UNL     1      14.540   3.723  17.038  1.00  0.00     0.019 C 
BRANCH  12  13
HETATM   13  C2  UNL     1      14.105   2.326  16.760  1.00  0.00     0.074 C 
BRANCH  13  14
HETATM   14  S1  UNL     1      15.454   1.128  16.989  1.00  0.00    -0.173 SA
HETATM   15  C1  UNL     1      16.908   1.688  16.061  1.00  0.00     0.089 C 
ENDBRANCH  13  14
ENDBRANCH  12  13
ENDBRANCH  11  12
ENDBRANCH   8  11
ENDBRANCH   1   7
BRANCH   5  16
HETATM   16  C11 UNL     1      19.122   3.959  12.016  1.00  0.00     0.125 C 
BRANCH  16  17
HETATM   17  N2  UNL     1      18.129   3.038  12.476  1.00  0.00    -0.380 N 
HETATM   18  C12 UNL     1      17.996   1.835  12.070  1.00  0.00     0.072 C 
HETATM   19  C13 UNL     1      18.785   1.082  11.059  1.00  0.00     0.077 C 
HETATM   20  N3  UNL     1      17.000   0.935  12.541  1.00  0.00    -0.380 N 
HETATM   21  C14 UNL     1      17.695   0.172  10.475  1.00  0.00     0.027 C 
HETATM   22  C15 UNL     1      16.999  -0.275  11.739  1.00  0.00     0.121 C 
ATOM     23  H3  UNL     1      16.377   1.115  13.329  1.00  0.00     0.160 HD
ATOM     24  H2  UNL     1      17.475   3.369  13.186  1.00  0.00     0.160 HD
ENDBRANCH  16  17
ENDBRANCH   5  16
TORSDOF 7
ENDMDL
