MODEL 1
REMARK VINA RESULT: -6.771776594      0.000      0.000
REMARK  7 active torsions:
REMARK  status: ('A' for Active; 'I' for Inactive)
REMARK    1  A    between atoms: S1_2  and  C2_3 
REMARK    2  A    between atoms: C2_3  and  C3_4 
REMARK    3  A    between atoms: C3_4  and  N1_5 
REMARK       I    between atoms: N1_5  and  C4_7 
REMARK    4  A    between atoms: C4_7  and  C5_9 
REMARK    5  A    between atoms: C5_9  and  C6_10 
REMARK    6  A    between atoms: C6_10  and  N2_11 
REMARK    7  A    between atoms: N2_11  and  C7_13 
ROOT
HETATM    1  C5  UNL     1      16.811   4.747  14.006  1.00  0.00     0.072 C 
HETATM    2  C14 UNL     1      16.813   6.049  14.717  1.00  0.00     0.025 C 
HETATM    3  C15 UNL     1      15.407   6.043  15.348  1.00  0.00     0.002 C 
HETATM    4  C16 UNL     1      14.606   5.664  14.124  1.00  0.00     0.002 C 
HETATM    5  C17 UNL     1      15.356   4.452  13.632  1.00  0.00     0.025 C 
ENDROOT
BRANCH   1   6
HETATM    6  C4  UNL     1      17.199   3.670  14.984  1.00  0.00     0.231 C 
HETATM    7  N1  UNL     1      16.315   2.624  15.308  1.00  0.00    -0.359 N 
ATOM      8  H1  UNL     1      15.397   2.592  14.866  1.00  0.00     0.162 HD
HETATM    9  O1  UNL     1      18.326   3.731  15.501  1.00  0.00    -0.272 OA
BRANCH   7  10
HETATM   10  C3  UNL     1      16.679   1.599  16.248  1.00  0.00     0.132 C 
BRANCH  10  11
HETATM   11  C2  UNL     1      15.498   0.847  16.799  1.00  0.00     0.093 C 
BRANCH  11  12
HETATM   12  S1  UNL     1      14.192   2.010  17.321  1.00  0.00    -0.172 SA
HETATM   13  C1  UNL     1      14.701   2.799  18.868  1.00  0.00     0.089 C 
ENDBRANCH  11  12
ENDBRANCH  10  11
ENDBRANCH   7  10
ENDBRANCH   1   6
BRANCH   1  14
HETATM   14  C6  UNL     1      17.626   4.672  12.753  1.00  0.00     0.075 C 
BRANCH  14  15
HETATM   15  N2  UNL     1      18.173   3.449  12.388  1.00  0.00    -0.396 N 
ATOM     16  H2  UNL     1      18.957   3.091  12.932  1.00  0.00     0.159 HD
BRANCH  15  17
HETATM   17  C7  UNL     1      17.711   2.683  11.320  1.00  0.00     0.085 C 
HETATM   18  C8  UNL     1      18.841   1.687  10.982  1.00  0.00     0.030 C 
HETATM   19  C9  UNL     1      18.406   0.352  11.517  1.00  0.00    -0.012 C 
HETATM   20  C10 UNL     1      17.494  -0.264  10.478  1.00  0.00     0.005 C 
HETATM   21  C13 UNL     1      17.344   0.767  12.543  1.00  0.00     0.011 C 
HETATM   22  C11 UNL     1      16.441   0.844  10.364  1.00  0.00     0.007 C 
HETATM   23  C12 UNL     1      16.604   1.719  11.589  1.00  0.00     0.009 C 
ENDBRANCH  15  17
ENDBRANCH  14  15
ENDBRANCH   1  14
TORSDOF 7
ENDMDL
MODEL 2
REMARK VINA RESULT: -6.641365539      2.385      5.235
REMARK  7 active torsions:
REMARK  status: ('A' for Active; 'I' for Inactive)
REMARK    1  A    between atoms: S1_2  and  C2_3 
REMARK    2  A    between atoms: C2_3  and  C3_4 
REMARK    3  A    between atoms: C3_4  and  N1_5 
REMARK       I    between atoms: N1_5  and  C4_7 
REMARK    4  A    between atoms: C4_7  and  C5_9 
REMARK    5  A    between atoms: C5_9  and  C6_10 
REMARK    6  A    between atoms: C6_10  and  N2_11 
REMARK    7  A    between atoms: N2_11  and  C7_13 
ROOT
HETATM    1  C5  UNL     1      16.441   5.558  13.545  1.00  0.00     0.072 C 
HETATM    2  C14 UNL     1      16.536   6.808  12.752  1.00  0.00     0.025 C 
HETATM    3  C15 UNL     1      18.050   7.086  12.822  1.00  0.00     0.002 C 
HETATM    4  C16 UNL     1      18.246   6.923  14.312  1.00  0.00     0.002 C 
HETATM    5  C17 UNL     1      17.583   5.594  14.563  1.00  0.00     0.025 C 
ENDROOT
BRANCH   1   6
HETATM    6  C4  UNL     1      16.748   4.395  12.639  1.00  0.00     0.231 C 
HETATM    7  N1  UNL     1      17.679   3.407  13.009  1.00  0.00    -0.359 N 
ATOM      8  H1  UNL     1      18.150   3.478  13.912  1.00  0.00     0.162 HD
HETATM    9  O1  UNL     1      16.155   4.332  11.550  1.00  0.00    -0.272 OA
BRANCH   7  10
HETATM   10  C3  UNL     1      17.982   2.300  12.143  1.00  0.00     0.132 C 
BRANCH  10  11
HETATM   11  C2  UNL     1      17.209   1.053  12.475  1.00  0.00     0.093 C 
BRANCH  11  12
HETATM   12  S1  UNL     1      17.125  -0.048  11.021  1.00  0.00    -0.172 SA
HETATM   13  C1  UNL     1      17.988  -1.590  11.409  1.00  0.00     0.089 C 
ENDBRANCH  11  12
ENDBRANCH  10  11
ENDBRANCH   7  10
ENDBRANCH   1   6
BRANCH   1  14
HETATM   14  C6  UNL     1      15.166   5.345  14.300  1.00  0.00     0.075 C 
BRANCH  14  15
HETATM   15  N2  UNL     1      15.208   4.626  15.488  1.00  0.00    -0.396 N 
ATOM     16  H2  UNL     1      15.640   5.066  16.300  1.00  0.00     0.159 HD
BRANCH  15  17
HETATM   17  C7  UNL     1      14.695   3.340  15.632  1.00  0.00     0.085 C 
HETATM   18  C8  UNL     1      15.906   2.419  15.898  1.00  0.00     0.030 C 
HETATM   19  C9  UNL     1      15.875   2.089  17.364  1.00  0.00    -0.012 C 
HETATM   20  C10 UNL     1      14.907   0.938  17.536  1.00  0.00     0.005 C 
HETATM   21  C13 UNL     1      14.995   3.218  17.911  1.00  0.00     0.011 C 
HETATM   22  C11 UNL     1      13.652   1.555  16.911  1.00  0.00     0.007 C 
HETATM   23  C12 UNL     1      13.890   3.050  16.855  1.00  0.00     0.009 C 
ENDBRANCH  15  17
ENDBRANCH  14  15
ENDBRANCH   1  14
TORSDOF 7
ENDMDL
MODEL 3
REMARK VINA RESULT: -6.546672097      2.448      5.244
REMARK  7 active torsions:
REMARK  status: ('A' for Active; 'I' for Inactive)
REMARK    1  A    between atoms: S1_2  and  C2_3 
REMARK    2  A    between atoms: C2_3  and  C3_4 
REMARK    3  A    between atoms: C3_4  and  N1_5 
REMARK       I    between atoms: N1_5  and  C4_7 
REMARK    4  A    between atoms: C4_7  and  C5_9 
REMARK    5  A    between atoms: C5_9  and  C6_10 
REMARK    6  A    between atoms: C6_10  and  N2_11 
REMARK    7  A    between atoms: N2_11  and  C7_13 
ROOT
HETATM    1  C5  UNL     1      16.459   2.374  15.817  1.00  0.00     0.072 C 
HETATM    2  C14 UNL     1      16.004   1.854  17.129  1.00  0.00     0.025 C 
HETATM    3  C15 UNL     1      14.480   1.790  16.908  1.00  0.00     0.002 C 
HETATM    4  C16 UNL     1      14.270   3.176  16.344  1.00  0.00     0.002 C 
HETATM    5  C17 UNL     1      15.315   3.225  15.259  1.00  0.00     0.025 C 
ENDROOT
BRANCH   1   6
HETATM    6  C4  UNL     1      16.594   1.214  14.866  1.00  0.00     0.231 C 
HETATM    7  N1  UNL     1      16.861   1.417  13.500  1.00  0.00    -0.359 N 
ATOM      8  H1  UNL     1      16.972   2.368  13.149  1.00  0.00     0.162 HD
HETATM    9  O1  UNL     1      16.462   0.067  15.323  1.00  0.00    -0.272 OA
BRANCH   7  10
HETATM   10  C3  UNL     1      16.982   0.312  12.587  1.00  0.00     0.132 C 
BRANCH  10  11
HETATM   11  C2  UNL     1      17.074   0.734  11.146  1.00  0.00     0.093 C 
BRANCH  11  12
HETATM   12  S1  UNL     1      17.896   2.359  11.013  1.00  0.00    -0.172 SA
HETATM   13  C1  UNL     1      19.688   2.108  11.048  1.00  0.00     0.089 C 
ENDBRANCH  11  12
ENDBRANCH  10  11
ENDBRANCH   7  10
ENDBRANCH   1   6
BRANCH   1  14
HETATM   14  C6  UNL     1      17.692   3.221  15.829  1.00  0.00     0.075 C 
BRANCH  14  15
HETATM   15  N2  UNL     1      18.053   3.888  14.665  1.00  0.00    -0.396 N 
ATOM     16  H2  UNL     1      17.932   3.403  13.776  1.00  0.00     0.159 HD
BRANCH  15  17
HETATM   17  C7  UNL     1      18.571   5.181  14.642  1.00  0.00     0.085 C 
HETATM   18  C8  UNL     1      19.072   5.420  13.201  1.00  0.00     0.030 C 
HETATM   19  C9  UNL     1      18.062   6.318  12.544  1.00  0.00    -0.012 C 
HETATM   20  C10 UNL     1      18.405   7.736  12.945  1.00  0.00     0.005 C 
HETATM   21  C13 UNL     1      16.839   6.110  13.445  1.00  0.00     0.011 C 
HETATM   22  C11 UNL     1      18.359   7.596  14.470  1.00  0.00     0.007 C 
HETATM   23  C12 UNL     1      17.607   6.314  14.761  1.00  0.00     0.009 C 
ENDBRANCH  15  17
ENDBRANCH  14  15
ENDBRANCH   1  14
TORSDOF 7
ENDMDL
MODEL 4
REMARK VINA RESULT: -6.455781741      1.711      4.760
REMARK  7 active torsions:
REMARK  status: ('A' for Active; 'I' for Inactive)
REMARK    1  A    between atoms: S1_2  and  C2_3 
REMARK    2  A    between atoms: C2_3  and  C3_4 
REMARK    3  A    between atoms: C3_4  and  N1_5 
REMARK       I    between atoms: N1_5  and  C4_7 
REMARK    4  A    between atoms: C4_7  and  C5_9 
REMARK    5  A    between atoms: C5_9  and  C6_10 
REMARK    6  A    between atoms: C6_10  and  N2_11 
REMARK    7  A    between atoms: N2_11  and  C7_13 
ROOT
HETATM    1  C5  UNL     1      16.989   1.545  11.934  1.00  0.00     0.072 C 
HETATM    2  C14 UNL     1      16.588   0.456  11.010  1.00  0.00     0.025 C 
HETATM    3  C15 UNL     1      17.909  -0.326  10.884  1.00  0.00     0.002 C 
HETATM    4  C16 UNL     1      18.836   0.832  10.595  1.00  0.00     0.002 C 
HETATM    5  C17 UNL     1      18.483   1.790  11.703  1.00  0.00     0.025 C 
ENDROOT
BRANCH   1   6
HETATM    6  C4  UNL     1      16.881   1.034  13.346  1.00  0.00     0.231 C 
HETATM    7  N1  UNL     1      17.199   1.853  14.445  1.00  0.00    -0.359 N 
ATOM      8  H1  UNL     1      17.502   2.814  14.281  1.00  0.00     0.162 HD
HETATM    9  O1  UNL     1      16.503  -0.136  13.516  1.00  0.00    -0.272 OA
BRANCH   7  10
HETATM   10  C3  UNL     1      17.105   1.367  15.795  1.00  0.00     0.132 C 
BRANCH  10  11
HETATM   11  C2  UNL     1      16.397   2.315  16.725  1.00  0.00     0.093 C 
BRANCH  11  12
HETATM   12  S1  UNL     1      15.164   1.417  17.728  1.00  0.00    -0.172 SA
HETATM   13  C1  UNL     1      13.528   1.666  16.996  1.00  0.00     0.089 C 
ENDBRANCH  11  12
ENDBRANCH  10  11
ENDBRANCH   7  10
ENDBRANCH   1   6
BRANCH   1  14
HETATM   14  C6  UNL     1      16.283   2.853  11.766  1.00  0.00     0.075 C 
BRANCH  14  15
HETATM   15  N2  UNL     1      17.025   3.966  11.391  1.00  0.00    -0.396 N 
ATOM     16  H2  UNL     1      17.728   3.851  10.661  1.00  0.00     0.159 HD
BRANCH  15  17
HETATM   17  C7  UNL     1      16.863   5.230  11.953  1.00  0.00     0.085 C 
HETATM   18  C8  UNL     1      16.398   5.000  13.407  1.00  0.00     0.030 C 
HETATM   19  C9  UNL     1      17.587   5.280  14.282  1.00  0.00    -0.012 C 
HETATM   20  C10 UNL     1      17.638   6.778  14.491  1.00  0.00     0.005 C 
HETATM   21  C13 UNL     1      18.740   5.143  13.281  1.00  0.00     0.011 C 
HETATM   22  C11 UNL     1      17.694   7.243  13.032  1.00  0.00     0.007 C 
HETATM   23  C12 UNL     1      18.092   6.036  12.210  1.00  0.00     0.009 C 
ENDBRANCH  15  17
ENDBRANCH  14  15
ENDBRANCH   1  14
TORSDOF 7
ENDMDL
MODEL 5
REMARK VINA RESULT: -6.386713812      2.688      5.375
REMARK  7 active torsions:
REMARK  status: ('A' for Active; 'I' for Inactive)
REMARK    1  A    between atoms: S1_2  and  C2_3 
REMARK    2  A    between atoms: C2_3  and  C3_4 
REMARK    3  A    between atoms: C3_4  and  N1_5 
REMARK       I    between atoms: N1_5  and  C4_7 
REMARK    4  A    between atoms: C4_7  and  C5_9 
REMARK    5  A    between atoms: C5_9  and  C6_10 
REMARK    6  A    between atoms: C6_10  and  N2_11 
REMARK    7  A    between atoms: N2_11  and  C7_13 
ROOT
HETATM    1  C5  UNL     1      16.601   3.152  15.172  1.00  0.00     0.072 C 
HETATM    2  C14 UNL     1      16.391   2.002  16.085  1.00  0.00     0.025 C 
HETATM    3  C15 UNL     1      14.856   2.009  16.220  1.00  0.00     0.002 C 
HETATM    4  C16 UNL     1      14.658   3.475  16.526  1.00  0.00     0.002 C 
HETATM    5  C17 UNL     1      15.447   4.127  15.420  1.00  0.00     0.025 C 
ENDROOT
BRANCH   1   6
HETATM    6  C4  UNL     1      16.423   2.674  13.756  1.00  0.00     0.231 C 
HETATM    7  N1  UNL     1      16.989   1.462  13.317  1.00  0.00    -0.359 N 
ATOM      8  H1  UNL     1      17.524   0.895  13.975  1.00  0.00     0.162 HD
HETATM    9  O1  UNL     1      15.761   3.382  12.980  1.00  0.00    -0.272 OA
BRANCH   7  10
HETATM   10  C3  UNL     1      16.829   1.007  11.963  1.00  0.00     0.132 C 
BRANCH  10  11
HETATM   11  C2  UNL     1      18.074   0.385  11.391  1.00  0.00     0.093 C 
BRANCH  11  12
HETATM   12  S1  UNL     1      19.331   1.669  11.064  1.00  0.00    -0.172 SA
HETATM   13  C1  UNL     1      18.487   3.221  10.673  1.00  0.00     0.089 C 
ENDBRANCH  11  12
ENDBRANCH  10  11
ENDBRANCH   7  10
ENDBRANCH   1   6
BRANCH   1  14
HETATM   14  C6  UNL     1      17.880   3.910  15.341  1.00  0.00     0.075 C 
BRANCH  14  15
HETATM   15  N2  UNL     1      18.457   4.499  14.222  1.00  0.00    -0.396 N 
ATOM     16  H2  UNL     1      18.487   3.959  13.357  1.00  0.00     0.159 HD
BRANCH  15  17
HETATM   17  C7  UNL     1      18.996   5.782  14.214  1.00  0.00     0.085 C 
HETATM   18  C8  UNL     1      19.395   6.075  12.751  1.00  0.00     0.030 C 
HETATM   19  C9  UNL     1      18.357   7.016  12.207  1.00  0.00    -0.012 C 
HETATM   20  C10 UNL     1      18.756   8.410  12.640  1.00  0.00     0.005 C 
HETATM   21  C13 UNL     1      17.199   6.789  13.187  1.00  0.00     0.011 C 
HETATM   22  C11 UNL     1      18.817   8.206  14.157  1.00  0.00     0.007 C 
HETATM   23  C12 UNL     1      18.065   6.925  14.450  1.00  0.00     0.009 C 
ENDBRANCH  15  17
ENDBRANCH  14  15
ENDBRANCH   1  14
TORSDOF 7
ENDMDL
