MODEL 1
REMARK VINA RESULT: -6.932216388      0.000      0.000
REMARK  8 active torsions:
REMARK  status: ('A' for Active; 'I' for Inactive)
REMARK    1  A    between atoms: C2_2  and  C3_3 
REMARK    2  A    between atoms: C3_3  and  C4_4 
REMARK    3  A    between atoms: C4_4  and  C5_5 
REMARK    4  A    between atoms: C5_5  and  C6_6 
REMARK    5  A    between atoms: C6_6  and  N1_7 
REMARK    6  A    between atoms: C8_9  and  C9_10 
REMARK    7  A    between atoms: C10_11  and  O1_12 
REMARK    8  A    between atoms: C12_15  and  O2_16 
ROOT
HETATM    1  N1  UNL     1      16.826   2.574  14.351  1.00  0.00    -0.331 N 
HETATM    2  C7  UNL     1      16.546   3.811  14.957  1.00  0.00     0.081 C 
HETATM    3  C8  UNL     1      16.611   5.063  14.129  1.00  0.00     0.018 C 
HETATM    4  C11 UNL     1      17.735   5.899  14.745  1.00  0.00     0.051 C 
HETATM    5  C12 UNL     1      19.102   5.390  14.375  1.00  0.00     0.119 C 
HETATM    6  C13 UNL     1      19.283   5.257  12.883  1.00  0.00     0.036 C 
HETATM    7  C14 UNL     1      18.009   5.752  12.193  1.00  0.00    -0.010 C 
HETATM    8  C15 UNL     1      18.139   5.637  10.700  1.00  0.00     0.010 C 
HETATM    9  C16 UNL     1      16.810   4.913  12.669  1.00  0.00     0.015 C 
HETATM   10  C17 UNL     1      16.946   3.583  12.062  1.00  0.00     0.109 C 
HETATM   11  C18 UNL     1      17.153   2.468  12.991  1.00  0.00     0.223 C 
HETATM   12  O3  UNL     1      17.634   1.399  12.552  1.00  0.00    -0.273 OA
ENDROOT
BRANCH   1  13
HETATM   13  C6  UNL     1      16.772   1.374  15.140  1.00  0.00     0.131 C 
BRANCH  13  14
HETATM   14  C5  UNL     1      16.574   1.621  16.600  1.00  0.00     0.020 C 
BRANCH  14  15
HETATM   15  C4  UNL     1      15.329   0.958  17.143  1.00  0.00     0.002 C 
BRANCH  15  16
HETATM   16  C3  UNL     1      14.072   1.758  16.915  1.00  0.00    -0.000 C 
BRANCH  16  17
HETATM   17  C2  UNL     1      14.278   3.080  17.658  1.00  0.00    -0.005 C 
HETATM   18  C1  UNL     1      14.631   2.868  19.098  1.00  0.00     0.005 C 
ENDBRANCH  16  17
ENDBRANCH  15  16
ENDBRANCH  14  15
ENDBRANCH  13  14
ENDBRANCH   1  13
BRANCH   3  19
HETATM   19  C9  UNL     1      15.330   5.777  14.486  1.00  0.00     0.012 C 
HETATM   20  C10 UNL     1      14.313   6.084  13.516  1.00  0.00     0.128 C 
BRANCH  20  21
HETATM   21  O1  UNL     1      14.603   6.905  12.440  1.00  0.00    -0.373 OA
ATOM     22  H1  UNL     1      14.633   7.847  12.553  1.00  0.00     0.216 HD
ENDBRANCH  20  21
ENDBRANCH   3  19
BRANCH   5  23
HETATM   23  O2  UNL     1      19.516   4.280  15.097  1.00  0.00    -0.396 OA
ATOM     24  H2  UNL     1      20.296   3.858  14.757  1.00  0.00     0.210 HD
ENDBRANCH   5  23
TORSDOF 8
ENDMDL
MODEL 2
REMARK VINA RESULT: -6.823279315      2.024      5.690
REMARK  8 active torsions:
REMARK  status: ('A' for Active; 'I' for Inactive)
REMARK    1  A    between atoms: C2_2  and  C3_3 
REMARK    2  A    between atoms: C3_3  and  C4_4 
REMARK    3  A    between atoms: C4_4  and  C5_5 
REMARK    4  A    between atoms: C5_5  and  C6_6 
REMARK    5  A    between atoms: C6_6  and  N1_7 
REMARK    6  A    between atoms: C8_9  and  C9_10 
REMARK    7  A    between atoms: C10_11  and  O1_12 
REMARK    8  A    between atoms: C12_15  and  O2_16 
ROOT
HETATM    1  N1  UNL     1      16.727   4.419  11.818  1.00  0.00    -0.331 N 
HETATM    2  C7  UNL     1      17.236   5.326  12.764  1.00  0.00     0.081 C 
HETATM    3  C8  UNL     1      17.363   4.894  14.197  1.00  0.00     0.018 C 
HETATM    4  C11 UNL     1      16.420   5.809  14.982  1.00  0.00     0.051 C 
HETATM    5  C12 UNL     1      14.975   5.421  14.823  1.00  0.00     0.119 C 
HETATM    6  C13 UNL     1      14.726   3.972  15.162  1.00  0.00     0.036 C 
HETATM    7  C14 UNL     1      16.044   3.350  15.632  1.00  0.00    -0.010 C 
HETATM    8  C15 UNL     1      15.849   1.901  15.980  1.00  0.00     0.010 C 
HETATM    9  C16 UNL     1      17.094   3.472  14.514  1.00  0.00     0.015 C 
HETATM   10  C17 UNL     1      16.711   2.526  13.458  1.00  0.00     0.109 C 
HETATM   11  C18 UNL     1      16.344   3.115  12.167  1.00  0.00     0.223 C 
HETATM   12  O3  UNL     1      15.672   2.433  11.362  1.00  0.00    -0.273 OA
ENDROOT
BRANCH   1  13
HETATM   13  C6  UNL     1      16.598   4.829  10.447  1.00  0.00     0.131 C 
BRANCH  13  14
HETATM   14  C5  UNL     1      16.929   6.268  10.214  1.00  0.00     0.020 C 
BRANCH  14  15
HETATM   15  C4  UNL     1      15.702   7.134  10.055  1.00  0.00     0.002 C 
BRANCH  15  16
HETATM   16  C3  UNL     1      15.488   8.092  11.199  1.00  0.00    -0.000 C 
BRANCH  16  17
HETATM   17  C2  UNL     1      13.999   8.445  11.175  1.00  0.00    -0.005 C 
HETATM   18  C1  UNL     1      13.430   8.392   9.791  1.00  0.00     0.005 C 
ENDBRANCH  16  17
ENDBRANCH  15  16
ENDBRANCH  14  15
ENDBRANCH  13  14
ENDBRANCH   1  13
BRANCH   3  19
HETATM   19  C9  UNL     1      18.759   5.334  14.567  1.00  0.00     0.012 C 
HETATM   20  C10 UNL     1      19.834   5.390  13.614  1.00  0.00     0.128 C 
BRANCH  20  21
HETATM   21  O1  UNL     1      20.248   4.242  12.962  1.00  0.00    -0.373 OA
ATOM     22  H1  UNL     1      21.151   4.152  12.680  1.00  0.00     0.216 HD
ENDBRANCH  20  21
ENDBRANCH   3  19
BRANCH   5  23
HETATM   23  O2  UNL     1      14.397   5.831  13.630  1.00  0.00    -0.396 OA
ATOM     24  H2  UNL     1      13.990   6.688  13.664  1.00  0.00     0.210 HD
ENDBRANCH   5  23
TORSDOF 8
ENDMDL
MODEL 3
REMARK VINA RESULT: -6.706611880      1.760      3.909
REMARK  8 active torsions:
REMARK  status: ('A' for Active; 'I' for Inactive)
REMARK    1  A    between atoms: C2_2  and  C3_3 
REMARK    2  A    between atoms: C3_3  and  C4_4 
REMARK    3  A    between atoms: C4_4  and  C5_5 
REMARK    4  A    between atoms: C5_5  and  C6_6 
REMARK    5  A    between atoms: C6_6  and  N1_7 
REMARK    6  A    between atoms: C8_9  and  C9_10 
REMARK    7  A    between atoms: C10_11  and  O1_12 
REMARK    8  A    between atoms: C12_15  and  O2_16 
ROOT
HETATM    1  N1  UNL     1      16.170   4.973  13.611  1.00  0.00    -0.331 N 
HETATM    2  C7  UNL     1      15.997   3.687  13.069  1.00  0.00     0.081 C 
HETATM    3  C8  UNL     1      17.194   2.945  12.547  1.00  0.00     0.018 C 
HETATM    4  C11 UNL     1      16.936   2.761  11.050  1.00  0.00     0.051 C 
HETATM    5  C12 UNL     1      17.171   4.022  10.264  1.00  0.00     0.119 C 
HETATM    6  C13 UNL     1      18.540   4.606  10.506  1.00  0.00     0.036 C 
HETATM    7  C14 UNL     1      19.304   3.676  11.454  1.00  0.00    -0.010 C 
HETATM    8  C15 UNL     1      20.679   4.217  11.729  1.00  0.00     0.010 C 
HETATM    9  C16 UNL     1      18.530   3.545  12.777  1.00  0.00     0.015 C 
HETATM   10  C17 UNL     1      18.668   4.823  13.485  1.00  0.00     0.109 C 
HETATM   11  C18 UNL     1      17.431   5.584  13.691  1.00  0.00     0.223 C 
HETATM   12  O3  UNL     1      17.510   6.807  13.942  1.00  0.00    -0.273 OA
ENDROOT
BRANCH   1  13
HETATM   13  C6  UNL     1      15.028   5.689  14.107  1.00  0.00     0.131 C 
BRANCH  13  14
HETATM   14  C5  UNL     1      14.806   5.529  15.576  1.00  0.00     0.020 C 
BRANCH  14  15
HETATM   15  C4  UNL     1      14.643   4.085  15.991  1.00  0.00     0.002 C 
BRANCH  15  16
HETATM   16  C3  UNL     1      14.259   3.915  17.439  1.00  0.00    -0.000 C 
BRANCH  16  17
HETATM   17  C2  UNL     1      14.662   2.486  17.811  1.00  0.00    -0.005 C 
HETATM   18  C1  UNL     1      13.875   1.462  17.053  1.00  0.00     0.005 C 
ENDBRANCH  16  17
ENDBRANCH  15  16
ENDBRANCH  14  15
ENDBRANCH  13  14
ENDBRANCH   1  13
BRANCH   3  19
HETATM   19  C9  UNL     1      17.043   1.574  13.159  1.00  0.00     0.012 C 
HETATM   20  C10 UNL     1      16.732   1.372  14.549  1.00  0.00     0.128 C 
BRANCH  20  21
HETATM   21  O1  UNL     1      17.590   1.837  15.529  1.00  0.00    -0.373 OA
ATOM     22  H1  UNL     1      18.082   2.638  15.393  1.00  0.00     0.216 HD
ENDBRANCH  20  21
ENDBRANCH   3  19
BRANCH   5  23
HETATM   23  O2  UNL     1      16.139   4.946  10.339  1.00  0.00    -0.396 OA
ATOM     24  H2  UNL     1      16.345   5.725  10.842  1.00  0.00     0.210 HD
ENDBRANCH   5  23
TORSDOF 8
ENDMDL
MODEL 4
REMARK VINA RESULT: -6.689501561      2.698      4.143
REMARK  8 active torsions:
REMARK  status: ('A' for Active; 'I' for Inactive)
REMARK    1  A    between atoms: C2_2  and  C3_3 
REMARK    2  A    between atoms: C3_3  and  C4_4 
REMARK    3  A    between atoms: C4_4  and  C5_5 
REMARK    4  A    between atoms: C5_5  and  C6_6 
REMARK    5  A    between atoms: C6_6  and  N1_7 
REMARK    6  A    between atoms: C8_9  and  C9_10 
REMARK    7  A    between atoms: C10_11  and  O1_12 
REMARK    8  A    between atoms: C12_15  and  O2_16 
ROOT
HETATM    1  N1  UNL     1      16.775   3.811  12.056  1.00  0.00    -0.331 N 
HETATM    2  C7  UNL     1      16.861   4.236  13.394  1.00  0.00     0.081 C 
HETATM    3  C8  UNL     1      17.143   5.682  13.686  1.00  0.00     0.018 C 
HETATM    4  C11 UNL     1      18.490   5.694  14.413  1.00  0.00     0.051 C 
HETATM    5  C12 UNL     1      19.652   5.488  13.479  1.00  0.00     0.119 C 
HETATM    6  C13 UNL     1      19.650   6.467  12.331  1.00  0.00     0.036 C 
HETATM    7  C14 UNL     1      18.471   7.427  12.515  1.00  0.00    -0.010 C 
HETATM    8  C15 UNL     1      18.423   8.425  11.391  1.00  0.00     0.010 C 
HETATM    9  C16 UNL     1      17.158   6.625  12.544  1.00  0.00     0.015 C 
HETATM   10  C17 UNL     1      16.910   6.153  11.176  1.00  0.00     0.109 C 
HETATM   11  C18 UNL     1      16.933   4.700  10.981  1.00  0.00     0.223 C 
HETATM   12  O3  UNL     1      17.098   4.248   9.826  1.00  0.00    -0.273 OA
ENDROOT
BRANCH   1  13
HETATM   13  C6  UNL     1      16.511   2.429  11.771  1.00  0.00     0.131 C 
BRANCH  13  14
HETATM   14  C5  UNL     1      17.594   1.502  12.223  1.00  0.00     0.020 C 
BRANCH  14  15
HETATM   15  C4  UNL     1      18.484   1.045  11.091  1.00  0.00     0.002 C 
BRANCH  15  16
HETATM   16  C3  UNL     1      17.936  -0.136  10.332  1.00  0.00    -0.000 C 
BRANCH  16  17
HETATM   17  C2  UNL     1      17.435  -1.117  11.394  1.00  0.00    -0.005 C 
HETATM   18  C1  UNL     1      18.204  -2.402  11.382  1.00  0.00     0.005 C 
ENDBRANCH  16  17
ENDBRANCH  15  16
ENDBRANCH  14  15
ENDBRANCH  13  14
ENDBRANCH   1  13
BRANCH   3  19
HETATM   19  C9  UNL     1      16.112   6.029  14.733  1.00  0.00     0.012 C 
HETATM   20  C10 UNL     1      14.725   5.673  14.606  1.00  0.00     0.128 C 
BRANCH  20  21
HETATM   21  O1  UNL     1      13.976   6.158  13.548  1.00  0.00    -0.373 OA
ATOM     22  H1  UNL     1      13.107   5.813  13.380  1.00  0.00     0.216 HD
ENDBRANCH  20  21
ENDBRANCH   3  19
BRANCH   5  23
HETATM   23  O2  UNL     1      19.856   4.170  13.098  1.00  0.00    -0.396 OA
ATOM     24  H2  UNL     1      20.714   3.995  12.729  1.00  0.00     0.210 HD
ENDBRANCH   5  23
TORSDOF 8
ENDMDL
MODEL 5
REMARK VINA RESULT: -6.657824724      1.830      4.225
REMARK  8 active torsions:
REMARK  status: ('A' for Active; 'I' for Inactive)
REMARK    1  A    between atoms: C2_2  and  C3_3 
REMARK    2  A    between atoms: C3_3  and  C4_4 
REMARK    3  A    between atoms: C4_4  and  C5_5 
REMARK    4  A    between atoms: C5_5  and  C6_6 
REMARK    5  A    between atoms: C6_6  and  N1_7 
REMARK    6  A    between atoms: C8_9  and  C9_10 
REMARK    7  A    between atoms: C10_11  and  O1_12 
REMARK    8  A    between atoms: C12_15  and  O2_16 
ROOT
HETATM    1  N1  UNL     1      17.874   4.575  13.706  1.00  0.00    -0.331 N 
HETATM    2  C7  UNL     1      17.239   3.552  12.981  1.00  0.00     0.081 C 
HETATM    3  C8  UNL     1      17.909   2.998  11.756  1.00  0.00     0.018 C 
HETATM    4  C11 UNL     1      16.973   3.335  10.594  1.00  0.00     0.051 C 
HETATM    5  C12 UNL     1      17.058   4.781  10.185  1.00  0.00     0.119 C 
HETATM    6  C13 UNL     1      18.471   5.212   9.881  1.00  0.00     0.036 C 
HETATM    7  C14 UNL     1      19.392   3.997  10.029  1.00  0.00    -0.010 C 
HETATM    8  C15 UNL     1      20.817   4.377   9.738  1.00  0.00     0.010 C 
HETATM    9  C16 UNL     1      19.290   3.449  11.463  1.00  0.00     0.015 C 
HETATM   10  C17 UNL     1      19.968   4.410  12.341  1.00  0.00     0.109 C 
HETATM   11  C18 UNL     1      19.125   5.089  13.329  1.00  0.00     0.223 C 
HETATM   12  O3  UNL     1      19.535   6.154  13.842  1.00  0.00    -0.273 OA
ENDROOT
BRANCH   1  13
HETATM   13  C6  UNL     1      17.235   5.113  14.875  1.00  0.00     0.131 C 
BRANCH  13  14
HETATM   14  C5  UNL     1      15.828   5.558  14.642  1.00  0.00     0.020 C 
BRANCH  14  15
HETATM   15  C4  UNL     1      14.847   4.931  15.606  1.00  0.00     0.002 C 
BRANCH  15  16
HETATM   16  C3  UNL     1      15.032   3.444  15.771  1.00  0.00    -0.000 C 
BRANCH  16  17
HETATM   17  C2  UNL     1      14.340   3.082  17.087  1.00  0.00    -0.005 C 
HETATM   18  C1  UNL     1      13.801   1.685  17.074  1.00  0.00     0.005 C 
ENDBRANCH  16  17
ENDBRANCH  15  16
ENDBRANCH  14  15
ENDBRANCH  13  14
ENDBRANCH   1  13
BRANCH   3  19
HETATM   19  C9  UNL     1      17.798   1.505  11.949  1.00  0.00     0.012 C 
HETATM   20  C10 UNL     1      18.436   0.558  11.075  1.00  0.00     0.128 C 
BRANCH  20  21
HETATM   21  O1  UNL     1      18.111   0.521   9.731  1.00  0.00    -0.373 OA
ATOM     22  H1  UNL     1      18.108  -0.305   9.262  1.00  0.00     0.216 HD
ENDBRANCH  20  21
ENDBRANCH   3  19
BRANCH   5  23
HETATM   23  O2  UNL     1      16.365   5.653  11.011  1.00  0.00    -0.396 OA
ATOM     24  H2  UNL     1      15.736   6.205  10.561  1.00  0.00     0.210 HD
ENDBRANCH   5  23
TORSDOF 8
ENDMDL
