MODEL 1
REMARK VINA RESULT: -6.887874062      0.000      0.000
REMARK  9 active torsions:
REMARK  status: ('A' for Active; 'I' for Inactive)
REMARK    1  A    between atoms: C2_2  and  C3_3 
REMARK    2  A    between atoms: C3_3  and  C4_4 
REMARK    3  A    between atoms: C4_4  and  C5_5 
REMARK    4  A    between atoms: C5_5  and  C6_6 
REMARK    5  A    between atoms: C6_6  and  N1_7 
REMARK    6  A    between atoms: N2_12  and  N3_14 
REMARK    7  A    between atoms: N3_14  and  C11_16 
REMARK    8  A    between atoms: C11_16  and  N4_18 
REMARK    9  A    between atoms: N4_18  and  C12_20 
ROOT
HETATM    1  C1  UNL     1      19.133   7.337  14.360  1.00  0.00     0.065 C 
HETATM    2  C2  UNL     1      19.120   5.865  13.998  1.00  0.00    -0.000 C 
HETATM    3  N2  UNL     1      20.019   5.376  13.257  1.00  0.00    -0.307 N 
ATOM      4  H2  UNL     1      20.727   6.037  12.937  1.00  0.00     0.186 HD
ENDROOT
BRANCH   3   5
HETATM    5  N3  UNL     1      20.181   4.089  12.819  1.00  0.00    -0.277 N 
ATOM      6  H3  UNL     1      20.533   3.362  13.442  1.00  0.00     0.189 HD
BRANCH   5   7
HETATM    7  C11 UNL     1      19.838   3.794  11.444  1.00  0.00     0.186 C 
HETATM    8  S1  UNL     1      20.995   3.965  10.313  1.00  0.00    -0.040 SA
BRANCH   7   9
HETATM    9  N4  UNL     1      18.523   3.364  11.173  1.00  0.00    -0.361 N 
ATOM     10  H4  UNL     1      17.908   3.951  10.609  1.00  0.00     0.162 HD
BRANCH   9  11
HETATM   11  C12 UNL     1      18.044   2.117  11.679  1.00  0.00     0.083 C 
HETATM   12  C13 UNL     1      18.765   0.963  11.040  1.00  0.00     0.025 C 
HETATM   13  C14 UNL     1      17.758  -0.179  11.250  1.00  0.00     0.002 C 
HETATM   14  C15 UNL     1      16.475   0.470  10.830  1.00  0.00     0.002 C 
HETATM   15  C16 UNL     1      16.591   1.886  11.324  1.00  0.00     0.025 C 
ENDBRANCH   9  11
ENDBRANCH   7   9
ENDBRANCH   5   7
ENDBRANCH   3   5
BRANCH   2  16
HETATM   16  C3  UNL     1      18.029   5.005  14.533  1.00  0.00     0.053 C 
BRANCH  16  17
HETATM   17  C4  UNL     1      16.792   5.832  14.799  1.00  0.00     0.007 C 
BRANCH  17  18
HETATM   18  C5  UNL     1      15.577   4.956  14.974  1.00  0.00     0.030 C 
BRANCH  18  19
HETATM   19  C6  UNL     1      15.816   3.509  14.713  1.00  0.00     0.272 C 
BRANCH  19  20
HETATM   20  N1  UNL     1      15.175   2.630  15.635  1.00  0.00     0.088 N 
HETATM   21  C7  UNL     1      15.990   1.600  16.193  1.00  0.00     0.272 C 
HETATM   22  C8  UNL     1      15.290   1.154  17.458  1.00  0.00     0.032 C 
HETATM   23  C9  UNL     1      14.194   2.167  17.705  1.00  0.00     0.032 C 
HETATM   24  C10 UNL     1      14.467   3.266  16.693  1.00  0.00     0.272 C 
ENDBRANCH  19  20
ENDBRANCH  18  19
ENDBRANCH  17  18
ENDBRANCH  16  17
ENDBRANCH   2  16
TORSDOF 9
ENDMDL
MODEL 2
REMARK VINA RESULT: -6.821862159      0.677      1.059
REMARK  9 active torsions:
REMARK  status: ('A' for Active; 'I' for Inactive)
REMARK    1  A    between atoms: C2_2  and  C3_3 
REMARK    2  A    between atoms: C3_3  and  C4_4 
REMARK    3  A    between atoms: C4_4  and  C5_5 
REMARK    4  A    between atoms: C5_5  and  C6_6 
REMARK    5  A    between atoms: C6_6  and  N1_7 
REMARK    6  A    between atoms: N2_12  and  N3_14 
REMARK    7  A    between atoms: N3_14  and  C11_16 
REMARK    8  A    between atoms: C11_16  and  N4_18 
REMARK    9  A    between atoms: N4_18  and  C12_20 
ROOT
HETATM    1  C1  UNL     1      18.689   7.613  14.377  1.00  0.00     0.065 C 
HETATM    2  C2  UNL     1      18.775   6.112  14.173  1.00  0.00    -0.000 C 
HETATM    3  N2  UNL     1      19.762   5.601  13.572  1.00  0.00    -0.307 N 
ATOM      4  H2  UNL     1      20.467   6.263  13.249  1.00  0.00     0.186 HD
ENDROOT
BRANCH   3   5
HETATM    5  N3  UNL     1      20.023   4.286  13.290  1.00  0.00    -0.277 N 
ATOM      6  H3  UNL     1      20.269   3.628  14.029  1.00  0.00     0.189 HD
BRANCH   5   7
HETATM    7  C11 UNL     1      19.936   3.861  11.909  1.00  0.00     0.186 C 
HETATM    8  S1  UNL     1      20.071   4.994  10.750  1.00  0.00    -0.040 SA
BRANCH   7   9
HETATM    9  N4  UNL     1      19.752   2.487  11.655  1.00  0.00    -0.361 N 
ATOM     10  H4  UNL     1      20.480   1.823  11.920  1.00  0.00     0.162 HD
BRANCH   9  11
HETATM   11  C12 UNL     1      18.557   2.014  11.030  1.00  0.00     0.083 C 
HETATM   12  C13 UNL     1      17.338   2.481  11.776  1.00  0.00     0.025 C 
HETATM   13  C14 UNL     1      16.295   1.443  11.335  1.00  0.00     0.002 C 
HETATM   14  C15 UNL     1      17.057   0.163  11.496  1.00  0.00     0.002 C 
HETATM   15  C16 UNL     1      18.459   0.505  11.071  1.00  0.00     0.025 C 
ENDBRANCH   9  11
ENDBRANCH   7   9
ENDBRANCH   5   7
ENDBRANCH   3   5
BRANCH   2  16
HETATM   16  C3  UNL     1      17.678   5.253  14.695  1.00  0.00     0.053 C 
BRANCH  16  17
HETATM   17  C4  UNL     1      16.397   6.049  14.805  1.00  0.00     0.007 C 
BRANCH  17  18
HETATM   18  C5  UNL     1      15.220   5.151  15.096  1.00  0.00     0.030 C 
BRANCH  18  19
HETATM   19  C6  UNL     1      15.418   3.727  14.704  1.00  0.00     0.272 C 
BRANCH  19  20
HETATM   20  N1  UNL     1      14.951   2.780  15.662  1.00  0.00     0.088 N 
HETATM   21  C7  UNL     1      15.872   1.759  16.039  1.00  0.00     0.272 C 
HETATM   22  C8  UNL     1      15.383   1.226  17.368  1.00  0.00     0.032 C 
HETATM   23  C9  UNL     1      14.304   2.182  17.827  1.00  0.00     0.032 C 
HETATM   24  C10 UNL     1      14.388   3.338  16.845  1.00  0.00     0.272 C 
ENDBRANCH  19  20
ENDBRANCH  18  19
ENDBRANCH  17  18
ENDBRANCH  16  17
ENDBRANCH   2  16
TORSDOF 9
ENDMDL
MODEL 3
REMARK VINA RESULT: -6.580877476      1.275      1.966
REMARK  9 active torsions:
REMARK  status: ('A' for Active; 'I' for Inactive)
REMARK    1  A    between atoms: C2_2  and  C3_3 
REMARK    2  A    between atoms: C3_3  and  C4_4 
REMARK    3  A    between atoms: C4_4  and  C5_5 
REMARK    4  A    between atoms: C5_5  and  C6_6 
REMARK    5  A    between atoms: C6_6  and  N1_7 
REMARK    6  A    between atoms: N2_12  and  N3_14 
REMARK    7  A    between atoms: N3_14  and  C11_16 
REMARK    8  A    between atoms: C11_16  and  N4_18 
REMARK    9  A    between atoms: N4_18  and  C12_20 
ROOT
HETATM    1  C1  UNL     1      15.755   7.203  11.779  1.00  0.00     0.065 C 
HETATM    2  C2  UNL     1      16.740   6.438  12.642  1.00  0.00    -0.000 C 
HETATM    3  N2  UNL     1      17.844   6.048  12.166  1.00  0.00    -0.307 N 
ATOM      4  H2  UNL     1      18.005   6.285  11.187  1.00  0.00     0.186 HD
ENDROOT
BRANCH   3   5
HETATM    5  N3  UNL     1      18.856   5.352  12.773  1.00  0.00    -0.277 N 
ATOM      6  H3  UNL     1      19.280   5.687  13.637  1.00  0.00     0.189 HD
BRANCH   5   7
HETATM    7  C11 UNL     1      19.303   4.125  12.147  1.00  0.00     0.186 C 
HETATM    8  S1  UNL     1      20.635   4.184  11.215  1.00  0.00    -0.040 SA
BRANCH   7   9
HETATM    9  N4  UNL     1      18.560   2.953  12.394  1.00  0.00    -0.361 N 
ATOM     10  H4  UNL     1      18.445   2.621  13.351  1.00  0.00     0.162 HD
BRANCH   9  11
HETATM   11  C12 UNL     1      17.968   2.224  11.317  1.00  0.00     0.083 C 
HETATM   12  C13 UNL     1      16.603   1.718  11.696  1.00  0.00     0.025 C 
HETATM   13  C14 UNL     1      16.429   0.549  10.713  1.00  0.00     0.002 C 
HETATM   14  C15 UNL     1      17.751  -0.145  10.833  1.00  0.00     0.002 C 
HETATM   15  C16 UNL     1      18.748   0.971  10.988  1.00  0.00     0.025 C 
ENDBRANCH   9  11
ENDBRANCH   7   9
ENDBRANCH   5   7
ENDBRANCH   3   5
BRANCH   2  16
HETATM   16  C3  UNL     1      16.385   6.157  14.060  1.00  0.00     0.053 C 
BRANCH  16  17
HETATM   17  C4  UNL     1      14.975   5.621  14.150  1.00  0.00     0.007 C 
BRANCH  17  18
HETATM   18  C5  UNL     1      14.968   4.115  14.245  1.00  0.00     0.030 C 
BRANCH  18  19
HETATM   19  C6  UNL     1      16.073   3.544  15.066  1.00  0.00     0.272 C 
BRANCH  19  20
HETATM   20  N1  UNL     1      15.642   2.860  16.240  1.00  0.00     0.088 N 
HETATM   21  C7  UNL     1      14.245   2.916  16.524  1.00  0.00     0.272 C 
HETATM   22  C8  UNL     1      13.963   1.756  17.454  1.00  0.00     0.032 C 
HETATM   23  C9  UNL     1      15.216   0.909  17.454  1.00  0.00     0.032 C 
HETATM   24  C10 UNL     1      16.070   1.507  16.350  1.00  0.00     0.272 C 
ENDBRANCH  19  20
ENDBRANCH  18  19
ENDBRANCH  17  18
ENDBRANCH  16  17
ENDBRANCH   2  16
TORSDOF 9
ENDMDL
MODEL 4
REMARK VINA RESULT: -6.536376145      1.166      4.105
REMARK  9 active torsions:
REMARK  status: ('A' for Active; 'I' for Inactive)
REMARK    1  A    between atoms: C2_2  and  C3_3 
REMARK    2  A    between atoms: C3_3  and  C4_4 
REMARK    3  A    between atoms: C4_4  and  C5_5 
REMARK    4  A    between atoms: C5_5  and  C6_6 
REMARK    5  A    between atoms: C6_6  and  N1_7 
REMARK    6  A    between atoms: N2_12  and  N3_14 
REMARK    7  A    between atoms: N3_14  and  C11_16 
REMARK    8  A    between atoms: C11_16  and  N4_18 
REMARK    9  A    between atoms: N4_18  and  C12_20 
ROOT
HETATM    1  C1  UNL     1      16.445   0.648  10.586  1.00  0.00     0.065 C 
HETATM    2  C2  UNL     1      17.478   1.328  11.464  1.00  0.00    -0.000 C 
HETATM    3  N2  UNL     1      18.676   1.442  11.078  1.00  0.00    -0.307 N 
ATOM      4  H2  UNL     1      18.876   1.051  10.157  1.00  0.00     0.186 HD
ENDROOT
BRANCH   3   5
HETATM    5  N3  UNL     1      19.745   2.014  11.715  1.00  0.00    -0.277 N 
ATOM      6  H3  UNL     1      20.266   1.506  12.428  1.00  0.00     0.189 HD
BRANCH   5   7
HETATM    7  C11 UNL     1      20.110   3.365  11.341  1.00  0.00     0.186 C 
HETATM    8  S1  UNL     1      20.341   3.685   9.763  1.00  0.00    -0.040 SA
BRANCH   7   9
HETATM    9  N4  UNL     1      20.233   4.321  12.370  1.00  0.00    -0.361 N 
ATOM     10  H4  UNL     1      21.160   4.617  12.675  1.00  0.00     0.162 HD
BRANCH   9  11
HETATM   11  C12 UNL     1      19.072   4.878  12.989  1.00  0.00     0.083 C 
HETATM   12  C13 UNL     1      18.460   5.945  12.124  1.00  0.00     0.025 C 
HETATM   13  C14 UNL     1      17.670   6.760  13.160  1.00  0.00     0.002 C 
HETATM   14  C15 UNL     1      18.678   6.911  14.257  1.00  0.00     0.002 C 
HETATM   15  C16 UNL     1      19.411   5.598  14.276  1.00  0.00     0.025 C 
ENDBRANCH   9  11
ENDBRANCH   7   9
ENDBRANCH   5   7
ENDBRANCH   3   5
BRANCH   2  16
HETATM   16  C3  UNL     1      17.056   1.859  12.789  1.00  0.00     0.053 C 
BRANCH  16  17
HETATM   17  C4  UNL     1      16.110   3.024  12.609  1.00  0.00     0.007 C 
BRANCH  17  18
HETATM   18  C5  UNL     1      15.746   3.643  13.936  1.00  0.00     0.030 C 
BRANCH  18  19
HETATM   19  C6  UNL     1      16.627   3.238  15.068  1.00  0.00     0.272 C 
BRANCH  19  20
HETATM   20  N1  UNL     1      15.932   2.728  16.203  1.00  0.00     0.088 N 
HETATM   21  C7  UNL     1      14.553   3.079  16.306  1.00  0.00     0.272 C 
HETATM   22  C8  UNL     1      13.932   2.058  17.234  1.00  0.00     0.032 C 
HETATM   23  C9  UNL     1      14.975   0.979  17.423  1.00  0.00     0.032 C 
HETATM   24  C10 UNL     1      16.056   1.325  16.415  1.00  0.00     0.272 C 
ENDBRANCH  19  20
ENDBRANCH  18  19
ENDBRANCH  17  18
ENDBRANCH  16  17
ENDBRANCH   2  16
TORSDOF 9
ENDMDL
MODEL 5
REMARK VINA RESULT: -6.305696266      1.331      4.212
REMARK  9 active torsions:
REMARK  status: ('A' for Active; 'I' for Inactive)
REMARK    1  A    between atoms: C2_2  and  C3_3 
REMARK    2  A    between atoms: C3_3  and  C4_4 
REMARK    3  A    between atoms: C4_4  and  C5_5 
REMARK    4  A    between atoms: C5_5  and  C6_6 
REMARK    5  A    between atoms: C6_6  and  N1_7 
REMARK    6  A    between atoms: N2_12  and  N3_14 
REMARK    7  A    between atoms: N3_14  and  C11_16 
REMARK    8  A    between atoms: C11_16  and  N4_18 
REMARK    9  A    between atoms: N4_18  and  C12_20 
ROOT
HETATM    1  C1  UNL     1      18.016  -0.222  10.209  1.00  0.00     0.065 C 
HETATM    2  C2  UNL     1      18.197   1.022  11.058  1.00  0.00    -0.000 C 
HETATM    3  N2  UNL     1      19.320   1.596  11.126  1.00  0.00    -0.307 N 
ATOM      4  H2  UNL     1      20.065   1.163  10.580  1.00  0.00     0.186 HD
ENDROOT
BRANCH   3   5
HETATM    5  N3  UNL     1      19.684   2.715  11.827  1.00  0.00    -0.277 N 
ATOM      6  H3  UNL     1      19.962   2.656  12.806  1.00  0.00     0.189 HD
BRANCH   5   7
HETATM    7  C11 UNL     1      19.663   3.985  11.131  1.00  0.00     0.186 C 
HETATM    8  S1  UNL     1      20.295   4.047   9.634  1.00  0.00    -0.040 SA
BRANCH   7   9
HETATM    9  N4  UNL     1      19.085   5.086  11.793  1.00  0.00    -0.361 N 
ATOM     10  H4  UNL     1      19.443   6.025  11.618  1.00  0.00     0.162 HD
BRANCH   9  11
HETATM   11  C12 UNL     1      18.002   4.902  12.708  1.00  0.00     0.083 C 
HETATM   12  C13 UNL     1      16.853   5.811  12.372  1.00  0.00     0.025 C 
HETATM   13  C14 UNL     1      16.119   5.885  13.720  1.00  0.00     0.002 C 
HETATM   14  C15 UNL     1      17.255   6.124  14.668  1.00  0.00     0.002 C 
HETATM   15  C16 UNL     1      18.383   5.295  14.118  1.00  0.00     0.025 C 
ENDBRANCH   9  11
ENDBRANCH   7   9
ENDBRANCH   5   7
ENDBRANCH   3   5
BRANCH   2  16
HETATM   16  C3  UNL     1      17.027   1.555  11.807  1.00  0.00     0.053 C 
BRANCH  16  17
HETATM   17  C4  UNL     1      16.887   0.847  13.135  1.00  0.00     0.007 C 
BRANCH  17  18
HETATM   18  C5  UNL     1      16.886   1.830  14.280  1.00  0.00     0.030 C 
BRANCH  18  19
HETATM   19  C6  UNL     1      16.806   1.204  15.630  1.00  0.00     0.272 C 
BRANCH  19  20
HETATM   20  N1  UNL     1      16.074   1.964  16.589  1.00  0.00     0.088 N 
HETATM   21  C7  UNL     1      15.314   3.057  16.078  1.00  0.00     0.272 C 
HETATM   22  C8  UNL     1      14.271   3.366  17.130  1.00  0.00     0.032 C 
HETATM   23  C9  UNL     1      14.326   2.223  18.119  1.00  0.00     0.032 C 
HETATM   24  C10 UNL     1      15.243   1.206  17.461  1.00  0.00     0.272 C 
ENDBRANCH  19  20
ENDBRANCH  18  19
ENDBRANCH  17  18
ENDBRANCH  16  17
ENDBRANCH   2  16
TORSDOF 9
ENDMDL
