MODEL 1
REMARK VINA RESULT: -6.554238856      0.000      0.000
REMARK  2 active torsions:
REMARK  status: ('A' for Active; 'I' for Inactive)
REMARK    1  A    between atoms: C5_7  and  N1_8 
REMARK    2  A    between atoms: N1_8  and  C6_11 
ROOT
HETATM    1  N1  UNL     1      17.842   3.162  13.471  1.00  0.00    -0.060 N 
ATOM      2  H11 UNL     1      18.721   3.602  13.741  1.00  0.00     0.278 HD
ATOM      3  H12 UNL     1      17.877   2.388  14.134  1.00  0.00     0.278 HD
ENDROOT
BRANCH   1   4
HETATM    4  C5  UNL     1      17.819   2.724  12.075  1.00  0.00     0.258 C 
HETATM    5  C1  UNL     1      17.029   1.462  11.881  1.00  0.00     0.271 C 
HETATM    6  F1  UNL     1      15.750   1.718  11.404  1.00  0.00    -0.204 F 
HETATM    7  F2  UNL     1      16.941   0.705  13.022  1.00  0.00    -0.204 F 
HETATM    8  C2  UNL     1      17.810   0.753  10.780  1.00  0.00     0.081 C 
HETATM    9  C3  UNL     1      19.238   0.991  11.202  1.00  0.00     0.008 C 
HETATM   10  C4  UNL     1      19.211   2.468  11.551  1.00  0.00     0.039 C 
ENDBRANCH   1   4
BRANCH   1  11
HETATM   11  C6  UNL     1      16.704   4.012  13.657  1.00  0.00     0.191 C 
HETATM   12  C7  UNL     1      16.659   5.161  12.649  1.00  0.00     0.038 C 
HETATM   13  C8  UNL     1      16.151   6.269  13.531  1.00  0.00    -0.012 C 
HETATM   14  C9  UNL     1      14.828   5.852  14.108  1.00  0.00     0.005 C 
HETATM   15  C12 UNL     1      17.067   6.061  14.737  1.00  0.00     0.011 C 
HETATM   16  C10 UNL     1      15.132   4.906  15.269  1.00  0.00     0.007 C 
HETATM   17  C11 UNL     1      16.603   4.632  15.016  1.00  0.00     0.017 C 
ENDBRANCH   1  11
TORSDOF 2
ENDMDL
MODEL 2
REMARK VINA RESULT: -6.495854950      3.010      4.307
REMARK  2 active torsions:
REMARK  status: ('A' for Active; 'I' for Inactive)
REMARK    1  A    between atoms: C5_7  and  N1_8 
REMARK    2  A    between atoms: N1_8  and  C6_11 
ROOT
HETATM    1  N1  UNL     1      15.511   3.081  14.494  1.00  0.00    -0.060 N 
ATOM      2  H11 UNL     1      14.539   2.984  14.202  1.00  0.00     0.278 HD
ATOM      3  H12 UNL     1      15.881   2.284  13.977  1.00  0.00     0.278 HD
ENDROOT
BRANCH   1   4
HETATM    4  C5  UNL     1      15.694   2.965  15.941  1.00  0.00     0.258 C 
HETATM    5  C1  UNL     1      16.404   1.701  16.332  1.00  0.00     0.271 C 
HETATM    6  F1  UNL     1      17.752   1.918  16.582  1.00  0.00    -0.204 F 
HETATM    7  F2  UNL     1      16.275   0.704  15.397  1.00  0.00    -0.204 F 
HETATM    8  C2  UNL     1      15.731   1.341  17.651  1.00  0.00     0.081 C 
HETATM    9  C3  UNL     1      14.281   1.630  17.356  1.00  0.00     0.008 C 
HETATM   10  C4  UNL     1      14.372   2.981  16.670  1.00  0.00     0.039 C 
ENDBRANCH   1   4
BRANCH   1  11
HETATM   11  C6  UNL     1      16.097   4.328  14.102  1.00  0.00     0.191 C 
HETATM   12  C7  UNL     1      17.216   4.773  15.044  1.00  0.00     0.038 C 
HETATM   13  C8  UNL     1      16.959   6.255  15.082  1.00  0.00    -0.012 C 
HETATM   14  C9  UNL     1      17.033   6.788  13.679  1.00  0.00     0.005 C 
HETATM   15  C12 UNL     1      15.446   6.236  15.300  1.00  0.00     0.011 C 
HETATM   16  C10 UNL     1      15.702   6.453  13.009  1.00  0.00     0.007 C 
HETATM   17  C11 UNL     1      15.133   5.471  14.016  1.00  0.00     0.017 C 
ENDBRANCH   1  11
TORSDOF 2
ENDMDL
MODEL 3
REMARK VINA RESULT: -6.402937892      3.331      5.016
REMARK  2 active torsions:
REMARK  status: ('A' for Active; 'I' for Inactive)
REMARK    1  A    between atoms: C5_7  and  N1_8 
REMARK    2  A    between atoms: N1_8  and  C6_11 
ROOT
HETATM    1  N1  UNL     1      15.848   3.050  14.936  1.00  0.00    -0.060 N 
ATOM      2  H11 UNL     1      16.321   2.331  14.389  1.00  0.00     0.278 HD
ATOM      3  H12 UNL     1      14.953   3.014  14.449  1.00  0.00     0.278 HD
ENDROOT
BRANCH   1   4
HETATM    4  C5  UNL     1      16.497   4.359  14.855  1.00  0.00     0.258 C 
HETATM    5  C1  UNL     1      15.518   5.473  14.618  1.00  0.00     0.271 C 
HETATM    6  F1  UNL     1      15.205   6.146  15.790  1.00  0.00    -0.204 F 
HETATM    7  F2  UNL     1      14.359   5.048  14.019  1.00  0.00    -0.204 F 
HETATM    8  C2  UNL     1      16.312   6.421  13.726  1.00  0.00     0.081 C 
HETATM    9  C3  UNL     1      16.997   5.467  12.781  1.00  0.00     0.008 C 
HETATM   10  C4  UNL     1      17.511   4.406  13.737  1.00  0.00     0.039 C 
ENDBRANCH   1   4
BRANCH   1  11
HETATM   11  C6  UNL     1      15.746   2.725  16.327  1.00  0.00     0.191 C 
HETATM   12  C7  UNL     1      16.086   1.262  16.615  1.00  0.00     0.038 C 
HETATM   13  C8  UNL     1      15.068   0.955  17.679  1.00  0.00    -0.012 C 
HETATM   14  C9  UNL     1      15.268   1.911  18.821  1.00  0.00     0.005 C 
HETATM   15  C12 UNL     1      13.830   1.560  17.014  1.00  0.00     0.011 C 
HETATM   16  C10 UNL     1      14.618   3.231  18.410  1.00  0.00     0.007 C 
HETATM   17  C11 UNL     1      14.399   2.976  16.931  1.00  0.00     0.017 C 
ENDBRANCH   1  11
TORSDOF 2
ENDMDL
MODEL 4
REMARK VINA RESULT: -6.354201289      2.207      5.176
REMARK  2 active torsions:
REMARK  status: ('A' for Active; 'I' for Inactive)
REMARK    1  A    between atoms: C5_7  and  N1_8 
REMARK    2  A    between atoms: N1_8  and  C6_11 
ROOT
HETATM    1  N1  UNL     1      17.574   2.637  13.341  1.00  0.00    -0.060 N 
ATOM      2  H11 UNL     1      18.368   3.015  13.857  1.00  0.00     0.278 HD
ATOM      3  H12 UNL     1      17.421   3.441  12.733  1.00  0.00     0.278 HD
ENDROOT
BRANCH   1   4
HETATM    4  C5  UNL     1      16.424   2.332  14.194  1.00  0.00     0.258 C 
HETATM    5  C1  UNL     1      15.808   3.564  14.791  1.00  0.00     0.271 C 
HETATM    6  F1  UNL     1      14.677   3.968  14.095  1.00  0.00    -0.204 F 
HETATM    7  F2  UNL     1      16.686   4.615  14.873  1.00  0.00    -0.204 F 
HETATM    8  C2  UNL     1      15.367   3.075  16.166  1.00  0.00     0.081 C 
HETATM    9  C3  UNL     1      16.540   2.230  16.593  1.00  0.00     0.008 C 
HETATM   10  C4  UNL     1      16.807   1.421  15.336  1.00  0.00     0.039 C 
ENDBRANCH   1   4
BRANCH   1  11
HETATM   11  C6  UNL     1      17.886   1.437  12.623  1.00  0.00     0.191 C 
HETATM   12  C7  UNL     1      18.904   1.669  11.507  1.00  0.00     0.038 C 
HETATM   13  C8  UNL     1      18.351   0.756  10.447  1.00  0.00    -0.012 C 
HETATM   14  C9  UNL     1      18.294  -0.639  11.001  1.00  0.00     0.005 C 
HETATM   15  C12 UNL     1      16.877   1.155  10.525  1.00  0.00     0.011 C 
HETATM   16  C10 UNL     1      17.050  -0.712  11.884  1.00  0.00     0.007 C 
HETATM   17  C11 UNL     1      16.708   0.762  11.992  1.00  0.00     0.017 C 
ENDBRANCH   1  11
TORSDOF 2
ENDMDL
MODEL 5
REMARK VINA RESULT: -6.339356289      2.789      4.461
REMARK  2 active torsions:
REMARK  status: ('A' for Active; 'I' for Inactive)
REMARK    1  A    between atoms: C5_7  and  N1_8 
REMARK    2  A    between atoms: N1_8  and  C6_11 
ROOT
HETATM    1  N1  UNL     1      15.168   3.627  15.004  1.00  0.00    -0.060 N 
ATOM      2  H11 UNL     1      14.181   3.789  14.807  1.00  0.00     0.278 HD
ATOM      3  H12 UNL     1      15.324   2.907  14.299  1.00  0.00     0.278 HD
ENDROOT
BRANCH   1   4
HETATM    4  C5  UNL     1      15.415   3.159  16.369  1.00  0.00     0.258 C 
HETATM    5  C1  UNL     1      16.209   1.886  16.406  1.00  0.00     0.271 C 
HETATM    6  F1  UNL     1      17.552   2.119  16.670  1.00  0.00    -0.204 F 
HETATM    7  F2  UNL     1      16.099   1.152  15.251  1.00  0.00    -0.204 F 
HETATM    8  C2  UNL     1      15.610   1.161  17.606  1.00  0.00     0.081 C 
HETATM    9  C3  UNL     1      14.136   1.422  17.429  1.00  0.00     0.008 C 
HETATM   10  C4  UNL     1      14.124   2.906  17.110  1.00  0.00     0.039 C 
ENDBRANCH   1   4
BRANCH   1  11
HETATM   11  C6  UNL     1      15.981   4.790  14.813  1.00  0.00     0.191 C 
HETATM   12  C7  UNL     1      15.246   5.903  14.065  1.00  0.00     0.038 C 
HETATM   13  C8  UNL     1      16.363   6.428  13.204  1.00  0.00    -0.012 C 
HETATM   14  C9  UNL     1      17.486   6.871  14.098  1.00  0.00     0.005 C 
HETATM   15  C12 UNL     1      16.917   5.101  12.685  1.00  0.00     0.011 C 
HETATM   16  C10 UNL     1      18.241   5.610  14.516  1.00  0.00     0.007 C 
HETATM   17  C11 UNL     1      17.256   4.546  14.068  1.00  0.00     0.017 C 
ENDBRANCH   1  11
TORSDOF 2
ENDMDL
