MODEL 1
REMARK VINA RESULT: -6.959195488      0.000      0.000
REMARK  3 active torsions:
REMARK  status: ('A' for Active; 'I' for Inactive)
REMARK    1  A    between atoms: C3_3  and  O1_6 
REMARK    2  A    between atoms: O1_6  and  C6_7 
REMARK    3  A    between atoms: C6_7  and  C7_8 
ROOT
HETATM    1  C1  UNL     1      19.657   1.845  11.039  1.00  0.00     0.015 C 
HETATM    2  C2  UNL     1      18.629   1.542  11.587  1.00  0.00    -0.080 C 
HETATM    3  C3  UNL     1      17.357   1.161  12.239  1.00  0.00     0.115 C 
HETATM    4  C4  UNL     1      17.122  -0.299  11.972  1.00  0.00     0.060 C 
HETATM    5  C5  UNL     1      16.275   1.965  11.551  1.00  0.00     0.060 C 
ENDROOT
BRANCH   3   6
HETATM    6  O1  UNL     1      17.368   1.491  13.571  1.00  0.00    -0.368 OA
BRANCH   6   7
HETATM    7  C6  UNL     1      16.578   2.601  13.773  1.00  0.00     0.174 C 
BRANCH   7   8
HETATM    8  C7  UNL     1      16.391   2.933  15.243  1.00  0.00     0.010 C 
HETATM    9  C8  UNL     1      15.090   3.604  15.507  1.00  0.00     0.013 C 
HETATM   10  C9  UNL     1      14.717   3.584  16.952  1.00  0.00     0.079 C 
HETATM   11  C10 UNL     1      14.602   2.110  17.351  1.00  0.00     0.243 C 
HETATM   12  F1  UNL     1      13.932   1.484  16.312  1.00  0.00    -0.206 F 
HETATM   13  F2  UNL     1      14.004   1.944  18.560  1.00  0.00    -0.206 F 
HETATM   14  C11 UNL     1      16.029   1.592  17.343  1.00  0.00     0.079 C 
HETATM   15  C12 UNL     1      16.642   1.687  16.004  1.00  0.00     0.013 C 
ENDBRANCH   7   8
ENDBRANCH   6   7
ENDBRANCH   3   6
TORSDOF 3
ENDMDL
MODEL 2
REMARK VINA RESULT: -6.756681368      0.401      1.382
REMARK  3 active torsions:
REMARK  status: ('A' for Active; 'I' for Inactive)
REMARK    1  A    between atoms: C3_3  and  O1_6 
REMARK    2  A    between atoms: O1_6  and  C6_7 
REMARK    3  A    between atoms: C6_7  and  C7_8 
ROOT
HETATM    1  C1  UNL     1      17.759  -1.152  11.503  1.00  0.00     0.015 C 
HETATM    2  C2  UNL     1      17.638   0.015  11.772  1.00  0.00    -0.080 C 
HETATM    3  C3  UNL     1      17.490   1.455  12.077  1.00  0.00     0.115 C 
HETATM    4  C4  UNL     1      16.289   1.963  11.330  1.00  0.00     0.060 C 
HETATM    5  C5  UNL     1      18.728   2.131  11.531  1.00  0.00     0.060 C 
ENDROOT
BRANCH   3   6
HETATM    6  O1  UNL     1      17.436   1.667  13.432  1.00  0.00    -0.368 OA
BRANCH   6   7
HETATM    7  C6  UNL     1      16.526   2.666  13.702  1.00  0.00     0.174 C 
BRANCH   7   8
HETATM    8  C7  UNL     1      16.390   2.956  15.186  1.00  0.00     0.010 C 
HETATM    9  C8  UNL     1      15.110   3.639  15.510  1.00  0.00     0.013 C 
HETATM   10  C9  UNL     1      14.781   3.581  16.965  1.00  0.00     0.079 C 
HETATM   11  C10 UNL     1      14.654   2.098  17.324  1.00  0.00     0.243 C 
HETATM   12  F1  UNL     1      13.942   1.514  16.288  1.00  0.00    -0.206 F 
HETATM   13  F2  UNL     1      14.092   1.905  18.545  1.00  0.00    -0.206 F 
HETATM   14  C11 UNL     1      16.072   1.558  17.255  1.00  0.00     0.079 C 
HETATM   15  C12 UNL     1      16.644   1.684  15.901  1.00  0.00     0.013 C 
ENDBRANCH   7   8
ENDBRANCH   6   7
ENDBRANCH   3   6
TORSDOF 3
ENDMDL
MODEL 3
REMARK VINA RESULT: -6.702704690      2.629      5.481
REMARK  3 active torsions:
REMARK  status: ('A' for Active; 'I' for Inactive)
REMARK    1  A    between atoms: C3_3  and  O1_6 
REMARK    2  A    between atoms: O1_6  and  C6_7 
REMARK    3  A    between atoms: C6_7  and  C7_8 
ROOT
HETATM    1  C1  UNL     1      16.899   1.241  15.834  1.00  0.00     0.015 C 
HETATM    2  C2  UNL     1      16.661   2.284  15.281  1.00  0.00    -0.080 C 
HETATM    3  C3  UNL     1      16.376   3.578  14.624  1.00  0.00     0.115 C 
HETATM    4  C4  UNL     1      17.598   4.442  14.756  1.00  0.00     0.060 C 
HETATM    5  C5  UNL     1      15.245   4.207  15.407  1.00  0.00     0.060 C 
ENDROOT
BRANCH   3   6
HETATM    6  O1  UNL     1      15.962   3.391  13.328  1.00  0.00    -0.368 OA
BRANCH   6   7
HETATM    7  C6  UNL     1      16.935   3.848  12.467  1.00  0.00     0.174 C 
BRANCH   7   8
HETATM    8  C7  UNL     1      17.370   2.800  11.459  1.00  0.00     0.010 C 
HETATM    9  C8  UNL     1      18.636   2.128  11.857  1.00  0.00     0.013 C 
HETATM   10  C9  UNL     1      18.870   0.857  11.110  1.00  0.00     0.079 C 
HETATM   11  C10 UNL     1      17.695  -0.067  11.444  1.00  0.00     0.243 C 
HETATM   12  F1  UNL     1      17.478   0.068  12.806  1.00  0.00    -0.206 F 
HETATM   13  F2  UNL     1      17.915  -1.349  11.054  1.00  0.00    -0.206 F 
HETATM   14  C11 UNL     1      16.502   0.550  10.735  1.00  0.00     0.079 C 
HETATM   15  C12 UNL     1      16.209   1.910  11.230  1.00  0.00     0.013 C 
ENDBRANCH   7   8
ENDBRANCH   6   7
ENDBRANCH   3   6
TORSDOF 3
ENDMDL
MODEL 4
REMARK VINA RESULT: -6.552050059      3.288      5.695
REMARK  3 active torsions:
REMARK  status: ('A' for Active; 'I' for Inactive)
REMARK    1  A    between atoms: C3_3  and  O1_6 
REMARK    2  A    between atoms: O1_6  and  C6_7 
REMARK    3  A    between atoms: C6_7  and  C7_8 
ROOT
HETATM    1  C1  UNL     1      15.055   2.623  16.418  1.00  0.00     0.015 C 
HETATM    2  C2  UNL     1      15.423   3.476  15.652  1.00  0.00    -0.080 C 
HETATM    3  C3  UNL     1      15.886   4.536  14.731  1.00  0.00     0.115 C 
HETATM    4  C4  UNL     1      17.356   4.739  14.962  1.00  0.00     0.060 C 
HETATM    5  C5  UNL     1      15.149   5.794  15.134  1.00  0.00     0.060 C 
ENDROOT
BRANCH   3   6
HETATM    6  O1  UNL     1      15.561   4.235  13.431  1.00  0.00    -0.368 OA
BRANCH   6   7
HETATM    7  C6  UNL     1      16.633   3.620  12.824  1.00  0.00     0.174 C 
BRANCH   7   8
HETATM    8  C7  UNL     1      16.309   2.221  12.330  1.00  0.00     0.010 C 
HETATM    9  C8  UNL     1      16.642   2.041  10.892  1.00  0.00     0.013 C 
HETATM   10  C9  UNL     1      16.703   0.604  10.493  1.00  0.00     0.079 C 
HETATM   11  C10 UNL     1      17.807  -0.036  11.340  1.00  0.00     0.243 C 
HETATM   12  F1  UNL     1      18.857   0.869  11.346  1.00  0.00    -0.206 F 
HETATM   13  F2  UNL     1      18.157  -1.270  10.890  1.00  0.00    -0.206 F 
HETATM   14  C11 UNL     1      17.242  -0.080  12.748  1.00  0.00     0.079 C 
HETATM   15  C12 UNL     1      16.952   1.271  13.268  1.00  0.00     0.013 C 
ENDBRANCH   7   8
ENDBRANCH   6   7
ENDBRANCH   3   6
TORSDOF 3
ENDMDL
MODEL 5
REMARK VINA RESULT: -6.414342604      2.723      5.722
REMARK  3 active torsions:
REMARK  status: ('A' for Active; 'I' for Inactive)
REMARK    1  A    between atoms: C3_3  and  O1_6 
REMARK    2  A    between atoms: O1_6  and  C6_7 
REMARK    3  A    between atoms: C6_7  and  C7_8 
ROOT
HETATM    1  C1  UNL     1      14.508   6.055  14.118  1.00  0.00     0.015 C 
HETATM    2  C2  UNL     1      15.161   5.066  14.334  1.00  0.00    -0.080 C 
HETATM    3  C3  UNL     1      15.965   3.859  14.623  1.00  0.00     0.115 C 
HETATM    4  C4  UNL     1      15.383   3.198  15.841  1.00  0.00     0.060 C 
HETATM    5  C5  UNL     1      17.358   4.351  14.952  1.00  0.00     0.060 C 
ENDROOT
BRANCH   3   6
HETATM    6  O1  UNL     1      16.037   3.040  13.524  1.00  0.00    -0.368 OA
BRANCH   6   7
HETATM    7  C6  UNL     1      16.814   3.641  12.557  1.00  0.00     0.174 C 
BRANCH   7   8
HETATM    8  C7  UNL     1      17.338   2.658  11.526  1.00  0.00     0.010 C 
HETATM    9  C8  UNL     1      18.578   1.975  11.980  1.00  0.00     0.013 C 
HETATM   10  C9  UNL     1      18.885   0.752  11.182  1.00  0.00     0.079 C 
HETATM   11  C10 UNL     1      17.699  -0.200  11.370  1.00  0.00     0.243 C 
HETATM   12  F1  UNL     1      17.377  -0.147  12.717  1.00  0.00    -0.206 F 
HETATM   13  F2  UNL     1      17.965  -1.455  10.924  1.00  0.00    -0.206 F 
HETATM   14  C11 UNL     1      16.556   0.448  10.609  1.00  0.00     0.079 C 
HETATM   15  C12 UNL     1      16.209   1.773  11.158  1.00  0.00     0.013 C 
ENDBRANCH   7   8
ENDBRANCH   6   7
ENDBRANCH   3   6
TORSDOF 3
ENDMDL
