MODEL 1
REMARK VINA RESULT: -5.347995538      0.000      0.000
REMARK  3 active torsions:
REMARK  status: ('A' for Active; 'I' for Inactive)
REMARK    1  A    between atoms: C2_2  and  N1_3 
REMARK    2  A    between atoms: N1_3  and  C3_5 
REMARK    3  A    between atoms: C3_5  and  C4_7 
ROOT
HETATM    1  C4  UNL     1      16.313   5.290  13.294  1.00  0.00     0.082 C 
HETATM    2  C5  UNL     1      16.200   6.642  12.576  1.00  0.00     0.030 C 
HETATM    3  C6  UNL     1      17.157   5.464  14.524  1.00  0.00    -0.023 C 
HETATM    4  C7  UNL     1      17.709   4.270  15.215  1.00  0.00     0.016 C 
HETATM    5  C8  UNL     1      18.214   6.546  14.415  1.00  0.00     0.016 C 
HETATM    6  C9  UNL     1      15.888   5.891  15.251  1.00  0.00     0.090 C 
HETATM    7  C10 UNL     1      15.131   5.106  14.169  1.00  0.00     0.258 C 
HETATM    8  F1  UNL     1      14.766   3.847  14.523  1.00  0.00    -0.205 F 
HETATM    9  F2  UNL     1      13.984   5.837  13.826  1.00  0.00    -0.205 F 
ENDROOT
BRANCH   1  10
HETATM   10  C3  UNL     1      16.722   4.238  12.367  1.00  0.00     0.088 C 
HETATM   11  S1  UNL     1      17.919   4.505  11.238  1.00  0.00    -0.065 SA
BRANCH  10  12
HETATM   12  N1  UNL     1      16.152   2.950  12.337  1.00  0.00    -0.384 N 
ATOM     13  H1  UNL     1      15.135   2.911  12.272  1.00  0.00     0.160 HD
BRANCH  12  14
HETATM   14  C2  UNL     1      16.830   1.688  12.387  1.00  0.00     0.116 C 
HETATM   15  C1  UNL     1      16.547   0.848  11.140  1.00  0.00     0.026 C 
ENDBRANCH  12  14
ENDBRANCH  10  12
ENDBRANCH   1  10
TORSDOF 3
ENDMDL
MODEL 2
REMARK VINA RESULT: -5.071013764      2.921      4.048
REMARK  3 active torsions:
REMARK  status: ('A' for Active; 'I' for Inactive)
REMARK    1  A    between atoms: C2_2  and  N1_3 
REMARK    2  A    between atoms: N1_3  and  C3_5 
REMARK    3  A    between atoms: C3_5  and  C4_7 
ROOT
HETATM    1  C4  UNL     1      16.881   3.836  14.607  1.00  0.00     0.082 C 
HETATM    2  C5  UNL     1      18.254   4.218  15.176  1.00  0.00     0.030 C 
HETATM    3  C6  UNL     1      16.101   5.091  14.340  1.00  0.00    -0.023 C 
HETATM    4  C7  UNL     1      14.634   5.014  14.112  1.00  0.00     0.016 C 
HETATM    5  C8  UNL     1      16.429   6.246  15.266  1.00  0.00     0.016 C 
HETATM    6  C9  UNL     1      16.791   5.152  12.984  1.00  0.00     0.090 C 
HETATM    7  C10 UNL     1      17.003   3.638  13.142  1.00  0.00     0.258 C 
HETATM    8  F1  UNL     1      16.087   2.862  12.506  1.00  0.00    -0.205 F 
HETATM    9  F2  UNL     1      18.283   3.326  12.662  1.00  0.00    -0.205 F 
ENDROOT
BRANCH   1  10
HETATM   10  C3  UNL     1      16.230   2.828  15.440  1.00  0.00     0.088 C 
HETATM   11  S1  UNL     1      16.744   1.242  15.427  1.00  0.00    -0.065 SA
BRANCH  10  12
HETATM   12  N1  UNL     1      15.141   3.095  16.292  1.00  0.00    -0.384 N 
ATOM     13  H1  UNL     1      14.848   4.070  16.353  1.00  0.00     0.160 HD
BRANCH  12  14
HETATM   14  C2  UNL     1      14.396   2.161  17.084  1.00  0.00     0.116 C 
HETATM   15  C1  UNL     1      14.835   2.189  18.549  1.00  0.00     0.026 C 
ENDBRANCH  12  14
ENDBRANCH  10  12
ENDBRANCH   1  10
TORSDOF 3
ENDMDL
MODEL 3
REMARK VINA RESULT: -5.003928433      1.815      2.736
REMARK  3 active torsions:
REMARK  status: ('A' for Active; 'I' for Inactive)
REMARK    1  A    between atoms: C2_2  and  N1_3 
REMARK    2  A    between atoms: N1_3  and  C3_5 
REMARK    3  A    between atoms: C3_5  and  C4_7 
ROOT
HETATM    1  C4  UNL     1      17.008   4.868  14.144  1.00  0.00     0.082 C 
HETATM    2  C5  UNL     1      17.708   3.957  15.162  1.00  0.00     0.030 C 
HETATM    3  C6  UNL     1      15.731   5.377  14.748  1.00  0.00    -0.023 C 
HETATM    4  C7  UNL     1      14.697   5.995  13.878  1.00  0.00     0.016 C 
HETATM    5  C8  UNL     1      15.085   4.433  15.744  1.00  0.00     0.016 C 
HETATM    6  C9  UNL     1      16.553   6.494  15.378  1.00  0.00     0.090 C 
HETATM    7  C10 UNL     1      17.568   6.236  14.254  1.00  0.00     0.258 C 
HETATM    8  F1  UNL     1      17.468   7.073  13.189  1.00  0.00    -0.205 F 
HETATM    9  F2  UNL     1      18.856   6.339  14.800  1.00  0.00    -0.205 F 
ENDROOT
BRANCH   1  10
HETATM   10  C3  UNL     1      16.898   4.213  12.843  1.00  0.00     0.088 C 
HETATM   11  S1  UNL     1      17.766   4.762  11.530  1.00  0.00    -0.065 SA
BRANCH  10  12
HETATM   12  N1  UNL     1      16.068   3.104  12.588  1.00  0.00    -0.384 N 
ATOM     13  H1  UNL     1      15.258   2.999  13.199  1.00  0.00     0.160 HD
BRANCH  12  14
HETATM   14  C2  UNL     1      16.225   2.105  11.572  1.00  0.00     0.116 C 
HETATM   15  C1  UNL     1      16.957   0.871  12.105  1.00  0.00     0.026 C 
ENDBRANCH  12  14
ENDBRANCH  10  12
ENDBRANCH   1  10
TORSDOF 3
ENDMDL
MODEL 4
REMARK VINA RESULT: -4.881098015      1.894      2.001
REMARK  3 active torsions:
REMARK  status: ('A' for Active; 'I' for Inactive)
REMARK    1  A    between atoms: C2_2  and  N1_3 
REMARK    2  A    between atoms: N1_3  and  C3_5 
REMARK    3  A    between atoms: C3_5  and  C4_7 
ROOT
HETATM    1  C4  UNL     1      17.307   4.452  13.157  1.00  0.00     0.082 C 
HETATM    2  C5  UNL     1      18.012   5.566  12.371  1.00  0.00     0.030 C 
HETATM    3  C6  UNL     1      17.759   4.508  14.588  1.00  0.00    -0.023 C 
HETATM    4  C7  UNL     1      17.505   3.353  15.488  1.00  0.00     0.016 C 
HETATM    5  C8  UNL     1      19.170   5.027  14.783  1.00  0.00     0.016 C 
HETATM    6  C9  UNL     1      16.667   5.544  14.822  1.00  0.00     0.090 C 
HETATM    7  C10 UNL     1      15.974   4.936  13.592  1.00  0.00     0.258 C 
HETATM    8  F1  UNL     1      15.005   4.027  13.870  1.00  0.00    -0.205 F 
HETATM    9  F2  UNL     1      15.420   5.985  12.844  1.00  0.00    -0.205 F 
ENDROOT
BRANCH   1  10
HETATM   10  C3  UNL     1      17.444   3.165  12.480  1.00  0.00     0.088 C 
HETATM   11  S1  UNL     1      16.174   2.506  11.624  1.00  0.00    -0.065 SA
BRANCH  10  12
HETATM   12  N1  UNL     1      18.619   2.388  12.497  1.00  0.00    -0.384 N 
ATOM     13  H1  UNL     1      19.018   2.200  13.417  1.00  0.00     0.160 HD
BRANCH  12  14
HETATM   14  C2  UNL     1      19.319   1.829  11.379  1.00  0.00     0.116 C 
HETATM   15  C1  UNL     1      19.931   2.919  10.497  1.00  0.00     0.026 C 
ENDBRANCH  12  14
ENDBRANCH  10  12
ENDBRANCH   1  10
TORSDOF 3
ENDMDL
MODEL 5
REMARK VINA RESULT: -4.873616495      1.014      1.264
REMARK  3 active torsions:
REMARK  status: ('A' for Active; 'I' for Inactive)
REMARK    1  A    between atoms: C2_2  and  N1_3 
REMARK    2  A    between atoms: N1_3  and  C3_5 
REMARK    3  A    between atoms: C3_5  and  C4_7 
ROOT
HETATM    1  C4  UNL     1      16.530   5.491  13.385  1.00  0.00     0.082 C 
HETATM    2  C5  UNL     1      16.110   6.677  12.505  1.00  0.00     0.030 C 
HETATM    3  C6  UNL     1      17.730   5.891  14.196  1.00  0.00    -0.023 C 
HETATM    4  C7  UNL     1      18.545   4.848  14.871  1.00  0.00     0.016 C 
HETATM    5  C8  UNL     1      18.630   6.912  13.527  1.00  0.00     0.016 C 
HETATM    6  C9  UNL     1      16.761   6.473  15.217  1.00  0.00     0.090 C 
HETATM    7  C10 UNL     1      15.724   5.503  14.630  1.00  0.00     0.258 C 
HETATM    8  F1  UNL     1      15.568   4.345  15.321  1.00  0.00    -0.205 F 
HETATM    9  F2  UNL     1      14.493   6.171  14.566  1.00  0.00    -0.205 F 
ENDROOT
BRANCH   1  10
HETATM   10  C3  UNL     1      16.656   4.269  12.594  1.00  0.00     0.088 C 
HETATM   11  S1  UNL     1      17.407   4.285  11.106  1.00  0.00    -0.065 SA
BRANCH  10  12
HETATM   12  N1  UNL     1      16.160   3.015  12.999  1.00  0.00    -0.384 N 
ATOM     13  H1  UNL     1      15.148   2.946  13.107  1.00  0.00     0.160 HD
BRANCH  12  14
HETATM   14  C2  UNL     1      16.906   1.824  13.277  1.00  0.00     0.116 C 
HETATM   15  C1  UNL     1      16.815   1.435  14.754  1.00  0.00     0.026 C 
ENDBRANCH  12  14
ENDBRANCH  10  12
ENDBRANCH   1  10
TORSDOF 3
ENDMDL
