MODEL 1
REMARK VINA RESULT: -6.537059604      0.000      0.000
REMARK  2 active torsions:
REMARK  status: ('A' for Active; 'I' for Inactive)
REMARK    1  A    between atoms: C2_2  and  N1_3 
REMARK    2  A    between atoms: N1_3  and  C3_5 
ROOT
HETATM    1  C3  UNL     1      15.294   3.141  15.420  1.00  0.00     0.085 C 
HETATM    2  C4  UNL     1      16.770   2.774  15.315  1.00  0.00     0.009 C 
HETATM    3  C5  UNL     1      16.950   2.038  14.004  1.00  0.00     0.007 C 
HETATM    4  C6  UNL     1      16.465   2.978  12.920  1.00  0.00     0.006 C 
HETATM    5  C7  UNL     1      16.071   4.327  13.398  1.00  0.00     0.001 C 
HETATM    6  C8  UNL     1      15.105   4.345  14.567  1.00  0.00     0.018 C 
HETATM    7  C9  UNL     1      15.418   5.640  15.263  1.00  0.00     0.086 C 
HETATM    8  C10 UNL     1      16.633   6.233  14.525  1.00  0.00     0.248 C 
HETATM    9  F1  UNL     1      17.411   6.989  15.354  1.00  0.00    -0.206 F 
HETATM   10  F2  UNL     1      16.178   6.906  13.436  1.00  0.00    -0.206 F 
HETATM   11  C11 UNL     1      17.299   4.931  14.103  1.00  0.00     0.063 C 
HETATM   12  C12 UNL     1      17.629   4.037  15.246  1.00  0.00     0.017 C 
ENDROOT
BRANCH   1  13
HETATM   13  N1  UNL     1      14.748   3.122  16.708  1.00  0.00    -0.417 N 
ATOM     14  H1  UNL     1      14.790   3.935  17.321  1.00  0.00     0.153 HD
BRANCH  13  15
HETATM   15  C2  UNL     1      14.129   1.898  17.116  1.00  0.00     0.110 C 
HETATM   16  C1  UNL     1      15.112   0.990  17.846  1.00  0.00     0.026 C 
ENDBRANCH  13  15
ENDBRANCH   1  13
TORSDOF 2
ENDMDL
MODEL 2
REMARK VINA RESULT: -6.066834659      2.048      3.239
REMARK  2 active torsions:
REMARK  status: ('A' for Active; 'I' for Inactive)
REMARK    1  A    between atoms: C2_2  and  N1_3 
REMARK    2  A    between atoms: N1_3  and  C3_5 
ROOT
HETATM    1  C3  UNL     1      15.775   3.376  15.889  1.00  0.00     0.085 C 
HETATM    2  C4  UNL     1      15.084   4.440  15.043  1.00  0.00     0.009 C 
HETATM    3  C5  UNL     1      15.834   5.736  15.266  1.00  0.00     0.007 C 
HETATM    4  C6  UNL     1      17.272   5.468  14.873  1.00  0.00     0.006 C 
HETATM    5  C7  UNL     1      17.519   4.119  14.305  1.00  0.00     0.001 C 
HETATM    6  C8  UNL     1      16.983   2.961  15.126  1.00  0.00     0.018 C 
HETATM    7  C9  UNL     1      16.720   1.894  14.100  1.00  0.00     0.086 C 
HETATM    8  C10 UNL     1      17.002   2.545  12.733  1.00  0.00     0.248 C 
HETATM    9  F1  UNL     1      16.237   1.998  11.743  1.00  0.00    -0.206 F 
HETATM   10  F2  UNL     1      18.338   2.469  12.497  1.00  0.00    -0.206 F 
HETATM   11  C11 UNL     1      16.605   3.974  13.076  1.00  0.00     0.063 C 
HETATM   12  C12 UNL     1      15.202   4.100  13.557  1.00  0.00     0.017 C 
ENDROOT
BRANCH   1  13
HETATM   13  N1  UNL     1      14.942   2.395  16.438  1.00  0.00    -0.417 N 
ATOM     14  H1  UNL     1      14.023   2.190  16.048  1.00  0.00     0.153 HD
BRANCH  13  15
HETATM   15  C2  UNL     1      15.452   1.697  17.578  1.00  0.00     0.110 C 
HETATM   16  C1  UNL     1      14.934   2.297  18.880  1.00  0.00     0.026 C 
ENDBRANCH  13  15
ENDBRANCH   1  13
TORSDOF 2
ENDMDL
MODEL 3
REMARK VINA RESULT: -6.037518430      1.568      2.138
REMARK  2 active torsions:
REMARK  status: ('A' for Active; 'I' for Inactive)
REMARK    1  A    between atoms: C2_2  and  N1_3 
REMARK    2  A    between atoms: N1_3  and  C3_5 
ROOT
HETATM    1  C3  UNL     1      17.383   3.299  14.767  1.00  0.00     0.085 C 
HETATM    2  C4  UNL     1      18.288   4.521  14.661  1.00  0.00     0.009 C 
HETATM    3  C5  UNL     1      18.736   4.615  13.217  1.00  0.00     0.007 C 
HETATM    4  C6  UNL     1      17.473   4.703  12.386  1.00  0.00     0.006 C 
HETATM    5  C7  UNL     1      16.216   4.781  13.172  1.00  0.00     0.001 C 
HETATM    6  C8  UNL     1      16.056   3.720  14.245  1.00  0.00     0.018 C 
HETATM    7  C9  UNL     1      15.181   4.387  15.270  1.00  0.00     0.086 C 
HETATM    8  C10 UNL     1      14.993   5.837  14.786  1.00  0.00     0.248 C 
HETATM    9  F1  UNL     1      14.814   6.701  15.829  1.00  0.00    -0.206 F 
HETATM   10  F2  UNL     1      13.978   5.852  13.883  1.00  0.00    -0.206 F 
HETATM   11  C11 UNL     1      16.331   6.017  14.083  1.00  0.00     0.063 C 
HETATM   12  C12 UNL     1      17.503   5.796  14.973  1.00  0.00     0.017 C 
ENDROOT
BRANCH   1  13
HETATM   13  N1  UNL     1      17.452   2.590  15.971  1.00  0.00    -0.417 N 
ATOM     14  H1  UNL     1      17.890   2.984  16.803  1.00  0.00     0.153 HD
BRANCH  13  15
HETATM   15  C2  UNL     1      16.873   1.281  15.969  1.00  0.00     0.110 C 
HETATM   16  C1  UNL     1      15.738   1.170  16.979  1.00  0.00     0.026 C 
ENDBRANCH  13  15
ENDBRANCH   1  13
TORSDOF 2
ENDMDL
MODEL 4
REMARK VINA RESULT: -5.964010769      2.825      4.389
REMARK  2 active torsions:
REMARK  status: ('A' for Active; 'I' for Inactive)
REMARK    1  A    between atoms: C2_2  and  N1_3 
REMARK    2  A    between atoms: N1_3  and  C3_5 
ROOT
HETATM    1  C3  UNL     1      17.516   3.653  12.817  1.00  0.00     0.085 C 
HETATM    2  C4  UNL     1      17.867   4.844  13.702  1.00  0.00     0.009 C 
HETATM    3  C5  UNL     1      16.864   5.935  13.392  1.00  0.00     0.007 C 
HETATM    4  C6  UNL     1      15.496   5.343  13.661  1.00  0.00     0.006 C 
HETATM    5  C7  UNL     1      15.513   3.971  14.228  1.00  0.00     0.001 C 
HETATM    6  C8  UNL     1      16.371   2.970  13.477  1.00  0.00     0.018 C 
HETATM    7  C9  UNL     1      16.777   1.988  14.541  1.00  0.00     0.086 C 
HETATM    8  C10 UNL     1      16.233   2.552  15.866  1.00  0.00     0.248 C 
HETATM    9  F1  UNL     1      17.011   2.191  16.930  1.00  0.00    -0.206 F 
HETATM   10  F2  UNL     1      14.934   2.172  15.985  1.00  0.00    -0.206 F 
HETATM   11  C11 UNL     1      16.322   4.035  15.536  1.00  0.00     0.063 C 
HETATM   12  C12 UNL     1      17.697   4.480  15.178  1.00  0.00     0.017 C 
ENDROOT
BRANCH   1  13
HETATM   13  N1  UNL     1      18.597   2.891  12.360  1.00  0.00    -0.417 N 
ATOM     14  H1  UNL     1      19.473   2.836  12.878  1.00  0.00     0.153 HD
BRANCH  13  15
HETATM   15  C2  UNL     1      18.402   2.192  11.127  1.00  0.00     0.110 C 
HETATM   16  C1  UNL     1      19.108   0.841  11.132  1.00  0.00     0.026 C 
ENDBRANCH  13  15
ENDBRANCH   1  13
TORSDOF 2
ENDMDL
MODEL 5
REMARK VINA RESULT: -5.910917271      2.356      3.294
REMARK  2 active torsions:
REMARK  status: ('A' for Active; 'I' for Inactive)
REMARK    1  A    between atoms: C2_2  and  N1_3 
REMARK    2  A    between atoms: N1_3  and  C3_5 
ROOT
HETATM    1  C3  UNL     1      17.450   3.511  13.291  1.00  0.00     0.085 C 
HETATM    2  C4  UNL     1      18.368   4.506  13.991  1.00  0.00     0.009 C 
HETATM    3  C5  UNL     1      18.944   5.406  12.918  1.00  0.00     0.007 C 
HETATM    4  C6  UNL     1      17.761   6.041  12.217  1.00  0.00     0.006 C 
HETATM    5  C7  UNL     1      16.439   5.713  12.808  1.00  0.00     0.001 C 
HETATM    6  C8  UNL     1      16.177   4.235  13.031  1.00  0.00     0.018 C 
HETATM    7  C9  UNL     1      15.218   4.220  14.189  1.00  0.00     0.086 C 
HETATM    8  C10 UNL     1      15.083   5.684  14.646  1.00  0.00     0.248 C 
HETATM    9  F1  UNL     1      14.818   5.776  15.983  1.00  0.00    -0.206 F 
HETATM   10  F2  UNL     1      14.153   6.287  13.860  1.00  0.00    -0.206 F 
HETATM   11  C11 UNL     1      16.480   6.165  14.279  1.00  0.00     0.063 C 
HETATM   12  C12 UNL     1      17.566   5.394  14.943  1.00  0.00     0.017 C 
ENDROOT
BRANCH   1  13
HETATM   13  N1  UNL     1      17.406   2.226  13.842  1.00  0.00    -0.417 N 
ATOM     14  H1  UNL     1      17.579   2.060  14.833  1.00  0.00     0.153 HD
BRANCH  13  15
HETATM   15  C2  UNL     1      17.105   1.158  12.938  1.00  0.00     0.110 C 
HETATM   16  C1  UNL     1      18.048   1.157  11.741  1.00  0.00     0.026 C 
ENDBRANCH  13  15
ENDBRANCH   1  13
TORSDOF 2
ENDMDL
