MODEL 1
REMARK VINA RESULT: -8.474235926      0.000      0.000
REMARK  7 active torsions:
REMARK  status: ('A' for Active; 'I' for Inactive)
REMARK    1  A    between atoms: C6_6  and  C7_7 
REMARK    2  A    between atoms: C9_16  and  N5_17 
REMARK    3  A    between atoms: N5_17  and  C10_19 
REMARK    4  A    between atoms: C10_19  and  C11_20 
REMARK    5  A    between atoms: C10_19  and  C12_23 
REMARK    6  A    between atoms: C11_20  and  O1_21 
REMARK    7  A    between atoms: C21_35  and  C22_36 
ROOT
HETATM    1  C7  UNL     1      -2.059   2.129  11.002  1.00  0.00     0.118 A 
HETATM    2  N1  UNL     1      -2.447   0.907  10.570  1.00  0.00    -0.183 N 
ATOM      3  H1  UNL     1      -2.138   0.627   9.640  1.00  0.00     0.184 HD
HETATM    4  C8  UNL     1      -3.189   0.043  11.242  1.00  0.00     0.723 A 
HETATM    5  N2  UNL     1      -3.817  -1.157  11.337  1.00  0.00    -0.115 N 
ATOM      6  H2  UNL     1      -3.932  -1.978  10.743  1.00  0.00     0.207 HD
HETATM    7  N3  UNL     1      -4.211  -0.791  12.529  1.00  0.00    -0.205 N 
ATOM      8  H3  UNL     1      -4.777  -1.255  13.240  1.00  0.00     0.210 HD
HETATM    9  N4  UNL     1      -3.619   0.390  12.492  1.00  0.00    -0.050 N 
HETATM   10  C9  UNL     1      -3.287   1.583  13.014  1.00  0.00     0.184 A 
HETATM   11  C17 UNL     1      -2.498   2.468  12.262  1.00  0.00     0.192 A 
HETATM   12  F1  UNL     1      -2.189   3.647  12.814  1.00  0.00    -0.199 F 
ENDROOT
BRANCH   1  13
HETATM   13  C6  UNL     1      -1.240   3.001  10.172  1.00  0.00     0.063 A 
HETATM   14  C5  UNL     1       0.031   3.440  10.284  1.00  0.00     0.041 A 
HETATM   15  C4  UNL     1       0.358   4.275   9.205  1.00  0.00    -0.025 A 
HETATM   16  C2  UNL     1       1.605   5.012   8.847  1.00  0.00    -0.005 C 
HETATM   17  C18 UNL     1      -0.788   4.308   8.441  1.00  0.00     0.017 A 
HETATM   18  C1  UNL     1       2.760   4.346   9.560  1.00  0.00     0.021 C 
HETATM   19  C3  UNL     1       1.478   6.399   9.495  1.00  0.00     0.021 C 
HETATM   20  C21 UNL     1       1.795   5.125   7.380  1.00  0.00     0.099 C 
HETATM   21  C20 UNL     1       0.591   4.792   6.543  1.00  0.00     0.022 C 
HETATM   22  C19 UNL     1      -0.717   5.142   7.203  1.00  0.00     0.058 C 
HETATM   23  N6  UNL     1      -1.726   3.549   9.027  1.00  0.00    -0.357 N 
ATOM     24  H6  UNL     1      -2.669   3.404   8.666  1.00  0.00     0.166 HD
BRANCH  20  25
HETATM   25  C22 UNL     1       2.947   4.319   6.918  1.00  0.00     0.178 C 
HETATM   26  O2  UNL     1       4.054   4.901   6.651  1.00  0.00    -0.648 OA
HETATM   27  O3  UNL     1       2.913   2.934   6.749  1.00  0.00    -0.648 OA
ENDBRANCH  20  25
ENDBRANCH   1  13
BRANCH  10  28
HETATM   28  N5  UNL     1      -3.632   1.992  14.154  1.00  0.00    -0.365 N 
ATOM     29  H5  UNL     1      -2.886   2.442  14.686  1.00  0.00     0.161 HD
BRANCH  28  30
HETATM   30  C10 UNL     1      -4.866   1.934  14.818  1.00  0.00     0.110 C 
BRANCH  30  31
HETATM   31  C11 UNL     1      -4.849   0.961  16.010  1.00  0.00     0.189 C 
BRANCH  31  32
HETATM   32  O1  UNL     1      -4.923  -0.355  15.558  1.00  0.00    -0.399 OA
ATOM     33  H1  UNL     1      -5.727  -0.761  15.861  1.00  0.00     0.209 HD
ENDBRANCH  31  32
ENDBRANCH  30  31
BRANCH  30  34
HETATM   34  C12 UNL     1      -5.322   3.289  15.326  1.00  0.00     0.010 C 
HETATM   35  C13 UNL     1      -6.367   3.858  14.416  1.00  0.00     0.007 C 
HETATM   36  C14 UNL     1      -6.279   5.361  14.587  1.00  0.00     0.000 C 
HETATM   37  C15 UNL     1      -4.816   5.602  14.843  1.00  0.00     0.000 C 
HETATM   38  C16 UNL     1      -4.234   4.305  15.386  1.00  0.00     0.007 C 
ENDBRANCH  30  34
ENDBRANCH  28  30
ENDBRANCH  10  28
TORSDOF 7
ENDMDL
MODEL 2
REMARK VINA RESULT: -8.473249061      1.204      1.713
REMARK  7 active torsions:
REMARK  status: ('A' for Active; 'I' for Inactive)
REMARK    1  A    between atoms: C6_6  and  C7_7 
REMARK    2  A    between atoms: C9_16  and  N5_17 
REMARK    3  A    between atoms: N5_17  and  C10_19 
REMARK    4  A    between atoms: C10_19  and  C11_20 
REMARK    5  A    between atoms: C10_19  and  C12_23 
REMARK    6  A    between atoms: C11_20  and  O1_21 
REMARK    7  A    between atoms: C21_35  and  C22_36 
ROOT
HETATM    1  C7  UNL     1      -2.217   2.059  11.050  1.00  0.00     0.118 A 
HETATM    2  N1  UNL     1      -2.268   0.734  10.781  1.00  0.00    -0.183 N 
ATOM      3  H1  UNL     1      -1.679   0.395  10.021  1.00  0.00     0.184 HD
HETATM    4  C8  UNL     1      -3.010  -0.161  11.411  1.00  0.00     0.723 A 
HETATM    5  N2  UNL     1      -3.434  -1.439  11.583  1.00  0.00    -0.115 N 
ATOM      6  H2  UNL     1      -3.248  -2.342  11.147  1.00  0.00     0.207 HD
HETATM    7  N3  UNL     1      -4.188  -0.997  12.555  1.00  0.00    -0.205 N 
ATOM      8  H3  UNL     1      -4.839  -1.463  13.188  1.00  0.00     0.210 HD
HETATM    9  N4  UNL     1      -3.810   0.264  12.434  1.00  0.00    -0.050 N 
HETATM   10  C9  UNL     1      -3.832   1.561  12.781  1.00  0.00     0.184 A 
HETATM   11  C17 UNL     1      -3.028   2.475  12.082  1.00  0.00     0.192 A 
HETATM   12  F1  UNL     1      -3.077   3.759  12.455  1.00  0.00    -0.199 F 
ENDROOT
BRANCH   1  13
HETATM   13  C6  UNL     1      -1.360   2.955  10.286  1.00  0.00     0.063 A 
HETATM   14  C5  UNL     1      -0.074   3.337  10.433  1.00  0.00     0.041 A 
HETATM   15  C4  UNL     1       0.291   4.232   9.416  1.00  0.00    -0.025 A 
HETATM   16  C2  UNL     1       1.566   4.944   9.116  1.00  0.00    -0.005 C 
HETATM   17  C18 UNL     1      -0.848   4.361   8.653  1.00  0.00     0.017 A 
HETATM   18  C1  UNL     1       2.691   4.187   9.785  1.00  0.00     0.021 C 
HETATM   19  C3  UNL     1       1.487   6.286   9.858  1.00  0.00     0.021 C 
HETATM   20  C21 UNL     1       1.770   5.151   7.661  1.00  0.00     0.099 C 
HETATM   21  C20 UNL     1       0.561   4.924   6.798  1.00  0.00     0.022 C 
HETATM   22  C19 UNL     1      -0.738   5.275   7.475  1.00  0.00     0.058 C 
HETATM   23  N6  UNL     1      -1.818   3.599   9.181  1.00  0.00    -0.357 N 
ATOM     24  H6  UNL     1      -2.763   3.515   8.806  1.00  0.00     0.166 HD
BRANCH  20  25
HETATM   25  C22 UNL     1       2.894   4.337   7.148  1.00  0.00     0.178 C 
HETATM   26  O2  UNL     1       4.010   4.903   6.881  1.00  0.00    -0.648 OA
HETATM   27  O3  UNL     1       2.825   2.960   6.930  1.00  0.00    -0.648 OA
ENDBRANCH  20  25
ENDBRANCH   1  13
BRANCH  10  28
HETATM   28  N5  UNL     1      -4.533   2.048  13.708  1.00  0.00    -0.365 N 
ATOM     29  H5  UNL     1      -5.400   2.487  13.398  1.00  0.00     0.161 HD
BRANCH  28  30
HETATM   30  C10 UNL     1      -4.323   2.091  15.094  1.00  0.00     0.110 C 
BRANCH  30  31
HETATM   31  C11 UNL     1      -3.706   3.424  15.555  1.00  0.00     0.189 C 
BRANCH  31  32
HETATM   32  O1  UNL     1      -2.315   3.336  15.556  1.00  0.00    -0.399 OA
ATOM     33  H1  UNL     1      -1.936   4.138  15.894  1.00  0.00     0.209 HD
ENDBRANCH  31  32
ENDBRANCH  30  31
BRANCH  30  34
HETATM   34  C12 UNL     1      -5.596   1.865  15.887  1.00  0.00     0.010 C 
HETATM   35  C13 UNL     1      -6.268   3.173  16.170  1.00  0.00     0.007 C 
HETATM   36  C14 UNL     1      -7.079   2.947  17.430  1.00  0.00     0.000 C 
HETATM   37  C15 UNL     1      -6.254   1.962  18.210  1.00  0.00     0.000 C 
HETATM   38  C16 UNL     1      -5.371   1.224  17.213  1.00  0.00     0.007 C 
ENDBRANCH  30  34
ENDBRANCH  28  30
ENDBRANCH  10  28
TORSDOF 7
ENDMDL
MODEL 3
REMARK VINA RESULT: -8.215522219      4.757      6.091
REMARK  7 active torsions:
REMARK  status: ('A' for Active; 'I' for Inactive)
REMARK    1  A    between atoms: C6_6  and  C7_7 
REMARK    2  A    between atoms: C9_16  and  N5_17 
REMARK    3  A    between atoms: N5_17  and  C10_19 
REMARK    4  A    between atoms: C10_19  and  C11_20 
REMARK    5  A    between atoms: C10_19  and  C12_23 
REMARK    6  A    between atoms: C11_20  and  O1_21 
REMARK    7  A    between atoms: C21_35  and  C22_36 
ROOT
HETATM    1  C7  UNL     1      -3.930   4.241  11.265  1.00  0.00     0.118 A 
HETATM    2  N1  UNL     1      -3.304   3.322  10.496  1.00  0.00    -0.183 N 
ATOM      3  H1  UNL     1      -3.200   3.542   9.506  1.00  0.00     0.184 HD
HETATM    4  C8  UNL     1      -2.815   2.164  10.908  1.00  0.00     0.723 A 
HETATM    5  N2  UNL     1      -2.174   0.993  10.660  1.00  0.00    -0.115 N 
ATOM      6  H2  UNL     1      -1.767   0.533   9.845  1.00  0.00     0.207 HD
HETATM    7  N3  UNL     1      -2.312   0.716  11.930  1.00  0.00    -0.205 N 
ATOM      8  H3  UNL     1      -2.032  -0.088  12.493  1.00  0.00     0.210 HD
HETATM    9  N4  UNL     1      -2.938   1.840  12.229  1.00  0.00    -0.050 N 
HETATM   10  C9  UNL     1      -3.545   2.686  13.079  1.00  0.00     0.184 A 
HETATM   11  C17 UNL     1      -4.050   3.903  12.595  1.00  0.00     0.192 A 
HETATM   12  F1  UNL     1      -4.648   4.720  13.470  1.00  0.00    -0.199 F 
ENDROOT
BRANCH   1  13
HETATM   13  C6  UNL     1      -4.432   5.486  10.701  1.00  0.00     0.063 A 
HETATM   14  C5  UNL     1      -4.779   5.848   9.448  1.00  0.00     0.041 A 
HETATM   15  C4  UNL     1      -5.211   7.182   9.425  1.00  0.00    -0.025 A 
HETATM   16  C2  UNL     1      -5.695   8.062   8.322  1.00  0.00    -0.005 C 
HETATM   17  C18 UNL     1      -5.105   7.597  10.735  1.00  0.00     0.017 A 
HETATM   18  C1  UNL     1      -6.181   7.175   7.199  1.00  0.00     0.021 C 
HETATM   19  C3  UNL     1      -4.449   8.768   7.766  1.00  0.00     0.021 C 
HETATM   20  C21 UNL     1      -6.704   9.047   8.784  1.00  0.00     0.099 C 
HETATM   21  C20 UNL     1      -6.815   9.211  10.275  1.00  0.00     0.022 C 
HETATM   22  C19 UNL     1      -5.511   9.010  11.002  1.00  0.00     0.058 C 
HETATM   23  N6  UNL     1      -4.642   6.581  11.478  1.00  0.00    -0.357 N 
ATOM     24  H6  UNL     1      -4.471   6.624  12.483  1.00  0.00     0.166 HD
BRANCH  20  25
HETATM   25  C22 UNL     1      -8.043   8.755   8.226  1.00  0.00     0.178 C 
HETATM   26  O2  UNL     1      -8.796   7.904   8.813  1.00  0.00    -0.648 OA
HETATM   27  O3  UNL     1      -8.557   9.356   7.077  1.00  0.00    -0.648 OA
ENDBRANCH  20  25
ENDBRANCH   1  13
BRANCH  10  28
HETATM   28  N5  UNL     1      -3.706   2.479  14.311  1.00  0.00    -0.365 N 
ATOM     29  H5  UNL     1      -2.979   2.876  14.906  1.00  0.00     0.161 HD
BRANCH  28  30
HETATM   30  C10 UNL     1      -4.716   1.795  15.004  1.00  0.00     0.110 C 
BRANCH  30  31
HETATM   31  C11 UNL     1      -4.337   0.333  15.304  1.00  0.00     0.189 C 
BRANCH  31  32
HETATM   32  O1  UNL     1      -4.596  -0.469  14.194  1.00  0.00    -0.399 OA
ATOM     33  H1  UNL     1      -5.520  -0.685  14.153  1.00  0.00     0.209 HD
ENDBRANCH  31  32
ENDBRANCH  30  31
BRANCH  30  34
HETATM   34  C12 UNL     1      -5.082   2.463  16.315  1.00  0.00     0.010 C 
HETATM   35  C13 UNL     1      -5.422   1.429  17.345  1.00  0.00     0.007 C 
HETATM   36  C14 UNL     1      -6.353   2.120  18.321  1.00  0.00     0.000 C 
HETATM   37  C15 UNL     1      -7.121   3.082  17.457  1.00  0.00     0.000 C 
HETATM   38  C16 UNL     1      -6.272   3.355  16.222  1.00  0.00     0.007 C 
ENDBRANCH  30  34
ENDBRANCH  28  30
ENDBRANCH  10  28
TORSDOF 7
ENDMDL
MODEL 4
REMARK VINA RESULT: -8.197516010      1.672      2.132
REMARK  7 active torsions:
REMARK  status: ('A' for Active; 'I' for Inactive)
REMARK    1  A    between atoms: C6_6  and  C7_7 
REMARK    2  A    between atoms: C9_16  and  N5_17 
REMARK    3  A    between atoms: N5_17  and  C10_19 
REMARK    4  A    between atoms: C10_19  and  C11_20 
REMARK    5  A    between atoms: C10_19  and  C12_23 
REMARK    6  A    between atoms: C11_20  and  O1_21 
REMARK    7  A    between atoms: C21_35  and  C22_36 
ROOT
HETATM    1  C7  UNL     1      -2.064   2.265  11.497  1.00  0.00     0.118 A 
HETATM    2  N1  UNL     1      -2.027   0.973  11.100  1.00  0.00    -0.183 N 
ATOM      3  H1  UNL     1      -1.304   0.716  10.427  1.00  0.00     0.184 HD
HETATM    4  C8  UNL     1      -2.840   0.011  11.503  1.00  0.00     0.723 A 
HETATM    5  N2  UNL     1      -3.249  -1.284  11.477  1.00  0.00    -0.115 N 
ATOM      6  H2  UNL     1      -2.962  -2.138  10.998  1.00  0.00     0.207 HD
HETATM    7  N3  UNL     1      -4.173  -0.949  12.338  1.00  0.00    -0.205 N 
ATOM      8  H3  UNL     1      -4.911  -1.482  12.799  1.00  0.00     0.210 HD
HETATM    9  N4  UNL     1      -3.819   0.323  12.404  1.00  0.00    -0.050 N 
HETATM   10  C9  UNL     1      -3.940   1.580  12.862  1.00  0.00     0.184 A 
HETATM   11  C17 UNL     1      -3.054   2.568  12.404  1.00  0.00     0.192 A 
HETATM   12  F1  UNL     1      -3.206   3.809  12.881  1.00  0.00    -0.199 F 
ENDROOT
BRANCH   1  13
HETATM   13  C6  UNL     1      -1.114   3.243  10.983  1.00  0.00     0.063 A 
HETATM   14  C5  UNL     1      -0.397   4.220  11.575  1.00  0.00     0.041 A 
HETATM   15  C4  UNL     1       0.386   4.897  10.628  1.00  0.00    -0.025 A 
HETATM   16  C2  UNL     1       1.341   6.037  10.745  1.00  0.00    -0.005 C 
HETATM   17  C18 UNL     1       0.098   4.268   9.437  1.00  0.00     0.017 A 
HETATM   18  C1  UNL     1       1.806   6.108  12.182  1.00  0.00     0.021 C 
HETATM   19  C3  UNL     1       0.510   7.310  10.528  1.00  0.00     0.021 C 
HETATM   20  C21 UNL     1       2.449   5.950   9.763  1.00  0.00     0.099 C 
HETATM   21  C20 UNL     1       2.251   4.962   8.647  1.00  0.00     0.022 C 
HETATM   22  C19 UNL     1       0.811   4.799   8.236  1.00  0.00     0.058 C 
HETATM   23  N6  UNL     1      -0.793   3.290   9.663  1.00  0.00    -0.357 N 
ATOM     24  H6  UNL     1      -1.174   2.672   8.948  1.00  0.00     0.166 HD
BRANCH  20  25
HETATM   25  C22 UNL     1       3.744   5.680  10.427  1.00  0.00     0.178 C 
HETATM   26  O2  UNL     1       4.049   4.479  10.744  1.00  0.00    -0.648 OA
HETATM   27  O3  UNL     1       4.680   6.665  10.741  1.00  0.00    -0.648 OA
ENDBRANCH  20  25
ENDBRANCH   1  13
BRANCH  10  28
HETATM   28  N5  UNL     1      -4.806   1.965  13.692  1.00  0.00    -0.365 N 
ATOM     29  H5  UNL     1      -5.437   2.686  13.342  1.00  0.00     0.161 HD
BRANCH  28  30
HETATM   30  C10 UNL     1      -5.049   1.571  15.016  1.00  0.00     0.110 C 
BRANCH  30  31
HETATM   31  C11 UNL     1      -3.923   0.687  15.583  1.00  0.00     0.189 C 
BRANCH  31  32
HETATM   32  O1  UNL     1      -3.110   1.431  16.436  1.00  0.00    -0.399 OA
ATOM     33  H1  UNL     1      -2.281   0.988  16.569  1.00  0.00     0.209 HD
ENDBRANCH  31  32
ENDBRANCH  30  31
BRANCH  30  34
HETATM   34  C12 UNL     1      -5.236   2.749  15.952  1.00  0.00     0.010 C 
HETATM   35  C13 UNL     1      -6.488   2.578  16.756  1.00  0.00     0.007 C 
HETATM   36  C14 UNL     1      -6.927   3.980  17.129  1.00  0.00     0.000 C 
HETATM   37  C15 UNL     1      -6.503   4.808  15.947  1.00  0.00     0.000 C 
HETATM   38  C16 UNL     1      -5.376   4.057  15.251  1.00  0.00     0.007 C 
ENDBRANCH  30  34
ENDBRANCH  28  30
ENDBRANCH  10  28
TORSDOF 7
ENDMDL
MODEL 5
REMARK VINA RESULT: -8.193141715      4.640      5.967
REMARK  7 active torsions:
REMARK  status: ('A' for Active; 'I' for Inactive)
REMARK    1  A    between atoms: C6_6  and  C7_7 
REMARK    2  A    between atoms: C9_16  and  N5_17 
REMARK    3  A    between atoms: N5_17  and  C10_19 
REMARK    4  A    between atoms: C10_19  and  C11_20 
REMARK    5  A    between atoms: C10_19  and  C12_23 
REMARK    6  A    between atoms: C11_20  and  O1_21 
REMARK    7  A    between atoms: C21_35  and  C22_36 
ROOT
HETATM    1  C7  UNL     1      -3.912   4.250  11.180  1.00  0.00     0.118 A 
HETATM    2  N1  UNL     1      -3.224   3.364  10.425  1.00  0.00    -0.183 N 
ATOM      3  H1  UNL     1      -3.121   3.583   9.434  1.00  0.00     0.184 HD
HETATM    4  C8  UNL     1      -2.672   2.240  10.851  1.00  0.00     0.723 A 
HETATM    5  N2  UNL     1      -1.961   1.107  10.620  1.00  0.00    -0.115 N 
ATOM      6  H2  UNL     1      -1.518   0.666   9.813  1.00  0.00     0.207 HD
HETATM    7  N3  UNL     1      -2.097   0.831  11.890  1.00  0.00    -0.205 N 
ATOM      8  H3  UNL     1      -1.778   0.050  12.463  1.00  0.00     0.210 HD
HETATM    9  N4  UNL     1      -2.792   1.919  12.174  1.00  0.00    -0.050 N 
HETATM   10  C9  UNL     1      -3.458   2.733  13.010  1.00  0.00     0.184 A 
HETATM   11  C17 UNL     1      -4.028   3.916  12.510  1.00  0.00     0.192 A 
HETATM   12  F1  UNL     1      -4.684   4.702  13.372  1.00  0.00    -0.199 F 
ENDROOT
BRANCH   1  13
HETATM   13  C6  UNL     1      -4.480   5.459  10.600  1.00  0.00     0.063 A 
HETATM   14  C5  UNL     1      -5.433   6.316  11.023  1.00  0.00     0.041 A 
HETATM   15  C4  UNL     1      -5.620   7.343  10.086  1.00  0.00    -0.025 A 
HETATM   16  C2  UNL     1      -6.532   8.523  10.059  1.00  0.00    -0.005 C 
HETATM   17  C18 UNL     1      -4.724   7.053   9.080  1.00  0.00     0.017 A 
HETATM   18  C1  UNL     1      -6.948   8.822  11.481  1.00  0.00     0.021 C 
HETATM   19  C3  UNL     1      -7.813   8.053   9.354  1.00  0.00     0.021 C 
HETATM   20  C21 UNL     1      -5.933   9.685   9.356  1.00  0.00     0.099 C 
HETATM   21  C20 UNL     1      -4.708   9.386   8.536  1.00  0.00     0.022 C 
HETATM   22  C19 UNL     1      -4.711   8.007   7.930  1.00  0.00     0.058 C 
HETATM   23  N6  UNL     1      -4.057   5.934   9.399  1.00  0.00    -0.357 N 
ATOM     24  H6  UNL     1      -3.335   5.501   8.823  1.00  0.00     0.166 HD
BRANCH  20  25
HETATM   25  C22 UNL     1      -5.634  10.791  10.293  1.00  0.00     0.178 C 
HETATM   26  O2  UNL     1      -4.504  10.817  10.894  1.00  0.00    -0.648 OA
HETATM   27  O3  UNL     1      -6.515  11.834  10.576  1.00  0.00    -0.648 OA
ENDBRANCH  20  25
ENDBRANCH   1  13
BRANCH  10  28
HETATM   28  N5  UNL     1      -3.622   2.526  14.241  1.00  0.00    -0.365 N 
ATOM     29  H5  UNL     1      -2.895   2.921  14.837  1.00  0.00     0.161 HD
BRANCH  28  30
HETATM   30  C10 UNL     1      -4.634   1.844  14.932  1.00  0.00     0.110 C 
BRANCH  30  31
HETATM   31  C11 UNL     1      -4.240   0.395  15.273  1.00  0.00     0.189 C 
BRANCH  31  32
HETATM   32  O1  UNL     1      -4.672  -0.470  14.270  1.00  0.00    -0.399 OA
ATOM     33  H1  UNL     1      -4.194  -0.305  13.466  1.00  0.00     0.209 HD
ENDBRANCH  31  32
ENDBRANCH  30  31
BRANCH  30  34
HETATM   34  C12 UNL     1      -5.033   2.536  16.221  1.00  0.00     0.010 C 
HETATM   35  C13 UNL     1      -5.377   1.522  17.268  1.00  0.00     0.007 C 
HETATM   36  C14 UNL     1      -6.335   2.222  18.211  1.00  0.00     0.000 C 
HETATM   37  C15 UNL     1      -7.100   3.153  17.311  1.00  0.00     0.000 C 
HETATM   38  C16 UNL     1      -6.233   3.409  16.086  1.00  0.00     0.007 C 
ENDBRANCH  30  34
ENDBRANCH  28  30
ENDBRANCH  10  28
TORSDOF 7
ENDMDL
