MODEL 1
REMARK VINA RESULT: -8.337887642      0.000      0.000
REMARK  6 active torsions:
REMARK  status: ('A' for Active; 'I' for Inactive)
REMARK    1  A    between atoms: C5_8  and  C6_9 
REMARK    2  A    between atoms: C6_9  and  C7_10 
REMARK    3  A    between atoms: C10_13  and  N2_14 
REMARK    4  A    between atoms: N2_14  and  C11_16 
REMARK    5  A    between atoms: C16_26  and  N5_27 
REMARK    6  A    between atoms: N5_27  and  C17_29 
ROOT
HETATM    1  C7  UNL     1      -2.169   5.731  12.297  1.00  0.00     0.019 A 
HETATM    2  C8  UNL     1      -2.758   4.680  11.595  1.00  0.00     0.044 A 
HETATM    3  C9  UNL     1      -3.665   4.045  12.423  1.00  0.00     0.055 A 
HETATM    4  C10 UNL     1      -4.509   2.968  12.250  1.00  0.00     0.131 A 
HETATM    5  N4  UNL     1      -5.276   2.609  13.293  1.00  0.00    -0.176 N 
ATOM      6  H4  UNL     1      -5.907   1.814  13.186  1.00  0.00     0.186 HD
HETATM    7  C16 UNL     1      -5.246   3.255  14.475  1.00  0.00     0.681 A 
HETATM    8  N6  UNL     1      -4.414   4.302  14.614  1.00  0.00    -0.176 N 
ATOM      9  H6  UNL     1      -4.394   4.789  15.509  1.00  0.00     0.186 HD
HETATM   10  C22 UNL     1      -3.602   4.741  13.627  1.00  0.00     0.137 A 
HETATM   11  N7  UNL     1      -2.703   5.743  13.530  1.00  0.00    -0.340 N 
HETATM   12  C23 UNL     1      -2.384   6.671  14.601  1.00  0.00     0.158 C 
ENDROOT
BRANCH   4  13
HETATM   13  N2  UNL     1      -4.529   2.369  11.117  1.00  0.00    -0.369 N 
ATOM     14  H2  UNL     1      -5.047   2.834  10.372  1.00  0.00     0.161 HD
BRANCH  13  15
HETATM   15  C11 UNL     1      -3.913   1.131  10.775  1.00  0.00     0.108 C 
HETATM   16  C12 UNL     1      -2.768   0.933  11.772  1.00  0.00     0.028 C 
HETATM   17  C13 UNL     1      -2.041  -0.363  11.507  1.00  0.00     0.029 C 
HETATM   18  C14 UNL     1      -3.064  -1.476  11.453  1.00  0.00     0.232 C 
HETATM   19  N3  UNL     1      -4.373  -1.022  11.874  1.00  0.00    -0.073 N 
HETATM   20  C15 UNL     1      -4.899   0.011  11.014  1.00  0.00     0.257 C 
ATOM     21  H32 UNL     1      -5.025  -1.803  11.954  1.00  0.00     0.277 HD
ATOM     22  H31 UNL     1      -4.361  -0.720  12.848  1.00  0.00     0.277 HD
ENDBRANCH  13  15
ENDBRANCH   4  13
BRANCH   7  23
HETATM   23  N5  UNL     1      -5.964   2.947  15.499  1.00  0.00    -0.221 N 
ATOM     24  H5  UNL     1      -6.972   2.893  15.353  1.00  0.00     0.178 HD
BRANCH  23  25
HETATM   25  C17 UNL     1      -5.491   2.672  16.816  1.00  0.00     0.099 C 
HETATM   26  C18 UNL     1      -4.959   1.245  16.818  1.00  0.00     0.026 C 
HETATM   27  C19 UNL     1      -6.059   0.374  17.359  1.00  0.00     0.002 C 
HETATM   28  C20 UNL     1      -7.291   1.265  17.312  1.00  0.00     0.002 C 
HETATM   29  C21 UNL     1      -6.686   2.600  17.745  1.00  0.00     0.026 C 
ENDBRANCH  23  25
ENDBRANCH   7  23
BRANCH   1  30
HETATM   30  C6  UNL     1      -1.147   6.636  11.741  1.00  0.00     0.114 C 
BRANCH  30  31
HETATM   31  C5  UNL     1       0.036   5.796  11.360  1.00  0.00     0.022 A 
HETATM   32  C2  UNL     1       0.446   5.541  10.068  1.00  0.00    -0.016 A 
HETATM   33  C1  UNL     1      -0.216   6.059   8.830  1.00  0.00     0.052 C 
HETATM   34  C3  UNL     1       1.561   4.733  10.126  1.00  0.00     0.057 A 
HETATM   35 CL1  UNL     1       2.482   4.109   8.763  1.00  0.00    -0.082 Cl
HETATM   36  C4  UNL     1       1.822   4.501  11.454  1.00  0.00     0.112 A 
HETATM   37  N1  UNL     1       0.887   5.155  12.164  1.00  0.00    -0.367 N 
ATOM     38  H1  UNL     1       0.835   5.161  13.183  1.00  0.00     0.165 HD
ENDBRANCH  30  31
ENDBRANCH   1  30
TORSDOF 6
ENDMDL
MODEL 2
REMARK VINA RESULT: -8.130059599      1.126      1.402
REMARK  6 active torsions:
REMARK  status: ('A' for Active; 'I' for Inactive)
REMARK    1  A    between atoms: C5_8  and  C6_9 
REMARK    2  A    between atoms: C6_9  and  C7_10 
REMARK    3  A    between atoms: C10_13  and  N2_14 
REMARK    4  A    between atoms: N2_14  and  C11_16 
REMARK    5  A    between atoms: C16_26  and  N5_27 
REMARK    6  A    between atoms: N5_27  and  C17_29 
ROOT
HETATM    1  C7  UNL     1      -2.208   5.740  12.098  1.00  0.00     0.019 A 
HETATM    2  C8  UNL     1      -2.798   4.662  11.439  1.00  0.00     0.044 A 
HETATM    3  C9  UNL     1      -3.674   4.036  12.306  1.00  0.00     0.055 A 
HETATM    4  C10 UNL     1      -4.505   2.942  12.183  1.00  0.00     0.131 A 
HETATM    5  N4  UNL     1      -5.238   2.598  13.254  1.00  0.00    -0.176 N 
ATOM      6  H4  UNL     1      -5.859   1.791  13.184  1.00  0.00     0.186 HD
HETATM    7  C16 UNL     1      -5.189   3.275  14.418  1.00  0.00     0.681 A 
HETATM    8  N6  UNL     1      -4.370   4.338  14.508  1.00  0.00    -0.176 N 
ATOM      9  H6  UNL     1      -4.336   4.849  15.390  1.00  0.00     0.186 HD
HETATM   10  C22 UNL     1      -3.591   4.764  13.489  1.00  0.00     0.137 A 
HETATM   11  N7  UNL     1      -2.711   5.777  13.344  1.00  0.00    -0.340 N 
HETATM   12  C23 UNL     1      -2.379   6.737  14.381  1.00  0.00     0.158 C 
ENDROOT
BRANCH   4  13
HETATM   13  N2  UNL     1      -4.543   2.313  11.067  1.00  0.00    -0.369 N 
ATOM     14  H2  UNL     1      -5.087   2.750  10.323  1.00  0.00     0.161 HD
BRANCH  13  15
HETATM   15  C11 UNL     1      -3.918   1.075  10.741  1.00  0.00     0.108 C 
HETATM   16  C12 UNL     1      -2.776   0.896  11.744  1.00  0.00     0.028 C 
HETATM   17  C13 UNL     1      -2.039  -0.397  11.497  1.00  0.00     0.029 C 
HETATM   18  C14 UNL     1      -3.054  -1.518  11.452  1.00  0.00     0.232 C 
HETATM   19  N3  UNL     1      -4.367  -1.068  11.864  1.00  0.00    -0.073 N 
HETATM   20  C15 UNL     1      -4.898  -0.049  10.989  1.00  0.00     0.257 C 
ATOM     21  H32 UNL     1      -5.014  -1.852  11.950  1.00  0.00     0.277 HD
ATOM     22  H31 UNL     1      -4.361  -0.755  12.834  1.00  0.00     0.277 HD
ENDBRANCH  13  15
ENDBRANCH   4  13
BRANCH   7  23
HETATM   23  N5  UNL     1      -5.875   2.983  15.468  1.00  0.00    -0.221 N 
ATOM     24  H5  UNL     1      -6.890   2.985  15.367  1.00  0.00     0.178 HD
BRANCH  23  25
HETATM   25  C17 UNL     1      -5.359   2.656  16.756  1.00  0.00     0.099 C 
HETATM   26  C18 UNL     1      -4.910   1.202  16.709  1.00  0.00     0.026 C 
HETATM   27  C19 UNL     1      -6.032   0.383  17.285  1.00  0.00     0.002 C 
HETATM   28  C20 UNL     1      -7.212   1.343  17.311  1.00  0.00     0.002 C 
HETATM   29  C21 UNL     1      -6.512   2.633  17.739  1.00  0.00     0.026 C 
ENDBRANCH  23  25
ENDBRANCH   7  23
BRANCH   1  30
HETATM   30  C6  UNL     1      -1.216   6.646  11.492  1.00  0.00     0.114 C 
BRANCH  30  31
HETATM   31  C5  UNL     1       0.136   6.028  11.694  1.00  0.00     0.022 A 
HETATM   32  C2  UNL     1       1.197   6.632  12.336  1.00  0.00    -0.016 A 
HETATM   33  C1  UNL     1       1.181   8.000  12.940  1.00  0.00     0.052 C 
HETATM   34  C3  UNL     1       2.261   5.755  12.319  1.00  0.00     0.057 A 
HETATM   35 CL1  UNL     1       3.860   6.025  12.999  1.00  0.00    -0.082 Cl
HETATM   36  C4  UNL     1       1.839   4.623  11.665  1.00  0.00     0.112 A 
HETATM   37  N1  UNL     1       0.560   4.823  11.305  1.00  0.00    -0.367 N 
ATOM     38  H1  UNL     1      -0.011   4.144  10.803  1.00  0.00     0.165 HD
ENDBRANCH  30  31
ENDBRANCH   1  30
TORSDOF 6
ENDMDL
MODEL 3
REMARK VINA RESULT: -7.921348898      2.393      4.495
REMARK  6 active torsions:
REMARK  status: ('A' for Active; 'I' for Inactive)
REMARK    1  A    between atoms: C5_8  and  C6_9 
REMARK    2  A    between atoms: C6_9  and  C7_10 
REMARK    3  A    between atoms: C10_13  and  N2_14 
REMARK    4  A    between atoms: N2_14  and  C11_16 
REMARK    5  A    between atoms: C16_26  and  N5_27 
REMARK    6  A    between atoms: N5_27  and  C17_29 
ROOT
HETATM    1  C7  UNL     1      -2.201   3.189  10.879  1.00  0.00     0.019 A 
HETATM    2  C8  UNL     1      -2.814   4.407  11.167  1.00  0.00     0.044 A 
HETATM    3  C9  UNL     1      -3.697   4.225  12.216  1.00  0.00     0.055 A 
HETATM    4  C10 UNL     1      -4.548   5.073  12.893  1.00  0.00     0.131 A 
HETATM    5  N4  UNL     1      -5.283   4.548  13.887  1.00  0.00    -0.176 N 
ATOM      6  H4  UNL     1      -5.919   5.159  14.400  1.00  0.00     0.186 HD
HETATM    7  C16 UNL     1      -5.214   3.249  14.236  1.00  0.00     0.681 A 
HETATM    8  N6  UNL     1      -4.374   2.446  13.558  1.00  0.00    -0.176 N 
ATOM      9  H6  UNL     1      -4.323   1.464  13.825  1.00  0.00     0.186 HD
HETATM   10  C22 UNL     1      -3.593   2.876  12.542  1.00  0.00     0.137 A 
HETATM   11  N7  UNL     1      -2.696   2.276  11.733  1.00  0.00    -0.340 N 
HETATM   12  C23 UNL     1      -2.340   0.870  11.795  1.00  0.00     0.158 C 
ENDROOT
BRANCH   4  13
HETATM   13  N2  UNL     1      -4.597   6.308  12.552  1.00  0.00    -0.369 N 
ATOM     14  H2  UNL     1      -4.127   6.965  13.174  1.00  0.00     0.161 HD
BRANCH  13  15
HETATM   15  C11 UNL     1      -5.229   6.871  11.407  1.00  0.00     0.108 C 
HETATM   16  C12 UNL     1      -6.611   7.340  11.869  1.00  0.00     0.028 C 
HETATM   17  C13 UNL     1      -7.377   7.966  10.729  1.00  0.00     0.029 C 
HETATM   18  C14 UNL     1      -6.502   9.026  10.098  1.00  0.00     0.232 C 
HETATM   19  N3  UNL     1      -5.311   9.274  10.882  1.00  0.00    -0.073 N 
HETATM   20  C15 UNL     1      -4.467   8.107  10.985  1.00  0.00     0.257 C 
ATOM     21  H32 UNL     1      -4.791  10.073  10.519  1.00  0.00     0.277 HD
ATOM     22  H31 UNL     1      -5.547   9.640  11.805  1.00  0.00     0.277 HD
ENDBRANCH  13  15
ENDBRANCH   4  13
BRANCH   7  23
HETATM   23  N5  UNL     1      -5.897   2.705  15.182  1.00  0.00    -0.221 N 
ATOM     24  H5  UNL     1      -6.759   2.231  14.913  1.00  0.00     0.178 HD
BRANCH  23  25
HETATM   25  C17 UNL     1      -5.568   2.698  16.570  1.00  0.00     0.099 C 
HETATM   26  C18 UNL     1      -5.047   1.307  16.905  1.00  0.00     0.026 C 
HETATM   27  C19 UNL     1      -6.202   0.539  17.485  1.00  0.00     0.002 C 
HETATM   28  C20 UNL     1      -7.418   1.384  17.136  1.00  0.00     0.002 C 
HETATM   29  C21 UNL     1      -6.856   2.788  17.364  1.00  0.00     0.026 C 
ENDBRANCH  23  25
ENDBRANCH   7  23
BRANCH   1  30
HETATM   30  C6  UNL     1      -1.198   2.990   9.817  1.00  0.00     0.114 C 
BRANCH  30  31
HETATM   31  C5  UNL     1       0.075   3.633  10.278  1.00  0.00     0.022 A 
HETATM   32  C2  UNL     1       1.032   4.183   9.451  1.00  0.00    -0.016 A 
HETATM   33  C1  UNL     1       0.962   4.232   7.958  1.00  0.00     0.052 C 
HETATM   34  C3  UNL     1       2.051   4.671  10.241  1.00  0.00     0.057 A 
HETATM   35 CL1  UNL     1       3.519   5.470   9.694  1.00  0.00    -0.082 Cl
HETATM   36  C4  UNL     1       1.706   4.414  11.546  1.00  0.00     0.112 A 
HETATM   37  N1  UNL     1       0.516   3.792  11.529  1.00  0.00    -0.367 N 
ATOM     38  H1  UNL     1       0.014   3.482  12.361  1.00  0.00     0.165 HD
ENDBRANCH  30  31
ENDBRANCH   1  30
TORSDOF 6
ENDMDL
MODEL 4
REMARK VINA RESULT: -7.918006986      3.439      6.100
REMARK  6 active torsions:
REMARK  status: ('A' for Active; 'I' for Inactive)
REMARK    1  A    between atoms: C5_8  and  C6_9 
REMARK    2  A    between atoms: C6_9  and  C7_10 
REMARK    3  A    between atoms: C10_13  and  N2_14 
REMARK    4  A    between atoms: N2_14  and  C11_16 
REMARK    5  A    between atoms: C16_26  and  N5_27 
REMARK    6  A    between atoms: N5_27  and  C17_29 
ROOT
HETATM    1  C7  UNL     1      -3.860   6.517  11.850  1.00  0.00     0.019 A 
HETATM    2  C8  UNL     1      -4.288   5.838  12.990  1.00  0.00     0.044 A 
HETATM    3  C9  UNL     1      -3.834   4.534  12.928  1.00  0.00     0.055 A 
HETATM    4  C10 UNL     1      -3.962   3.447  13.768  1.00  0.00     0.131 A 
HETATM    5  N4  UNL     1      -3.378   2.299  13.388  1.00  0.00    -0.176 N 
ATOM      6  H4  UNL     1      -3.462   1.483  13.996  1.00  0.00     0.186 HD
HETATM    7  C16 UNL     1      -2.686   2.180  12.238  1.00  0.00     0.681 A 
HETATM    8  N6  UNL     1      -2.578   3.256  11.440  1.00  0.00    -0.176 N 
ATOM      9  H6  UNL     1      -2.052   3.163  10.571  1.00  0.00     0.186 HD
HETATM   10  C22 UNL     1      -3.128   4.455  11.731  1.00  0.00     0.137 A 
HETATM   11  N7  UNL     1      -3.156   5.650  11.103  1.00  0.00    -0.340 N 
HETATM   12  C23 UNL     1      -2.520   5.926   9.828  1.00  0.00     0.158 C 
ENDROOT
BRANCH   4  13
HETATM   13  N2  UNL     1      -4.619   3.580  14.861  1.00  0.00    -0.369 N 
ATOM     14  H2  UNL     1      -4.480   4.456  15.364  1.00  0.00     0.161 HD
BRANCH  13  15
HETATM   15  C11 UNL     1      -5.520   2.651  15.455  1.00  0.00     0.108 C 
HETATM   16  C12 UNL     1      -4.729   1.929  16.548  1.00  0.00     0.028 C 
HETATM   17  C13 UNL     1      -5.593   0.914  17.257  1.00  0.00     0.029 C 
HETATM   18  C14 UNL     1      -6.859   1.607  17.711  1.00  0.00     0.232 C 
HETATM   19  N3  UNL     1      -6.779   3.041  17.533  1.00  0.00    -0.073 N 
HETATM   20  C15 UNL     1      -6.625   3.415  16.147  1.00  0.00     0.257 C 
ATOM     21  H32 UNL     1      -7.581   3.510  17.954  1.00  0.00     0.277 HD
ATOM     22  H31 UNL     1      -6.036   3.442  18.107  1.00  0.00     0.277 HD
ENDBRANCH  13  15
ENDBRANCH   4  13
BRANCH   7  23
HETATM   23  N5  UNL     1      -2.109   1.100  11.837  1.00  0.00    -0.221 N 
ATOM     24  H5  UNL     1      -1.262   0.821  12.333  1.00  0.00     0.178 HD
BRANCH  23  25
HETATM   25  C17 UNL     1      -2.535   0.256  10.769  1.00  0.00     0.099 C 
HETATM   26  C18 UNL     1      -3.995   0.587  10.487  1.00  0.00     0.026 C 
HETATM   27  C19 UNL     1      -4.820  -0.434  11.219  1.00  0.00     0.002 C 
HETATM   28  C20 UNL     1      -3.834  -1.087  12.175  1.00  0.00     0.002 C 
HETATM   29  C21 UNL     1      -2.594  -1.168  11.284  1.00  0.00     0.026 C 
ENDBRANCH  23  25
ENDBRANCH   7  23
BRANCH   1  30
HETATM   30  C6  UNL     1      -4.154   7.933  11.563  1.00  0.00     0.114 C 
BRANCH  30  31
HETATM   31  C5  UNL     1      -5.140   7.965  10.433  1.00  0.00     0.022 A 
HETATM   32  C2  UNL     1      -6.510   7.890  10.573  1.00  0.00    -0.016 A 
HETATM   33  C1  UNL     1      -7.244   7.767  11.870  1.00  0.00     0.052 C 
HETATM   34  C3  UNL     1      -7.071   7.949   9.315  1.00  0.00     0.057 A 
HETATM   35 CL1  UNL     1      -8.785   7.892   8.922  1.00  0.00    -0.082 Cl
HETATM   36  C4  UNL     1      -6.037   8.058   8.418  1.00  0.00     0.112 A 
HETATM   37  N1  UNL     1      -4.895   8.065   9.124  1.00  0.00    -0.367 N 
ATOM     38  H1  UNL     1      -3.963   8.139   8.715  1.00  0.00     0.165 HD
ENDBRANCH  30  31
ENDBRANCH   1  30
TORSDOF 6
ENDMDL
MODEL 5
REMARK VINA RESULT: -7.826821085      2.474      5.478
REMARK  6 active torsions:
REMARK  status: ('A' for Active; 'I' for Inactive)
REMARK    1  A    between atoms: C5_8  and  C6_9 
REMARK    2  A    between atoms: C6_9  and  C7_10 
REMARK    3  A    between atoms: C10_13  and  N2_14 
REMARK    4  A    between atoms: N2_14  and  C11_16 
REMARK    5  A    between atoms: C16_26  and  N5_27 
REMARK    6  A    between atoms: N5_27  and  C17_29 
ROOT
HETATM    1  C7  UNL     1      -1.873   5.465  13.821  1.00  0.00     0.019 A 
HETATM    2  C8  UNL     1      -3.006   5.106  14.551  1.00  0.00     0.044 A 
HETATM    3  C9  UNL     1      -3.726   4.174  13.827  1.00  0.00     0.055 A 
HETATM    4  C10 UNL     1      -4.901   3.494  14.066  1.00  0.00     0.131 A 
HETATM    5  N4  UNL     1      -5.325   2.639  13.121  1.00  0.00    -0.176 N 
ATOM      6  H4  UNL     1      -6.194   2.127  13.279  1.00  0.00     0.186 HD
HETATM    7  C16 UNL     1      -4.651   2.429  11.974  1.00  0.00     0.681 A 
HETATM    8  N6  UNL     1      -3.507   3.106  11.768  1.00  0.00    -0.176 N 
ATOM      9  H6  UNL     1      -2.999   2.944  10.899  1.00  0.00     0.186 HD
HETATM   10  C22 UNL     1      -2.997   3.988  12.655  1.00  0.00     0.137 A 
HETATM   11  N7  UNL     1      -1.895   4.768  12.672  1.00  0.00    -0.340 N 
HETATM   12  C23 UNL     1      -0.909   4.825  11.608  1.00  0.00     0.158 C 
ENDROOT
BRANCH   4  13
HETATM   13  N2  UNL     1      -5.527   3.702  15.165  1.00  0.00    -0.369 N 
ATOM     14  H2  UNL     1      -6.145   4.513  15.184  1.00  0.00     0.161 HD
BRANCH  13  15
HETATM   15  C11 UNL     1      -5.461   2.936  16.364  1.00  0.00     0.108 C 
HETATM   16  C12 UNL     1      -6.845   2.308  16.546  1.00  0.00     0.028 C 
HETATM   17  C13 UNL     1      -6.892   1.460  17.794  1.00  0.00     0.029 C 
HETATM   18  C14 UNL     1      -5.732   0.490  17.750  1.00  0.00     0.232 C 
HETATM   19  N3  UNL     1      -5.066   0.509  16.465  1.00  0.00    -0.073 N 
HETATM   20  C15 UNL     1      -4.487   1.798  16.165  1.00  0.00     0.257 C 
ATOM     21  H32 UNL     1      -4.368  -0.232  16.401  1.00  0.00     0.277 HD
ATOM     22  H31 UNL     1      -5.694   0.205  15.720  1.00  0.00     0.277 HD
ENDBRANCH  13  15
ENDBRANCH   4  13
BRANCH   7  23
HETATM   23  N5  UNL     1      -5.019   1.618  11.043  1.00  0.00    -0.221 N 
ATOM     24  H5  UNL     1      -5.333   2.036  10.168  1.00  0.00     0.178 HD
BRANCH  23  25
HETATM   25  C17 UNL     1      -5.030   0.194  11.115  1.00  0.00     0.099 C 
HETATM   26  C18 UNL     1      -4.129  -0.208  12.275  1.00  0.00     0.026 C 
HETATM   27  C19 UNL     1      -2.789  -0.551  11.685  1.00  0.00     0.002 C 
HETATM   28  C20 UNL     1      -2.858   0.003  10.269  1.00  0.00     0.002 C 
HETATM   29  C21 UNL     1      -4.300  -0.348   9.902  1.00  0.00     0.026 C 
ENDBRANCH  23  25
ENDBRANCH   7  23
BRANCH   1  30
HETATM   30  C6  UNL     1      -0.864   6.440  14.272  1.00  0.00     0.114 C 
BRANCH  30  31
HETATM   31  C5  UNL     1      -1.308   7.794  13.803  1.00  0.00     0.022 A 
HETATM   32  C2  UNL     1      -1.434   8.910  14.603  1.00  0.00    -0.016 A 
HETATM   33  C1  UNL     1      -1.147   8.962  16.070  1.00  0.00     0.052 C 
HETATM   34  C3  UNL     1      -1.865   9.955  13.814  1.00  0.00     0.057 A 
HETATM   35 CL1  UNL     1      -2.188  11.604  14.332  1.00  0.00    -0.082 Cl
HETATM   36  C4  UNL     1      -2.001   9.466  12.537  1.00  0.00     0.112 A 
HETATM   37  N1  UNL     1      -1.658   8.167  12.569  1.00  0.00    -0.367 N 
ATOM     38  H1  UNL     1      -1.663   7.549  11.758  1.00  0.00     0.165 HD
ENDBRANCH  30  31
ENDBRANCH   1  30
TORSDOF 6
ENDMDL
