MODEL 1
REMARK VINA RESULT: -8.261937256      0.000      0.000
REMARK  8 active torsions:
REMARK  status: ('A' for Active; 'I' for Inactive)
REMARK    1  A    between atoms: C5_7  and  N2_8 
REMARK    2  A    between atoms: C6_13  and  N4_14 
REMARK    3  A    between atoms: N4_14  and  C7_16 
REMARK    4  A    between atoms: C10_19  and  O1_20 
REMARK    5  A    between atoms: C15_26  and  O2_27 
REMARK    6  A    between atoms: O2_27  and  C16_28 
REMARK    7  A    between atoms: C16_28  and  C17_29 
REMARK    8  A    between atoms: C20_32  and  C21_33 
REMARK       I    between atoms: C21_33  and  N5_35 
ROOT
HETATM    1  C1  UNL     1      -2.019   7.994  15.065  1.00  0.00     0.051 C 
HETATM    2  C2  UNL     1      -1.861   6.903  14.060  1.00  0.00    -0.026 A 
HETATM    3  C3  UNL     1      -0.605   6.632  13.512  1.00  0.00     0.040 A 
HETATM    4  C4  UNL     1      -0.406   5.638  12.581  1.00  0.00     0.063 A 
HETATM    5  N1  UNL     1       0.786   5.348  12.035  1.00  0.00    -0.191 N 
ATOM      6  H1  UNL     1       1.602   5.891  12.319  1.00  0.00     0.184 HD
HETATM    7  C5  UNL     1       0.944   4.369  11.129  1.00  0.00     0.677 A 
HETATM    8  N3  UNL     1      -0.107   3.628  10.728  1.00  0.00    -0.176 N 
ATOM      9  H3  UNL     1       0.013   2.884  10.041  1.00  0.00     0.186 HD
HETATM   10  C6  UNL     1      -1.317   3.888  11.253  1.00  0.00     0.130 A 
HETATM   11  C13 UNL     1      -1.514   4.896  12.194  1.00  0.00     0.038 A 
HETATM   12  C14 UNL     1      -2.765   5.145  12.719  1.00  0.00     0.054 A 
HETATM   13  C15 UNL     1      -2.940   6.147  13.652  1.00  0.00     0.075 A 
ENDROOT
BRANCH  13  14
HETATM   14  O2  UNL     1      -4.175   6.437  14.210  1.00  0.00    -0.350 OA
BRANCH  14  15
HETATM   15  C16 UNL     1      -4.532   6.017  15.518  1.00  0.00     0.181 C 
BRANCH  15  16
HETATM   16  C17 UNL     1      -5.763   5.149  15.508  1.00  0.00     0.023 C 
HETATM   17  C18 UNL     1      -6.413   5.219  14.135  1.00  0.00     0.008 C 
HETATM   18  C19 UNL     1      -6.393   3.728  14.026  1.00  0.00     0.015 C 
HETATM   19  C20 UNL     1      -5.499   3.684  15.246  1.00  0.00     0.084 C 
BRANCH  19  20
HETATM   20  C21 UNL     1      -6.051   2.765  16.259  1.00  0.00     0.223 C 
HETATM   21  O3  UNL     1      -7.020   3.128  16.969  1.00  0.00    -0.273 OA
HETATM   22  N5  UNL     1      -5.525   1.463  16.470  1.00  0.00    -0.360 N 
HETATM   23  C22 UNL     1      -6.067   0.562  17.464  1.00  0.00     0.152 C 
HETATM   24  C23 UNL     1      -4.394   1.040  15.641  1.00  0.00     0.152 C 
ENDBRANCH  19  20
ENDBRANCH  15  16
ENDBRANCH  14  15
ENDBRANCH  13  14
BRANCH  10  25
HETATM   25  N4  UNL     1      -2.362   3.212  10.912  1.00  0.00    -0.370 N 
ATOM     26  H4  UNL     1      -2.914   3.557  10.127  1.00  0.00     0.161 HD
BRANCH  25  27
HETATM   27  C7  UNL     1      -2.806   1.999  11.566  1.00  0.00     0.083 C 
HETATM   28  C8  UNL     1      -4.321   1.919  11.599  1.00  0.00     0.028 C 
HETATM   29  C9  UNL     1      -4.797   0.517  11.358  1.00  0.00     0.034 C 
HETATM   30  C10 UNL     1      -3.949  -0.524  12.038  1.00  0.00     0.118 C 
HETATM   31  C11 UNL     1      -2.565  -0.477  11.455  1.00  0.00     0.034 C 
HETATM   32  C12 UNL     1      -2.329   0.830  10.721  1.00  0.00     0.028 C 
BRANCH  30  33
HETATM   33  O1  UNL     1      -4.560  -1.760  11.790  1.00  0.00    -0.396 OA
ATOM     34  H1  UNL     1      -4.720  -2.156  12.638  1.00  0.00     0.210 HD
ENDBRANCH  30  33
ENDBRANCH  25  27
ENDBRANCH  10  25
BRANCH   7  35
HETATM   35  N2  UNL     1       2.091   4.088  10.601  1.00  0.00    -0.234 N 
ATOM     36  H22 UNL     1       2.865   4.716  10.820  1.00  0.00     0.174 HD
ATOM     37  H21 UNL     1       2.231   3.282   9.992  1.00  0.00     0.174 HD
ENDBRANCH   7  35
TORSDOF 8
ENDMDL
MODEL 2
REMARK VINA RESULT: -7.910088957      2.716      6.593
REMARK  8 active torsions:
REMARK  status: ('A' for Active; 'I' for Inactive)
REMARK    1  A    between atoms: C5_7  and  N2_8 
REMARK    2  A    between atoms: C6_13  and  N4_14 
REMARK    3  A    between atoms: N4_14  and  C7_16 
REMARK    4  A    between atoms: C10_19  and  O1_20 
REMARK    5  A    between atoms: C15_26  and  O2_27 
REMARK    6  A    between atoms: O2_27  and  C16_28 
REMARK    7  A    between atoms: C16_28  and  C17_29 
REMARK    8  A    between atoms: C20_32  and  C21_33 
REMARK       I    between atoms: C21_33  and  N5_35 
ROOT
HETATM    1  C1  UNL     1       0.569   4.030  10.473  1.00  0.00     0.051 C 
HETATM    2  C2  UNL     1      -0.678   3.515  11.110  1.00  0.00    -0.026 A 
HETATM    3  C3  UNL     1      -1.083   2.197  10.889  1.00  0.00     0.040 A 
HETATM    4  C4  UNL     1      -2.225   1.673  11.451  1.00  0.00     0.063 A 
HETATM    5  N1  UNL     1      -2.644   0.411  11.263  1.00  0.00    -0.191 N 
ATOM      6  H1  UNL     1      -2.092  -0.207  10.669  1.00  0.00     0.184 HD
HETATM    7  C5  UNL     1      -3.764  -0.067  11.830  1.00  0.00     0.677 A 
HETATM    8  N3  UNL     1      -4.522   0.715  12.622  1.00  0.00    -0.176 N 
ATOM      9  H3  UNL     1      -5.372   0.352  13.053  1.00  0.00     0.186 HD
HETATM   10  C6  UNL     1      -4.134   1.985  12.835  1.00  0.00     0.130 A 
HETATM   11  C13 UNL     1      -2.979   2.511  12.262  1.00  0.00     0.038 A 
HETATM   12  C14 UNL     1      -2.600   3.817  12.495  1.00  0.00     0.054 A 
HETATM   13  C15 UNL     1      -1.451   4.319  11.920  1.00  0.00     0.075 A 
ENDROOT
BRANCH  13  14
HETATM   14  O2  UNL     1      -1.026   5.624  12.122  1.00  0.00    -0.350 OA
BRANCH  14  15
HETATM   15  C16 UNL     1      -0.855   6.172  13.420  1.00  0.00     0.181 C 
BRANCH  15  16
HETATM   16  C17 UNL     1      -1.777   7.339  13.657  1.00  0.00     0.023 C 
HETATM   17  C18 UNL     1      -2.776   6.976  14.746  1.00  0.00     0.008 C 
HETATM   18  C19 UNL     1      -2.406   8.199  15.522  1.00  0.00     0.015 C 
HETATM   19  C20 UNL     1      -1.229   8.395  14.591  1.00  0.00     0.084 C 
BRANCH  19  20
HETATM   20  C21 UNL     1      -1.227   9.764  14.042  1.00  0.00     0.223 C 
HETATM   21  O3  UNL     1      -1.994  10.058  13.094  1.00  0.00    -0.273 OA
HETATM   22  N5  UNL     1      -0.380  10.784  14.551  1.00  0.00    -0.360 N 
HETATM   23  C22 UNL     1      -0.378  12.127  14.014  1.00  0.00     0.152 C 
HETATM   24  C23 UNL     1       0.514  10.441  15.659  1.00  0.00     0.152 C 
ENDBRANCH  19  20
ENDBRANCH  15  16
ENDBRANCH  14  15
ENDBRANCH  13  14
BRANCH  10  25
HETATM   25  N4  UNL     1      -4.815   2.783  13.585  1.00  0.00    -0.370 N 
ATOM     26  H4  UNL     1      -4.855   3.767  13.317  1.00  0.00     0.161 HD
BRANCH  25  27
HETATM   27  C7  UNL     1      -5.525   2.382  14.782  1.00  0.00     0.083 C 
HETATM   28  C8  UNL     1      -4.658   1.501  15.663  1.00  0.00     0.028 C 
HETATM   29  C9  UNL     1      -4.861   1.817  17.115  1.00  0.00     0.034 C 
HETATM   30  C10 UNL     1      -6.297   2.095  17.468  1.00  0.00     0.118 C 
HETATM   31  C11 UNL     1      -6.745   3.329  16.736  1.00  0.00     0.034 C 
HETATM   32  C12 UNL     1      -5.813   3.642  15.580  1.00  0.00     0.028 C 
BRANCH  30  33
HETATM   33  O1  UNL     1      -6.335   2.290  18.855  1.00  0.00    -0.396 OA
ATOM     34  H1  UNL     1      -6.766   3.125  18.998  1.00  0.00     0.210 HD
ENDBRANCH  30  33
ENDBRANCH  25  27
ENDBRANCH  10  25
BRANCH   7  35
HETATM   35  N2  UNL     1      -4.171  -1.283  11.649  1.00  0.00    -0.234 N 
ATOM     36  H22 UNL     1      -3.694  -2.011  12.181  1.00  0.00     0.174 HD
ATOM     37  H21 UNL     1      -4.931  -1.517  11.011  1.00  0.00     0.174 HD
ENDBRANCH   7  35
TORSDOF 8
ENDMDL
MODEL 3
REMARK VINA RESULT: -7.837555136      4.125      6.873
REMARK  8 active torsions:
REMARK  status: ('A' for Active; 'I' for Inactive)
REMARK    1  A    between atoms: C5_7  and  N2_8 
REMARK    2  A    between atoms: C6_13  and  N4_14 
REMARK    3  A    between atoms: N4_14  and  C7_16 
REMARK    4  A    between atoms: C10_19  and  O1_20 
REMARK    5  A    between atoms: C15_26  and  O2_27 
REMARK    6  A    between atoms: O2_27  and  C16_28 
REMARK    7  A    between atoms: C16_28  and  C17_29 
REMARK    8  A    between atoms: C20_32  and  C21_33 
REMARK       I    between atoms: C21_33  and  N5_35 
ROOT
HETATM    1  C1  UNL     1      -6.948   7.812  11.862  1.00  0.00     0.051 C 
HETATM    2  C2  UNL     1      -6.264   6.634  12.471  1.00  0.00    -0.026 A 
HETATM    3  C3  UNL     1      -6.789   6.037  13.620  1.00  0.00     0.040 A 
HETATM    4  C4  UNL     1      -6.197   4.950  14.221  1.00  0.00     0.063 A 
HETATM    5  N1  UNL     1      -6.674   4.348  15.323  1.00  0.00    -0.191 N 
ATOM      6  H1  UNL     1      -7.526   4.711  15.752  1.00  0.00     0.184 HD
HETATM    7  C5  UNL     1      -6.070   3.287  15.882  1.00  0.00     0.677 A 
HETATM    8  N3  UNL     1      -4.944   2.776  15.348  1.00  0.00    -0.176 N 
ATOM      9  H3  UNL     1      -4.486   1.970  15.773  1.00  0.00     0.186 HD
HETATM   10  C6  UNL     1      -4.436   3.351  14.244  1.00  0.00     0.130 A 
HETATM   11  C13 UNL     1      -5.038   4.452  13.640  1.00  0.00     0.038 A 
HETATM   12  C14 UNL     1      -4.500   5.025  12.506  1.00  0.00     0.054 A 
HETATM   13  C15 UNL     1      -5.112   6.115  11.921  1.00  0.00     0.075 A 
ENDROOT
BRANCH  13  14
HETATM   14  O2  UNL     1      -4.611   6.727  10.782  1.00  0.00    -0.350 OA
BRANCH  14  15
HETATM   15  C16 UNL     1      -4.439   6.026   9.560  1.00  0.00     0.181 C 
BRANCH  15  16
HETATM   16  C17 UNL     1      -4.614   6.932   8.369  1.00  0.00     0.023 C 
HETATM   17  C18 UNL     1      -4.393   6.132   7.095  1.00  0.00     0.008 C 
HETATM   18  C19 UNL     1      -5.717   6.577   6.561  1.00  0.00     0.015 C 
HETATM   19  C20 UNL     1      -6.048   7.126   7.932  1.00  0.00     0.084 C 
BRANCH  19  20
HETATM   20  C21 UNL     1      -6.480   8.533   7.834  1.00  0.00     0.223 C 
HETATM   21  O3  UNL     1      -5.667   9.411   7.454  1.00  0.00    -0.273 OA
HETATM   22  N5  UNL     1      -7.799   8.947   8.156  1.00  0.00    -0.360 N 
HETATM   23  C22 UNL     1      -8.223  10.327   8.060  1.00  0.00     0.152 C 
HETATM   24  C23 UNL     1      -8.748   7.922   8.599  1.00  0.00     0.152 C 
ENDBRANCH  19  20
ENDBRANCH  15  16
ENDBRANCH  14  15
ENDBRANCH  13  14
BRANCH  10  25
HETATM   25  N4  UNL     1      -3.363   2.907  13.683  1.00  0.00    -0.370 N 
ATOM     26  H4  UNL     1      -2.502   3.437  13.821  1.00  0.00     0.161 HD
BRANCH  25  27
HETATM   27  C7  UNL     1      -3.293   1.710  12.870  1.00  0.00     0.083 C 
HETATM   28  C8  UNL     1      -4.670   1.301  12.381  1.00  0.00     0.028 C 
HETATM   29  C9  UNL     1      -4.618   0.796  10.970  1.00  0.00     0.034 C 
HETATM   30  C10 UNL     1      -3.409  -0.054  10.687  1.00  0.00     0.118 C 
HETATM   31  C11 UNL     1      -2.177   0.791  10.843  1.00  0.00     0.034 C 
HETATM   32  C12 UNL     1      -2.478   2.051  11.634  1.00  0.00     0.028 C 
BRANCH  30  33
HETATM   33  O1  UNL     1      -3.544  -0.511   9.369  1.00  0.00    -0.396 OA
ATOM     34  H1  UNL     1      -3.248  -1.414   9.366  1.00  0.00     0.210 HD
ENDBRANCH  30  33
ENDBRANCH  25  27
ENDBRANCH  10  25
BRANCH   7  35
HETATM   35  N2  UNL     1      -6.526   2.707  16.945  1.00  0.00    -0.234 N 
ATOM     36  H22 UNL     1      -6.507   3.248  17.809  1.00  0.00     0.174 HD
ATOM     37  H21 UNL     1      -6.892   1.755  16.936  1.00  0.00     0.174 HD
ENDBRANCH   7  35
TORSDOF 8
ENDMDL
MODEL 4
REMARK VINA RESULT: -7.820388683      2.585      6.652
REMARK  8 active torsions:
REMARK  status: ('A' for Active; 'I' for Inactive)
REMARK    1  A    between atoms: C5_7  and  N2_8 
REMARK    2  A    between atoms: C6_13  and  N4_14 
REMARK    3  A    between atoms: N4_14  and  C7_16 
REMARK    4  A    between atoms: C10_19  and  O1_20 
REMARK    5  A    between atoms: C15_26  and  O2_27 
REMARK    6  A    between atoms: O2_27  and  C16_28 
REMARK    7  A    between atoms: C16_28  and  C17_29 
REMARK    8  A    between atoms: C20_32  and  C21_33 
REMARK       I    between atoms: C21_33  and  N5_35 
ROOT
HETATM    1  C1  UNL     1       0.731   4.263  11.458  1.00  0.00     0.051 C 
HETATM    2  C2  UNL     1      -0.675   3.881  11.780  1.00  0.00    -0.026 A 
HETATM    3  C3  UNL     1      -1.277   2.807  11.121  1.00  0.00     0.040 A 
HETATM    4  C4  UNL     1      -2.570   2.414  11.381  1.00  0.00     0.063 A 
HETATM    5  N1  UNL     1      -3.181   1.386  10.769  1.00  0.00    -0.191 N 
ATOM      6  H1  UNL     1      -2.666   0.856  10.066  1.00  0.00     0.184 HD
HETATM    7  C5  UNL     1      -4.445   1.030  11.049  1.00  0.00     0.677 A 
HETATM    8  N3  UNL     1      -5.160   1.703  11.972  1.00  0.00    -0.176 N 
ATOM      9  H3  UNL     1      -6.121   1.432  12.184  1.00  0.00     0.186 HD
HETATM   10  C6  UNL     1      -4.583   2.738  12.606  1.00  0.00     0.130 A 
HETATM   11  C13 UNL     1      -3.275   3.132  12.338  1.00  0.00     0.038 A 
HETATM   12  C14 UNL     1      -2.702   4.197  13.002  1.00  0.00     0.054 A 
HETATM   13  C15 UNL     1      -1.404   4.572  12.724  1.00  0.00     0.075 A 
ENDROOT
BRANCH  13  14
HETATM   14  O2  UNL     1      -0.783   5.635  13.363  1.00  0.00    -0.350 OA
BRANCH  14  15
HETATM   15  C16 UNL     1      -1.341   6.259  14.509  1.00  0.00     0.181 C 
BRANCH  15  16
HETATM   16  C17 UNL     1      -1.642   7.714  14.259  1.00  0.00     0.023 C 
HETATM   17  C18 UNL     1      -2.219   8.331  15.524  1.00  0.00     0.008 C 
HETATM   18  C19 UNL     1      -1.188   9.413  15.491  1.00  0.00     0.015 C 
HETATM   19  C20 UNL     1      -0.457   8.639  14.415  1.00  0.00     0.084 C 
BRANCH  19  20
HETATM   20  C21 UNL     1      -0.189   9.503  13.250  1.00  0.00     0.223 C 
HETATM   21  O3  UNL     1      -0.916  10.502  13.033  1.00  0.00    -0.273 OA
HETATM   22  N5  UNL     1       0.877   9.249  12.347  1.00  0.00    -0.360 N 
HETATM   23  C22 UNL     1       1.141  10.096  11.204  1.00  0.00     0.152 C 
HETATM   24  C23 UNL     1       1.726   8.083  12.602  1.00  0.00     0.152 C 
ENDBRANCH  19  20
ENDBRANCH  15  16
ENDBRANCH  14  15
ENDBRANCH  13  14
BRANCH  10  25
HETATM   25  N4  UNL     1      -5.214   3.420  13.501  1.00  0.00    -0.370 N 
ATOM     26  H4  UNL     1      -5.298   4.427  13.357  1.00  0.00     0.161 HD
BRANCH  25  27
HETATM   27  C7  UNL     1      -5.811   2.857  14.694  1.00  0.00     0.083 C 
HETATM   28  C8  UNL     1      -4.863   1.887  15.375  1.00  0.00     0.028 C 
HETATM   29  C9  UNL     1      -4.936   2.013  16.867  1.00  0.00     0.034 C 
HETATM   30  C10 UNL     1      -6.336   2.219  17.379  1.00  0.00     0.118 C 
HETATM   31  C11 UNL     1      -6.856   3.526  16.854  1.00  0.00     0.034 C 
HETATM   32  C12 UNL     1      -6.034   4.001  15.669  1.00  0.00     0.028 C 
BRANCH  30  33
HETATM   33  O1  UNL     1      -6.250   2.235  18.778  1.00  0.00    -0.396 OA
ATOM     34  H1  UNL     1      -7.141   2.305  19.101  1.00  0.00     0.210 HD
ENDBRANCH  30  33
ENDBRANCH  25  27
ENDBRANCH  10  25
BRANCH   7  35
HETATM   35  N2  UNL     1      -5.036   0.041  10.460  1.00  0.00    -0.234 N 
ATOM     36  H22 UNL     1      -4.441  -0.617   9.956  1.00  0.00     0.174 HD
ATOM     37  H21 UNL     1      -6.047  -0.089  10.489  1.00  0.00     0.174 HD
ENDBRANCH   7  35
TORSDOF 8
ENDMDL
MODEL 5
REMARK VINA RESULT: -7.756782253      2.624      5.693
REMARK  8 active torsions:
REMARK  status: ('A' for Active; 'I' for Inactive)
REMARK    1  A    between atoms: C5_7  and  N2_8 
REMARK    2  A    between atoms: C6_13  and  N4_14 
REMARK    3  A    between atoms: N4_14  and  C7_16 
REMARK    4  A    between atoms: C10_19  and  O1_20 
REMARK    5  A    between atoms: C15_26  and  O2_27 
REMARK    6  A    between atoms: O2_27  and  C16_28 
REMARK    7  A    between atoms: C16_28  and  C17_29 
REMARK    8  A    between atoms: C20_32  and  C21_33 
REMARK       I    between atoms: C21_33  and  N5_35 
ROOT
HETATM    1  C1  UNL     1       0.435   3.689  10.028  1.00  0.00     0.051 C 
HETATM    2  C2  UNL     1      -0.751   3.195  10.788  1.00  0.00    -0.026 A 
HETATM    3  C3  UNL     1      -1.161   1.867  10.657  1.00  0.00     0.040 A 
HETATM    4  C4  UNL     1      -2.248   1.362  11.335  1.00  0.00     0.063 A 
HETATM    5  N1  UNL     1      -2.670   0.090  11.237  1.00  0.00    -0.191 N 
ATOM      6  H1  UNL     1      -2.164  -0.550  10.625  1.00  0.00     0.184 HD
HETATM    7  C5  UNL     1      -3.735  -0.369  11.915  1.00  0.00     0.677 A 
HETATM    8  N3  UNL     1      -4.430   0.443  12.734  1.00  0.00    -0.176 N 
ATOM      9  H3  UNL     1      -5.239   0.094  13.249  1.00  0.00     0.186 HD
HETATM   10  C6  UNL     1      -4.037   1.723  12.859  1.00  0.00     0.130 A 
HETATM   11  C13 UNL     1      -2.938   2.230  12.170  1.00  0.00     0.038 A 
HETATM   12  C14 UNL     1      -2.553   3.546  12.315  1.00  0.00     0.054 A 
HETATM   13  C15 UNL     1      -1.460   4.030  11.625  1.00  0.00     0.075 A 
ENDROOT
BRANCH  13  14
HETATM   14  O2  UNL     1      -1.032   5.344  11.735  1.00  0.00    -0.350 OA
BRANCH  14  15
HETATM   15  C16 UNL     1      -0.402   5.839  12.907  1.00  0.00     0.181 C 
BRANCH  15  16
HETATM   16  C17 UNL     1      -1.397   6.454  13.856  1.00  0.00     0.023 C 
HETATM   17  C18 UNL     1      -0.919   7.843  14.252  1.00  0.00     0.008 C 
HETATM   18  C19 UNL     1      -2.227   8.434  13.836  1.00  0.00     0.015 C 
HETATM   19  C20 UNL     1      -2.581   7.114  13.187  1.00  0.00     0.084 C 
BRANCH  19  20
HETATM   20  C21 UNL     1      -3.898   6.643  13.657  1.00  0.00     0.223 C 
HETATM   21  O3  UNL     1      -4.071   6.383  14.872  1.00  0.00    -0.273 OA
HETATM   22  N5  UNL     1      -5.000   6.469  12.779  1.00  0.00    -0.360 N 
HETATM   23  C22 UNL     1      -6.291   6.008  13.240  1.00  0.00     0.152 C 
HETATM   24  C23 UNL     1      -4.798   6.774  11.360  1.00  0.00     0.152 C 
ENDBRANCH  19  20
ENDBRANCH  15  16
ENDBRANCH  14  15
ENDBRANCH  13  14
BRANCH  10  25
HETATM   25  N4  UNL     1      -4.660   2.549  13.630  1.00  0.00    -0.370 N 
ATOM     26  H4  UNL     1      -4.631   3.539  13.385  1.00  0.00     0.161 HD
BRANCH  25  27
HETATM   27  C7  UNL     1      -5.396   2.171  14.818  1.00  0.00     0.083 C 
HETATM   28  C8  UNL     1      -4.540   1.331  15.748  1.00  0.00     0.028 C 
HETATM   29  C9  UNL     1      -4.788   1.686  17.184  1.00  0.00     0.034 C 
HETATM   30  C10 UNL     1      -6.238   1.950  17.489  1.00  0.00     0.118 C 
HETATM   31  C11 UNL     1      -6.685   3.153  16.709  1.00  0.00     0.034 C 
HETATM   32  C12 UNL     1      -5.727   3.449  15.570  1.00  0.00     0.028 C 
BRANCH  30  33
HETATM   33  O1  UNL     1      -6.318   2.184  18.868  1.00  0.00    -0.396 OA
ATOM     34  H1  UNL     1      -5.461   2.494  19.139  1.00  0.00     0.210 HD
ENDBRANCH  30  33
ENDBRANCH  25  27
ENDBRANCH  10  25
BRANCH   7  35
HETATM   35  N2  UNL     1      -4.144  -1.593  11.821  1.00  0.00    -0.234 N 
ATOM     36  H22 UNL     1      -4.830  -1.794  11.092  1.00  0.00     0.174 HD
ATOM     37  H21 UNL     1      -3.808  -2.332  12.437  1.00  0.00     0.174 HD
ENDBRANCH   7  35
TORSDOF 8
ENDMDL
