MODEL 1
REMARK VINA RESULT: -5.596473938      0.000      0.000
REMARK  4 active torsions:
REMARK  status: ('A' for Active; 'I' for Inactive)
REMARK    1  A    between atoms: O1_2  and  C2_3 
REMARK    2  A    between atoms: C2_3  and  C3_5 
REMARK    3  A    between atoms: C6_10  and  N1_11 
REMARK       I    between atoms: N1_11  and  C7_13 
REMARK    4  A    between atoms: C7_13  and  C8_15 
ROOT
HETATM    1  C3  UNL     1     -24.176  -5.231  78.934  1.00  0.00     0.091 A 
HETATM    2  C4  UNL     1     -22.983  -5.400  78.298  1.00  0.00     0.036 A 
HETATM    3 BR1  UNL     1     -21.429  -4.214  78.440  1.00  0.00    -0.049 Br
HETATM    4  C5  UNL     1     -22.860  -6.497  77.497  1.00  0.00     0.072 A 
HETATM    5  S1  UNL     1     -24.354  -7.267  77.632  1.00  0.00    -0.082 SA
HETATM    6  C6  UNL     1     -25.147  -6.151  78.749  1.00  0.00     0.094 A 
ENDROOT
BRANCH   6   7
HETATM    7  N1  UNL     1     -26.382  -6.479  79.375  1.00  0.00    -0.314 N 
HETATM    8  C7  UNL     1     -27.523  -7.025  78.775  1.00  0.00     0.291 C 
HETATM    9  O3  UNL     1     -27.649  -7.274  77.551  1.00  0.00    -0.264 OA
ATOM     10  H1  UNL     1     -26.442  -6.295  80.376  1.00  0.00     0.170 HD
BRANCH   8  11
HETATM   11  C8  UNL     1     -28.709  -7.351  79.628  1.00  0.00     0.212 C 
HETATM   12  C9  UNL     1     -29.925  -7.873  79.000  1.00  0.00     0.102 C 
HETATM   13  O4  UNL     1     -28.590  -7.156  80.853  1.00  0.00    -0.288 OA
ENDBRANCH   8  11
ENDBRANCH   6   7
BRANCH   1  14
HETATM   14  C2  UNL     1     -24.442  -3.895  79.574  1.00  0.00     0.297 C 
HETATM   15  O2  UNL     1     -24.995  -2.957  78.938  1.00  0.00    -0.259 OA
BRANCH  14  16
HETATM   16  O1  UNL     1     -24.127  -3.602  80.882  1.00  0.00    -0.322 OA
HETATM   17  C1  UNL     1     -23.370  -2.466  81.236  1.00  0.00     0.213 C 
ENDBRANCH  14  16
ENDBRANCH   1  14
TORSDOF 4
ENDMDL
MODEL 2
REMARK VINA RESULT: -5.592770210      2.439      5.366
REMARK  4 active torsions:
REMARK  status: ('A' for Active; 'I' for Inactive)
REMARK    1  A    between atoms: O1_2  and  C2_3 
REMARK    2  A    between atoms: C2_3  and  C3_5 
REMARK    3  A    between atoms: C6_10  and  N1_11 
REMARK       I    between atoms: N1_11  and  C7_13 
REMARK    4  A    between atoms: C7_13  and  C8_15 
ROOT
HETATM    1  C3  UNL     1     -24.576  -6.055  78.026  1.00  0.00     0.091 A 
HETATM    2  C4  UNL     1     -24.143  -6.790  76.963  1.00  0.00     0.036 A 
HETATM    3 BR1  UNL     1     -25.170  -8.174  76.032  1.00  0.00    -0.049 Br
HETATM    4  C5  UNL     1     -22.885  -6.531  76.505  1.00  0.00     0.072 A 
HETATM    5  S1  UNL     1     -22.329  -5.303  77.518  1.00  0.00    -0.082 SA
HETATM    6  C6  UNL     1     -23.754  -5.119  78.548  1.00  0.00     0.094 A 
ENDROOT
BRANCH   6   7
HETATM    7  N1  UNL     1     -23.886  -4.023  79.445  1.00  0.00    -0.314 N 
HETATM    8  C7  UNL     1     -22.897  -3.476  80.273  1.00  0.00     0.291 C 
HETATM    9  O3  UNL     1     -21.724  -3.908  80.384  1.00  0.00    -0.264 OA
ATOM     10  H1  UNL     1     -24.806  -3.586  79.491  1.00  0.00     0.170 HD
BRANCH   8  11
HETATM   11  C8  UNL     1     -23.229  -2.277  81.106  1.00  0.00     0.212 C 
HETATM   12  C9  UNL     1     -24.367  -2.334  82.027  1.00  0.00     0.102 C 
HETATM   13  O4  UNL     1     -22.499  -1.277  80.967  1.00  0.00    -0.288 OA
ENDBRANCH   8  11
ENDBRANCH   6   7
BRANCH   1  14
HETATM   14  C2  UNL     1     -25.822  -6.518  78.733  1.00  0.00     0.297 C 
HETATM   15  O2  UNL     1     -25.860  -6.647  79.987  1.00  0.00    -0.259 OA
BRANCH  14  16
HETATM   16  O1  UNL     1     -26.999  -6.813  78.083  1.00  0.00    -0.322 OA
HETATM   17  C1  UNL     1     -28.146  -7.259  78.773  1.00  0.00     0.213 C 
ENDBRANCH  14  16
ENDBRANCH   1  14
TORSDOF 4
ENDMDL
MODEL 3
REMARK VINA RESULT: -5.541767150      3.535      6.230
REMARK  4 active torsions:
REMARK  status: ('A' for Active; 'I' for Inactive)
REMARK    1  A    between atoms: O1_2  and  C2_3 
REMARK    2  A    between atoms: C2_3  and  C3_5 
REMARK    3  A    between atoms: C6_10  and  N1_11 
REMARK       I    between atoms: N1_11  and  C7_13 
REMARK    4  A    between atoms: C7_13  and  C8_15 
ROOT
HETATM    1  C3  UNL     1     -23.939  -6.795  77.051  1.00  0.00     0.091 A 
HETATM    2  C4  UNL     1     -25.134  -7.434  76.899  1.00  0.00     0.036 A 
HETATM    3 BR1  UNL     1     -25.519  -8.848  75.599  1.00  0.00    -0.049 Br
HETATM    4  C5  UNL     1     -26.146  -7.057  77.732  1.00  0.00     0.072 A 
HETATM    5  S1  UNL     1     -25.454  -5.860  78.696  1.00  0.00    -0.082 SA
HETATM    6  C6  UNL     1     -23.825  -5.851  78.011  1.00  0.00     0.094 A 
ENDROOT
BRANCH   6   7
HETATM    7  N1  UNL     1     -22.757  -5.155  78.642  1.00  0.00    -0.314 N 
HETATM    8  C7  UNL     1     -22.615  -3.770  78.795  1.00  0.00     0.291 C 
HETATM    9  O3  UNL     1     -23.409  -2.907  78.347  1.00  0.00    -0.264 OA
ATOM     10  H1  UNL     1     -22.009  -5.731  79.028  1.00  0.00     0.170 HD
BRANCH   8  11
HETATM   11  C8  UNL     1     -21.435  -3.238  79.547  1.00  0.00     0.212 C 
HETATM   12  C9  UNL     1     -21.620  -2.125  80.481  1.00  0.00     0.102 C 
HETATM   13  O4  UNL     1     -20.338  -3.788  79.331  1.00  0.00    -0.288 OA
ENDBRANCH   8  11
ENDBRANCH   6   7
BRANCH   1  14
HETATM   14  C2  UNL     1     -22.911  -6.971  75.967  1.00  0.00     0.297 C 
HETATM   15  O2  UNL     1     -21.731  -7.332  76.229  1.00  0.00    -0.259 OA
BRANCH  14  16
HETATM   16  O1  UNL     1     -23.175  -6.776  74.630  1.00  0.00    -0.322 OA
HETATM   17  C1  UNL     1     -22.577  -7.565  73.624  1.00  0.00     0.213 C 
ENDBRANCH  14  16
ENDBRANCH   1  14
TORSDOF 4
ENDMDL
MODEL 4
REMARK VINA RESULT: -5.399478136      2.696      3.516
REMARK  4 active torsions:
REMARK  status: ('A' for Active; 'I' for Inactive)
REMARK    1  A    between atoms: O1_2  and  C2_3 
REMARK    2  A    between atoms: C2_3  and  C3_5 
REMARK    3  A    between atoms: C6_10  and  N1_11 
REMARK       I    between atoms: N1_11  and  C7_13 
REMARK    4  A    between atoms: C7_13  and  C8_15 
ROOT
HETATM    1  C3  UNL     1     -23.474  -3.100  80.996  1.00  0.00     0.091 A 
HETATM    2  C4  UNL     1     -22.231  -2.542  81.016  1.00  0.00     0.036 A 
HETATM    3 BR1  UNL     1     -21.353  -1.753  82.579  1.00  0.00    -0.049 Br
HETATM    4  C5  UNL     1     -21.536  -2.542  79.842  1.00  0.00     0.072 A 
HETATM    5  S1  UNL     1     -22.577  -3.297  78.753  1.00  0.00    -0.082 SA
HETATM    6  C6  UNL     1     -23.933  -3.624  79.839  1.00  0.00     0.094 A 
ENDROOT
BRANCH   6   7
HETATM    7  N1  UNL     1     -25.006  -4.474  79.453  1.00  0.00    -0.314 N 
HETATM    8  C7  UNL     1     -24.921  -5.778  78.947  1.00  0.00     0.291 C 
HETATM    9  O3  UNL     1     -23.854  -6.394  78.709  1.00  0.00    -0.264 OA
ATOM     10  H1  UNL     1     -25.945  -4.091  79.557  1.00  0.00     0.170 HD
BRANCH   8  11
HETATM   11  C8  UNL     1     -26.183  -6.528  78.654  1.00  0.00     0.212 C 
HETATM   12  C9  UNL     1     -26.410  -7.053  77.305  1.00  0.00     0.102 C 
HETATM   13  O4  UNL     1     -26.985  -6.667  79.597  1.00  0.00    -0.288 OA
ENDBRANCH   8  11
ENDBRANCH   6   7
BRANCH   1  14
HETATM   14  C2  UNL     1     -24.369  -2.850  82.179  1.00  0.00     0.297 C 
HETATM   15  O2  UNL     1     -24.962  -1.748  82.337  1.00  0.00    -0.259 OA
BRANCH  14  16
HETATM   16  O1  UNL     1     -24.623  -3.789  83.154  1.00  0.00    -0.322 OA
HETATM   17  C1  UNL     1     -23.785  -3.950  84.278  1.00  0.00     0.213 C 
ENDBRANCH  14  16
ENDBRANCH   1  14
TORSDOF 4
ENDMDL
MODEL 5
REMARK VINA RESULT: -5.351628216      2.395      5.105
REMARK  4 active torsions:
REMARK  status: ('A' for Active; 'I' for Inactive)
REMARK    1  A    between atoms: O1_2  and  C2_3 
REMARK    2  A    between atoms: C2_3  and  C3_5 
REMARK    3  A    between atoms: C6_10  and  N1_11 
REMARK       I    between atoms: N1_11  and  C7_13 
REMARK    4  A    between atoms: C7_13  and  C8_15 
ROOT
HETATM    1  C3  UNL     1     -24.796  -6.402  77.483  1.00  0.00     0.091 A 
HETATM    2  C4  UNL     1     -24.784  -6.925  76.225  1.00  0.00     0.036 A 
HETATM    3 BR1  UNL     1     -26.334  -7.648  75.270  1.00  0.00    -0.049 Br
HETATM    4  C5  UNL     1     -23.586  -6.939  75.573  1.00  0.00     0.072 A 
HETATM    5  S1  UNL     1     -22.517  -6.242  76.674  1.00  0.00    -0.082 SA
HETATM    6  C6  UNL     1     -23.642  -5.923  77.999  1.00  0.00     0.094 A 
ENDROOT
BRANCH   6   7
HETATM    7  N1  UNL     1     -23.274  -5.114  79.109  1.00  0.00    -0.314 N 
HETATM    8  C7  UNL     1     -23.828  -3.884  79.487  1.00  0.00     0.291 C 
HETATM    9  O3  UNL     1     -24.728  -3.271  78.862  1.00  0.00    -0.264 OA
ATOM     10  H1  UNL     1     -22.520  -5.469  79.696  1.00  0.00     0.170 HD
BRANCH   8  11
HETATM   11  C8  UNL     1     -23.332  -3.215  80.731  1.00  0.00     0.212 C 
HETATM   12  C9  UNL     1     -24.296  -2.617  81.659  1.00  0.00     0.102 C 
HETATM   13  O4  UNL     1     -22.099  -3.206  80.911  1.00  0.00    -0.288 OA
ENDBRANCH   8  11
ENDBRANCH   6   7
BRANCH   1  14
HETATM   14  C2  UNL     1     -26.017  -6.645  78.328  1.00  0.00     0.297 C 
HETATM   15  O2  UNL     1     -25.983  -6.536  79.585  1.00  0.00    -0.259 OA
BRANCH  14  16
HETATM   16  O1  UNL     1     -27.247  -6.980  77.808  1.00  0.00    -0.322 OA
HETATM   17  C1  UNL     1     -28.344  -7.312  78.631  1.00  0.00     0.213 C 
ENDBRANCH  14  16
ENDBRANCH   1  14
TORSDOF 4
ENDMDL
