MODEL 1
REMARK VINA RESULT: -5.145295947      0.000      0.000
REMARK  3 active torsions:
REMARK  status: ('A' for Active; 'I' for Inactive)
REMARK    1  A    between atoms: N1_2  and  C2_5 
REMARK    2  A    between atoms: C2_5  and  C3_6 
REMARK    3  A    between atoms: C4_7  and  N2_8 
ROOT
HETATM    1  C3  UNL     1     -25.489  -6.741  77.215  1.00  0.00     0.009 A 
HETATM    2  C4  UNL     1     -24.917  -6.298  78.422  1.00  0.00     0.082 A 
HETATM    3  S1  UNL     1     -26.192  -6.471  79.536  1.00  0.00    -0.064 SA
HETATM    4  C9  UNL     1     -27.386  -7.077  78.506  1.00  0.00     0.060 A 
HETATM    5 BR1  UNL     1     -29.210  -7.572  78.936  1.00  0.00    -0.042 Br
HETATM    6  C10 UNL     1     -26.765  -7.139  77.276  1.00  0.00    -0.027 A 
HETATM    7  C11 UNL     1     -27.579  -7.614  76.076  1.00  0.00     0.050 C 
ENDROOT
BRANCH   2   8
HETATM    8  N2  UNL     1     -23.593  -5.832  78.637  1.00  0.00    -0.371 N 
HETATM    9  C5  UNL     1     -23.255  -4.455  78.676  1.00  0.00     0.149 C 
HETATM   10  C6  UNL     1     -21.954  -4.160  77.955  1.00  0.00     0.187 C 
HETATM   11  O1  UNL     1     -21.099  -5.215  77.878  1.00  0.00    -0.388 OA
HETATM   12  C7  UNL     1     -21.599  -6.456  77.614  1.00  0.00     0.187 C 
HETATM   13  C8  UNL     1     -22.530  -6.787  78.807  1.00  0.00     0.149 C 
ENDBRANCH   2   8
BRANCH   1  14
HETATM   14  C2  UNL     1     -24.586  -6.683  75.992  1.00  0.00     0.273 C 
BRANCH  14  15
HETATM   15  N1  UNL     1     -24.095  -7.963  75.599  1.00  0.00    -0.075 N 
HETATM   16  C1  UNL     1     -23.177  -7.793  74.468  1.00  0.00     0.267 C 
ATOM     17  H12 UNL     1     -24.846  -8.622  75.394  1.00  0.00     0.277 HD
ATOM     18  H11 UNL     1     -23.667  -8.470  76.374  1.00  0.00     0.277 HD
ENDBRANCH  14  15
ENDBRANCH   1  14
TORSDOF 3
ENDMDL
MODEL 2
REMARK VINA RESULT: -4.911032009      3.193      4.989
REMARK  3 active torsions:
REMARK  status: ('A' for Active; 'I' for Inactive)
REMARK    1  A    between atoms: N1_2  and  C2_5 
REMARK    2  A    between atoms: C2_5  and  C3_6 
REMARK    3  A    between atoms: C4_7  and  N2_8 
ROOT
HETATM    1  C3  UNL     1     -23.460  -7.147  76.390  1.00  0.00     0.009 A 
HETATM    2  C4  UNL     1     -24.795  -7.589  76.337  1.00  0.00     0.082 A 
HETATM    3  S1  UNL     1     -25.570  -6.606  77.488  1.00  0.00    -0.064 SA
HETATM    4  C9  UNL     1     -24.252  -5.682  78.004  1.00  0.00     0.060 A 
HETATM    5 BR1  UNL     1     -24.215  -4.275  79.336  1.00  0.00    -0.042 Br
HETATM    6  C10 UNL     1     -23.197  -6.162  77.257  1.00  0.00    -0.027 A 
HETATM    7  C11 UNL     1     -21.812  -5.569  77.497  1.00  0.00     0.050 C 
ENDROOT
BRANCH   2   8
HETATM    8  N2  UNL     1     -25.340  -8.606  75.509  1.00  0.00    -0.371 N 
HETATM    9  C5  UNL     1     -24.922  -9.960  75.571  1.00  0.00     0.149 C 
HETATM   10  C6  UNL     1     -24.794 -10.586  74.196  1.00  0.00     0.187 C 
HETATM   11  O1  UNL     1     -25.564 -10.007  73.236  1.00  0.00    -0.388 OA
HETATM   12  C7  UNL     1     -25.676  -8.647  73.208  1.00  0.00     0.187 C 
HETATM   13  C8  UNL     1     -26.352  -8.261  74.546  1.00  0.00     0.149 C 
ENDBRANCH   2   8
BRANCH   1  14
HETATM   14  C2  UNL     1     -22.485  -7.867  75.471  1.00  0.00     0.273 C 
BRANCH  14  15
HETATM   15  N1  UNL     1     -22.450  -7.321  74.154  1.00  0.00    -0.075 N 
HETATM   16  C1  UNL     1     -21.975  -8.352  73.225  1.00  0.00     0.267 C 
ATOM     17  H12 UNL     1     -21.897  -6.465  74.102  1.00  0.00     0.277 HD
ATOM     18  H11 UNL     1     -23.348  -6.929  73.872  1.00  0.00     0.277 HD
ENDBRANCH  14  15
ENDBRANCH   1  14
TORSDOF 3
ENDMDL
MODEL 3
REMARK VINA RESULT: -4.840343646      3.333      5.024
REMARK  3 active torsions:
REMARK  status: ('A' for Active; 'I' for Inactive)
REMARK    1  A    between atoms: N1_2  and  C2_5 
REMARK    2  A    between atoms: C2_5  and  C3_6 
REMARK    3  A    between atoms: C4_7  and  N2_8 
ROOT
HETATM    1  C3  UNL     1     -24.753  -7.017  76.871  1.00  0.00     0.009 A 
HETATM    2  C4  UNL     1     -23.842  -7.203  75.814  1.00  0.00     0.082 A 
HETATM    3  S1  UNL     1     -22.472  -6.338  76.333  1.00  0.00    -0.064 SA
HETATM    4  C9  UNL     1     -23.041  -5.774  77.821  1.00  0.00     0.060 A 
HETATM    5 BR1  UNL     1     -22.121  -4.673  79.124  1.00  0.00    -0.042 Br
HETATM    6  C10 UNL     1     -24.323  -6.276  77.899  1.00  0.00    -0.027 A 
HETATM    7  C11 UNL     1     -25.167  -5.922  79.120  1.00  0.00     0.050 C 
ENDROOT
BRANCH   2   8
HETATM    8  N2  UNL     1     -24.038  -7.944  74.619  1.00  0.00    -0.371 N 
HETATM    9  C5  UNL     1     -23.908  -9.355  74.555  1.00  0.00     0.149 C 
HETATM   10  C6  UNL     1     -23.199  -9.811  73.294  1.00  0.00     0.187 C 
HETATM   11  O1  UNL     1     -23.291  -8.945  72.249  1.00  0.00    -0.388 OA
HETATM   12  C7  UNL     1     -23.176  -7.606  72.486  1.00  0.00     0.187 C 
HETATM   13  C8  UNL     1     -24.369  -7.246  73.405  1.00  0.00     0.149 C 
ENDBRANCH   2   8
BRANCH   1  14
HETATM   14  C2  UNL     1     -26.118  -7.664  76.692  1.00  0.00     0.273 C 
BRANCH  14  15
HETATM   15  N1  UNL     1     -27.024  -6.858  75.941  1.00  0.00    -0.075 N 
HETATM   16  C1  UNL     1     -27.728  -7.709  74.976  1.00  0.00     0.267 C 
ATOM     17  H12 UNL     1     -26.562  -6.065  75.496  1.00  0.00     0.277 HD
ATOM     18  H11 UNL     1     -27.665  -6.334  76.538  1.00  0.00     0.277 HD
ENDBRANCH  14  15
ENDBRANCH   1  14
TORSDOF 3
ENDMDL
MODEL 4
REMARK VINA RESULT: -4.838546233      3.367      5.236
REMARK  3 active torsions:
REMARK  status: ('A' for Active; 'I' for Inactive)
REMARK    1  A    between atoms: N1_2  and  C2_5 
REMARK    2  A    between atoms: C2_5  and  C3_6 
REMARK    3  A    between atoms: C4_7  and  N2_8 
ROOT
HETATM    1  C3  UNL     1     -24.660  -5.880  77.766  1.00  0.00     0.009 A 
HETATM    2  C4  UNL     1     -24.056  -6.665  76.766  1.00  0.00     0.082 A 
HETATM    3  S1  UNL     1     -22.423  -6.198  76.847  1.00  0.00    -0.064 SA
HETATM    4  C9  UNL     1     -22.515  -5.062  78.094  1.00  0.00     0.060 A 
HETATM    5 BR1  UNL     1     -21.088  -4.001  78.865  1.00  0.00    -0.042 Br
HETATM    6  C10 UNL     1     -23.849  -5.057  78.442  1.00  0.00    -0.027 A 
HETATM    7  C11 UNL     1     -24.310  -4.096  79.533  1.00  0.00     0.050 C 
ENDROOT
BRANCH   2   8
HETATM    8  N2  UNL     1     -24.679  -7.616  75.915  1.00  0.00    -0.371 N 
HETATM    9  C5  UNL     1     -25.003  -8.932  76.333  1.00  0.00     0.149 C 
HETATM   10  C6  UNL     1     -24.703  -9.965  75.264  1.00  0.00     0.187 C 
HETATM   11  O1  UNL     1     -24.707  -9.482  73.993  1.00  0.00    -0.388 OA
HETATM   12  C7  UNL     1     -24.146  -8.263  73.746  1.00  0.00     0.187 C 
HETATM   13  C8  UNL     1     -24.988  -7.249  74.559  1.00  0.00     0.149 C 
ENDBRANCH   2   8
BRANCH   1  14
HETATM   14  C2  UNL     1     -26.162  -6.052  77.930  1.00  0.00     0.273 C 
BRANCH  14  15
HETATM   15  N1  UNL     1     -26.530  -6.577  79.204  1.00  0.00    -0.075 N 
HETATM   16  C1  UNL     1     -27.887  -7.128  79.118  1.00  0.00     0.267 C 
ATOM     17  H12 UNL     1     -26.437  -5.887  79.950  1.00  0.00     0.277 HD
ATOM     18  H11 UNL     1     -25.856  -7.257  79.554  1.00  0.00     0.277 HD
ENDBRANCH  14  15
ENDBRANCH   1  14
TORSDOF 3
ENDMDL
MODEL 5
REMARK VINA RESULT: -4.799376702      2.022      3.174
REMARK  3 active torsions:
REMARK  status: ('A' for Active; 'I' for Inactive)
REMARK    1  A    between atoms: N1_2  and  C2_5 
REMARK    2  A    between atoms: C2_5  and  C3_6 
REMARK    3  A    between atoms: C4_7  and  N2_8 
ROOT
HETATM    1  C3  UNL     1     -26.062  -6.559  78.350  1.00  0.00     0.009 A 
HETATM    2  C4  UNL     1     -24.815  -6.378  77.723  1.00  0.00     0.082 A 
HETATM    3  S1  UNL     1     -25.084  -6.983  76.156  1.00  0.00    -0.064 SA
HETATM    4  C9  UNL     1     -26.704  -7.440  76.303  1.00  0.00     0.060 A 
HETATM    5 BR1  UNL     1     -27.854  -8.245  74.967  1.00  0.00    -0.042 Br
HETATM    6  C10 UNL     1     -27.026  -7.110  77.602  1.00  0.00    -0.027 A 
HETATM    7  C11 UNL     1     -28.431  -7.428  78.103  1.00  0.00     0.050 C 
ENDROOT
BRANCH   2   8
HETATM    8  N2  UNL     1     -23.636  -5.816  78.281  1.00  0.00    -0.371 N 
HETATM    9  C5  UNL     1     -23.482  -4.427  78.522  1.00  0.00     0.149 C 
HETATM   10  C6  UNL     1     -22.098  -3.928  78.153  1.00  0.00     0.187 C 
HETATM   11  O1  UNL     1     -21.128  -4.881  78.182  1.00  0.00    -0.388 OA
HETATM   12  C7  UNL     1     -21.407  -6.126  77.698  1.00  0.00     0.187 C 
HETATM   13  C8  UNL     1     -22.532  -6.679  78.606  1.00  0.00     0.149 C 
ENDBRANCH   2   8
BRANCH   1  14
HETATM   14  C2  UNL     1     -26.142  -6.128  79.806  1.00  0.00     0.273 C 
BRANCH  14  15
HETATM   15  N1  UNL     1     -26.124  -7.227  80.716  1.00  0.00    -0.075 N 
HETATM   16  C1  UNL     1     -27.229  -7.074  81.668  1.00  0.00     0.267 C 
ATOM     17  H12 UNL     1     -25.221  -7.332  81.181  1.00  0.00     0.277 HD
ATOM     18  H11 UNL     1     -26.144  -8.128  80.239  1.00  0.00     0.277 HD
ENDBRANCH  14  15
ENDBRANCH   1  14
TORSDOF 3
ENDMDL
