MODEL 1
REMARK VINA RESULT: -7.156751042      0.000      0.000
REMARK  3 active torsions:
REMARK  status: ('A' for Active; 'I' for Inactive)
REMARK       I    between atoms: N2_8  and  C7_9 
REMARK    1  A    between atoms: C7_9  and  C8_11 
REMARK    2  A    between atoms: C8_11  and  N3_12 
REMARK       I    between atoms: N3_12  and  C9_14 
REMARK    3  A    between atoms: C9_14  and  C10_16 
ROOT
HETATM    1  N1  UNL     1     -27.480  -7.329  76.064  1.00  0.00    -0.195 NA
HETATM    2  C1  UNL     1     -26.429  -7.813  76.200  1.00  0.00     0.084 C 
HETATM    3  C2  UNL     1     -25.111  -8.414  76.374  1.00  0.00     0.194 C 
HETATM    4  C3  UNL     1     -24.844  -9.483  75.376  1.00  0.00     0.040 C 
HETATM    5  C4  UNL     1     -24.192  -9.000  74.116  1.00  0.00     0.004 C 
HETATM    6  C5  UNL     1     -24.050  -7.487  74.091  1.00  0.00     0.020 C 
HETATM    7  C6  UNL     1     -23.236  -7.109  75.312  1.00  0.00     0.127 C 
HETATM    8  N2  UNL     1     -24.055  -7.423  76.477  1.00  0.00    -0.334 N 
HETATM    9  C7  UNL     1     -23.796  -6.752  77.679  1.00  0.00     0.238 C 
HETATM   10  O1  UNL     1     -24.524  -7.042  78.689  1.00  0.00    -0.272 OA
ENDROOT
BRANCH   9  11
HETATM   11  C8  UNL     1     -22.729  -5.754  77.767  1.00  0.00     0.225 C 
BRANCH  11  12
HETATM   12  N3  UNL     1     -22.850  -4.837  78.876  1.00  0.00    -0.348 N 
HETATM   13  C9  UNL     1     -21.898  -3.870  79.219  1.00  0.00     0.261 C 
HETATM   14  O2  UNL     1     -20.856  -3.743  78.560  1.00  0.00    -0.267 OA
ATOM     15  H3  UNL     1     -23.691  -4.898  79.451  1.00  0.00     0.163 HD
BRANCH  13  16
HETATM   16  C10 UNL     1     -22.132  -3.004  80.361  1.00  0.00     0.107 A 
HETATM   17  C11 UNL     1     -21.297  -2.074  80.941  1.00  0.00     0.133 A 
HETATM   18  N4  UNL     1     -21.754  -1.423  81.964  1.00  0.00    -0.304 N 
HETATM   19  N5  UNL     1     -22.952  -1.656  82.406  1.00  0.00    -0.269 N 
ATOM     20  H4  UNL     1     -21.170  -0.725  82.423  1.00  0.00     0.186 HD
HETATM   21  S1  UNL     1     -23.526  -2.848  81.366  1.00  0.00     0.008 SA
ATOM     22  H5  UNL     1     -23.431  -1.220  83.194  1.00  0.00     0.195 HD
ENDBRANCH  13  16
ENDBRANCH  11  12
ENDBRANCH   9  11
TORSDOF 3
ENDMDL
MODEL 2
REMARK VINA RESULT: -7.133640170      1.613      2.559
REMARK  3 active torsions:
REMARK  status: ('A' for Active; 'I' for Inactive)
REMARK       I    between atoms: N2_8  and  C7_9 
REMARK    1  A    between atoms: C7_9  and  C8_11 
REMARK    2  A    between atoms: C8_11  and  N3_12 
REMARK       I    between atoms: N3_12  and  C9_14 
REMARK    3  A    between atoms: C9_14  and  C10_16 
ROOT
HETATM    1  N1  UNL     1     -21.604  -8.754  74.262  1.00  0.00    -0.195 NA
HETATM    2  C1  UNL     1     -22.460  -7.988  74.454  1.00  0.00     0.084 C 
HETATM    3  C2  UNL     1     -23.530  -7.028  74.702  1.00  0.00     0.194 C 
HETATM    4  C3  UNL     1     -24.659  -7.185  73.747  1.00  0.00     0.040 C 
HETATM    5  C4  UNL     1     -25.727  -8.130  74.207  1.00  0.00     0.004 C 
HETATM    6  C5  UNL     1     -25.360  -8.813  75.515  1.00  0.00     0.020 C 
HETATM    7  C6  UNL     1     -25.125  -7.711  76.528  1.00  0.00     0.127 C 
HETATM    8  N2  UNL     1     -23.934  -6.989  76.095  1.00  0.00    -0.334 N 
HETATM    9  C7  UNL     1     -23.204  -6.268  77.049  1.00  0.00     0.238 C 
HETATM   10  O1  UNL     1     -22.164  -5.641  76.651  1.00  0.00    -0.272 OA
ENDROOT
BRANCH   9  11
HETATM   11  C8  UNL     1     -23.623  -6.240  78.452  1.00  0.00     0.225 C 
BRANCH  11  12
HETATM   12  N3  UNL     1     -22.958  -5.244  79.260  1.00  0.00    -0.348 N 
HETATM   13  C9  UNL     1     -23.470  -3.971  79.536  1.00  0.00     0.261 C 
HETATM   14  O2  UNL     1     -24.568  -3.616  79.085  1.00  0.00    -0.267 OA
ATOM     15  H3  UNL     1     -22.051  -5.487  79.658  1.00  0.00     0.163 HD
BRANCH  13  16
HETATM   16  C10 UNL     1     -22.706  -3.054  80.363  1.00  0.00     0.107 A 
HETATM   17  C11 UNL     1     -21.413  -2.605  80.209  1.00  0.00     0.133 A 
HETATM   18  N4  UNL     1     -20.963  -1.778  81.098  1.00  0.00    -0.304 N 
HETATM   19  N5  UNL     1     -21.718  -1.402  82.085  1.00  0.00    -0.269 N 
ATOM     20  H4  UNL     1     -20.011  -1.419  81.022  1.00  0.00     0.186 HD
HETATM   21  S1  UNL     1     -23.160  -2.223  81.805  1.00  0.00     0.008 SA
ATOM     22  H5  UNL     1     -21.491  -0.763  82.847  1.00  0.00     0.195 HD
ENDBRANCH  13  16
ENDBRANCH  11  12
ENDBRANCH   9  11
TORSDOF 3
ENDMDL
MODEL 3
REMARK VINA RESULT: -7.049169518      1.097      1.220
REMARK  3 active torsions:
REMARK  status: ('A' for Active; 'I' for Inactive)
REMARK       I    between atoms: N2_8  and  C7_9 
REMARK    1  A    between atoms: C7_9  and  C8_11 
REMARK    2  A    between atoms: C8_11  and  N3_12 
REMARK       I    between atoms: N3_12  and  C9_14 
REMARK    3  A    between atoms: C9_14  and  C10_16 
ROOT
HETATM    1  N1  UNL     1     -27.402  -7.043  76.545  1.00  0.00    -0.195 NA
HETATM    2  C1  UNL     1     -26.352  -7.544  76.598  1.00  0.00     0.084 C 
HETATM    3  C2  UNL     1     -25.034  -8.167  76.669  1.00  0.00     0.194 C 
HETATM    4  C3  UNL     1     -24.890  -9.291  75.706  1.00  0.00     0.040 C 
HETATM    5  C4  UNL     1     -24.362  -8.886  74.363  1.00  0.00     0.004 C 
HETATM    6  C5  UNL     1     -24.196  -7.380  74.245  1.00  0.00     0.020 C 
HETATM    7  C6  UNL     1     -23.254  -6.960  75.356  1.00  0.00     0.127 C 
HETATM    8  N2  UNL     1     -23.956  -7.197  76.613  1.00  0.00    -0.334 N 
HETATM    9  C7  UNL     1     -23.563  -6.473  77.746  1.00  0.00     0.238 C 
HETATM   10  O1  UNL     1     -24.188  -6.695  78.839  1.00  0.00    -0.272 OA
ENDROOT
BRANCH   9  11
HETATM   11  C8  UNL     1     -22.474  -5.497  77.674  1.00  0.00     0.225 C 
BRANCH  11  12
HETATM   12  N3  UNL     1     -22.279  -4.720  78.876  1.00  0.00    -0.348 N 
HETATM   13  C9  UNL     1     -22.997  -3.564  79.202  1.00  0.00     0.261 C 
HETATM   14  O2  UNL     1     -23.877  -3.128  78.445  1.00  0.00    -0.267 OA
ATOM     15  H3  UNL     1     -21.568  -5.037  79.534  1.00  0.00     0.163 HD
BRANCH  13  16
HETATM   16  C10 UNL     1     -22.711  -2.866  80.442  1.00  0.00     0.107 A 
HETATM   17  C11 UNL     1     -23.480  -2.748  81.579  1.00  0.00     0.133 A 
HETATM   18  N4  UNL     1     -22.986  -2.062  82.561  1.00  0.00    -0.304 N 
HETATM   19  N5  UNL     1     -21.813  -1.516  82.453  1.00  0.00    -0.269 N 
ATOM     20  H4  UNL     1     -23.521  -1.950  83.422  1.00  0.00     0.186 HD
HETATM   21  S1  UNL     1     -21.320  -1.957  80.906  1.00  0.00     0.008 SA
ATOM     22  H5  UNL     1     -21.311  -0.955  83.141  1.00  0.00     0.195 HD
ENDBRANCH  13  16
ENDBRANCH  11  12
ENDBRANCH   9  11
TORSDOF 3
ENDMDL
MODEL 4
REMARK VINA RESULT: -6.997793947      1.726      2.563
REMARK  3 active torsions:
REMARK  status: ('A' for Active; 'I' for Inactive)
REMARK       I    between atoms: N2_8  and  C7_9 
REMARK    1  A    between atoms: C7_9  and  C8_11 
REMARK    2  A    between atoms: C8_11  and  N3_12 
REMARK       I    between atoms: N3_12  and  C9_14 
REMARK    3  A    between atoms: C9_14  and  C10_16 
ROOT
HETATM    1  N1  UNL     1     -23.964  -9.484  74.673  1.00  0.00    -0.195 NA
HETATM    2  C1  UNL     1     -24.359  -8.394  74.784  1.00  0.00     0.084 C 
HETATM    3  C2  UNL     1     -24.851  -7.028  74.929  1.00  0.00     0.194 C 
HETATM    4  C3  UNL     1     -25.879  -6.688  73.909  1.00  0.00     0.040 C 
HETATM    5  C4  UNL     1     -27.286  -6.985  74.331  1.00  0.00     0.004 C 
HETATM    6  C5  UNL     1     -27.342  -7.681  75.682  1.00  0.00     0.020 C 
HETATM    7  C6  UNL     1     -26.652  -6.762  76.670  1.00  0.00     0.127 C 
HETATM    8  N2  UNL     1     -25.244  -6.719  76.292  1.00  0.00    -0.334 N 
HETATM    9  C7  UNL     1     -24.298  -6.374  77.266  1.00  0.00     0.238 C 
HETATM   10  O1  UNL     1     -23.070  -6.339  76.914  1.00  0.00    -0.272 OA
ENDROOT
BRANCH   9  11
HETATM   11  C8  UNL     1     -24.710  -6.066  78.637  1.00  0.00     0.225 C 
BRANCH  11  12
HETATM   12  N3  UNL     1     -23.818  -5.181  79.350  1.00  0.00    -0.348 N 
HETATM   13  C9  UNL     1     -23.978  -3.794  79.443  1.00  0.00     0.261 C 
HETATM   14  O2  UNL     1     -24.936  -3.227  78.897  1.00  0.00    -0.267 OA
ATOM     15  H3  UNL     1     -23.014  -5.598  79.819  1.00  0.00     0.163 HD
BRANCH  13  16
HETATM   16  C10 UNL     1     -23.013  -3.008  80.189  1.00  0.00     0.107 A 
HETATM   17  C11 UNL     1     -21.676  -2.791  79.935  1.00  0.00     0.133 A 
HETATM   18  N4  UNL     1     -21.029  -2.038  80.767  1.00  0.00    -0.304 N 
HETATM   19  N5  UNL     1     -21.636  -1.523  81.792  1.00  0.00    -0.269 N 
ATOM     20  H4  UNL     1     -20.038  -1.849  80.616  1.00  0.00     0.186 HD
HETATM   21  S1  UNL     1     -23.213  -2.088  81.635  1.00  0.00     0.008 SA
ATOM     22  H5  UNL     1     -21.250  -0.919  82.518  1.00  0.00     0.195 HD
ENDBRANCH  13  16
ENDBRANCH  11  12
ENDBRANCH   9  11
TORSDOF 3
ENDMDL
MODEL 5
REMARK VINA RESULT: -6.735170084      2.201      3.124
REMARK  3 active torsions:
REMARK  status: ('A' for Active; 'I' for Inactive)
REMARK       I    between atoms: N2_8  and  C7_9 
REMARK    1  A    between atoms: C7_9  and  C8_11 
REMARK    2  A    between atoms: C8_11  and  N3_12 
REMARK       I    between atoms: N3_12  and  C9_14 
REMARK    3  A    between atoms: C9_14  and  C10_16 
ROOT
HETATM    1  N1  UNL     1     -25.175  -9.174  72.592  1.00  0.00    -0.195 NA
HETATM    2  C1  UNL     1     -25.240  -8.119  73.079  1.00  0.00     0.084 C 
HETATM    3  C2  UNL     1     -25.316  -6.798  73.695  1.00  0.00     0.194 C 
HETATM    4  C3  UNL     1     -26.399  -5.965  73.107  1.00  0.00     0.040 C 
HETATM    5  C4  UNL     1     -27.722  -6.099  73.797  1.00  0.00     0.004 C 
HETATM    6  C5  UNL     1     -27.692  -7.156  74.889  1.00  0.00     0.020 C 
HETATM    7  C6  UNL     1     -26.604  -6.745  75.860  1.00  0.00     0.127 C 
HETATM    8  N2  UNL     1     -25.338  -6.859  75.145  1.00  0.00    -0.334 N 
HETATM    9  C7  UNL     1     -24.161  -7.026  75.888  1.00  0.00     0.238 C 
HETATM   10  O1  UNL     1     -23.062  -7.123  75.244  1.00  0.00    -0.272 OA
ENDROOT
BRANCH   9  11
HETATM   11  C8  UNL     1     -24.199  -7.087  77.350  1.00  0.00     0.225 C 
BRANCH  11  12
HETATM   12  N3  UNL     1     -23.308  -6.166  78.015  1.00  0.00    -0.348 N 
HETATM   13  C9  UNL     1     -23.715  -5.003  78.679  1.00  0.00     0.261 C 
HETATM   14  O2  UNL     1     -24.913  -4.689  78.735  1.00  0.00    -0.267 OA
ATOM     15  H3  UNL     1     -22.310  -6.378  78.001  1.00  0.00     0.163 HD
BRANCH  13  16
HETATM   16  C10 UNL     1     -22.723  -4.152  79.311  1.00  0.00     0.107 A 
HETATM   17  C11 UNL     1     -21.372  -4.044  79.059  1.00  0.00     0.133 A 
HETATM   18  N4  UNL     1     -20.702  -3.196  79.774  1.00  0.00    -0.304 N 
HETATM   19  N5  UNL     1     -21.299  -2.490  80.684  1.00  0.00    -0.269 N 
ATOM     20  H4  UNL     1     -19.700  -3.083  79.619  1.00  0.00     0.186 HD
HETATM   21  S1  UNL     1     -22.900  -2.997  80.581  1.00  0.00     0.008 SA
ATOM     22  H5  UNL     1     -20.895  -1.795  81.311  1.00  0.00     0.195 HD
ENDBRANCH  13  16
ENDBRANCH  11  12
ENDBRANCH   9  11
TORSDOF 3
ENDMDL
