MODEL 1
REMARK VINA RESULT: -6.316853653      0.000      0.000
REMARK  7 active torsions:
REMARK  status: ('A' for Active; 'I' for Inactive)
REMARK    1  A    between atoms: C3_3  and  C4_4 
REMARK    2  A    between atoms: C4_4  and  N1_5 
REMARK    3  A    between atoms: N4_16  and  C10_18 
REMARK    4  A    between atoms: C10_18  and  C11_19 
REMARK    5  A    between atoms: C11_19  and  N5_20 
REMARK    6  A    between atoms: N5_20  and  C12_21 
REMARK    7  A    between atoms: N5_20  and  C14_23 
ROOT
HETATM    1  C1  UNL     1      -3.408   3.309  86.987  1.00  0.00     0.012 C 
HETATM    2  C2  UNL     1      -2.862   2.256  87.207  1.00  0.00    -0.116 C 
HETATM    3  C3  UNL     1      -2.219   0.977  87.495  1.00  0.00     0.113 C 
ENDROOT
BRANCH   3   4
HETATM    4  C4  UNL     1      -1.293   0.613  86.322  1.00  0.00     0.150 C 
BRANCH   4   5
HETATM    5  N1  UNL     1      -0.452   1.725  86.069  1.00  0.00    -0.225 N 
HETATM    6  C5  UNL     1       0.030   2.119  84.961  1.00  0.00     0.694 A 
HETATM    7  N2  UNL     1      -0.244   1.419  83.732  1.00  0.00    -0.176 N 
HETATM    8  N6  UNL     1       0.900   3.275  84.951  1.00  0.00    -0.022 N 
HETATM    9  C6  UNL     1       0.352   1.875  82.520  1.00  0.00     0.132 A 
ATOM     10  H2  UNL     1      -0.858   0.605  83.730  1.00  0.00     0.186 HD
HETATM   11  C7  UNL     1       0.112   1.221  81.416  1.00  0.00     0.019 C 
HETATM   12  N3  UNL     1       1.214   3.029  82.547  1.00  0.00    -0.176 N 
HETATM   13  C8  UNL     1      -0.748   0.019  81.347  1.00  0.00     0.040 C 
HETATM   14  C9  UNL     1       1.495   3.731  83.747  1.00  0.00     0.694 A 
ATOM     15  H3  UNL     1       1.636   3.351  81.676  1.00  0.00     0.186 HD
HETATM   16  N4  UNL     1       2.273   4.728  83.796  1.00  0.00    -0.224 N 
ATOM     17  H4  UNL     1       2.416   5.176  84.700  1.00  0.00     0.177 HD
ATOM     18  H6  UNL     1       1.089   3.770  85.822  1.00  0.00     0.203 HD
ATOM     19  H1  UNL     1      -0.201   2.284  86.884  1.00  0.00     0.177 HD
BRANCH  16  20
HETATM   20  C10 UNL     1       2.980   5.276  82.645  1.00  0.00     0.168 C 
BRANCH  20  21
HETATM   21  C11 UNL     1       2.840   6.754  82.569  1.00  0.00     0.292 C 
BRANCH  21  22
HETATM   22  N5  UNL     1       1.595   7.274  83.060  1.00  0.00     0.089 N 
BRANCH  22  23
HETATM   23  C12 UNL     1       0.586   7.277  82.072  1.00  0.00     0.268 C 
HETATM   24  C13 UNL     1      -0.616   6.440  82.254  1.00  0.00     0.037 C 
ENDBRANCH  22  23
BRANCH  22  25
HETATM   25  C14 UNL     1       1.847   8.427  83.823  1.00  0.00     0.268 C 
HETATM   26  C15 UNL     1       1.882   8.291  85.315  1.00  0.00     0.037 C 
ENDBRANCH  22  25
ENDBRANCH  21  22
ENDBRANCH  20  21
ENDBRANCH  16  20
ENDBRANCH   4   5
ENDBRANCH   3   4
TORSDOF 7
ENDMDL
MODEL 2
REMARK VINA RESULT: -6.286151554      2.812      3.419
REMARK  7 active torsions:
REMARK  status: ('A' for Active; 'I' for Inactive)
REMARK    1  A    between atoms: C3_3  and  C4_4 
REMARK    2  A    between atoms: C4_4  and  N1_5 
REMARK    3  A    between atoms: N4_16  and  C10_18 
REMARK    4  A    between atoms: C10_18  and  C11_19 
REMARK    5  A    between atoms: C11_19  and  N5_20 
REMARK    6  A    between atoms: N5_20  and  C12_21 
REMARK    7  A    between atoms: N5_20  and  C14_23 
ROOT
HETATM    1  C1  UNL     1      -2.693   2.144  88.545  1.00  0.00     0.012 C 
HETATM    2  C2  UNL     1      -2.315   1.466  87.622  1.00  0.00    -0.116 C 
HETATM    3  C3  UNL     1      -1.883   0.636  86.500  1.00  0.00     0.113 C 
ENDROOT
BRANCH   3   4
HETATM    4  C4  UNL     1      -0.450   1.035  86.111  1.00  0.00     0.150 C 
BRANCH   4   5
HETATM    5  N1  UNL     1      -0.526   2.186  85.288  1.00  0.00    -0.225 N 
HETATM    6  C5  UNL     1      -0.569   2.253  84.019  1.00  0.00     0.694 A 
HETATM    7  N2  UNL     1      -0.540   1.065  83.204  1.00  0.00    -0.176 N 
HETATM    8  N6  UNL     1      -0.612   3.555  83.390  1.00  0.00    -0.022 N 
HETATM    9  C6  UNL     1      -0.551   1.191  81.785  1.00  0.00     0.132 A 
ATOM     10  H2  UNL     1      -0.513   0.144  83.639  1.00  0.00     0.186 HD
HETATM   11  C7  UNL     1      -0.504   0.109  81.056  1.00  0.00     0.019 C 
HETATM   12  N3  UNL     1      -0.592   2.504  81.192  1.00  0.00    -0.176 N 
HETATM   13  C8  UNL     1      -0.438  -1.256  81.622  1.00  0.00     0.040 C 
HETATM   14  C9  UNL     1      -0.622   3.684  81.978  1.00  0.00     0.694 A 
ATOM     15  H3  UNL     1      -0.600   2.587  80.176  1.00  0.00     0.186 HD
HETATM   16  N4  UNL     1      -0.628   4.846  81.477  1.00  0.00    -0.224 N 
ATOM     17  H4  UNL     1      -0.653   5.640  82.116  1.00  0.00     0.177 HD
ATOM     18  H6  UNL     1      -0.636   4.393  83.971  1.00  0.00     0.203 HD
ATOM     19  H1  UNL     1      -0.550   3.080  85.779  1.00  0.00     0.177 HD
BRANCH  16  20
HETATM   20  C10 UNL     1      -0.599   5.124  80.046  1.00  0.00     0.168 C 
BRANCH  20  21
HETATM   21  C11 UNL     1      -0.911   6.549  79.758  1.00  0.00     0.292 C 
BRANCH  21  22
HETATM   22  N5  UNL     1      -2.310   6.869  79.706  1.00  0.00     0.089 N 
BRANCH  22  23
HETATM   23  C12 UNL     1      -2.780   7.012  78.382  1.00  0.00     0.268 C 
HETATM   24  C13 UNL     1      -4.201   6.755  78.080  1.00  0.00     0.037 C 
ENDBRANCH  22  23
BRANCH  22  25
HETATM   25  C14 UNL     1      -2.594   7.848  80.672  1.00  0.00     0.268 C 
HETATM   26  C15 UNL     1      -3.675   7.561  81.670  1.00  0.00     0.037 C 
ENDBRANCH  22  25
ENDBRANCH  21  22
ENDBRANCH  20  21
ENDBRANCH  16  20
ENDBRANCH   4   5
ENDBRANCH   3   4
TORSDOF 7
ENDMDL
MODEL 3
REMARK VINA RESULT: -6.146229350      2.703      3.598
REMARK  7 active torsions:
REMARK  status: ('A' for Active; 'I' for Inactive)
REMARK    1  A    between atoms: C3_3  and  C4_4 
REMARK    2  A    between atoms: C4_4  and  N1_5 
REMARK    3  A    between atoms: N4_16  and  C10_18 
REMARK    4  A    between atoms: C10_18  and  C11_19 
REMARK    5  A    between atoms: C11_19  and  N5_20 
REMARK    6  A    between atoms: N5_20  and  C12_21 
REMARK    7  A    between atoms: N5_20  and  C14_23 
ROOT
HETATM    1  C1  UNL     1      -2.699   2.170  88.550  1.00  0.00     0.012 C 
HETATM    2  C2  UNL     1      -2.310   1.465  87.652  1.00  0.00    -0.116 C 
HETATM    3  C3  UNL     1      -1.865   0.602  86.561  1.00  0.00     0.113 C 
ENDROOT
BRANCH   3   4
HETATM    4  C4  UNL     1      -0.452   1.033  86.133  1.00  0.00     0.150 C 
BRANCH   4   5
HETATM    5  N1  UNL     1      -0.568   2.234  85.390  1.00  0.00    -0.225 N 
HETATM    6  C5  UNL     1      -0.653   2.384  84.131  1.00  0.00     0.694 A 
HETATM    7  N2  UNL     1      -0.636   1.253  83.239  1.00  0.00    -0.176 N 
HETATM    8  N6  UNL     1      -0.731   3.723  83.591  1.00  0.00    -0.022 N 
HETATM    9  C6  UNL     1      -0.693   1.471  81.832  1.00  0.00     0.132 A 
ATOM     10  H2  UNL     1      -0.584   0.305  83.611  1.00  0.00     0.186 HD
HETATM   11  C7  UNL     1      -0.657   0.441  81.032  1.00  0.00     0.019 C 
HETATM   12  N3  UNL     1      -0.769   2.820  81.329  1.00  0.00    -0.176 N 
HETATM   13  C8  UNL     1      -0.557  -0.958  81.504  1.00  0.00     0.040 C 
HETATM   14  C9  UNL     1      -0.788   3.945  82.192  1.00  0.00     0.694 A 
ATOM     15  H3  UNL     1      -0.811   2.970  80.321  1.00  0.00     0.186 HD
HETATM   16  N4  UNL     1      -0.823   5.138  81.769  1.00  0.00    -0.224 N 
ATOM     17  H4  UNL     1      -0.837   5.887  82.460  1.00  0.00     0.177 HD
ATOM     18  H6  UNL     1      -0.746   4.521  84.227  1.00  0.00     0.203 HD
ATOM     19  H1  UNL     1      -0.587   3.093  85.940  1.00  0.00     0.177 HD
BRANCH  16  20
HETATM   20  C10 UNL     1      -0.844   5.509  80.360  1.00  0.00     0.168 C 
BRANCH  20  21
HETATM   21  C11 UNL     1      -0.886   6.985  80.183  1.00  0.00     0.292 C 
BRANCH  21  22
HETATM   22  N5  UNL     1      -2.153   7.512  79.759  1.00  0.00     0.089 N 
BRANCH  22  23
HETATM   23  C12 UNL     1      -2.811   8.225  80.785  1.00  0.00     0.268 C 
HETATM   24  C13 UNL     1      -3.725   7.512  81.698  1.00  0.00     0.037 C 
ENDBRANCH  22  23
BRANCH  22  25
HETATM   25  C14 UNL     1      -2.837   6.528  79.024  1.00  0.00     0.268 C 
HETATM   26  C15 UNL     1      -3.832   6.980  77.999  1.00  0.00     0.037 C 
ENDBRANCH  22  25
ENDBRANCH  21  22
ENDBRANCH  20  21
ENDBRANCH  16  20
ENDBRANCH   4   5
ENDBRANCH   3   4
TORSDOF 7
ENDMDL
MODEL 4
REMARK VINA RESULT: -6.065337744      0.898      1.660
REMARK  7 active torsions:
REMARK  status: ('A' for Active; 'I' for Inactive)
REMARK    1  A    between atoms: C3_3  and  C4_4 
REMARK    2  A    between atoms: C4_4  and  N1_5 
REMARK    3  A    between atoms: N4_16  and  C10_18 
REMARK    4  A    between atoms: C10_18  and  C11_19 
REMARK    5  A    between atoms: C11_19  and  N5_20 
REMARK    6  A    between atoms: N5_20  and  C12_21 
REMARK    7  A    between atoms: N5_20  and  C14_23 
ROOT
HETATM    1  C1  UNL     1      -3.341   3.255  86.982  1.00  0.00     0.012 C 
HETATM    2  C2  UNL     1      -2.843   2.176  87.185  1.00  0.00    -0.116 C 
HETATM    3  C3  UNL     1      -2.257   0.864  87.452  1.00  0.00     0.113 C 
ENDROOT
BRANCH   3   4
HETATM    4  C4  UNL     1      -1.300   0.505  86.303  1.00  0.00     0.150 C 
BRANCH   4   5
HETATM    5  N1  UNL     1      -0.445   1.614  86.085  1.00  0.00    -0.225 N 
HETATM    6  C5  UNL     1       0.008   2.062  84.986  1.00  0.00     0.694 A 
HETATM    7  N2  UNL     1      -0.322   1.440  83.729  1.00  0.00    -0.176 N 
HETATM    8  N6  UNL     1       0.902   3.200  85.011  1.00  0.00    -0.022 N 
HETATM    9  C6  UNL     1       0.242   1.953  82.525  1.00  0.00     0.132 A 
ATOM     10  H2  UNL     1      -0.953   0.639  83.701  1.00  0.00     0.186 HD
HETATM   11  C7  UNL     1      -0.048   1.369  81.394  1.00  0.00     0.019 C 
HETATM   12  N3  UNL     1       1.130   3.087  82.588  1.00  0.00    -0.176 N 
HETATM   13  C8  UNL     1      -0.936   0.190  81.286  1.00  0.00     0.040 C 
HETATM   14  C9  UNL     1       1.465   3.713  83.815  1.00  0.00     0.694 A 
ATOM     15  H3  UNL     1       1.529   3.450  81.723  1.00  0.00     0.186 HD
HETATM   16  N4  UNL     1       2.266   4.690  83.894  1.00  0.00    -0.224 N 
ATOM     17  H4  UNL     1       2.449   5.082  84.817  1.00  0.00     0.177 HD
ATOM     18  H6  UNL     1       1.130   3.640  85.902  1.00  0.00     0.203 HD
ATOM     19  H1  UNL     1      -0.155   2.120  86.922  1.00  0.00     0.177 HD
BRANCH  16  20
HETATM   20  C10 UNL     1       2.946   5.290  82.752  1.00  0.00     0.168 C 
BRANCH  20  21
HETATM   21  C11 UNL     1       2.470   6.675  82.498  1.00  0.00     0.292 C 
BRANCH  21  22
HETATM   22  N5  UNL     1       3.005   7.675  83.380  1.00  0.00     0.089 N 
BRANCH  22  23
HETATM   23  C12 UNL     1       2.013   8.259  84.197  1.00  0.00     0.268 C 
HETATM   24  C13 UNL     1       2.324   8.588  85.601  1.00  0.00     0.037 C 
ENDBRANCH  22  23
BRANCH  22  25
HETATM   25  C14 UNL     1       3.905   8.483  82.665  1.00  0.00     0.268 C 
HETATM   26  C15 UNL     1       5.367   8.345  82.964  1.00  0.00     0.037 C 
ENDBRANCH  22  25
ENDBRANCH  21  22
ENDBRANCH  20  21
ENDBRANCH  16  20
ENDBRANCH   4   5
ENDBRANCH   3   4
TORSDOF 7
ENDMDL
MODEL 5
REMARK VINA RESULT: -6.031176054      2.326      2.869
REMARK  7 active torsions:
REMARK  status: ('A' for Active; 'I' for Inactive)
REMARK    1  A    between atoms: C3_3  and  C4_4 
REMARK    2  A    between atoms: C4_4  and  N1_5 
REMARK    3  A    between atoms: N4_16  and  C10_18 
REMARK    4  A    between atoms: C10_18  and  C11_19 
REMARK    5  A    between atoms: C11_19  and  N5_20 
REMARK    6  A    between atoms: N5_20  and  C12_21 
REMARK    7  A    between atoms: N5_20  and  C14_23 
ROOT
HETATM    1  C1  UNL     1      -4.112   1.009  86.924  1.00  0.00     0.012 C 
HETATM    2  C2  UNL     1      -2.908   0.951  86.942  1.00  0.00    -0.116 C 
HETATM    3  C3  UNL     1      -1.450   0.882  86.992  1.00  0.00     0.113 C 
ENDROOT
BRANCH   3   4
HETATM    4  C4  UNL     1      -0.923   0.507  85.597  1.00  0.00     0.150 C 
BRANCH   4   5
HETATM    5  N1  UNL     1      -0.931   1.678  84.799  1.00  0.00    -0.225 N 
HETATM    6  C5  UNL     1      -0.678   1.794  83.559  1.00  0.00     0.694 A 
HETATM    7  N2  UNL     1      -0.322   0.652  82.755  1.00  0.00    -0.176 N 
HETATM    8  N6  UNL     1      -0.716   3.110  82.959  1.00  0.00    -0.022 N 
HETATM    9  C6  UNL     1      -0.009   0.837  81.377  1.00  0.00     0.132 A 
ATOM     10  H2  UNL     1      -0.296  -0.279  83.168  1.00  0.00     0.186 HD
HETATM   11  C7  UNL     1       0.331  -0.201  80.663  1.00  0.00     0.019 C 
HETATM   12  N3  UNL     1      -0.056   2.163  80.814  1.00  0.00    -0.176 N 
HETATM   13  C8  UNL     1       0.414  -1.575  81.206  1.00  0.00     0.040 C 
HETATM   14  C9  UNL     1      -0.405   3.298  81.589  1.00  0.00     0.694 A 
ATOM     15  H3  UNL     1       0.169   2.289  79.827  1.00  0.00     0.186 HD
HETATM   16  N4  UNL     1      -0.422   4.474  81.120  1.00  0.00    -0.224 N 
ATOM     17  H4  UNL     1      -0.688   5.233  81.747  1.00  0.00     0.177 HD
ATOM     18  H6  UNL     1      -0.972   3.915  83.531  1.00  0.00     0.203 HD
ATOM     19  H1  UNL     1      -1.171   2.542  85.284  1.00  0.00     0.177 HD
BRANCH  16  20
HETATM   20  C10 UNL     1      -0.085   4.814  79.743  1.00  0.00     0.168 C 
BRANCH  20  21
HETATM   21  C11 UNL     1      -0.721   6.092  79.324  1.00  0.00     0.292 C 
BRANCH  21  22
HETATM   22  N5  UNL     1      -1.309   6.858  80.387  1.00  0.00     0.089 N 
BRANCH  22  23
HETATM   23  C12 UNL     1      -2.715   6.935  80.281  1.00  0.00     0.268 C 
HETATM   24  C13 UNL     1      -3.489   7.625  81.331  1.00  0.00     0.037 C 
ENDBRANCH  22  23
BRANCH  22  25
HETATM   25  C14 UNL     1      -0.545   8.019  80.593  1.00  0.00     0.268 C 
HETATM   26  C15 UNL     1       0.493   7.997  81.674  1.00  0.00     0.037 C 
ENDBRANCH  22  25
ENDBRANCH  21  22
ENDBRANCH  20  21
ENDBRANCH  16  20
ENDBRANCH   4   5
ENDBRANCH   3   4
TORSDOF 7
ENDMDL
