MODEL 1
REMARK VINA RESULT: -6.425583585      0.000      0.000
REMARK  7 active torsions:
REMARK  status: ('A' for Active; 'I' for Inactive)
REMARK    1  A    between atoms: C2_2  and  C4_4 
REMARK    2  A    between atoms: C4_4  and  N1_5 
REMARK    3  A    between atoms: C4_4  and  C6_9 
REMARK    4  A    between atoms: N1_5  and  C5_7 
REMARK       I    between atoms: C6_9  and  N2_11 
REMARK    5  A    between atoms: N2_11  and  C7_13 
REMARK    6  A    between atoms: C11_17  and  C12_18 
REMARK       I    between atoms: C12_18  and  N3_20 
REMARK    7  A    between atoms: N3_20  and  C13_22 
ROOT
HETATM    1  C7  UNL     1      -0.524   2.035  82.584  1.00  0.00     0.097 C 
HETATM    2  C8  UNL     1      -1.240   2.066  81.242  1.00  0.00     0.026 C 
HETATM    3  C9  UNL     1      -1.228   0.679  80.695  1.00  0.00     0.003 C 
HETATM    4  C10 UNL     1      -0.691  -0.188  81.817  1.00  0.00     0.016 C 
HETATM    5  C11 UNL     1       0.261   0.769  82.501  1.00  0.00     0.100 C 
ENDROOT
BRANCH   1   6
HETATM    6  N2  UNL     1      -1.434   2.091  83.682  1.00  0.00    -0.354 N 
HETATM    7  C6  UNL     1      -1.030   2.347  84.999  1.00  0.00     0.241 C 
HETATM    8  O2  UNL     1       0.211   2.531  85.177  1.00  0.00    -0.271 OA
ATOM      9  H2  UNL     1      -2.425   1.936  83.500  1.00  0.00     0.162 HD
BRANCH   7  10
HETATM   10  C4  UNL     1      -1.882   2.422  86.177  1.00  0.00     0.179 C 
BRANCH  10  11
HETATM   11  C2  UNL     1      -2.543   1.158  86.604  1.00  0.00     0.009 C 
HETATM   12  C1  UNL     1      -1.864   0.521  87.810  1.00  0.00     0.012 C 
HETATM   13  C3  UNL     1      -4.022   1.197  86.711  1.00  0.00     0.012 C 
ENDBRANCH  10  11
BRANCH  10  14
HETATM   14  N1  UNL     1      -2.928   3.391  85.949  1.00  0.00    -0.355 N 
ATOM     15  H1  UNL     1      -3.896   3.178  86.191  1.00  0.00     0.162 HD
BRANCH  14  16
HETATM   16  C5  UNL     1      -2.584   4.646  85.379  1.00  0.00     0.349 C 
HETATM   17  O1  UNL     1      -2.898   4.889  84.209  1.00  0.00    -0.284 OA
ENDBRANCH  14  16
ENDBRANCH  10  14
ENDBRANCH   7  10
ENDBRANCH   1   6
BRANCH   5  18
HETATM   18  C12 UNL     1       1.386   1.015  81.532  1.00  0.00     0.224 C 
HETATM   19  O3  UNL     1       1.782   0.128  80.736  1.00  0.00    -0.273 OA
HETATM   20  N3  UNL     1       2.044   2.276  81.486  1.00  0.00    -0.356 N 
ATOM     21  H3  UNL     1       1.745   3.017  82.121  1.00  0.00     0.162 HD
BRANCH  20  22
HETATM   22  C13 UNL     1       3.115   2.528  80.572  1.00  0.00     0.084 A 
HETATM   23  C14 UNL     1       3.998   3.691  80.673  1.00  0.00     0.027 A 
HETATM   24  C15 UNL     1       2.885   3.748  79.658  1.00  0.00     0.027 A 
ENDBRANCH  20  22
ENDBRANCH   5  18
TORSDOF 7
ENDMDL
MODEL 2
REMARK VINA RESULT: -6.381802157      2.222      3.535
REMARK  7 active torsions:
REMARK  status: ('A' for Active; 'I' for Inactive)
REMARK    1  A    between atoms: C2_2  and  C4_4 
REMARK    2  A    between atoms: C4_4  and  N1_5 
REMARK    3  A    between atoms: C4_4  and  C6_9 
REMARK    4  A    between atoms: N1_5  and  C5_7 
REMARK       I    between atoms: C6_9  and  N2_11 
REMARK    5  A    between atoms: N2_11  and  C7_13 
REMARK    6  A    between atoms: C11_17  and  C12_18 
REMARK       I    between atoms: C12_18  and  N3_20 
REMARK    7  A    between atoms: N3_20  and  C13_22 
ROOT
HETATM    1  C7  UNL     1       0.525   2.845  81.468  1.00  0.00     0.097 C 
HETATM    2  C8  UNL     1       1.223   1.566  81.030  1.00  0.00     0.026 C 
HETATM    3  C9  UNL     1       2.684   1.853  80.963  1.00  0.00     0.003 C 
HETATM    4  C10 UNL     1       2.848   3.236  81.565  1.00  0.00     0.016 C 
HETATM    5  C11 UNL     1       1.545   3.890  81.161  1.00  0.00     0.100 C 
ENDROOT
BRANCH   1   6
HETATM    6  N2  UNL     1       0.126   2.799  82.838  1.00  0.00    -0.354 N 
HETATM    7  C6  UNL     1      -1.172   2.466  83.247  1.00  0.00     0.241 C 
HETATM    8  O2  UNL     1      -1.998   2.201  82.323  1.00  0.00    -0.271 OA
ATOM      9  H2  UNL     1       0.818   3.021  83.553  1.00  0.00     0.162 HD
BRANCH   7  10
HETATM   10  C4  UNL     1      -1.668   2.396  84.613  1.00  0.00     0.179 C 
BRANCH  10  11
HETATM   11  C2  UNL     1      -2.599   3.475  85.042  1.00  0.00     0.009 C 
HETATM   12  C1  UNL     1      -3.109   3.278  86.464  1.00  0.00     0.012 C 
HETATM   13  C3  UNL     1      -2.165   4.865  84.759  1.00  0.00     0.012 C 
ENDBRANCH  10  11
BRANCH  10  14
HETATM   14  N1  UNL     1      -0.550   2.411  85.528  1.00  0.00    -0.355 N 
ATOM     15  H1  UNL     1      -0.121   3.293  85.809  1.00  0.00     0.162 HD
BRANCH  14  16
HETATM   16  C5  UNL     1      -0.059   1.176  86.028  1.00  0.00     0.349 C 
HETATM   17  O1  UNL     1      -0.802   0.456  86.706  1.00  0.00    -0.284 OA
ENDBRANCH  14  16
ENDBRANCH  10  14
ENDBRANCH   7  10
ENDBRANCH   1   6
BRANCH   5  18
HETATM   18  C12 UNL     1       1.587   4.032  79.663  1.00  0.00     0.224 C 
HETATM   19  O3  UNL     1       0.546   3.982  78.963  1.00  0.00    -0.273 OA
HETATM   20  N3  UNL     1       2.823   4.230  78.985  1.00  0.00    -0.356 N 
ATOM     21  H3  UNL     1       3.686   4.275  79.527  1.00  0.00     0.162 HD
BRANCH  20  22
HETATM   22  C13 UNL     1       2.882   4.368  77.563  1.00  0.00     0.084 A 
HETATM   23  C14 UNL     1       3.924   3.750  76.741  1.00  0.00     0.027 A 
HETATM   24  C15 UNL     1       4.068   5.216  77.064  1.00  0.00     0.027 A 
ENDBRANCH  20  22
ENDBRANCH   5  18
TORSDOF 7
ENDMDL
MODEL 3
REMARK VINA RESULT: -6.330412480      2.941      7.316
REMARK  7 active torsions:
REMARK  status: ('A' for Active; 'I' for Inactive)
REMARK    1  A    between atoms: C2_2  and  C4_4 
REMARK    2  A    between atoms: C4_4  and  N1_5 
REMARK    3  A    between atoms: C4_4  and  C6_9 
REMARK    4  A    between atoms: N1_5  and  C5_7 
REMARK       I    between atoms: C6_9  and  N2_11 
REMARK    5  A    between atoms: N2_11  and  C7_13 
REMARK    6  A    between atoms: C11_17  and  C12_18 
REMARK       I    between atoms: C12_18  and  N3_20 
REMARK    7  A    between atoms: N3_20  and  C13_22 
ROOT
HETATM    1  C7  UNL     1      -0.599   4.397  82.950  1.00  0.00     0.097 C 
HETATM    2  C8  UNL     1       0.206   4.868  84.151  1.00  0.00     0.026 C 
HETATM    3  C9  UNL     1       0.643   3.655  84.901  1.00  0.00     0.003 C 
HETATM    4  C10 UNL     1       0.266   2.482  84.017  1.00  0.00     0.016 C 
HETATM    5  C11 UNL     1      -0.980   3.008  83.341  1.00  0.00     0.100 C 
ENDROOT
BRANCH   1   6
HETATM    6  N2  UNL     1       0.144   4.481  81.734  1.00  0.00    -0.354 N 
HETATM    7  C6  UNL     1      -0.446   4.744  80.491  1.00  0.00     0.241 C 
HETATM    8  O2  UNL     1      -1.702   4.907  80.493  1.00  0.00    -0.271 OA
ATOM      9  H2  UNL     1       1.154   4.343  81.772  1.00  0.00     0.162 HD
BRANCH   7  10
HETATM   10  C4  UNL     1       0.229   4.846  79.206  1.00  0.00     0.179 C 
BRANCH  10  11
HETATM   11  C2  UNL     1       1.702   5.058  79.241  1.00  0.00     0.009 C 
HETATM   12  C1  UNL     1       2.440   4.212  78.210  1.00  0.00     0.012 C 
HETATM   13  C3  UNL     1       2.160   6.469  79.282  1.00  0.00     0.012 C 
ENDBRANCH  10  11
BRANCH  10  14
HETATM   14  N1  UNL     1      -0.339   5.941  78.454  1.00  0.00    -0.355 N 
ATOM     15  H1  UNL     1      -0.405   6.873  78.864  1.00  0.00     0.162 HD
BRANCH  14  16
HETATM   16  C5  UNL     1      -0.804   5.695  77.135  1.00  0.00     0.349 C 
HETATM   17  O1  UNL     1      -0.951   4.529  76.750  1.00  0.00    -0.284 OA
ENDBRANCH  14  16
ENDBRANCH  10  14
ENDBRANCH   7  10
ENDBRANCH   1   6
BRANCH   5  18
HETATM   18  C12 UNL     1      -2.028   3.129  84.415  1.00  0.00     0.224 C 
HETATM   19  O3  UNL     1      -2.931   4.000  84.366  1.00  0.00    -0.273 OA
HETATM   20  N3  UNL     1      -2.027   2.249  85.534  1.00  0.00    -0.356 N 
ATOM     21  H3  UNL     1      -1.305   1.531  85.603  1.00  0.00     0.162 HD
BRANCH  20  22
HETATM   22  C13 UNL     1      -3.014   2.349  86.565  1.00  0.00     0.084 A 
HETATM   23  C14 UNL     1      -2.801   1.861  87.928  1.00  0.00     0.027 A 
HETATM   24  C15 UNL     1      -3.609   0.994  86.997  1.00  0.00     0.027 A 
ENDBRANCH  20  22
ENDBRANCH   5  18
TORSDOF 7
ENDMDL
MODEL 4
REMARK VINA RESULT: -6.327713541      2.527      7.039
REMARK  7 active torsions:
REMARK  status: ('A' for Active; 'I' for Inactive)
REMARK    1  A    between atoms: C2_2  and  C4_4 
REMARK    2  A    between atoms: C4_4  and  N1_5 
REMARK    3  A    between atoms: C4_4  and  C6_9 
REMARK    4  A    between atoms: N1_5  and  C5_7 
REMARK       I    between atoms: C6_9  and  N2_11 
REMARK    5  A    between atoms: N2_11  and  C7_13 
REMARK    6  A    between atoms: C11_17  and  C12_18 
REMARK       I    between atoms: C12_18  and  N3_20 
REMARK    7  A    between atoms: N3_20  and  C13_22 
ROOT
HETATM    1  C7  UNL     1      -0.724   4.239  82.668  1.00  0.00     0.097 C 
HETATM    2  C8  UNL     1      -0.950   5.540  83.422  1.00  0.00     0.026 C 
HETATM    3  C9  UNL     1      -0.280   5.413  84.748  1.00  0.00     0.003 C 
HETATM    4  C10 UNL     1       0.509   4.119  84.674  1.00  0.00     0.016 C 
HETATM    5  C11 UNL     1      -0.369   3.289  83.763  1.00  0.00     0.100 C 
ENDROOT
BRANCH   1   6
HETATM    6  N2  UNL     1       0.274   4.368  81.656  1.00  0.00    -0.354 N 
HETATM    7  C6  UNL     1       0.250   3.641  80.458  1.00  0.00     0.241 C 
HETATM    8  O2  UNL     1      -0.723   2.843  80.309  1.00  0.00    -0.271 OA
ATOM      9  H2  UNL     1       1.043   5.020  81.812  1.00  0.00     0.162 HD
BRANCH   7  10
HETATM   10  C4  UNL     1       1.219   3.706  79.375  1.00  0.00     0.179 C 
BRANCH  10  11
HETATM   11  C2  UNL     1       2.633   3.398  79.726  1.00  0.00     0.009 C 
HETATM   12  C1  UNL     1       3.476   4.652  79.919  1.00  0.00     0.012 C 
HETATM   13  C3  UNL     1       2.838   2.381  80.786  1.00  0.00     0.012 C 
ENDBRANCH  10  11
BRANCH  10  14
HETATM   14  N1  UNL     1       1.205   5.031  78.800  1.00  0.00    -0.355 N 
ATOM     15  H1  UNL     1       1.979   5.675  78.960  1.00  0.00     0.162 HD
BRANCH  14  16
HETATM   16  C5  UNL     1       0.091   5.421  78.010  1.00  0.00     0.349 C 
HETATM   17  O1  UNL     1      -0.450   4.590  77.271  1.00  0.00    -0.284 OA
ENDBRANCH  14  16
ENDBRANCH  10  14
ENDBRANCH   7  10
ENDBRANCH   1   6
BRANCH   5  18
HETATM   18  C12 UNL     1      -1.635   3.012  84.529  1.00  0.00     0.224 C 
HETATM   19  O3  UNL     1      -2.767   3.275  84.055  1.00  0.00    -0.273 OA
HETATM   20  N3  UNL     1      -1.587   2.436  85.830  1.00  0.00    -0.356 N 
ATOM     21  H3  UNL     1      -0.681   2.212  86.242  1.00  0.00     0.162 HD
BRANCH  20  22
HETATM   22  C13 UNL     1      -2.779   2.166  86.572  1.00  0.00     0.084 A 
HETATM   23  C14 UNL     1      -2.775   1.798  87.989  1.00  0.00     0.027 A 
HETATM   24  C15 UNL     1      -2.942   0.689  86.981  1.00  0.00     0.027 A 
ENDBRANCH  20  22
ENDBRANCH   5  18
TORSDOF 7
ENDMDL
MODEL 5
REMARK VINA RESULT: -6.325055578      2.052      6.923
REMARK  7 active torsions:
REMARK  status: ('A' for Active; 'I' for Inactive)
REMARK    1  A    between atoms: C2_2  and  C4_4 
REMARK    2  A    between atoms: C4_4  and  N1_5 
REMARK    3  A    between atoms: C4_4  and  C6_9 
REMARK    4  A    between atoms: N1_5  and  C5_7 
REMARK       I    between atoms: C6_9  and  N2_11 
REMARK    5  A    between atoms: N2_11  and  C7_13 
REMARK    6  A    between atoms: C11_17  and  C12_18 
REMARK       I    between atoms: C12_18  and  N3_20 
REMARK    7  A    between atoms: N3_20  and  C13_22 
ROOT
HETATM    1  C7  UNL     1       0.330   2.593  83.354  1.00  0.00     0.097 C 
HETATM    2  C8  UNL     1      -1.149   2.476  83.018  1.00  0.00     0.026 C 
HETATM    3  C9  UNL     1      -1.886   3.423  83.903  1.00  0.00     0.003 C 
HETATM    4  C10 UNL     1      -0.811   4.236  84.601  1.00  0.00     0.016 C 
HETATM    5  C11 UNL     1       0.305   3.221  84.708  1.00  0.00     0.100 C 
ENDROOT
BRANCH   1   6
HETATM    6  N2  UNL     1       1.049   3.340  82.374  1.00  0.00    -0.354 N 
HETATM    7  C6  UNL     1       2.007   2.770  81.525  1.00  0.00     0.241 C 
HETATM    8  O2  UNL     1       2.212   1.528  81.670  1.00  0.00    -0.271 OA
ATOM      9  H2  UNL     1       0.857   4.338  82.287  1.00  0.00     0.162 HD
BRANCH   7  10
HETATM   10  C4  UNL     1       2.785   3.451  80.501  1.00  0.00     0.179 C 
BRANCH  10  11
HETATM   11  C2  UNL     1       4.161   3.875  80.881  1.00  0.00     0.009 C 
HETATM   12  C1  UNL     1       5.154   3.735  79.734  1.00  0.00     0.012 C 
HETATM   13  C3  UNL     1       4.272   5.166  81.603  1.00  0.00     0.012 C 
ENDBRANCH  10  11
BRANCH  10  14
HETATM   14  N1  UNL     1       2.079   4.636  80.074  1.00  0.00    -0.355 N 
ATOM     15  H1  UNL     1       2.273   5.540  80.505  1.00  0.00     0.162 HD
BRANCH  14  16
HETATM   16  C5  UNL     1       1.109   4.519  79.043  1.00  0.00     0.349 C 
HETATM   17  O1  UNL     1      -0.034   4.139  79.324  1.00  0.00    -0.284 OA
ENDBRANCH  14  16
ENDBRANCH  10  14
ENDBRANCH   7  10
ENDBRANCH   1   6
BRANCH   5  18
HETATM   18  C12 UNL     1      -0.170   2.165  85.670  1.00  0.00     0.224 C 
HETATM   19  O3  UNL     1       0.545   1.181  85.981  1.00  0.00    -0.273 OA
HETATM   20  N3  UNL     1      -1.461   2.250  86.263  1.00  0.00    -0.356 N 
ATOM     21  H3  UNL     1      -2.066   3.038  86.030  1.00  0.00     0.162 HD
BRANCH  20  22
HETATM   22  C13 UNL     1      -1.930   1.257  87.180  1.00  0.00     0.084 A 
HETATM   23  C14 UNL     1      -3.339   0.879  87.300  1.00  0.00     0.027 A 
HETATM   24  C15 UNL     1      -2.780   1.821  88.335  1.00  0.00     0.027 A 
ENDBRANCH  20  22
ENDBRANCH   5  18
TORSDOF 7
ENDMDL
