MODEL 1
REMARK VINA RESULT: -7.685870236      0.000      0.000
REMARK  5 active torsions:
REMARK  status: ('A' for Active; 'I' for Inactive)
REMARK    1  A    between atoms: C6_6  and  C7_7 
REMARK    2  A    between atoms: C7_7  and  C8_8 
REMARK    3  A    between atoms: C8_8  and  N1_9 
REMARK    4  A    between atoms: N1_9  and  C9_10 
REMARK    5  A    between atoms: N1_9  and  C17_23 
ROOT
HETATM    1  C9  UNL     1     -10.083   7.559 -30.665  1.00  0.00     0.055 A 
HETATM    2  C10 UNL     1      -9.275   7.395 -31.744  1.00  0.00     0.105 A 
HETATM    3  C11 UNL     1      -9.160   6.104 -32.284  1.00  0.00     0.248 A 
HETATM    4  O1  UNL     1      -8.410   5.926 -33.292  1.00  0.00    -0.268 OA
HETATM    5  N2  UNL     1      -9.803   5.063 -31.780  1.00  0.00    -0.322 N 
ATOM      6  H2  UNL     1      -9.680   4.149 -32.216  1.00  0.00     0.169 HD
HETATM    7  C12 UNL     1     -10.634   5.174 -30.686  1.00  0.00     0.056 A 
HETATM    8  C13 UNL     1     -11.335   4.190 -30.095  1.00  0.00     0.061 A 
HETATM    9  C14 UNL     1     -12.105   4.521 -29.014  1.00  0.00     0.088 A 
HETATM   10  C15 UNL     1     -12.944   3.635 -28.217  1.00  0.00     0.107 C 
HETATM   11  N3  UNL     1     -13.609   2.951 -27.572  1.00  0.00    -0.191 NA
HETATM   12  S1  UNL     1     -11.830   6.195 -28.854  1.00  0.00    -0.075 SA
HETATM   13  C16 UNL     1     -10.754   6.430 -30.152  1.00  0.00     0.059 A 
ENDROOT
BRANCH   1  14
HETATM   14  N1  UNL     1     -10.310   8.821 -29.997  1.00  0.00    -0.375 N 
BRANCH  14  15
HETATM   15  C8  UNL     1     -11.516   9.533 -30.172  1.00  0.00     0.124 C 
BRANCH  15  16
HETATM   16  C7  UNL     1     -11.447  11.031 -30.244  1.00  0.00     0.026 C 
BRANCH  16  17
HETATM   17  C6  UNL     1     -11.951  11.581 -31.567  1.00  0.00     0.011 C 
HETATM   18  C5  UNL     1     -11.369  12.936 -31.859  1.00  0.00     0.007 C 
HETATM   19  C4  UNL     1      -9.868  12.949 -31.935  1.00  0.00     0.003 C 
HETATM   20  C3  UNL     1      -9.265  12.124 -33.010  1.00  0.00     0.031 C 
HETATM   21  C2  UNL     1     -10.234  11.414 -33.906  1.00  0.00     0.117 C 
HETATM   22  C1  UNL     1      -9.566  11.027 -35.208  1.00  0.00     0.039 C 
HETATM   23  O2  UNL     1     -10.687  10.285 -33.183  1.00  0.00    -0.386 OA
HETATM   24  C20 UNL     1     -11.943  10.634 -32.702  1.00  0.00     0.172 C 
ENDBRANCH  16  17
ENDBRANCH  15  16
ENDBRANCH  14  15
BRANCH  14  25
HETATM   25  C17 UNL     1      -9.264   9.233 -29.116  1.00  0.00     0.084 A 
HETATM   26  C18 UNL     1      -8.292   8.494 -28.346  1.00  0.00     0.027 A 
HETATM   27  C19 UNL     1      -9.496   8.888 -27.607  1.00  0.00     0.027 A 
ENDBRANCH  14  25
ENDBRANCH   1  14
TORSDOF 5
ENDMDL
MODEL 2
REMARK VINA RESULT: -7.364725515      1.940      2.897
REMARK  5 active torsions:
REMARK  status: ('A' for Active; 'I' for Inactive)
REMARK    1  A    between atoms: C6_6  and  C7_7 
REMARK    2  A    between atoms: C7_7  and  C8_8 
REMARK    3  A    between atoms: C8_8  and  N1_9 
REMARK    4  A    between atoms: N1_9  and  C9_10 
REMARK    5  A    between atoms: N1_9  and  C17_23 
ROOT
HETATM    1  C9  UNL     1      -9.681   7.964 -29.132  1.00  0.00     0.055 A 
HETATM    2  C10 UNL     1      -8.696   8.531 -28.388  1.00  0.00     0.105 A 
HETATM    3  C11 UNL     1      -8.455   8.003 -27.110  1.00  0.00     0.248 A 
HETATM    4  O1  UNL     1      -7.540   8.516 -26.397  1.00  0.00    -0.268 OA
HETATM    5  N2  UNL     1      -9.146   6.987 -26.619  1.00  0.00    -0.322 N 
ATOM      6  H2  UNL     1      -8.925   6.645 -25.684  1.00  0.00     0.169 HD
HETATM    7  C12 UNL     1     -10.156   6.376 -27.331  1.00  0.00     0.056 A 
HETATM    8  C13 UNL     1     -10.919   5.341 -26.934  1.00  0.00     0.061 A 
HETATM    9  C14 UNL     1     -11.871   4.884 -27.804  1.00  0.00     0.088 A 
HETATM   10  C15 UNL     1     -12.807   3.787 -27.599  1.00  0.00     0.107 C 
HETATM   11  N3  UNL     1     -13.558   2.926 -27.455  1.00  0.00    -0.191 NA
HETATM   12  S1  UNL     1     -11.674   5.910 -29.150  1.00  0.00    -0.075 SA
HETATM   13  C16 UNL     1     -10.400   6.885 -28.580  1.00  0.00     0.059 A 
ENDROOT
BRANCH   1  14
HETATM   14  N1  UNL     1     -10.049   8.389 -30.464  1.00  0.00    -0.375 N 
BRANCH  14  15
HETATM   15  C8  UNL     1     -11.227   9.132 -30.693  1.00  0.00     0.124 C 
BRANCH  15  16
HETATM   16  C7  UNL     1     -11.215  10.595 -30.354  1.00  0.00     0.026 C 
BRANCH  16  17
HETATM   17  C6  UNL     1     -11.725  11.466 -31.489  1.00  0.00     0.011 C 
HETATM   18  C5  UNL     1     -10.968  12.762 -31.572  1.00  0.00     0.007 C 
HETATM   19  C4  UNL     1      -9.492  12.591 -31.793  1.00  0.00     0.003 C 
HETATM   20  C3  UNL     1      -9.097  11.932 -33.062  1.00  0.00     0.031 C 
HETATM   21  C2  UNL     1     -10.223  11.554 -33.977  1.00  0.00     0.117 C 
HETATM   22  C1  UNL     1      -9.715  11.358 -35.389  1.00  0.00     0.039 C 
HETATM   23  O2  UNL     1     -10.787  10.372 -33.443  1.00  0.00    -0.386 OA
HETATM   24  C20 UNL     1     -11.940  10.779 -32.781  1.00  0.00     0.172 C 
ENDBRANCH  16  17
ENDBRANCH  15  16
ENDBRANCH  14  15
BRANCH  14  25
HETATM   25  C17 UNL     1      -9.105   8.060 -31.484  1.00  0.00     0.084 A 
HETATM   26  C18 UNL     1      -9.248   7.812 -32.899  1.00  0.00     0.027 A 
HETATM   27  C19 UNL     1      -9.234   6.610 -32.060  1.00  0.00     0.027 A 
ENDBRANCH  14  25
ENDBRANCH   1  14
TORSDOF 5
ENDMDL
MODEL 3
REMARK VINA RESULT: -7.349502198      1.923      2.727
REMARK  5 active torsions:
REMARK  status: ('A' for Active; 'I' for Inactive)
REMARK    1  A    between atoms: C6_6  and  C7_7 
REMARK    2  A    between atoms: C7_7  and  C8_8 
REMARK    3  A    between atoms: C8_8  and  N1_9 
REMARK    4  A    between atoms: N1_9  and  C9_10 
REMARK    5  A    between atoms: N1_9  and  C17_23 
ROOT
HETATM    1  C9  UNL     1     -10.039   8.534 -29.598  1.00  0.00     0.055 A 
HETATM    2  C10 UNL     1      -8.747   8.820 -29.293  1.00  0.00     0.105 A 
HETATM    3  C11 UNL     1      -8.024   7.873 -28.551  1.00  0.00     0.248 A 
HETATM    4  O1  UNL     1      -6.816   8.119 -28.255  1.00  0.00    -0.268 OA
HETATM    5  N2  UNL     1      -8.556   6.730 -28.147  1.00  0.00    -0.322 N 
ATOM      6  H2  UNL     1      -7.982   6.080 -27.611  1.00  0.00     0.169 HD
HETATM    7  C12 UNL     1      -9.863   6.391 -28.429  1.00  0.00     0.056 A 
HETATM    8  C13 UNL     1     -10.504   5.262 -28.072  1.00  0.00     0.061 A 
HETATM    9  C14 UNL     1     -11.808   5.125 -28.459  1.00  0.00     0.088 A 
HETATM   10  C15 UNL     1     -12.700   4.004 -28.193  1.00  0.00     0.107 C 
HETATM   11  N3  UNL     1     -13.421   3.129 -27.990  1.00  0.00    -0.191 NA
HETATM   12  S1  UNL     1     -12.103   6.573 -29.308  1.00  0.00    -0.075 SA
HETATM   13  C16 UNL     1     -10.576   7.309 -29.152  1.00  0.00     0.059 A 
ENDROOT
BRANCH   1  14
HETATM   14  N1  UNL     1     -10.914   9.401 -30.356  1.00  0.00    -0.375 N 
BRANCH  14  15
HETATM   15  C8  UNL     1     -11.211   9.135 -31.709  1.00  0.00     0.124 C 
BRANCH  15  16
HETATM   16  C7  UNL     1     -11.732  10.263 -32.551  1.00  0.00     0.026 C 
BRANCH  16  17
HETATM   17  C6  UNL     1     -10.717  10.755 -33.570  1.00  0.00     0.011 C 
HETATM   18  C5  UNL     1     -10.670  12.256 -33.621  1.00  0.00     0.007 C 
HETATM   19  C4  UNL     1     -10.308  12.898 -32.311  1.00  0.00     0.003 C 
HETATM   20  C3  UNL     1      -8.962  12.574 -31.779  1.00  0.00     0.031 C 
HETATM   21  C2  UNL     1      -8.122  11.675 -32.637  1.00  0.00     0.117 C 
HETATM   22  C1  UNL     1      -6.660  11.806 -32.267  1.00  0.00     0.039 C 
HETATM   23  O2  UNL     1      -8.610  10.363 -32.430  1.00  0.00    -0.386 OA
HETATM   24  C20 UNL     1      -9.399  10.084 -33.539  1.00  0.00     0.172 C 
ENDBRANCH  16  17
ENDBRANCH  15  16
ENDBRANCH  14  15
BRANCH  14  25
HETATM   25  C17 UNL     1     -11.485  10.478 -29.612  1.00  0.00     0.084 A 
HETATM   26  C18 UNL     1     -11.840  10.619 -28.219  1.00  0.00     0.027 A 
HETATM   27  C19 UNL     1     -12.944  10.228 -29.102  1.00  0.00     0.027 A 
ENDBRANCH  14  25
ENDBRANCH   1  14
TORSDOF 5
ENDMDL
MODEL 4
REMARK VINA RESULT: -7.267509236      2.323      3.439
REMARK  5 active torsions:
REMARK  status: ('A' for Active; 'I' for Inactive)
REMARK    1  A    between atoms: C6_6  and  C7_7 
REMARK    2  A    between atoms: C7_7  and  C8_8 
REMARK    3  A    between atoms: C8_8  and  N1_9 
REMARK    4  A    between atoms: N1_9  and  C9_10 
REMARK    5  A    between atoms: N1_9  and  C17_23 
ROOT
HETATM    1  C9  UNL     1     -10.224   8.455 -28.980  1.00  0.00     0.055 A 
HETATM    2  C10 UNL     1      -9.133   8.937 -28.329  1.00  0.00     0.105 A 
HETATM    3  C11 UNL     1      -8.633   8.191 -27.250  1.00  0.00     0.248 A 
HETATM    4  O1  UNL     1      -7.615   8.622 -26.627  1.00  0.00    -0.268 OA
HETATM    5  N2  UNL     1      -9.183   7.054 -26.856  1.00  0.00    -0.322 N 
ATOM      6  H2  UNL     1      -8.775   6.556 -26.066  1.00  0.00     0.169 HD
HETATM    7  C12 UNL     1     -10.291   6.521 -27.481  1.00  0.00     0.056 A 
HETATM    8  C13 UNL     1     -10.929   5.378 -27.169  1.00  0.00     0.061 A 
HETATM    9  C14 UNL     1     -12.014   5.031 -27.924  1.00  0.00     0.088 A 
HETATM   10  C15 UNL     1     -12.857   3.851 -27.778  1.00  0.00     0.107 C 
HETATM   11  N3  UNL     1     -13.537   2.928 -27.676  1.00  0.00    -0.191 NA
HETATM   12  S1  UNL     1     -12.114   6.307 -29.049  1.00  0.00    -0.075 SA
HETATM   13  C16 UNL     1     -10.787   7.242 -28.535  1.00  0.00     0.059 A 
ENDROOT
BRANCH   1  14
HETATM   14  N1  UNL     1     -10.856   9.101 -30.108  1.00  0.00    -0.375 N 
BRANCH  14  15
HETATM   15  C8  UNL     1     -10.705   8.595 -31.417  1.00  0.00     0.124 C 
BRANCH  15  16
HETATM   16  C7  UNL     1     -10.820   9.558 -32.562  1.00  0.00     0.026 C 
BRANCH  16  17
HETATM   17  C6  UNL     1      -9.526   9.698 -33.346  1.00  0.00     0.011 C 
HETATM   18  C5  UNL     1      -9.419  11.048 -33.997  1.00  0.00     0.007 C 
HETATM   19  C4  UNL     1      -9.457  12.196 -33.027  1.00  0.00     0.003 C 
HETATM   20  C3  UNL     1      -8.352  12.250 -32.040  1.00  0.00     0.031 C 
HETATM   21  C2  UNL     1      -7.317  11.171 -32.162  1.00  0.00     0.117 C 
HETATM   22  C1  UNL     1      -6.036  11.585 -31.470  1.00  0.00     0.039 C 
HETATM   23  O2  UNL     1      -7.886  10.011 -31.585  1.00  0.00    -0.386 OA
HETATM   24  C20 UNL     1      -8.303   9.232 -32.657  1.00  0.00     0.172 C 
ENDBRANCH  16  17
ENDBRANCH  15  16
ENDBRANCH  14  15
BRANCH  14  25
HETATM   25  C17 UNL     1     -11.678  10.222 -29.778  1.00  0.00     0.084 A 
HETATM   26  C18 UNL     1     -12.434  10.560 -28.595  1.00  0.00     0.027 A 
HETATM   27  C19 UNL     1     -13.207   9.908 -29.658  1.00  0.00     0.027 A 
ENDBRANCH  14  25
ENDBRANCH   1  14
TORSDOF 5
ENDMDL
MODEL 5
REMARK VINA RESULT: -7.138858695      2.391      3.207
REMARK  5 active torsions:
REMARK  status: ('A' for Active; 'I' for Inactive)
REMARK    1  A    between atoms: C6_6  and  C7_7 
REMARK    2  A    between atoms: C7_7  and  C8_8 
REMARK    3  A    between atoms: C8_8  and  N1_9 
REMARK    4  A    between atoms: N1_9  and  C9_10 
REMARK    5  A    between atoms: N1_9  and  C17_23 
ROOT
HETATM    1  C9  UNL     1     -11.069   9.096 -28.123  1.00  0.00     0.055 A 
HETATM    2  C10 UNL     1      -9.844   9.570 -27.776  1.00  0.00     0.105 A 
HETATM    3  C11 UNL     1      -8.918   8.660 -27.243  1.00  0.00     0.248 A 
HETATM    4  O1  UNL     1      -7.768   9.079 -26.912  1.00  0.00    -0.268 OA
HETATM    5  N2  UNL     1      -9.198   7.378 -27.073  1.00  0.00    -0.322 N 
ATOM      6  H2  UNL     1      -8.484   6.764 -26.681  1.00  0.00     0.169 HD
HETATM    7  C12 UNL     1     -10.425   6.845 -27.407  1.00  0.00     0.056 A 
HETATM    8  C13 UNL     1     -10.818   5.565 -27.279  1.00  0.00     0.061 A 
HETATM    9  C14 UNL     1     -12.088   5.248 -27.676  1.00  0.00     0.088 A 
HETATM   10  C15 UNL     1     -12.731   3.941 -27.634  1.00  0.00     0.107 C 
HETATM   11  N3  UNL     1     -13.258   2.917 -27.605  1.00  0.00    -0.191 NA
HETATM   12  S1  UNL     1     -12.698   6.744 -28.217  1.00  0.00    -0.075 SA
HETATM   13  C16 UNL     1     -11.337   7.726 -27.927  1.00  0.00     0.059 A 
ENDROOT
BRANCH   1  14
HETATM   14  N1  UNL     1     -12.130   9.902 -28.685  1.00  0.00    -0.375 N 
BRANCH  14  15
HETATM   15  C8  UNL     1     -12.225  10.115 -30.077  1.00  0.00     0.124 C 
BRANCH  15  16
HETATM   16  C7  UNL     1     -11.790  11.446 -30.617  1.00  0.00     0.026 C 
BRANCH  16  17
HETATM   17  C6  UNL     1     -12.191  11.652 -32.068  1.00  0.00     0.011 C 
HETATM   18  C5  UNL     1     -11.723  12.983 -32.585  1.00  0.00     0.007 C 
HETATM   19  C4  UNL     1     -10.233  13.170 -32.523  1.00  0.00     0.003 C 
HETATM   20  C3  UNL     1      -9.425  12.231 -33.337  1.00  0.00     0.031 C 
HETATM   21  C2  UNL     1     -10.203  11.238 -34.148  1.00  0.00     0.117 C 
HETATM   22  C1  UNL     1      -9.350  10.686 -35.270  1.00  0.00     0.039 C 
HETATM   23  O2  UNL     1     -10.617  10.229 -33.247  1.00  0.00    -0.386 OA
HETATM   24  C20 UNL     1     -11.951  10.506 -32.970  1.00  0.00     0.172 C 
ENDBRANCH  16  17
ENDBRANCH  15  16
ENDBRANCH  14  15
BRANCH  14  25
HETATM   25  C17 UNL     1     -13.083  10.389 -27.739  1.00  0.00     0.084 A 
HETATM   26  C18 UNL     1     -14.163  11.340 -27.847  1.00  0.00     0.027 A 
HETATM   27  C19 UNL     1     -12.905  11.891 -27.334  1.00  0.00     0.027 A 
ENDBRANCH  14  25
ENDBRANCH   1  14
TORSDOF 5
ENDMDL
