MODEL 1
REMARK VINA RESULT: -8.291280973      0.000      0.000
REMARK  7 active torsions:
REMARK  status: ('A' for Active; 'I' for Inactive)
REMARK    1  A    between atoms: N2_11  and  C9_12 
REMARK    2  A    between atoms: C9_12  and  C10_17 
REMARK    3  A    between atoms: N3_13  and  O1_15 
REMARK    4  A    between atoms: C12_20  and  C13_21 
REMARK    5  A    between atoms: C13_21  and  O2_22 
REMARK    6  A    between atoms: O2_22  and  C14_23 
REMARK    7  A    between atoms: C14_23  and  C15_24 
ROOT
HETATM    1  C9  UNL     1     -11.018  11.914 -32.367  1.00  0.00     0.153 C 
HETATM    2  N3  UNL     1     -11.448  12.829 -33.147  1.00  0.00    -0.251 N 
ATOM      3  H3  UNL     1     -10.871  13.147 -33.925  1.00  0.00     0.196 HD
ENDROOT
BRANCH   1   4
HETATM    4  N2  UNL     1      -9.731  11.379 -32.633  1.00  0.00    -0.270 N 
HETATM    5  C2  UNL     1      -9.449  10.254 -33.468  1.00  0.00     0.115 C 
HETATM    6  C1  UNL     1     -10.076  10.415 -34.858  1.00  0.00     0.035 C 
HETATM    7  C3  UNL     1      -7.957  10.312 -33.652  1.00  0.00     0.057 C 
HETATM    8  C4  UNL     1      -7.305   8.982 -33.319  1.00  0.00     0.013 C 
HETATM    9  C8  UNL     1      -7.527  11.304 -32.653  1.00  0.00     0.010 C 
HETATM   10  C5  UNL     1      -5.823   9.180 -33.271  1.00  0.00     0.001 C 
HETATM   11  C6  UNL     1      -5.395  10.613 -33.504  1.00  0.00     0.006 C 
HETATM   12  C7  UNL     1      -6.069  11.488 -32.438  1.00  0.00     0.054 C 
HETATM   13  N1  UNL     1      -8.550  11.861 -32.123  1.00  0.00    -0.304 N 
ATOM     14  H1  UNL     1      -8.495  12.582 -31.403  1.00  0.00     0.186 HD
ENDBRANCH   1   4
BRANCH   1  15
HETATM   15  C10 UNL     1     -11.813  11.411 -31.205  1.00  0.00     0.019 A 
HETATM   16  C11 UNL     1     -12.515  10.239 -31.362  1.00  0.00     0.065 A 
HETATM   17  S1  UNL     1     -13.254  10.020 -29.846  1.00  0.00    -0.103 SA
HETATM   18  C12 UNL     1     -12.664  11.403 -29.047  1.00  0.00     0.007 A 
HETATM   19  C20 UNL     1     -11.895  12.008 -30.004  1.00  0.00     0.032 A 
BRANCH  18  20
HETATM   20  C13 UNL     1     -12.906  11.872 -27.630  1.00  0.00     0.214 C 
BRANCH  20  21
HETATM   21  O2  UNL     1     -13.739  10.997 -26.950  1.00  0.00    -0.382 OA
BRANCH  21  22
HETATM   22  C14 UNL     1     -15.010  11.518 -26.729  1.00  0.00     0.202 C 
BRANCH  22  23
HETATM   23  C15 UNL     1     -15.172  11.736 -25.265  1.00  0.00    -0.060 C 
HETATM   24  C16 UNL     1     -15.350  10.782 -24.368  1.00  0.00    -0.022 C 
HETATM   25  C17 UNL     1     -15.472  11.382 -23.001  1.00  0.00     0.028 C 
HETATM   26  C18 UNL     1     -15.783  12.821 -23.252  1.00  0.00     0.008 C 
HETATM   27  C19 UNL     1     -15.152  13.067 -24.616  1.00  0.00     0.036 C 
ENDBRANCH  22  23
ENDBRANCH  21  22
ENDBRANCH  20  21
ENDBRANCH  18  20
ENDBRANCH   1  15
BRANCH   2  28
HETATM   28  O1  UNL     1     -12.675  13.382 -32.942  1.00  0.00    -0.288 OA
ATOM     29  H1  UNL     1     -12.895  14.217 -33.337  1.00  0.00     0.244 HD
ENDBRANCH   2  28
TORSDOF 7
ENDMDL
MODEL 2
REMARK VINA RESULT: -8.177259273      2.157      3.112
REMARK  7 active torsions:
REMARK  status: ('A' for Active; 'I' for Inactive)
REMARK    1  A    between atoms: N2_11  and  C9_12 
REMARK    2  A    between atoms: C9_12  and  C10_17 
REMARK    3  A    between atoms: N3_13  and  O1_15 
REMARK    4  A    between atoms: C12_20  and  C13_21 
REMARK    5  A    between atoms: C13_21  and  O2_22 
REMARK    6  A    between atoms: O2_22  and  C14_23 
REMARK    7  A    between atoms: C14_23  and  C15_24 
ROOT
HETATM    1  C9  UNL     1     -10.358   9.383 -29.438  1.00  0.00     0.153 C 
HETATM    2  N3  UNL     1      -9.545   8.896 -28.583  1.00  0.00    -0.251 N 
ATOM      3  H3  UNL     1      -8.584   8.689 -28.854  1.00  0.00     0.196 HD
ENDROOT
BRANCH   1   4
HETATM    4  N2  UNL     1      -9.868   9.612 -30.750  1.00  0.00    -0.270 N 
HETATM    5  C2  UNL     1      -9.018   8.734 -31.491  1.00  0.00     0.115 C 
HETATM    6  C1  UNL     1      -9.596   7.316 -31.557  1.00  0.00     0.035 C 
HETATM    7  C3  UNL     1      -9.064   9.291 -32.888  1.00  0.00     0.057 C 
HETATM    8  C4  UNL     1      -7.667   9.514 -33.443  1.00  0.00     0.013 C 
HETATM    9  C8  UNL     1      -9.709  10.602 -32.715  1.00  0.00     0.010 C 
HETATM   10  C5  UNL     1      -7.782  10.298 -34.711  1.00  0.00     0.001 C 
HETATM   11  C6  UNL     1      -9.202  10.691 -35.056  1.00  0.00     0.006 C 
HETATM   12  C7  UNL     1      -9.764  11.513 -33.887  1.00  0.00     0.054 C 
HETATM   13  N1  UNL     1     -10.135  10.723 -31.513  1.00  0.00    -0.304 N 
ATOM     14  H1  UNL     1     -10.617  11.551 -31.162  1.00  0.00     0.186 HD
ENDBRANCH   1   4
BRANCH   1  15
HETATM   15  C10 UNL     1     -11.780   9.701 -29.103  1.00  0.00     0.019 A 
HETATM   16  C11 UNL     1     -12.756   8.840 -29.547  1.00  0.00     0.065 A 
HETATM   17  S1  UNL     1     -14.190   9.538 -28.960  1.00  0.00    -0.103 SA
HETATM   18  C12 UNL     1     -13.535  10.896 -28.168  1.00  0.00     0.007 A 
HETATM   19  C20 UNL     1     -12.190  10.763 -28.390  1.00  0.00     0.032 A 
BRANCH  18  20
HETATM   20  C13 UNL     1     -14.235  11.992 -27.397  1.00  0.00     0.214 C 
BRANCH  20  21
HETATM   21  O2  UNL     1     -13.842  11.995 -26.067  1.00  0.00    -0.382 OA
BRANCH  21  22
HETATM   22  C14 UNL     1     -14.496  12.962 -25.311  1.00  0.00     0.202 C 
BRANCH  22  23
HETATM   23  C15 UNL     1     -15.396  12.265 -24.349  1.00  0.00    -0.060 C 
HETATM   24  C16 UNL     1     -16.327  12.849 -23.617  1.00  0.00    -0.022 C 
HETATM   25  C17 UNL     1     -17.027  11.829 -22.771  1.00  0.00     0.028 C 
HETATM   26  C18 UNL     1     -16.107  10.653 -22.769  1.00  0.00     0.008 C 
HETATM   27  C19 UNL     1     -15.361  10.807 -24.088  1.00  0.00     0.036 C 
ENDBRANCH  22  23
ENDBRANCH  21  22
ENDBRANCH  20  21
ENDBRANCH  18  20
ENDBRANCH   1  15
BRANCH   2  28
HETATM   28  O1  UNL     1      -9.957   8.653 -27.308  1.00  0.00    -0.288 OA
ATOM     29  H1  UNL     1     -10.375   7.829 -27.090  1.00  0.00     0.244 HD
ENDBRANCH   2  28
TORSDOF 7
ENDMDL
MODEL 3
REMARK VINA RESULT: -8.018638660      8.325      9.614
REMARK  7 active torsions:
REMARK  status: ('A' for Active; 'I' for Inactive)
REMARK    1  A    between atoms: N2_11  and  C9_12 
REMARK    2  A    between atoms: C9_12  and  C10_17 
REMARK    3  A    between atoms: N3_13  and  O1_15 
REMARK    4  A    between atoms: C12_20  and  C13_21 
REMARK    5  A    between atoms: C13_21  and  O2_22 
REMARK    6  A    between atoms: O2_22  and  C14_23 
REMARK    7  A    between atoms: C14_23  and  C15_24 
ROOT
HETATM    1  C9  UNL     1     -13.383   6.363 -24.346  1.00  0.00     0.153 C 
HETATM    2  N3  UNL     1     -13.048   7.084 -25.344  1.00  0.00    -0.251 N 
ATOM      3  H3  UNL     1     -12.093   7.048 -25.701  1.00  0.00     0.196 HD
ENDROOT
BRANCH   1   4
HETATM    4  N2  UNL     1     -12.384   5.532 -23.774  1.00  0.00    -0.270 N 
HETATM    5  C2  UNL     1     -12.348   4.105 -23.834  1.00  0.00     0.115 C 
HETATM    6  C1  UNL     1     -12.466   3.600 -25.276  1.00  0.00     0.035 C 
HETATM    7  C3  UNL     1     -10.961   3.764 -23.362  1.00  0.00     0.057 C 
HETATM    8  C4  UNL     1     -10.991   2.735 -22.246  1.00  0.00     0.013 C 
HETATM    9  C8  UNL     1     -10.465   5.035 -22.809  1.00  0.00     0.010 C 
HETATM   10  C5  UNL     1      -9.620   2.637 -21.656  1.00  0.00     0.001 C 
HETATM   11  C6  UNL     1      -8.624   3.596 -22.271  1.00  0.00     0.006 C 
HETATM   12  C7  UNL     1      -9.165   5.021 -22.090  1.00  0.00     0.054 C 
HETATM   13  N1  UNL     1     -11.293   5.976 -23.068  1.00  0.00    -0.304 N 
ATOM     14  H1  UNL     1     -11.158   6.946 -22.782  1.00  0.00     0.186 HD
ENDBRANCH   1   4
BRANCH   1  15
HETATM   15  C10 UNL     1     -14.764   6.376 -23.773  1.00  0.00     0.019 A 
HETATM   16  C11 UNL     1     -15.678   5.478 -24.272  1.00  0.00     0.065 A 
HETATM   17  S1  UNL     1     -17.082   5.807 -23.370  1.00  0.00    -0.103 SA
HETATM   18  C12 UNL     1     -16.491   7.065 -22.385  1.00  0.00     0.007 A 
HETATM   19  C20 UNL     1     -15.191   7.195 -22.798  1.00  0.00     0.032 A 
BRANCH  18  20
HETATM   20  C13 UNL     1     -17.197   7.857 -21.309  1.00  0.00     0.214 C 
BRANCH  20  21
HETATM   21  O2  UNL     1     -17.625   9.084 -21.792  1.00  0.00    -0.382 OA
BRANCH  21  22
HETATM   22  C14 UNL     1     -16.831  10.143 -21.363  1.00  0.00     0.202 C 
BRANCH  22  23
HETATM   23  C15 UNL     1     -16.397  10.910 -22.564  1.00  0.00    -0.060 C 
HETATM   24  C16 UNL     1     -15.456  10.533 -23.411  1.00  0.00    -0.022 C 
HETATM   25  C17 UNL     1     -15.298  11.559 -24.491  1.00  0.00     0.028 C 
HETATM   26  C18 UNL     1     -15.947  12.785 -23.938  1.00  0.00     0.008 C 
HETATM   27  C19 UNL     1     -16.974  12.213 -22.970  1.00  0.00     0.036 C 
ENDBRANCH  22  23
ENDBRANCH  21  22
ENDBRANCH  20  21
ENDBRANCH  18  20
ENDBRANCH   1  15
BRANCH   2  28
HETATM   28  O1  UNL     1     -13.963   7.902 -25.936  1.00  0.00    -0.288 OA
ATOM     29  H1  UNL     1     -14.576   8.394 -25.404  1.00  0.00     0.244 HD
ENDBRANCH   2  28
TORSDOF 7
ENDMDL
MODEL 4
REMARK VINA RESULT: -7.935366926      1.136      1.684
REMARK  7 active torsions:
REMARK  status: ('A' for Active; 'I' for Inactive)
REMARK    1  A    between atoms: N2_11  and  C9_12 
REMARK    2  A    between atoms: C9_12  and  C10_17 
REMARK    3  A    between atoms: N3_13  and  O1_15 
REMARK    4  A    between atoms: C12_20  and  C13_21 
REMARK    5  A    between atoms: C13_21  and  O2_22 
REMARK    6  A    between atoms: O2_22  and  C14_23 
REMARK    7  A    between atoms: C14_23  and  C15_24 
ROOT
HETATM    1  C9  UNL     1     -11.252  11.164 -32.214  1.00  0.00     0.153 C 
HETATM    2  N3  UNL     1     -11.656  12.049 -33.042  1.00  0.00    -0.251 N 
ATOM      3  H3  UNL     1     -11.103  12.259 -33.873  1.00  0.00     0.196 HD
ENDROOT
BRANCH   1   4
HETATM    4  N2  UNL     1     -10.028  10.507 -32.504  1.00  0.00    -0.270 N 
HETATM    5  C2  UNL     1      -8.813  11.143 -32.906  1.00  0.00     0.115 C 
HETATM    6  C1  UNL     1      -8.412  12.256 -31.931  1.00  0.00     0.035 C 
HETATM    7  C3  UNL     1      -7.783  10.054 -32.774  1.00  0.00     0.057 C 
HETATM    8  C4  UNL     1      -6.971   9.902 -34.049  1.00  0.00     0.013 C 
HETATM    9  C8  UNL     1      -8.590   8.837 -32.590  1.00  0.00     0.010 C 
HETATM   10  C5  UNL     1      -6.157   8.651 -33.944  1.00  0.00     0.001 C 
HETATM   11  C6  UNL     1      -6.396   7.876 -32.667  1.00  0.00     0.006 C 
HETATM   12  C7  UNL     1      -7.890   7.528 -32.596  1.00  0.00     0.054 C 
HETATM   13  N1  UNL     1      -9.823   9.150 -32.445  1.00  0.00    -0.304 N 
ATOM     14  H1  UNL     1     -10.569   8.469 -32.302  1.00  0.00     0.186 HD
ENDBRANCH   1   4
BRANCH   1  15
HETATM   15  C10 UNL     1     -12.014  10.818 -30.975  1.00  0.00     0.019 A 
HETATM   16  C11 UNL     1     -12.881   9.752 -31.027  1.00  0.00     0.065 A 
HETATM   17  S1  UNL     1     -13.520   9.690 -29.453  1.00  0.00    -0.103 SA
HETATM   18  C12 UNL     1     -12.684  11.002 -28.761  1.00  0.00     0.007 A 
HETATM   19  C20 UNL     1     -11.917  11.460 -29.800  1.00  0.00     0.032 A 
BRANCH  18  20
HETATM   20  C13 UNL     1     -12.745  11.547 -27.353  1.00  0.00     0.214 C 
BRANCH  20  21
HETATM   21  O2  UNL     1     -13.980  11.300 -26.775  1.00  0.00    -0.382 OA
BRANCH  21  22
HETATM   22  C14 UNL     1     -14.523  12.420 -26.154  1.00  0.00     0.202 C 
BRANCH  22  23
HETATM   23  C15 UNL     1     -15.162  11.979 -24.883  1.00  0.00    -0.060 C 
HETATM   24  C16 UNL     1     -15.194  10.736 -24.438  1.00  0.00    -0.022 C 
HETATM   25  C17 UNL     1     -15.922  10.679 -23.130  1.00  0.00     0.028 C 
HETATM   26  C18 UNL     1     -16.690  11.958 -23.075  1.00  0.00     0.008 C 
HETATM   27  C19 UNL     1     -15.852  12.890 -23.940  1.00  0.00     0.036 C 
ENDBRANCH  22  23
ENDBRANCH  21  22
ENDBRANCH  20  21
ENDBRANCH  18  20
ENDBRANCH   1  15
BRANCH   2  28
HETATM   28  O1  UNL     1     -12.823  12.714 -32.818  1.00  0.00    -0.288 OA
ATOM     29  H1  UNL     1     -13.338  13.034 -33.548  1.00  0.00     0.244 HD
ENDBRANCH   2  28
TORSDOF 7
ENDMDL
MODEL 5
REMARK VINA RESULT: -7.758611789      1.673      2.183
REMARK  7 active torsions:
REMARK  status: ('A' for Active; 'I' for Inactive)
REMARK    1  A    between atoms: N2_11  and  C9_12 
REMARK    2  A    between atoms: C9_12  and  C10_17 
REMARK    3  A    between atoms: N3_13  and  O1_15 
REMARK    4  A    between atoms: C12_20  and  C13_21 
REMARK    5  A    between atoms: C13_21  and  O2_22 
REMARK    6  A    between atoms: O2_22  and  C14_23 
REMARK    7  A    between atoms: C14_23  and  C15_24 
ROOT
HETATM    1  C9  UNL     1     -11.588  10.148 -31.686  1.00  0.00     0.153 C 
HETATM    2  N3  UNL     1     -12.181   9.991 -32.806  1.00  0.00    -0.251 N 
ATOM      3  H3  UNL     1     -11.646  10.025 -33.674  1.00  0.00     0.196 HD
ENDROOT
BRANCH   1   4
HETATM    4  N2  UNL     1     -10.186  10.369 -31.713  1.00  0.00    -0.270 N 
HETATM    5  C2  UNL     1      -9.525  11.471 -32.337  1.00  0.00     0.115 C 
HETATM    6  C1  UNL     1     -10.100  12.811 -31.866  1.00  0.00     0.035 C 
HETATM    7  C3  UNL     1      -8.119  11.388 -31.809  1.00  0.00     0.057 C 
HETATM    8  C4  UNL     1      -7.100  11.410 -32.935  1.00  0.00     0.013 C 
HETATM    9  C8  UNL     1      -8.071  10.064 -31.166  1.00  0.00     0.010 C 
HETATM   10  C5  UNL     1      -5.760  11.067 -32.367  1.00  0.00     0.001 C 
HETATM   11  C6  UNL     1      -5.790  10.747 -30.888  1.00  0.00     0.006 C 
HETATM   12  C7  UNL     1      -6.758   9.574 -30.677  1.00  0.00     0.054 C 
HETATM   13  N1  UNL     1      -9.243   9.549 -31.141  1.00  0.00    -0.304 N 
ATOM     14  H1  UNL     1      -9.453   8.634 -30.743  1.00  0.00     0.186 HD
ENDBRANCH   1   4
BRANCH   1  15
HETATM   15  C10 UNL     1     -12.317  10.115 -30.381  1.00  0.00     0.019 A 
HETATM   16  C11 UNL     1     -12.446   8.903 -29.744  1.00  0.00     0.065 A 
HETATM   17  S1  UNL     1     -13.304   9.294 -28.330  1.00  0.00    -0.103 SA
HETATM   18  C12 UNL     1     -13.481  10.972 -28.566  1.00  0.00     0.007 A 
HETATM   19  C20 UNL     1     -12.854  11.181 -29.765  1.00  0.00     0.032 A 
BRANCH  18  20
HETATM   20  C13 UNL     1     -14.150  12.002 -27.686  1.00  0.00     0.214 C 
BRANCH  20  21
HETATM   21  O2  UNL     1     -14.100  11.628 -26.352  1.00  0.00    -0.382 OA
BRANCH  21  22
HETATM   22  C14 UNL     1     -14.447  12.660 -25.485  1.00  0.00     0.202 C 
BRANCH  22  23
HETATM   23  C15 UNL     1     -15.355  12.102 -24.444  1.00  0.00    -0.060 C 
HETATM   24  C16 UNL     1     -16.228  12.801 -23.742  1.00  0.00    -0.022 C 
HETATM   25  C17 UNL     1     -16.959  11.901 -22.793  1.00  0.00     0.028 C 
HETATM   26  C18 UNL     1     -16.109  10.676 -22.713  1.00  0.00     0.008 C 
HETATM   27  C19 UNL     1     -15.396  10.672 -24.059  1.00  0.00     0.036 C 
ENDBRANCH  22  23
ENDBRANCH  21  22
ENDBRANCH  20  21
ENDBRANCH  18  20
ENDBRANCH   1  15
BRANCH   2  28
HETATM   28  O1  UNL     1     -13.525   9.776 -32.844  1.00  0.00    -0.288 OA
ATOM     29  H1  UNL     1     -14.125  10.511 -32.888  1.00  0.00     0.244 HD
ENDBRANCH   2  28
TORSDOF 7
ENDMDL
