MODEL 1
REMARK VINA RESULT: -7.442613615      0.000      0.000
REMARK  7 active torsions:
REMARK  status: ('A' for Active; 'I' for Inactive)
REMARK    1  A    between atoms: C2_2  and  O1_6 
REMARK    2  A    between atoms: O1_6  and  C3_7 
REMARK    3  A    between atoms: C4_11  and  N3_12 
REMARK    4  A    between atoms: N3_12  and  N4_14 
REMARK    5  A    between atoms: N4_14  and  O2_16 
REMARK    6  A    between atoms: C5_18  and  C6_19 
REMARK    7  A    between atoms: C6_19  and  O3_20 
ROOT
HETATM    1  C3  UNL     1     -41.152 -22.189   7.295  1.00  0.00     0.478 C 
HETATM    2  N2  UNL     1     -41.669 -22.076   8.615  1.00  0.00     0.000 N 
ATOM      3  H21 UNL     1     -41.414 -22.824   9.262  1.00  0.00     0.285 HD
ATOM      4  H22 UNL     1     -42.673 -22.224   8.717  1.00  0.00     0.285 HD
HETATM    5  C4  UNL     1     -41.172 -20.724   8.956  1.00  0.00     0.337 C 
HETATM    6  C5  UNL     1     -39.765 -20.873   8.500  1.00  0.00     0.201 C 
HETATM    7  O4  UNL     1     -39.851 -21.712   7.372  1.00  0.00    -0.327 OA
ENDROOT
BRANCH   1   8
HETATM    8  O1  UNL     1     -41.083 -23.506   6.803  1.00  0.00    -0.285 OA
BRANCH   8   9
HETATM    9  C2  UNL     1     -41.677 -23.808   5.588  1.00  0.00     0.112 C 
HETATM   10  C1  UNL     1     -41.199 -24.960   4.748  1.00  0.00     0.097 C 
HETATM   11  N1  UNL     1     -42.646 -23.049   5.236  1.00  0.00    -0.384 N 
ATOM     12  H12 UNL     1     -43.083 -23.272   4.342  1.00  0.00     0.157 HD
ATOM     13  H11 UNL     1     -42.969 -22.267   5.805  1.00  0.00     0.157 HD
ENDBRANCH   8   9
ENDBRANCH   1   8
BRANCH   5  14
HETATM   14  N3  UNL     1     -41.404 -20.346  10.298  1.00  0.00    -0.284 N 
ATOM     15  H3  UNL     1     -41.168 -19.385  10.545  1.00  0.00     0.184 HD
BRANCH  14  16
HETATM   16  N4  UNL     1     -41.916 -21.135  11.317  1.00  0.00    -0.212 N 
ATOM     17  H4  UNL     1     -42.783 -21.636  11.125  1.00  0.00     0.215 HD
BRANCH  16  18
HETATM   18  O2  UNL     1     -41.415 -21.282  12.433  1.00  0.00    -0.275 OA
ATOM     19  H2  UNL     1     -41.889 -21.294  13.256  1.00  0.00     0.246 HD
ENDBRANCH  16  18
ENDBRANCH  14  16
ENDBRANCH   5  14
BRANCH   6  20
HETATM   20  C6  UNL     1     -38.804 -21.443   9.486  1.00  0.00     0.200 C 
BRANCH  20  21
HETATM   21  O3  UNL     1     -39.407 -22.460  10.229  1.00  0.00    -0.398 OA
ATOM     22  H3  UNL     1     -39.678 -22.137  11.080  1.00  0.00     0.209 HD
ENDBRANCH  20  21
ENDBRANCH   6  20
TORSDOF 7
ENDMDL
MODEL 2
REMARK VINA RESULT: -7.161586500      2.013      4.731
REMARK  7 active torsions:
REMARK  status: ('A' for Active; 'I' for Inactive)
REMARK    1  A    between atoms: C2_2  and  O1_6 
REMARK    2  A    between atoms: O1_6  and  C3_7 
REMARK    3  A    between atoms: C4_11  and  N3_12 
REMARK    4  A    between atoms: N3_12  and  N4_14 
REMARK    5  A    between atoms: N4_14  and  O2_16 
REMARK    6  A    between atoms: C5_18  and  C6_19 
REMARK    7  A    between atoms: C6_19  and  O3_20 
ROOT
HETATM    1  C3  UNL     1     -40.758 -22.040   8.956  1.00  0.00     0.478 C 
HETATM    2  N2  UNL     1     -41.611 -21.625   7.897  1.00  0.00     0.000 N 
ATOM      3  H21 UNL     1     -41.958 -20.667   7.950  1.00  0.00     0.285 HD
ATOM      4  H22 UNL     1     -42.541 -22.044   7.880  1.00  0.00     0.285 HD
HETATM    5  C4  UNL     1     -40.736 -21.937   6.744  1.00  0.00     0.337 C 
HETATM    6  C5  UNL     1     -39.475 -21.325   7.238  1.00  0.00     0.201 C 
HETATM    7  O4  UNL     1     -39.504 -21.542   8.630  1.00  0.00    -0.327 OA
ENDROOT
BRANCH   1   8
HETATM    8  O1  UNL     1     -41.095 -21.519  10.219  1.00  0.00    -0.285 OA
BRANCH   8   9
HETATM    9  C2  UNL     1     -41.000 -22.334  11.336  1.00  0.00     0.112 C 
HETATM   10  C1  UNL     1     -40.636 -23.787  11.216  1.00  0.00     0.097 C 
HETATM   11  N1  UNL     1     -41.239 -21.770  12.460  1.00  0.00    -0.384 N 
ATOM     12  H12 UNL     1     -41.169 -22.369  13.282  1.00  0.00     0.157 HD
ATOM     13  H11 UNL     1     -41.487 -20.784  12.541  1.00  0.00     0.157 HD
ENDBRANCH   8   9
ENDBRANCH   1   8
BRANCH   5  14
HETATM   14  N3  UNL     1     -41.247 -21.503   5.499  1.00  0.00    -0.284 N 
ATOM     15  H3  UNL     1     -40.684 -20.821   4.991  1.00  0.00     0.184 HD
BRANCH  14  16
HETATM   16  N4  UNL     1     -42.427 -21.901   4.890  1.00  0.00    -0.212 N 
ATOM     17  H4  UNL     1     -42.744 -21.356   4.088  1.00  0.00     0.215 HD
BRANCH  16  18
HETATM   18  O2  UNL     1     -43.126 -22.856   5.233  1.00  0.00    -0.275 OA
ATOM     19  H2  UNL     1     -43.407 -23.568   4.670  1.00  0.00     0.246 HD
ENDBRANCH  16  18
ENDBRANCH  14  16
ENDBRANCH   5  14
BRANCH   6  20
HETATM   20  C6  UNL     1     -39.284 -19.875   6.953  1.00  0.00     0.200 C 
BRANCH  20  21
HETATM   21  O3  UNL     1     -39.634 -19.106   8.065  1.00  0.00    -0.398 OA
ATOM     22  H3  UNL     1     -39.775 -18.200   7.815  1.00  0.00     0.209 HD
ENDBRANCH  20  21
ENDBRANCH   6  20
TORSDOF 7
ENDMDL
MODEL 3
REMARK VINA RESULT: -7.047565752      0.832      1.036
REMARK  7 active torsions:
REMARK  status: ('A' for Active; 'I' for Inactive)
REMARK    1  A    between atoms: C2_2  and  O1_6 
REMARK    2  A    between atoms: O1_6  and  C3_7 
REMARK    3  A    between atoms: C4_11  and  N3_12 
REMARK    4  A    between atoms: N3_12  and  N4_14 
REMARK    5  A    between atoms: N4_14  and  O2_16 
REMARK    6  A    between atoms: C5_18  and  C6_19 
REMARK    7  A    between atoms: C6_19  and  O3_20 
ROOT
HETATM    1  C3  UNL     1     -41.289 -21.917   7.406  1.00  0.00     0.478 C 
HETATM    2  N2  UNL     1     -41.717 -22.023   8.758  1.00  0.00     0.000 N 
ATOM      3  H21 UNL     1     -41.385 -22.841   9.270  1.00  0.00     0.285 HD
ATOM      4  H22 UNL     1     -42.704 -22.237   8.901  1.00  0.00     0.285 HD
HETATM    5  C4  UNL     1     -41.256 -20.709   9.262  1.00  0.00     0.337 C 
HETATM    6  C5  UNL     1     -39.880 -20.716   8.701  1.00  0.00     0.201 C 
HETATM    7  O4  UNL     1     -40.008 -21.388   7.469  1.00  0.00    -0.327 OA
ENDROOT
BRANCH   1   8
HETATM    8  O1  UNL     1     -41.198 -23.143   6.722  1.00  0.00    -0.285 OA
BRANCH   8   9
HETATM    9  C2  UNL     1     -41.551 -23.201   5.383  1.00  0.00     0.112 C 
HETATM   10  C1  UNL     1     -42.194 -22.031   4.691  1.00  0.00     0.097 C 
HETATM   11  N1  UNL     1     -41.295 -24.304   4.785  1.00  0.00    -0.384 N 
ATOM     12  H12 UNL     1     -41.555 -24.346   3.800  1.00  0.00     0.157 HD
ATOM     13  H11 UNL     1     -40.860 -25.098   5.255  1.00  0.00     0.157 HD
ENDBRANCH   8   9
ENDBRANCH   1   8
BRANCH   5  14
HETATM   14  N3  UNL     1     -41.409 -20.541  10.657  1.00  0.00    -0.284 N 
ATOM     15  H3  UNL     1     -41.340 -19.586  11.009  1.00  0.00     0.184 HD
BRANCH  14  16
HETATM   16  N4  UNL     1     -41.642 -21.529  11.602  1.00  0.00    -0.212 N 
ATOM     17  H4  UNL     1     -42.382 -22.201  11.399  1.00  0.00     0.215 HD
BRANCH  16  18
HETATM   18  O2  UNL     1     -41.034 -21.665  12.665  1.00  0.00    -0.275 OA
ATOM     19  H2  UNL     1     -40.194 -22.096  12.771  1.00  0.00     0.246 HD
ENDBRANCH  16  18
ENDBRANCH  14  16
ENDBRANCH   5  14
BRANCH   6  20
HETATM   20  C6  UNL     1     -38.828 -21.370   9.530  1.00  0.00     0.200 C 
BRANCH  20  21
HETATM   21  O3  UNL     1     -39.344 -22.490  10.185  1.00  0.00    -0.398 OA
ATOM     22  H3  UNL     1     -38.656 -22.954  10.647  1.00  0.00     0.209 HD
ENDBRANCH  20  21
ENDBRANCH   6  20
TORSDOF 7
ENDMDL
MODEL 4
REMARK VINA RESULT: -6.895224012      2.187      2.775
REMARK  7 active torsions:
REMARK  status: ('A' for Active; 'I' for Inactive)
REMARK    1  A    between atoms: C2_2  and  O1_6 
REMARK    2  A    between atoms: O1_6  and  C3_7 
REMARK    3  A    between atoms: C4_11  and  N3_12 
REMARK    4  A    between atoms: N3_12  and  N4_14 
REMARK    5  A    between atoms: N4_14  and  O2_16 
REMARK    6  A    between atoms: C5_18  and  C6_19 
REMARK    7  A    between atoms: C6_19  and  O3_20 
ROOT
HETATM    1  C3  UNL     1     -40.656 -20.976   9.141  1.00  0.00     0.478 C 
HETATM    2  N2  UNL     1     -41.630 -20.997  10.177  1.00  0.00     0.000 N 
ATOM      3  H21 UNL     1     -42.501 -21.484   9.963  1.00  0.00     0.285 HD
ATOM      4  H22 UNL     1     -42.086 -20.107  10.382  1.00  0.00     0.285 HD
HETATM    5  C4  UNL     1     -40.812 -21.575  11.268  1.00  0.00     0.337 C 
HETATM    6  C5  UNL     1     -40.199 -22.705  10.523  1.00  0.00     0.201 C 
HETATM    7  O4  UNL     1     -40.016 -22.205   9.218  1.00  0.00    -0.327 OA
ENDROOT
BRANCH   1   8
HETATM    8  O1  UNL     1     -41.184 -20.864   7.842  1.00  0.00    -0.285 OA
BRANCH   8   9
HETATM    9  C2  UNL     1     -40.597 -21.575   6.807  1.00  0.00     0.112 C 
HETATM   10  C1  UNL     1     -41.347 -22.652   6.074  1.00  0.00     0.097 C 
HETATM   11  N1  UNL     1     -39.390 -21.256   6.524  1.00  0.00    -0.384 N 
ATOM     12  H12 UNL     1     -38.959 -21.779   5.762  1.00  0.00     0.157 HD
ATOM     13  H11 UNL     1     -38.881 -20.526   7.022  1.00  0.00     0.157 HD
ENDBRANCH   8   9
ENDBRANCH   1   8
BRANCH   5  14
HETATM   14  N3  UNL     1     -41.542 -21.866  12.443  1.00  0.00    -0.284 N 
ATOM     15  H3  UNL     1     -42.528 -21.606  12.440  1.00  0.00     0.184 HD
BRANCH  14  16
HETATM   16  N4  UNL     1     -41.069 -22.467  13.599  1.00  0.00    -0.212 N 
ATOM     17  H4  UNL     1     -40.440 -21.918  14.185  1.00  0.00     0.215 HD
BRANCH  16  18
HETATM   18  O2  UNL     1     -41.341 -23.607  13.980  1.00  0.00    -0.275 OA
ATOM     19  H2  UNL     1     -40.809 -24.139  14.560  1.00  0.00     0.246 HD
ENDBRANCH  16  18
ENDBRANCH  14  16
ENDBRANCH   5  14
BRANCH   6  20
HETATM   20  C6  UNL     1     -40.981 -23.973  10.476  1.00  0.00     0.200 C 
BRANCH  20  21
HETATM   21  O3  UNL     1     -40.620 -24.812  11.532  1.00  0.00    -0.398 OA
ATOM     22  H3  UNL     1     -40.151 -25.573  11.210  1.00  0.00     0.209 HD
ENDBRANCH  20  21
ENDBRANCH   6  20
TORSDOF 7
ENDMDL
MODEL 5
REMARK VINA RESULT: -6.875974033      1.425      1.633
REMARK  7 active torsions:
REMARK  status: ('A' for Active; 'I' for Inactive)
REMARK    1  A    between atoms: C2_2  and  O1_6 
REMARK    2  A    between atoms: O1_6  and  C3_7 
REMARK    3  A    between atoms: C4_11  and  N3_12 
REMARK    4  A    between atoms: N3_12  and  N4_14 
REMARK    5  A    between atoms: N4_14  and  O2_16 
REMARK    6  A    between atoms: C5_18  and  C6_19 
REMARK    7  A    between atoms: C6_19  and  O3_20 
ROOT
HETATM    1  C3  UNL     1     -40.686 -21.903   7.641  1.00  0.00     0.478 C 
HETATM    2  N2  UNL     1     -41.777 -22.035   8.542  1.00  0.00     0.000 N 
ATOM      3  H21 UNL     1     -42.056 -22.990   8.771  1.00  0.00     0.285 HD
ATOM      4  H22 UNL     1     -42.694 -21.772   8.179  1.00  0.00     0.285 HD
HETATM    5  C4  UNL     1     -41.265 -21.220   9.666  1.00  0.00     0.337 C 
HETATM    6  C5  UNL     1     -39.892 -21.783   9.753  1.00  0.00     0.201 C 
HETATM    7  O4  UNL     1     -39.549 -22.074   8.418  1.00  0.00    -0.327 OA
ENDROOT
BRANCH   1   8
HETATM    8  O1  UNL     1     -40.643 -22.875   6.624  1.00  0.00    -0.285 OA
BRANCH   8   9
HETATM    9  C2  UNL     1     -41.612 -22.863   5.633  1.00  0.00     0.112 C 
HETATM   10  C1  UNL     1     -42.002 -21.590   4.935  1.00  0.00     0.097 C 
HETATM   11  N1  UNL     1     -42.143 -23.995   5.358  1.00  0.00    -0.384 N 
ATOM     12  H12 UNL     1     -42.855 -23.986   4.628  1.00  0.00     0.157 HD
ATOM     13  H11 UNL     1     -41.878 -24.859   5.832  1.00  0.00     0.157 HD
ENDBRANCH   8   9
ENDBRANCH   1   8
BRANCH   5  14
HETATM   14  N3  UNL     1     -42.077 -21.257  10.823  1.00  0.00    -0.284 N 
ATOM     15  H3  UNL     1     -41.978 -20.476  11.471  1.00  0.00     0.184 HD
BRANCH  14  16
HETATM   16  N4  UNL     1     -42.995 -22.235  11.174  1.00  0.00    -0.212 N 
ATOM     17  H4  UNL     1     -43.854 -22.284  10.627  1.00  0.00     0.215 HD
BRANCH  16  18
HETATM   18  O2  UNL     1     -42.863 -23.048  12.090  1.00  0.00    -0.275 OA
ATOM     19  H2  UNL     1     -43.040 -23.980  12.033  1.00  0.00     0.246 HD
ENDBRANCH  16  18
ENDBRANCH  14  16
ENDBRANCH   5  14
BRANCH   6  20
HETATM   20  C6  UNL     1     -39.726 -23.000  10.598  1.00  0.00     0.200 C 
BRANCH  20  21
HETATM   21  O3  UNL     1     -40.675 -23.966  10.260  1.00  0.00    -0.398 OA
ATOM     22  H3  UNL     1     -40.252 -24.747   9.923  1.00  0.00     0.209 HD
ENDBRANCH  20  21
ENDBRANCH   6  20
TORSDOF 7
ENDMDL
