MODEL 1
REMARK VINA RESULT: -5.288187230      0.000      0.000
REMARK  6 active torsions:
REMARK  status: ('A' for Active; 'I' for Inactive)
REMARK    1  A    between atoms: O1_2  and  C2_3 
REMARK    2  A    between atoms: C3_6  and  N2_7 
REMARK    3  A    between atoms: C5_14  and  C6_15 
REMARK    4  A    between atoms: C6_15  and  O3_17 
REMARK    5  A    between atoms: O3_17  and  C7_18 
REMARK    6  A    between atoms: C7_18  and  N5_19 
ROOT
HETATM    1  C2  UNL     1     -40.680 -23.559  10.635  1.00  0.00     0.176 A 
HETATM    2  N1  UNL     1     -40.883 -23.647  11.983  1.00  0.00    -0.170 N 
ATOM      3  H1  UNL     1     -40.701 -24.525  12.470  1.00  0.00     0.186 HD
HETATM    4  C3  UNL     1     -41.324 -22.577  12.669  1.00  0.00     0.679 A 
HETATM    5  N3  UNL     1     -41.565 -21.420  12.026  1.00  0.00    -0.178 N 
ATOM      6  H3  UNL     1     -41.899 -20.619  12.562  1.00  0.00     0.185 HD
HETATM    7  C4  UNL     1     -41.380 -21.284  10.700  1.00  0.00     0.152 A 
HETATM    8  N4  UNL     1     -41.633 -20.067  10.027  1.00  0.00    -0.081 NA
HETATM    9  C5  UNL     1     -40.932 -22.370   9.997  1.00  0.00     0.132 A 
ENDROOT
BRANCH   9  10
HETATM   10  C6  UNL     1     -40.723 -22.257   8.573  1.00  0.00     0.302 C 
HETATM   11  O2  UNL     1     -41.599 -22.539   7.713  1.00  0.00    -0.259 OA
BRANCH  10  12
HETATM   12  O3  UNL     1     -39.495 -21.812   8.043  1.00  0.00    -0.290 OA
BRANCH  12  13
HETATM   13  C7  UNL     1     -39.417 -20.632   7.268  1.00  0.00     0.407 C 
BRANCH  13  14
HETATM   14  N5  UNL     1     -39.120 -19.547   8.204  1.00  0.00    -0.058 N 
ATOM     15  H53 UNL     1     -39.931 -18.969   8.427  1.00  0.00     0.276 HD
ATOM     16  H52 UNL     1     -38.933 -19.871   9.154  1.00  0.00     0.276 HD
ATOM     17  H51 UNL     1     -38.347 -19.022   7.794  1.00  0.00     0.276 HD
ENDBRANCH  13  14
ENDBRANCH  12  13
ENDBRANCH  10  12
ENDBRANCH   9  10
BRANCH   1  18
HETATM   18  O1  UNL     1     -40.228 -24.628   9.879  1.00  0.00    -0.340 OA
HETATM   19  C1  UNL     1     -39.873 -25.830  10.540  1.00  0.00     0.211 C 
ENDBRANCH   1  18
BRANCH   4  20
HETATM   20  N2  UNL     1     -41.526 -22.637  13.962  1.00  0.00    -0.234 N 
ATOM     21  H22 UNL     1     -41.698 -23.546  14.393  1.00  0.00     0.174 HD
ATOM     22  H21 UNL     1     -41.514 -21.795  14.538  1.00  0.00     0.174 HD
ENDBRANCH   4  20
TORSDOF 6
ENDMDL
MODEL 2
REMARK VINA RESULT: -5.218194731      2.420      3.329
REMARK  6 active torsions:
REMARK  status: ('A' for Active; 'I' for Inactive)
REMARK    1  A    between atoms: O1_2  and  C2_3 
REMARK    2  A    between atoms: C3_6  and  N2_7 
REMARK    3  A    between atoms: C5_14  and  C6_15 
REMARK    4  A    between atoms: C6_15  and  O3_17 
REMARK    5  A    between atoms: O3_17  and  C7_18 
REMARK    6  A    between atoms: C7_18  and  N5_19 
ROOT
HETATM    1  C2  UNL     1     -41.159 -21.878   7.641  1.00  0.00     0.176 A 
HETATM    2  N1  UNL     1     -42.069 -22.180   8.615  1.00  0.00    -0.170 N 
ATOM      3  H1  UNL     1     -43.037 -22.379   8.364  1.00  0.00     0.186 HD
HETATM    4  C3  UNL     1     -41.688 -22.214   9.904  1.00  0.00     0.679 A 
HETATM    5  N3  UNL     1     -40.411 -21.950  10.234  1.00  0.00    -0.178 N 
ATOM      6  H3  UNL     1     -40.140 -21.981  11.217  1.00  0.00     0.185 HD
HETATM    7  C4  UNL     1     -39.479 -21.648   9.312  1.00  0.00     0.152 A 
HETATM    8  N4  UNL     1     -38.137 -21.371   9.662  1.00  0.00    -0.081 NA
HETATM    9  C5  UNL     1     -39.861 -21.611   7.998  1.00  0.00     0.132 A 
ENDROOT
BRANCH   9  10
HETATM   10  C6  UNL     1     -38.886 -21.290   6.983  1.00  0.00     0.302 C 
HETATM   11  O2  UNL     1     -38.034 -22.108   6.547  1.00  0.00    -0.259 OA
BRANCH  10  12
HETATM   12  O3  UNL     1     -38.826 -20.006   6.403  1.00  0.00    -0.290 OA
BRANCH  12  13
HETATM   13  C7  UNL     1     -39.134 -18.849   7.154  1.00  0.00     0.407 C 
BRANCH  13  14
HETATM   14  N5  UNL     1     -38.076 -18.720   8.159  1.00  0.00    -0.058 N 
ATOM     15  H53 UNL     1     -37.873 -19.592   8.648  1.00  0.00     0.276 HD
ATOM     16  H52 UNL     1     -37.149 -18.585   7.756  1.00  0.00     0.276 HD
ATOM     17  H51 UNL     1     -38.364 -17.963   8.779  1.00  0.00     0.276 HD
ENDBRANCH  13  14
ENDBRANCH  12  13
ENDBRANCH  10  12
ENDBRANCH   9  10
BRANCH   1  18
HETATM   18  O1  UNL     1     -41.496 -21.828   6.298  1.00  0.00    -0.340 OA
HETATM   19  C1  UNL     1     -41.773 -23.040   5.618  1.00  0.00     0.211 C 
ENDBRANCH   1  18
BRANCH   4  20
HETATM   20  N2  UNL     1     -42.541 -22.502  10.857  1.00  0.00    -0.234 N 
ATOM     21  H22 UNL     1     -43.355 -21.900  10.988  1.00  0.00     0.174 HD
ATOM     22  H21 UNL     1     -42.405 -23.312  11.462  1.00  0.00     0.174 HD
ENDBRANCH   4  20
TORSDOF 6
ENDMDL
MODEL 3
REMARK VINA RESULT: -5.120339211      1.280      1.596
REMARK  6 active torsions:
REMARK  status: ('A' for Active; 'I' for Inactive)
REMARK    1  A    between atoms: O1_2  and  C2_3 
REMARK    2  A    between atoms: C3_6  and  N2_7 
REMARK    3  A    between atoms: C5_14  and  C6_15 
REMARK    4  A    between atoms: C6_15  and  O3_17 
REMARK    5  A    between atoms: O3_17  and  C7_18 
REMARK    6  A    between atoms: C7_18  and  N5_19 
ROOT
HETATM    1  C2  UNL     1     -40.646 -23.577  10.586  1.00  0.00     0.176 A 
HETATM    2  N1  UNL     1     -40.874 -23.636  11.932  1.00  0.00    -0.170 N 
ATOM      3  H1  UNL     1     -40.709 -24.504  12.440  1.00  0.00     0.186 HD
HETATM    4  C3  UNL     1     -41.317 -22.548  12.586  1.00  0.00     0.679 A 
HETATM    5  N3  UNL     1     -41.537 -21.402  11.915  1.00  0.00    -0.178 N 
ATOM      6  H3  UNL     1     -41.873 -20.587  12.428  1.00  0.00     0.185 HD
HETATM    7  C4  UNL     1     -41.327 -21.296  10.591  1.00  0.00     0.152 A 
HETATM    8  N4  UNL     1     -41.558 -20.091   9.887  1.00  0.00    -0.081 NA
HETATM    9  C5  UNL     1     -40.876 -22.400   9.918  1.00  0.00     0.132 A 
ENDROOT
BRANCH   9  10
HETATM   10  C6  UNL     1     -40.641 -22.320   8.496  1.00  0.00     0.302 C 
HETATM   11  O2  UNL     1     -39.598 -21.834   7.985  1.00  0.00    -0.259 OA
BRANCH  10  12
HETATM   12  O3  UNL     1     -41.590 -22.794   7.567  1.00  0.00    -0.290 OA
BRANCH  12  13
HETATM   13  C7  UNL     1     -41.254 -22.975   6.206  1.00  0.00     0.407 C 
BRANCH  13  14
HETATM   14  N5  UNL     1     -41.590 -21.720   5.532  1.00  0.00    -0.058 N 
ATOM     15  H53 UNL     1     -40.850 -21.377   4.919  1.00  0.00     0.276 HD
ATOM     16  H52 UNL     1     -42.307 -21.825   4.814  1.00  0.00     0.276 HD
ATOM     17  H51 UNL     1     -41.845 -21.062   6.268  1.00  0.00     0.276 HD
ENDBRANCH  13  14
ENDBRANCH  12  13
ENDBRANCH  10  12
ENDBRANCH   9  10
BRANCH   1  18
HETATM   18  O1  UNL     1     -40.190 -24.666   9.861  1.00  0.00    -0.340 OA
HETATM   19  C1  UNL     1     -39.856 -25.856  10.553  1.00  0.00     0.211 C 
ENDBRANCH   1  18
BRANCH   4  20
HETATM   20  N2  UNL     1     -41.543 -22.578  13.877  1.00  0.00    -0.234 N 
ATOM     21  H22 UNL     1     -41.571 -23.481  14.352  1.00  0.00     0.174 HD
ATOM     22  H21 UNL     1     -41.690 -21.719  14.408  1.00  0.00     0.174 HD
ENDBRANCH   4  20
TORSDOF 6
ENDMDL
MODEL 4
REMARK VINA RESULT: -5.089661728      2.617      5.380
REMARK  6 active torsions:
REMARK  status: ('A' for Active; 'I' for Inactive)
REMARK    1  A    between atoms: O1_2  and  C2_3 
REMARK    2  A    between atoms: C3_6  and  N2_7 
REMARK    3  A    between atoms: C5_14  and  C6_15 
REMARK    4  A    between atoms: C6_15  and  O3_17 
REMARK    5  A    between atoms: O3_17  and  C7_18 
REMARK    6  A    between atoms: C7_18  and  N5_19 
ROOT
HETATM    1  C2  UNL     1     -40.337 -20.543   7.440  1.00  0.00     0.176 A 
HETATM    2  N1  UNL     1     -40.804 -20.632   6.159  1.00  0.00    -0.170 N 
ATOM      3  H1  UNL     1     -40.677 -19.852   5.514  1.00  0.00     0.186 HD
HETATM    4  C3  UNL     1     -41.431 -21.749   5.748  1.00  0.00     0.679 A 
HETATM    5  N3  UNL     1     -41.599 -22.777   6.600  1.00  0.00    -0.178 N 
ATOM      6  H3  UNL     1     -42.077 -23.616   6.272  1.00  0.00     0.185 HD
HETATM    7  C4  UNL     1     -41.157 -22.736   7.870  1.00  0.00     0.152 A 
HETATM    8  N4  UNL     1     -41.334 -23.818   8.764  1.00  0.00    -0.081 NA
HETATM    9  C5  UNL     1     -40.517 -21.602   8.294  1.00  0.00     0.132 A 
ENDROOT
BRANCH   9  10
HETATM   10  C6  UNL     1     -40.031 -21.525   9.651  1.00  0.00     0.302 C 
HETATM   11  O2  UNL     1     -38.826 -21.694   9.974  1.00  0.00    -0.259 OA
BRANCH  10  12
HETATM   12  O3  UNL     1     -40.899 -21.249  10.728  1.00  0.00    -0.290 OA
BRANCH  12  13
HETATM   13  C7  UNL     1     -41.114 -22.196  11.755  1.00  0.00     0.407 C 
BRANCH  13  14
HETATM   14  N5  UNL     1     -42.449 -22.751  11.526  1.00  0.00    -0.058 N 
ATOM     15  H53 UNL     1     -43.186 -22.045  11.515  1.00  0.00     0.276 HD
ATOM     16  H52 UNL     1     -42.589 -23.091  10.574  1.00  0.00     0.276 HD
ATOM     17  H51 UNL     1     -42.585 -23.469  12.238  1.00  0.00     0.276 HD
ENDBRANCH  13  14
ENDBRANCH  12  13
ENDBRANCH  10  12
ENDBRANCH   9  10
BRANCH   1  18
HETATM   18  O1  UNL     1     -39.684 -19.417   7.917  1.00  0.00    -0.340 OA
HETATM   19  C1  UNL     1     -38.442 -19.053   7.341  1.00  0.00     0.211 C 
ENDBRANCH   1  18
BRANCH   4  20
HETATM   20  N2  UNL     1     -41.887 -21.860   4.525  1.00  0.00    -0.234 N 
ATOM     21  H22 UNL     1     -41.893 -21.034   3.925  1.00  0.00     0.174 HD
ATOM     22  H21 UNL     1     -42.233 -22.751   4.169  1.00  0.00     0.174 HD
ENDBRANCH   4  20
TORSDOF 6
ENDMDL
MODEL 5
REMARK VINA RESULT: -5.036355034      2.512      3.904
REMARK  6 active torsions:
REMARK  status: ('A' for Active; 'I' for Inactive)
REMARK    1  A    between atoms: O1_2  and  C2_3 
REMARK    2  A    between atoms: C3_6  and  N2_7 
REMARK    3  A    between atoms: C5_14  and  C6_15 
REMARK    4  A    between atoms: C6_15  and  O3_17 
REMARK    5  A    between atoms: O3_17  and  C7_18 
REMARK    6  A    between atoms: C7_18  and  N5_19 
ROOT
HETATM    1  C2  UNL     1     -40.514 -20.336   8.658  1.00  0.00     0.176 A 
HETATM    2  N1  UNL     1     -40.921 -20.218   9.957  1.00  0.00    -0.170 N 
ATOM      3  H1  UNL     1     -40.788 -19.338  10.455  1.00  0.00     0.186 HD
HETATM    4  C3  UNL     1     -41.496 -21.262  10.579  1.00  0.00     0.679 A 
HETATM    5  N3  UNL     1     -41.669 -22.423   9.922  1.00  0.00    -0.178 N 
ATOM      6  H3  UNL     1     -42.107 -23.205  10.409  1.00  0.00     0.185 HD
HETATM    7  C4  UNL     1     -41.285 -22.587   8.643  1.00  0.00     0.152 A 
HETATM    8  N4  UNL     1     -41.469 -23.809   7.954  1.00  0.00    -0.081 NA
HETATM    9  C5  UNL     1     -40.700 -21.528   8.004  1.00  0.00     0.132 A 
ENDROOT
BRANCH   9  10
HETATM   10  C6  UNL     1     -40.276 -21.672   6.632  1.00  0.00     0.302 C 
HETATM   11  O2  UNL     1     -39.191 -22.209   6.287  1.00  0.00    -0.259 OA
BRANCH  10  12
HETATM   12  O3  UNL     1     -41.072 -21.207   5.565  1.00  0.00    -0.290 OA
BRANCH  12  13
HETATM   13  C7  UNL     1     -42.078 -22.021   4.995  1.00  0.00     0.407 C 
BRANCH  13  14
HETATM   14  N5  UNL     1     -41.512 -23.368   4.907  1.00  0.00    -0.058 N 
ATOM     15  H53 UNL     1     -41.922 -23.934   4.164  1.00  0.00     0.276 HD
ATOM     16  H52 UNL     1     -40.552 -23.383   4.560  1.00  0.00     0.276 HD
ATOM     17  H51 UNL     1     -41.614 -23.780   5.835  1.00  0.00     0.276 HD
ENDBRANCH  13  14
ENDBRANCH  12  13
ENDBRANCH  10  12
ENDBRANCH   9  10
BRANCH   1  18
HETATM   18  O1  UNL     1     -39.916 -19.293   7.968  1.00  0.00    -0.340 OA
HETATM   19  C1  UNL     1     -38.502 -19.243   7.899  1.00  0.00     0.211 C 
ENDBRANCH   1  18
BRANCH   4  20
HETATM   20  N2  UNL     1     -41.895 -21.174  11.825  1.00  0.00    -0.234 N 
ATOM     21  H22 UNL     1     -42.720 -21.700  12.116  1.00  0.00     0.174 HD
ATOM     22  H21 UNL     1     -41.397 -20.594  12.499  1.00  0.00     0.174 HD
ENDBRANCH   4  20
TORSDOF 6
ENDMDL
