MODEL 1
REMARK VINA RESULT: -7.898179594      0.000      0.000
REMARK  6 active torsions:
REMARK  status: ('A' for Active; 'I' for Inactive)
REMARK    1  A    between atoms: C2_7  and  O1_8 
REMARK    2  A    between atoms: O1_8  and  C3_9 
REMARK    3  A    between atoms: C3_9  and  C4_10 
REMARK    4  A    between atoms: C4_10  and  O3_12 
REMARK    5  A    between atoms: O3_12  and  C5_13 
REMARK    6  A    between atoms: C6_17  and  N4_18 
ROOT
HETATM    1  N1  UNL     1     -41.419 -22.207   5.391  1.00  0.00    -0.234 N 
ATOM      2  H11 UNL     1     -41.118 -21.918   4.459  1.00  0.00     0.174 HD
ATOM      3  H12 UNL     1     -42.128 -22.933   5.489  1.00  0.00     0.174 HD
HETATM    4  C1  UNL     1     -40.917 -21.671   6.435  1.00  0.00     0.693 A 
HETATM    5  N2  UNL     1     -41.319 -22.059   7.686  1.00  0.00    -0.154 N 
ATOM      6  H2  UNL     1     -42.029 -22.784   7.796  1.00  0.00     0.188 HD
HETATM    7  C2  UNL     1     -40.774 -21.478   8.767  1.00  0.00     0.252 A 
HETATM    8  N3  UNL     1     -39.833 -20.516   8.580  1.00  0.00    -0.154 N 
ATOM      9  H3  UNL     1     -39.419 -20.075   9.402  1.00  0.00     0.188 HD
HETATM   10  C6  UNL     1     -39.426 -20.122   7.382  1.00  0.00     0.693 A 
HETATM   11  N5  UNL     1     -39.986 -20.719   6.306  1.00  0.00    -0.023 N 
ATOM     12  H5  UNL     1     -39.692 -20.435   5.371  1.00  0.00     0.203 HD
ENDROOT
BRANCH   7  13
HETATM   13  O1  UNL     1     -41.157 -21.845  10.048  1.00  0.00    -0.311 OA
BRANCH  13  14
HETATM   14  C3  UNL     1     -41.502 -23.192  10.304  1.00  0.00     0.290 C 
BRANCH  14  15
HETATM   15  C4  UNL     1     -40.438 -23.888  11.047  1.00  0.00     0.290 C 
HETATM   16  O2  UNL     1     -39.791 -24.864  10.587  1.00  0.00    -0.262 OA
BRANCH  15  17
HETATM   17  O3  UNL     1     -40.114 -23.464  12.324  1.00  0.00    -0.251 OA
BRANCH  17  18
HETATM   18  C5  UNL     1     -41.021 -22.918  13.209  1.00  0.00     0.406 C 
HETATM   19  O4  UNL     1     -41.183 -23.462  14.330  1.00  0.00    -0.276 OA
ENDBRANCH  17  18
ENDBRANCH  15  17
ENDBRANCH  14  15
ENDBRANCH  13  14
ENDBRANCH   7  13
BRANCH  10  20
HETATM   20  N4  UNL     1     -38.532 -19.209   7.207  1.00  0.00    -0.234 N 
ATOM     21  H42 UNL     1     -38.260 -18.616   7.991  1.00  0.00     0.174 HD
ATOM     22  H41 UNL     1     -38.073 -19.043   6.312  1.00  0.00     0.174 HD
ENDBRANCH  10  20
TORSDOF 6
ENDMDL
MODEL 2
REMARK VINA RESULT: -7.883829031      0.173      2.057
REMARK  6 active torsions:
REMARK  status: ('A' for Active; 'I' for Inactive)
REMARK    1  A    between atoms: C2_7  and  O1_8 
REMARK    2  A    between atoms: O1_8  and  C3_9 
REMARK    3  A    between atoms: C3_9  and  C4_10 
REMARK    4  A    between atoms: C4_10  and  O3_12 
REMARK    5  A    between atoms: O3_12  and  C5_13 
REMARK    6  A    between atoms: C6_17  and  N4_18 
ROOT
HETATM    1  N1  UNL     1     -38.445 -19.226   7.415  1.00  0.00    -0.234 N 
ATOM      2  H11 UNL     1     -38.115 -18.968   6.485  1.00  0.00     0.174 HD
ATOM      3  H12 UNL     1     -38.036 -18.782   8.236  1.00  0.00     0.174 HD
HETATM    4  C1  UNL     1     -39.366 -20.099   7.564  1.00  0.00     0.693 A 
HETATM    5  N2  UNL     1     -39.810 -20.445   8.813  1.00  0.00    -0.154 N 
ATOM      6  H2  UNL     1     -39.407 -20.007   9.641  1.00  0.00     0.188 HD
HETATM    7  C2  UNL     1     -40.780 -21.365   8.940  1.00  0.00     0.252 A 
HETATM    8  N3  UNL     1     -41.291 -21.927   7.813  1.00  0.00    -0.154 N 
ATOM      9  H3  UNL     1     -42.028 -22.626   7.910  1.00  0.00     0.188 HD
HETATM   10  C6  UNL     1     -40.880 -21.610   6.593  1.00  0.00     0.693 A 
HETATM   11  N5  UNL     1     -39.904 -20.681   6.486  1.00  0.00    -0.023 N 
ATOM     12  H5  UNL     1     -39.567 -20.418   5.560  1.00  0.00     0.203 HD
ENDROOT
BRANCH   7  13
HETATM   13  O1  UNL     1     -41.254 -21.740  10.187  1.00  0.00    -0.311 OA
BRANCH  13  14
HETATM   14  C3  UNL     1     -41.589 -23.095  10.417  1.00  0.00     0.290 C 
BRANCH  14  15
HETATM   15  C4  UNL     1     -40.494 -23.812  11.092  1.00  0.00     0.290 C 
HETATM   16  O2  UNL     1     -39.866 -24.770  10.574  1.00  0.00    -0.262 OA
BRANCH  15  17
HETATM   17  O3  UNL     1     -40.119 -23.430  12.369  1.00  0.00    -0.251 OA
BRANCH  17  18
HETATM   18  C5  UNL     1     -40.993 -22.933  13.314  1.00  0.00     0.406 C 
HETATM   19  O4  UNL     1     -41.104 -23.527  14.415  1.00  0.00    -0.276 OA
ENDBRANCH  17  18
ENDBRANCH  15  17
ENDBRANCH  14  15
ENDBRANCH  13  14
ENDBRANCH   7  13
BRANCH  10  20
HETATM   20  N4  UNL     1     -41.367 -22.144   5.525  1.00  0.00    -0.234 N 
ATOM     21  H42 UNL     1     -42.359 -22.031   5.314  1.00  0.00     0.174 HD
ATOM     22  H41 UNL     1     -40.805 -22.682   4.866  1.00  0.00     0.174 HD
ENDBRANCH  10  20
TORSDOF 6
ENDMDL
MODEL 3
REMARK VINA RESULT: -7.405391798      0.864      2.801
REMARK  6 active torsions:
REMARK  status: ('A' for Active; 'I' for Inactive)
REMARK    1  A    between atoms: C2_7  and  O1_8 
REMARK    2  A    between atoms: O1_8  and  C3_9 
REMARK    3  A    between atoms: C3_9  and  C4_10 
REMARK    4  A    between atoms: C4_10  and  O3_12 
REMARK    5  A    between atoms: O3_12  and  C5_13 
REMARK    6  A    between atoms: C6_17  and  N4_18 
ROOT
HETATM    1  N1  UNL     1     -38.639 -19.544   7.562  1.00  0.00    -0.234 N 
ATOM      2  H11 UNL     1     -38.300 -19.524   6.600  1.00  0.00     0.174 HD
ATOM      3  H12 UNL     1     -38.203 -18.944   8.263  1.00  0.00     0.174 HD
HETATM    4  C1  UNL     1     -39.603 -20.310   7.900  1.00  0.00     0.693 A 
HETATM    5  N2  UNL     1     -40.059 -20.337   9.192  1.00  0.00    -0.154 N 
ATOM      6  H2  UNL     1     -39.630 -19.741   9.901  1.00  0.00     0.188 HD
HETATM    7  C2  UNL     1     -41.075 -21.152   9.519  1.00  0.00     0.252 A 
HETATM    8  N3  UNL     1     -41.620 -21.930   8.547  1.00  0.00    -0.154 N 
ATOM      9  H3  UNL     1     -42.392 -22.549   8.797  1.00  0.00     0.188 HD
HETATM   10  C6  UNL     1     -41.198 -21.923   7.290  1.00  0.00     0.693 A 
HETATM   11  N5  UNL     1     -40.175 -21.096   6.981  1.00  0.00    -0.023 N 
ATOM     12  H5  UNL     1     -39.829 -21.070   6.022  1.00  0.00     0.203 HD
ENDROOT
BRANCH   7  13
HETATM   13  O1  UNL     1     -41.563 -21.205  10.816  1.00  0.00    -0.311 OA
BRANCH  13  14
HETATM   14  C3  UNL     1     -42.123 -22.414  11.290  1.00  0.00     0.290 C 
BRANCH  14  15
HETATM   15  C4  UNL     1     -41.343 -22.964  12.412  1.00  0.00     0.290 C 
HETATM   16  O2  UNL     1     -41.709 -22.897  13.613  1.00  0.00    -0.262 OA
BRANCH  15  17
HETATM   17  O3  UNL     1     -40.137 -23.593  12.155  1.00  0.00    -0.251 OA
BRANCH  17  18
HETATM   18  C5  UNL     1     -39.783 -24.111  10.926  1.00  0.00     0.406 C 
HETATM   19  O4  UNL     1     -39.791 -25.357  10.764  1.00  0.00    -0.276 OA
ENDBRANCH  17  18
ENDBRANCH  15  17
ENDBRANCH  14  15
ENDBRANCH  13  14
ENDBRANCH   7  13
BRANCH  10  20
HETATM   20  N4  UNL     1     -41.717 -22.662   6.370  1.00  0.00    -0.234 N 
ATOM     21  H42 UNL     1     -41.237 -22.759   5.474  1.00  0.00     0.174 HD
ATOM     22  H41 UNL     1     -42.595 -23.166   6.489  1.00  0.00     0.174 HD
ENDBRANCH  10  20
TORSDOF 6
ENDMDL
MODEL 4
REMARK VINA RESULT: -7.398370069      0.850      1.909
REMARK  6 active torsions:
REMARK  status: ('A' for Active; 'I' for Inactive)
REMARK    1  A    between atoms: C2_7  and  O1_8 
REMARK    2  A    between atoms: O1_8  and  C3_9 
REMARK    3  A    between atoms: C3_9  and  C4_10 
REMARK    4  A    between atoms: C4_10  and  O3_12 
REMARK    5  A    between atoms: O3_12  and  C5_13 
REMARK    6  A    between atoms: C6_17  and  N4_18 
ROOT
HETATM    1  N1  UNL     1     -41.643 -22.618   6.339  1.00  0.00    -0.234 N 
ATOM      2  H11 UNL     1     -41.278 -22.578   5.387  1.00  0.00     0.174 HD
ATOM      3  H12 UNL     1     -42.417 -23.245   6.555  1.00  0.00     0.174 HD
HETATM    4  C1  UNL     1     -41.142 -21.892   7.262  1.00  0.00     0.693 A 
HETATM    5  N2  UNL     1     -41.632 -21.946   8.541  1.00  0.00    -0.154 N 
ATOM      6  H2  UNL     1     -42.406 -22.569   8.768  1.00  0.00     0.188 HD
HETATM    7  C2  UNL     1     -41.085 -21.172   9.492  1.00  0.00     0.252 A 
HETATM    8  N3  UNL     1     -40.055 -20.354   9.150  1.00  0.00    -0.154 N 
ATOM      9  H3  UNL     1     -39.641 -19.767   9.874  1.00  0.00     0.188 HD
HETATM   10  C6  UNL     1     -39.563 -20.283   7.921  1.00  0.00     0.693 A 
HETATM   11  N5  UNL     1     -40.126 -21.070   6.978  1.00  0.00    -0.023 N 
ATOM     12  H5  UNL     1     -39.768 -21.035   6.023  1.00  0.00     0.203 HD
ENDROOT
BRANCH   7  13
HETATM   13  O1  UNL     1     -41.555 -21.200  10.797  1.00  0.00    -0.311 OA
BRANCH  13  14
HETATM   14  C3  UNL     1     -42.127 -22.392  11.297  1.00  0.00     0.290 C 
BRANCH  14  15
HETATM   15  C4  UNL     1     -41.334 -22.943  12.409  1.00  0.00     0.290 C 
HETATM   16  O2  UNL     1     -41.695 -22.893  13.613  1.00  0.00    -0.262 OA
BRANCH  15  17
HETATM   17  O3  UNL     1     -40.121 -23.553  12.141  1.00  0.00    -0.251 OA
BRANCH  17  18
HETATM   18  C5  UNL     1     -39.786 -24.099  10.919  1.00  0.00     0.406 C 
HETATM   19  O4  UNL     1     -39.790 -25.349  10.786  1.00  0.00    -0.276 OA
ENDBRANCH  17  18
ENDBRANCH  15  17
ENDBRANCH  14  15
ENDBRANCH  13  14
ENDBRANCH   7  13
BRANCH  10  20
HETATM   20  N4  UNL     1     -38.585 -19.506   7.599  1.00  0.00    -0.234 N 
ATOM     21  H42 UNL     1     -37.849 -19.316   8.279  1.00  0.00     0.174 HD
ATOM     22  H41 UNL     1     -38.505 -19.062   6.684  1.00  0.00     0.174 HD
ENDBRANCH  10  20
TORSDOF 6
ENDMDL
MODEL 5
REMARK VINA RESULT: -7.175331507      1.546      2.891
REMARK  6 active torsions:
REMARK  status: ('A' for Active; 'I' for Inactive)
REMARK    1  A    between atoms: C2_7  and  O1_8 
REMARK    2  A    between atoms: O1_8  and  C3_9 
REMARK    3  A    between atoms: C3_9  and  C4_10 
REMARK    4  A    between atoms: C4_10  and  O3_12 
REMARK    5  A    between atoms: O3_12  and  C5_13 
REMARK    6  A    between atoms: C6_17  and  N4_18 
ROOT
HETATM    1  N1  UNL     1     -37.974 -21.273   6.574  1.00  0.00    -0.234 N 
ATOM      2  H11 UNL     1     -37.658 -21.608   5.663  1.00  0.00     0.174 HD
ATOM      3  H12 UNL     1     -37.312 -20.816   7.200  1.00  0.00     0.174 HD
HETATM    4  C1  UNL     1     -39.189 -21.420   6.939  1.00  0.00     0.693 A 
HETATM    5  N2  UNL     1     -39.614 -20.970   8.162  1.00  0.00    -0.154 N 
ATOM      6  H2  UNL     1     -38.960 -20.511   8.796  1.00  0.00     0.188 HD
HETATM    7  C2  UNL     1     -40.897 -21.137   8.520  1.00  0.00     0.252 A 
HETATM    8  N3  UNL     1     -41.738 -21.753   7.647  1.00  0.00    -0.154 N 
ATOM      9  H3  UNL     1     -42.713 -21.880   7.920  1.00  0.00     0.188 HD
HETATM   10  C6  UNL     1     -41.353 -22.197   6.459  1.00  0.00     0.693 A 
HETATM   11  N5  UNL     1     -40.057 -22.020   6.118  1.00  0.00    -0.023 N 
ATOM     12  H5  UNL     1     -39.733 -22.352   5.209  1.00  0.00     0.203 HD
ENDROOT
BRANCH   7  13
HETATM   13  O1  UNL     1     -41.363 -20.695   9.749  1.00  0.00    -0.311 OA
BRANCH  13  14
HETATM   14  C3  UNL     1     -41.041 -21.431  10.912  1.00  0.00     0.290 C 
BRANCH  14  15
HETATM   15  C4  UNL     1     -41.951 -22.575  11.093  1.00  0.00     0.290 C 
HETATM   16  O2  UNL     1     -43.153 -22.460  11.445  1.00  0.00    -0.262 OA
BRANCH  15  17
HETATM   17  O3  UNL     1     -41.481 -23.858  10.869  1.00  0.00    -0.251 OA
BRANCH  17  18
HETATM   18  C5  UNL     1     -40.154 -24.221  10.967  1.00  0.00     0.406 C 
HETATM   19  O4  UNL     1     -39.796 -25.348  10.541  1.00  0.00    -0.276 OA
ENDBRANCH  17  18
ENDBRANCH  15  17
ENDBRANCH  14  15
ENDBRANCH  13  14
ENDBRANCH   7  13
BRANCH  10  20
HETATM   20  N4  UNL     1     -42.153 -22.782   5.633  1.00  0.00    -0.234 N 
ATOM     21  H42 UNL     1     -43.055 -23.124   5.965  1.00  0.00     0.174 HD
ATOM     22  H41 UNL     1     -41.930 -22.923   4.648  1.00  0.00     0.174 HD
ENDBRANCH  10  20
TORSDOF 6
ENDMDL
