MODEL 1
REMARK VINA RESULT: -7.478272194      0.000      0.000
REMARK  5 active torsions:
REMARK  status: ('A' for Active; 'I' for Inactive)
REMARK    1  A    between atoms: C2_2  and  N1_3 
REMARK    2  A    between atoms: C2_2  and  C7_15 
REMARK    3  A    between atoms: N1_3  and  N2_5 
REMARK    4  A    between atoms: C3_7  and  C4_8 
REMARK       I    between atoms: C7_15  and  N4_17 
REMARK    5  A    between atoms: N4_17  and  N5_19 
ROOT
HETATM    1  N1  UNL     1     -40.066 -20.245   8.076  1.00  0.00    -0.323 N 
ATOM      2  H1  UNL     1     -39.884 -19.259   8.259  1.00  0.00     0.181 HD
ENDROOT
BRANCH   1   3
HETATM    3  C2  UNL     1     -39.749 -20.761   6.769  1.00  0.00     0.188 C 
HETATM    4  C1  UNL     1     -38.392 -21.394   6.707  1.00  0.00     0.044 C 
BRANCH   3   5
HETATM    5  C7  UNL     1     -40.752 -21.762   6.320  1.00  0.00     0.259 C 
HETATM    6  O3  UNL     1     -40.728 -22.915   6.818  1.00  0.00    -0.269 OA
HETATM    7  N4  UNL     1     -41.719 -21.436   5.350  1.00  0.00    -0.275 N 
ATOM      8  H4  UNL     1     -41.738 -20.500   4.945  1.00  0.00     0.189 HD
BRANCH   7   9
HETATM    9  N5  UNL     1     -42.648 -22.384   4.944  1.00  0.00    -0.343 N 
ATOM     10  H52 UNL     1     -42.883 -23.148   5.578  1.00  0.00     0.176 HD
ATOM     11  H51 UNL     1     -43.085 -22.313   4.025  1.00  0.00     0.176 HD
ENDBRANCH   7   9
ENDBRANCH   3   5
ENDBRANCH   1   3
BRANCH   1  12
HETATM   12  N2  UNL     1     -40.607 -21.012   9.106  1.00  0.00    -0.314 N 
HETATM   13  C3  UNL     1     -39.897 -21.788   9.841  1.00  0.00     0.126 C 
ATOM     14  H2  UNL     1     -41.610 -20.954   9.283  1.00  0.00     0.185 HD
BRANCH  13  15
HETATM   15  C4  UNL     1     -40.520 -22.567  10.904  1.00  0.00     0.075 A 
HETATM   16  C5  UNL     1     -40.283 -23.889  11.215  1.00  0.00     0.186 A 
HETATM   17  O1  UNL     1     -41.053 -24.215  12.248  1.00  0.00    -0.246 OA
HETATM   18  N3  UNL     1     -41.764 -23.204  12.621  1.00  0.00    -0.225 N 
HETATM   19  C6  UNL     1     -41.469 -22.145  11.811  1.00  0.00     0.278 A 
ATOM     20  H3  UNL     1     -42.433 -23.198  13.391  1.00  0.00     0.198 HD
HETATM   21  O2  UNL     1     -41.968 -20.999  11.880  1.00  0.00    -0.265 OA
ENDBRANCH  13  15
ENDBRANCH   1  12
TORSDOF 5
ENDMDL
MODEL 2
REMARK VINA RESULT: -7.407356113      0.853      1.354
REMARK  5 active torsions:
REMARK  status: ('A' for Active; 'I' for Inactive)
REMARK    1  A    between atoms: C2_2  and  N1_3 
REMARK    2  A    between atoms: C2_2  and  C7_15 
REMARK    3  A    between atoms: N1_3  and  N2_5 
REMARK    4  A    between atoms: C3_7  and  C4_8 
REMARK       I    between atoms: C7_15  and  N4_17 
REMARK    5  A    between atoms: N4_17  and  N5_19 
ROOT
HETATM    1  N1  UNL     1     -40.071 -20.273   7.967  1.00  0.00    -0.323 N 
ATOM      2  H1  UNL     1     -39.732 -19.330   8.156  1.00  0.00     0.181 HD
ENDROOT
BRANCH   1   3
HETATM    3  C2  UNL     1     -39.762 -20.860   6.689  1.00  0.00     0.188 C 
HETATM    4  C1  UNL     1     -38.414 -21.513   6.658  1.00  0.00     0.044 C 
BRANCH   3   5
HETATM    5  C7  UNL     1     -40.779 -21.870   6.294  1.00  0.00     0.259 C 
HETATM    6  O3  UNL     1     -40.754 -23.004   6.833  1.00  0.00    -0.269 OA
HETATM    7  N4  UNL     1     -41.761 -21.573   5.329  1.00  0.00    -0.275 N 
ATOM      8  H4  UNL     1     -41.780 -20.653   4.890  1.00  0.00     0.189 HD
BRANCH   7   9
HETATM    9  N5  UNL     1     -42.702 -22.529   4.973  1.00  0.00    -0.343 N 
ATOM     10  H52 UNL     1     -43.432 -22.278   4.306  1.00  0.00     0.176 HD
ATOM     11  H51 UNL     1     -42.660 -23.466   5.375  1.00  0.00     0.176 HD
ENDBRANCH   7   9
ENDBRANCH   3   5
ENDBRANCH   1   3
BRANCH   1  12
HETATM   12  N2  UNL     1     -40.805 -20.915   8.963  1.00  0.00    -0.314 N 
HETATM   13  C3  UNL     1     -40.265 -21.686   9.836  1.00  0.00     0.126 C 
ATOM     14  H2  UNL     1     -41.813 -20.766   9.000  1.00  0.00     0.185 HD
BRANCH  13  15
HETATM   15  C4  UNL     1     -41.085 -22.331  10.854  1.00  0.00     0.075 A 
HETATM   16  C5  UNL     1     -42.448 -22.211  11.023  1.00  0.00     0.186 A 
HETATM   17  O1  UNL     1     -42.802 -22.959  12.063  1.00  0.00    -0.246 OA
HETATM   18  N3  UNL     1     -41.772 -23.547  12.572  1.00  0.00    -0.225 N 
HETATM   19  C6  UNL     1     -40.669 -23.187  11.852  1.00  0.00     0.278 A 
ATOM     20  H3  UNL     1     -41.781 -24.174  13.376  1.00  0.00     0.198 HD
HETATM   21  O2  UNL     1     -39.494 -23.565  12.059  1.00  0.00    -0.265 OA
ENDBRANCH  13  15
ENDBRANCH   1  12
TORSDOF 5
ENDMDL
MODEL 3
REMARK VINA RESULT: -7.288399907      1.383      1.874
REMARK  5 active torsions:
REMARK  status: ('A' for Active; 'I' for Inactive)
REMARK    1  A    between atoms: C2_2  and  N1_3 
REMARK    2  A    between atoms: C2_2  and  C7_15 
REMARK    3  A    between atoms: N1_3  and  N2_5 
REMARK    4  A    between atoms: C3_7  and  C4_8 
REMARK       I    between atoms: C7_15  and  N4_17 
REMARK    5  A    between atoms: N4_17  and  N5_19 
ROOT
HETATM    1  N1  UNL     1     -41.577 -21.225   7.476  1.00  0.00    -0.323 N 
ATOM      2  H1  UNL     1     -42.002 -20.298   7.429  1.00  0.00     0.181 HD
ENDROOT
BRANCH   1   3
HETATM    3  C2  UNL     1     -40.875 -21.707   6.315  1.00  0.00     0.188 C 
HETATM    4  C1  UNL     1     -39.397 -21.823   6.536  1.00  0.00     0.044 C 
BRANCH   3   5
HETATM    5  C7  UNL     1     -41.387 -23.033   5.880  1.00  0.00     0.259 C 
HETATM    6  O3  UNL     1     -40.596 -24.008   5.833  1.00  0.00    -0.269 OA
HETATM    7  N4  UNL     1     -42.738 -23.207   5.522  1.00  0.00    -0.275 N 
ATOM      8  H4  UNL     1     -43.380 -22.415   5.558  1.00  0.00     0.189 HD
BRANCH   7   9
HETATM    9  N5  UNL     1     -43.198 -24.453   5.118  1.00  0.00    -0.343 N 
ATOM     10  H52 UNL     1     -43.975 -24.879   5.624  1.00  0.00     0.176 HD
ATOM     11  H51 UNL     1     -42.764 -24.930   4.328  1.00  0.00     0.176 HD
ENDBRANCH   7   9
ENDBRANCH   3   5
ENDBRANCH   1   3
BRANCH   1  12
HETATM   12  N2  UNL     1     -41.713 -21.946   8.661  1.00  0.00    -0.314 N 
HETATM   13  C3  UNL     1     -41.087 -21.638   9.737  1.00  0.00     0.126 C 
ATOM     14  H2  UNL     1     -42.336 -22.754   8.672  1.00  0.00     0.185 HD
BRANCH  13  15
HETATM   15  C4  UNL     1     -41.269 -22.431  10.946  1.00  0.00     0.075 A 
HETATM   16  C5  UNL     1     -42.357 -22.418  11.794  1.00  0.00     0.186 A 
HETATM   17  O1  UNL     1     -42.126 -23.285  12.774  1.00  0.00    -0.246 OA
HETATM   18  N3  UNL     1     -40.977 -23.850  12.620  1.00  0.00    -0.225 N 
HETATM   19  C6  UNL     1     -40.397 -23.350  11.490  1.00  0.00     0.278 A 
ATOM     20  H3  UNL     1     -40.570 -24.552  13.239  1.00  0.00     0.198 HD
HETATM   21  O2  UNL     1     -39.278 -23.669  11.029  1.00  0.00    -0.265 OA
ENDBRANCH  13  15
ENDBRANCH   1  12
TORSDOF 5
ENDMDL
MODEL 4
REMARK VINA RESULT: -7.181164716      1.938      2.579
REMARK  5 active torsions:
REMARK  status: ('A' for Active; 'I' for Inactive)
REMARK    1  A    between atoms: C2_2  and  N1_3 
REMARK    2  A    between atoms: C2_2  and  C7_15 
REMARK    3  A    between atoms: N1_3  and  N2_5 
REMARK    4  A    between atoms: C3_7  and  C4_8 
REMARK       I    between atoms: C7_15  and  N4_17 
REMARK    5  A    between atoms: N4_17  and  N5_19 
ROOT
HETATM    1  N1  UNL     1     -41.713 -21.670   6.980  1.00  0.00    -0.323 N 
ATOM      2  H1  UNL     1     -41.292 -20.749   6.850  1.00  0.00     0.181 HD
ENDROOT
BRANCH   1   3
HETATM    3  C2  UNL     1     -42.030 -22.440   5.806  1.00  0.00     0.188 C 
HETATM    4  C1  UNL     1     -42.174 -21.596   4.577  1.00  0.00     0.044 C 
BRANCH   3   5
HETATM    5  C7  UNL     1     -40.999 -23.479   5.541  1.00  0.00     0.259 C 
HETATM    6  O3  UNL     1     -39.855 -23.344   6.041  1.00  0.00    -0.269 OA
HETATM    7  N4  UNL     1     -41.289 -24.600   4.741  1.00  0.00    -0.275 N 
ATOM      8  H4  UNL     1     -42.218 -24.709   4.333  1.00  0.00     0.189 HD
BRANCH   7   9
HETATM    9  N5  UNL     1     -40.314 -25.560   4.504  1.00  0.00    -0.343 N 
ATOM     10  H52 UNL     1     -39.344 -25.261   4.397  1.00  0.00     0.176 HD
ATOM     11  H51 UNL     1     -40.569 -26.545   4.439  1.00  0.00     0.176 HD
ENDBRANCH   7   9
ENDBRANCH   3   5
ENDBRANCH   1   3
BRANCH   1  12
HETATM   12  N2  UNL     1     -41.944 -22.104   8.284  1.00  0.00    -0.314 N 
HETATM   13  C3  UNL     1     -41.000 -22.285   9.134  1.00  0.00     0.126 C 
ATOM     14  H2  UNL     1     -42.905 -22.285   8.575  1.00  0.00     0.185 HD
BRANCH  13  15
HETATM   15  C4  UNL     1     -41.305 -22.741  10.485  1.00  0.00     0.075 A 
HETATM   16  C5  UNL     1     -42.495 -22.592  11.165  1.00  0.00     0.186 A 
HETATM   17  O1  UNL     1     -42.357 -23.146  12.364  1.00  0.00    -0.246 OA
HETATM   18  N3  UNL     1     -41.172 -23.637  12.505  1.00  0.00    -0.225 N 
HETATM   19  C6  UNL     1     -40.471 -23.410  11.355  1.00  0.00     0.278 A 
ATOM     20  H3  UNL     1     -40.819 -24.115  13.335  1.00  0.00     0.198 HD
HETATM   21  O2  UNL     1     -39.286 -23.748  11.132  1.00  0.00    -0.265 OA
ENDBRANCH  13  15
ENDBRANCH   1  12
TORSDOF 5
ENDMDL
MODEL 5
REMARK VINA RESULT: -7.084942438      1.427      1.857
REMARK  5 active torsions:
REMARK  status: ('A' for Active; 'I' for Inactive)
REMARK    1  A    between atoms: C2_2  and  N1_3 
REMARK    2  A    between atoms: C2_2  and  C7_15 
REMARK    3  A    between atoms: N1_3  and  N2_5 
REMARK    4  A    between atoms: C3_7  and  C4_8 
REMARK       I    between atoms: C7_15  and  N4_17 
REMARK    5  A    between atoms: N4_17  and  N5_19 
ROOT
HETATM    1  N1  UNL     1     -38.850 -20.473   8.823  1.00  0.00    -0.323 N 
ATOM      2  H1  UNL     1     -37.903 -20.118   8.960  1.00  0.00     0.181 HD
ENDROOT
BRANCH   1   3
HETATM    3  C2  UNL     1     -39.509 -20.178   7.577  1.00  0.00     0.188 C 
HETATM    4  C1  UNL     1     -38.839 -19.078   6.810  1.00  0.00     0.044 C 
BRANCH   3   5
HETATM    5  C7  UNL     1     -39.583 -21.379   6.703  1.00  0.00     0.259 C 
HETATM    6  O3  UNL     1     -38.531 -22.018   6.454  1.00  0.00    -0.269 OA
HETATM    7  N4  UNL     1     -40.809 -21.802   6.154  1.00  0.00    -0.275 N 
ATOM      8  H4  UNL     1     -41.663 -21.282   6.355  1.00  0.00     0.189 HD
BRANCH   7   9
HETATM    9  N5  UNL     1     -40.859 -22.925   5.340  1.00  0.00    -0.343 N 
ATOM     10  H52 UNL     1     -40.689 -22.818   4.339  1.00  0.00     0.176 HD
ATOM     11  H51 UNL     1     -41.062 -23.841   5.741  1.00  0.00     0.176 HD
ENDBRANCH   7   9
ENDBRANCH   3   5
ENDBRANCH   1   3
BRANCH   1  12
HETATM   12  N2  UNL     1     -39.425 -21.214   9.854  1.00  0.00    -0.314 N 
HETATM   13  C3  UNL     1     -40.656 -21.576   9.846  1.00  0.00     0.126 C 
ATOM     14  H2  UNL     1     -38.843 -21.479  10.648  1.00  0.00     0.185 HD
BRANCH  13  15
HETATM   15  C4  UNL     1     -41.203 -22.349  10.953  1.00  0.00     0.075 A 
HETATM   16  C5  UNL     1     -42.492 -22.308  11.441  1.00  0.00     0.186 A 
HETATM   17  O1  UNL     1     -42.578 -23.165  12.453  1.00  0.00    -0.246 OA
HETATM   18  N3  UNL     1     -41.445 -23.751  12.650  1.00  0.00    -0.225 N 
HETATM   19  C6  UNL     1     -40.548 -23.276  11.737  1.00  0.00     0.278 A 
ATOM     20  H3  UNL     1     -41.253 -24.451  13.366  1.00  0.00     0.198 HD
HETATM   21  O2  UNL     1     -39.349 -23.619  11.630  1.00  0.00    -0.265 OA
ENDBRANCH  13  15
ENDBRANCH   1  12
TORSDOF 5
ENDMDL
