MODEL 1
REMARK VINA RESULT: -6.727413264      0.000      0.000
REMARK  5 active torsions:
REMARK  status: ('A' for Active; 'I' for Inactive)
REMARK       I    between atoms: C1_2  and  N5_16 
REMARK    1  A    between atoms: N2_3  and  N3_5 
REMARK    2  A    between atoms: N3_5  and  N4_7 
REMARK    3  A    between atoms: N4_7  and  O1_8 
REMARK    4  A    between atoms: N4_7  and  C2_10 
REMARK    5  A    between atoms: N5_16  and  N6_18 
ROOT
HETATM    1  N3  UNL     1     -41.695 -22.861   5.094  1.00  0.00    -0.218 N 
ATOM      2  H3  UNL     1     -42.613 -22.839   4.648  1.00  0.00     0.210 HD
ENDROOT
BRANCH   1   3
HETATM    3  N2  UNL     1     -40.917 -24.024   5.046  1.00  0.00    -0.256 N 
HETATM    4  C1  UNL     1     -41.416 -25.199   5.005  1.00  0.00     0.228 C 
HETATM    5  N1  UNL     1     -42.813 -25.410   5.005  1.00  0.00    -0.060 NA
HETATM    6  N5  UNL     1     -40.555 -26.318   4.958  1.00  0.00    -0.212 N 
ATOM      7  H5  UNL     1     -39.919 -26.408   4.166  1.00  0.00     0.196 HD
ATOM      8  H2  UNL     1     -39.902 -23.928   5.043  1.00  0.00     0.191 HD
BRANCH   6   9
HETATM    9  N6  UNL     1     -40.535 -27.303   5.941  1.00  0.00    -0.036 N 
HETATM   10  O3  UNL     1     -39.832 -27.203   6.959  1.00  0.00    -0.516 OA
HETATM   11  O4  UNL     1     -41.314 -28.413   5.780  1.00  0.00    -0.516 OA
ENDBRANCH   6   9
ENDBRANCH   1   3
BRANCH   1  12
HETATM   12  N4  UNL     1     -41.225 -21.764   5.734  1.00  0.00    -0.182 N 
BRANCH  12  13
HETATM   13  O1  UNL     1     -41.144 -20.638   5.087  1.00  0.00    -0.271 OA
ATOM     14  H1  UNL     1     -41.917 -20.090   5.013  1.00  0.00     0.246 HD
ENDBRANCH  12  13
BRANCH  12  15
HETATM   15  C2  UNL     1     -40.298 -21.983   6.793  1.00  0.00     0.139 C 
HETATM   16  C3  UNL     1     -41.019 -22.035   8.098  1.00  0.00     0.055 C 
HETATM   17  C4  UNL     1     -41.042 -20.745   8.849  1.00  0.00     0.169 C 
HETATM   18  O2  UNL     1     -39.696 -20.338   9.004  1.00  0.00    -0.391 OA
HETATM   19  C5  UNL     1     -39.302 -19.885   7.752  1.00  0.00     0.169 C 
HETATM   20  C6  UNL     1     -39.213 -20.961   6.721  1.00  0.00     0.055 C 
ENDBRANCH  12  15
ENDBRANCH   1  12
TORSDOF 5
ENDMDL
MODEL 2
REMARK VINA RESULT: -6.661865322      1.304      1.984
REMARK  5 active torsions:
REMARK  status: ('A' for Active; 'I' for Inactive)
REMARK       I    between atoms: C1_2  and  N5_16 
REMARK    1  A    between atoms: N2_3  and  N3_5 
REMARK    2  A    between atoms: N3_5  and  N4_7 
REMARK    3  A    between atoms: N4_7  and  O1_8 
REMARK    4  A    between atoms: N4_7  and  C2_10 
REMARK    5  A    between atoms: N5_16  and  N6_18 
ROOT
HETATM    1  N3  UNL     1     -41.558 -22.641   6.334  1.00  0.00    -0.218 N 
ATOM      2  H3  UNL     1     -42.570 -22.772   6.364  1.00  0.00     0.210 HD
ENDROOT
BRANCH   1   3
HETATM    3  N2  UNL     1     -40.731 -23.662   5.852  1.00  0.00    -0.256 N 
HETATM    4  C1  UNL     1     -41.178 -24.721   5.295  1.00  0.00     0.228 C 
HETATM    5  N1  UNL     1     -42.562 -24.938   5.123  1.00  0.00    -0.060 NA
HETATM    6  N5  UNL     1     -40.269 -25.701   4.838  1.00  0.00    -0.212 N 
ATOM      7  H5  UNL     1     -39.593 -25.440   4.121  1.00  0.00     0.196 HD
ATOM      8  H2  UNL     1     -39.721 -23.555   5.951  1.00  0.00     0.191 HD
BRANCH   6   9
HETATM    9  N6  UNL     1     -40.254 -27.008   5.319  1.00  0.00    -0.036 N 
HETATM   10  O3  UNL     1     -40.445 -27.984   4.577  1.00  0.00    -0.516 OA
HETATM   11  O4  UNL     1     -40.022 -27.219   6.648  1.00  0.00    -0.516 OA
ENDBRANCH   6   9
ENDBRANCH   1   3
BRANCH   1  12
HETATM   12  N4  UNL     1     -41.010 -21.479   6.761  1.00  0.00    -0.182 N 
BRANCH  12  13
HETATM   13  O1  UNL     1     -39.996 -20.981   6.116  1.00  0.00    -0.271 OA
ATOM     14  H1  UNL     1     -39.869 -20.039   6.107  1.00  0.00     0.246 HD
ENDBRANCH  12  13
BRANCH  12  15
HETATM   15  C2  UNL     1     -41.112 -21.189   8.152  1.00  0.00     0.139 C 
HETATM   16  C3  UNL     1     -39.846 -20.562   8.634  1.00  0.00     0.055 C 
HETATM   17  C4  UNL     1     -38.877 -21.512   9.256  1.00  0.00     0.169 C 
HETATM   18  O2  UNL     1     -39.568 -22.179  10.296  1.00  0.00    -0.391 OA
HETATM   19  C5  UNL     1     -40.416 -23.075   9.659  1.00  0.00     0.169 C 
HETATM   20  C6  UNL     1     -41.515 -22.424   8.887  1.00  0.00     0.055 C 
ENDBRANCH  12  15
ENDBRANCH   1  12
TORSDOF 5
ENDMDL
MODEL 3
REMARK VINA RESULT: -6.434854762      3.973      5.371
REMARK  5 active torsions:
REMARK  status: ('A' for Active; 'I' for Inactive)
REMARK       I    between atoms: C1_2  and  N5_16 
REMARK    1  A    between atoms: N2_3  and  N3_5 
REMARK    2  A    between atoms: N3_5  and  N4_7 
REMARK    3  A    between atoms: N4_7  and  O1_8 
REMARK    4  A    between atoms: N4_7  and  C2_10 
REMARK    5  A    between atoms: N5_16  and  N6_18 
ROOT
HETATM    1  N3  UNL     1     -41.855 -21.809   8.650  1.00  0.00    -0.218 N 
ATOM      2  H3  UNL     1     -42.559 -21.084   8.511  1.00  0.00     0.210 HD
ENDROOT
BRANCH   1   3
HETATM    3  N2  UNL     1     -41.933 -22.661   9.759  1.00  0.00    -0.256 N 
HETATM    4  C1  UNL     1     -41.964 -22.240  10.964  1.00  0.00     0.228 C 
HETATM    5  N1  UNL     1     -41.920 -20.861  11.268  1.00  0.00    -0.060 NA
HETATM    6  N5  UNL     1     -42.044 -23.171  12.024  1.00  0.00    -0.212 N 
ATOM      7  H5  UNL     1     -42.855 -23.786  12.069  1.00  0.00     0.196 HD
ATOM      8  H2  UNL     1     -41.969 -23.667   9.596  1.00  0.00     0.191 HD
BRANCH   6   9
HETATM    9  N6  UNL     1     -41.066 -23.289  13.008  1.00  0.00    -0.036 N 
HETATM   10  O3  UNL     1     -41.349 -23.302  14.217  1.00  0.00    -0.516 OA
HETATM   11  O4  UNL     1     -39.758 -23.392  12.631  1.00  0.00    -0.516 OA
ENDBRANCH   6   9
ENDBRANCH   1   3
BRANCH   1  12
HETATM   12  N4  UNL     1     -40.841 -21.953   7.764  1.00  0.00    -0.182 N 
BRANCH  12  13
HETATM   13  O1  UNL     1     -40.862 -22.954   6.933  1.00  0.00    -0.271 OA
ATOM     14  H1  UNL     1     -41.207 -23.790   7.224  1.00  0.00     0.246 HD
ENDBRANCH  12  13
BRANCH  12  15
HETATM   15  C2  UNL     1     -39.568 -21.446   8.152  1.00  0.00     0.139 C 
HETATM   16  C3  UNL     1     -39.662 -19.979   8.412  1.00  0.00     0.055 C 
HETATM   17  C4  UNL     1     -39.269 -19.116   7.260  1.00  0.00     0.169 C 
HETATM   18  O2  UNL     1     -37.961 -19.504   6.885  1.00  0.00    -0.391 OA
HETATM   19  C5  UNL     1     -38.110 -20.723   6.237  1.00  0.00     0.169 C 
HETATM   20  C6  UNL     1     -38.549 -21.834   7.133  1.00  0.00     0.055 C 
ENDBRANCH  12  15
ENDBRANCH   1  12
TORSDOF 5
ENDMDL
MODEL 4
REMARK VINA RESULT: -6.376241229      4.198      5.769
REMARK  5 active torsions:
REMARK  status: ('A' for Active; 'I' for Inactive)
REMARK       I    between atoms: C1_2  and  N5_16 
REMARK    1  A    between atoms: N2_3  and  N3_5 
REMARK    2  A    between atoms: N3_5  and  N4_7 
REMARK    3  A    between atoms: N4_7  and  O1_8 
REMARK    4  A    between atoms: N4_7  and  C2_10 
REMARK    5  A    between atoms: N5_16  and  N6_18 
ROOT
HETATM    1  N3  UNL     1     -41.730 -22.333   8.958  1.00  0.00    -0.218 N 
ATOM      2  H3  UNL     1     -42.528 -22.081   8.375  1.00  0.00     0.210 HD
ENDROOT
BRANCH   1   3
HETATM    3  N2  UNL     1     -41.932 -22.967  10.190  1.00  0.00    -0.256 N 
HETATM    4  C1  UNL     1     -41.972 -22.341  11.302  1.00  0.00     0.228 C 
HETATM    5  N1  UNL     1     -41.813 -20.940  11.368  1.00  0.00    -0.060 NA
HETATM    6  N5  UNL     1     -42.181 -23.063  12.498  1.00  0.00    -0.212 N 
ATOM      7  H5  UNL     1     -43.048 -23.590  12.602  1.00  0.00     0.196 HD
ATOM      8  H2  UNL     1     -42.054 -23.980  10.199  1.00  0.00     0.191 HD
BRANCH   6   9
HETATM    9  N6  UNL     1     -41.259 -23.088  13.542  1.00  0.00    -0.036 N 
HETATM   10  O3  UNL     1     -41.604 -22.956  14.727  1.00  0.00    -0.516 OA
HETATM   11  O4  UNL     1     -39.937 -23.265  13.251  1.00  0.00    -0.516 OA
ENDBRANCH   6   9
ENDBRANCH   1   3
BRANCH   1  12
HETATM   12  N4  UNL     1     -40.471 -22.055   8.545  1.00  0.00    -0.182 N 
BRANCH  12  13
HETATM   13  O1  UNL     1     -39.492 -22.126   9.400  1.00  0.00    -0.271 OA
ATOM     14  H1  UNL     1     -39.097 -22.971   9.582  1.00  0.00     0.246 HD
ENDBRANCH  12  13
BRANCH  12  15
HETATM   15  C2  UNL     1     -40.334 -21.140   7.462  1.00  0.00     0.139 C 
HETATM   16  C3  UNL     1     -39.423 -21.711   6.427  1.00  0.00     0.055 C 
HETATM   17  C4  UNL     1     -38.003 -21.264   6.531  1.00  0.00     0.169 C 
HETATM   18  O2  UNL     1     -38.016 -19.849   6.502  1.00  0.00    -0.391 OA
HETATM   19  C5  UNL     1     -38.488 -19.460   7.749  1.00  0.00     0.169 C 
HETATM   20  C6  UNL     1     -39.919 -19.807   7.989  1.00  0.00     0.055 C 
ENDBRANCH  12  15
ENDBRANCH   1  12
TORSDOF 5
ENDMDL
MODEL 5
REMARK VINA RESULT: -6.039469449      3.827      5.527
REMARK  5 active torsions:
REMARK  status: ('A' for Active; 'I' for Inactive)
REMARK       I    between atoms: C1_2  and  N5_16 
REMARK    1  A    between atoms: N2_3  and  N3_5 
REMARK    2  A    between atoms: N3_5  and  N4_7 
REMARK    3  A    between atoms: N4_7  and  O1_8 
REMARK    4  A    between atoms: N4_7  and  C2_10 
REMARK    5  A    between atoms: N5_16  and  N6_18 
ROOT
HETATM    1  N3  UNL     1     -39.070 -21.414   8.591  1.00  0.00    -0.218 N 
ATOM      2  H3  UNL     1     -38.068 -21.511   8.759  1.00  0.00     0.210 HD
ENDROOT
BRANCH   1   3
HETATM    3  N2  UNL     1     -39.951 -21.257   9.668  1.00  0.00    -0.256 N 
HETATM    4  C1  UNL     1     -39.965 -22.035  10.680  1.00  0.00     0.228 C 
HETATM    5  N1  UNL     1     -39.077 -23.128  10.786  1.00  0.00    -0.060 NA
HETATM    6  N5  UNL     1     -40.889 -21.802  11.723  1.00  0.00    -0.212 N 
ATOM      7  H5  UNL     1     -40.840 -20.916  12.226  1.00  0.00     0.196 HD
ATOM      8  H2  UNL     1     -40.614 -20.482   9.642  1.00  0.00     0.191 HD
BRANCH   6   9
HETATM    9  N6  UNL     1     -41.865 -22.723  12.095  1.00  0.00    -0.036 N 
HETATM   10  O3  UNL     1     -42.901 -22.887  11.432  1.00  0.00    -0.516 OA
HETATM   11  O4  UNL     1     -41.673 -23.469  13.222  1.00  0.00    -0.516 OA
ENDBRANCH   6   9
ENDBRANCH   1   3
BRANCH   1  12
HETATM   12  N4  UNL     1     -39.553 -21.437   7.326  1.00  0.00    -0.182 N 
BRANCH  12  13
HETATM   13  O1  UNL     1     -38.942 -20.756   6.401  1.00  0.00    -0.271 OA
ATOM     14  H1  UNL     1     -37.992 -20.732   6.395  1.00  0.00     0.246 HD
ENDBRANCH  12  13
BRANCH  12  15
HETATM   15  C2  UNL     1     -40.954 -21.645   7.174  1.00  0.00     0.139 C 
HETATM   16  C3  UNL     1     -41.262 -23.103   7.240  1.00  0.00     0.055 C 
HETATM   17  C4  UNL     1     -41.368 -23.778   5.913  1.00  0.00     0.169 C 
HETATM   18  O2  UNL     1     -42.338 -23.066   5.167  1.00  0.00    -0.391 OA
HETATM   19  C5  UNL     1     -41.716 -21.882   4.791  1.00  0.00     0.169 C 
HETATM   20  C6  UNL     1     -41.423 -20.964   5.931  1.00  0.00     0.055 C 
ENDBRANCH  12  15
ENDBRANCH   1  12
TORSDOF 5
ENDMDL
