MODEL 1
REMARK VINA RESULT: -6.421792671      0.000      0.000
REMARK  5 active torsions:
REMARK  status: ('A' for Active; 'I' for Inactive)
REMARK    1  A    between atoms: C1_2  and  C2_4 
REMARK    2  A    between atoms: C2_4  and  N2_5 
REMARK    3  A    between atoms: N2_5  and  N3_6 
REMARK    4  A    between atoms: N2_5  and  C3_9 
REMARK    5  A    between atoms: C4_10  and  N4_11 
ROOT
HETATM    1  C3  UNL     1     -40.932 -21.806  10.288  1.00  0.00     0.153 A 
HETATM    2  C4  UNL     1     -40.757 -22.804  11.187  1.00  0.00     0.226 A 
HETATM    3  N5  UNL     1     -41.432 -22.386  12.317  1.00  0.00    -0.236 N 
ATOM      4  H5  UNL     1     -41.498 -22.912  13.188  1.00  0.00     0.197 HD
HETATM    5  O4  UNL     1     -41.967 -21.230  12.106  1.00  0.00    -0.218 OA
HETATM    6  C5  UNL     1     -41.708 -20.813  10.902  1.00  0.00     0.212 A 
HETATM    7  N6  UNL     1     -42.122 -19.607  10.317  1.00  0.00    -0.070 NA
ENDROOT
BRANCH   1   8
HETATM    8  N2  UNL     1     -40.489 -21.681   8.974  1.00  0.00    -0.283 N 
BRANCH   8   9
HETATM    9  C2  UNL     1     -39.136 -21.345   8.621  1.00  0.00     0.248 C 
BRANCH   9  10
HETATM   10  C1  UNL     1     -39.068 -20.186   7.711  1.00  0.00     0.250 C 
HETATM   11  N1  UNL     1     -38.193 -20.179   6.599  1.00  0.00    -0.061 NA
HETATM   12  O1  UNL     1     -39.788 -19.171   7.894  1.00  0.00    -0.275 OA
ENDBRANCH   9  10
ENDBRANCH   8   9
BRANCH   8  13
HETATM   13  N3  UNL     1     -41.421 -21.834   7.930  1.00  0.00    -0.342 N 
ATOM     14  H32 UNL     1     -41.084 -21.819   6.968  1.00  0.00     0.177 HD
ATOM     15  H31 UNL     1     -42.396 -21.996   8.183  1.00  0.00     0.177 HD
ENDBRANCH   8  13
ENDBRANCH   1   8
BRANCH   2  16
HETATM   16  N4  UNL     1     -40.075 -24.031  11.103  1.00  0.00    -0.093 N 
HETATM   17  O2  UNL     1     -38.858 -24.032  10.860  1.00  0.00    -0.530 OA
HETATM   18  O3  UNL     1     -40.722 -25.204  11.282  1.00  0.00    -0.530 OA
ENDBRANCH   2  16
TORSDOF 5
ENDMDL
MODEL 2
REMARK VINA RESULT: -5.919022704      2.476      4.785
REMARK  5 active torsions:
REMARK  status: ('A' for Active; 'I' for Inactive)
REMARK    1  A    between atoms: C1_2  and  C2_4 
REMARK    2  A    between atoms: C2_4  and  N2_5 
REMARK    3  A    between atoms: N2_5  and  N3_6 
REMARK    4  A    between atoms: N2_5  and  C3_9 
REMARK    5  A    between atoms: C4_10  and  N4_11 
ROOT
HETATM    1  C3  UNL     1     -40.559 -21.368   7.710  1.00  0.00     0.153 A 
HETATM    2  C4  UNL     1     -40.718 -21.975   6.509  1.00  0.00     0.226 A 
HETATM    3  N5  UNL     1     -39.982 -21.212   5.624  1.00  0.00    -0.236 N 
ATOM      4  H5  UNL     1     -39.890 -21.398   4.626  1.00  0.00     0.197 HD
HETATM    5  O4  UNL     1     -39.428 -20.227   6.249  1.00  0.00    -0.218 OA
HETATM    6  C5  UNL     1     -39.731 -20.254   7.514  1.00  0.00     0.212 A 
HETATM    7  N6  UNL     1     -39.314 -19.349   8.503  1.00  0.00    -0.070 NA
ENDROOT
BRANCH   1   8
HETATM    8  N2  UNL     1     -41.058 -21.698   8.967  1.00  0.00    -0.283 N 
BRANCH   8   9
HETATM    9  C2  UNL     1     -41.282 -23.050   9.402  1.00  0.00     0.248 C 
BRANCH   9  10
HETATM   10  C1  UNL     1     -40.318 -23.470  10.436  1.00  0.00     0.250 C 
HETATM   11  N1  UNL     1     -40.571 -24.593  11.258  1.00  0.00    -0.061 NA
HETATM   12  O1  UNL     1     -39.242 -22.845  10.615  1.00  0.00    -0.275 OA
ENDBRANCH   9  10
ENDBRANCH   8   9
BRANCH   8  13
HETATM   13  N3  UNL     1     -41.416 -20.656   9.844  1.00  0.00    -0.342 N 
ATOM     14  H32 UNL     1     -42.187 -20.810  10.494  1.00  0.00     0.177 HD
ATOM     15  H31 UNL     1     -40.862 -19.801   9.819  1.00  0.00     0.177 HD
ENDBRANCH   8  13
ENDBRANCH   1   8
BRANCH   2  16
HETATM   16  N4  UNL     1     -41.434 -23.125   6.129  1.00  0.00    -0.093 N 
HETATM   17  O2  UNL     1     -42.619 -23.011   5.779  1.00  0.00    -0.530 OA
HETATM   18  O3  UNL     1     -40.853 -24.345   6.140  1.00  0.00    -0.530 OA
ENDBRANCH   2  16
TORSDOF 5
ENDMDL
MODEL 3
REMARK VINA RESULT: -5.731018389      2.481      4.852
REMARK  5 active torsions:
REMARK  status: ('A' for Active; 'I' for Inactive)
REMARK    1  A    between atoms: C1_2  and  C2_4 
REMARK    2  A    between atoms: C2_4  and  N2_5 
REMARK    3  A    between atoms: N2_5  and  N3_6 
REMARK    4  A    between atoms: N2_5  and  C3_9 
REMARK    5  A    between atoms: C4_10  and  N4_11 
ROOT
HETATM    1  C3  UNL     1     -40.560 -21.328   7.773  1.00  0.00     0.153 A 
HETATM    2  C4  UNL     1     -40.741 -21.969   6.593  1.00  0.00     0.226 A 
HETATM    3  N5  UNL     1     -40.003 -21.244   5.678  1.00  0.00    -0.236 N 
ATOM      4  H5  UNL     1     -39.924 -21.462   4.686  1.00  0.00     0.197 HD
HETATM    5  O4  UNL     1     -39.428 -20.250   6.268  1.00  0.00    -0.218 OA
HETATM    6  C5  UNL     1     -39.718 -20.233   7.536  1.00  0.00     0.212 A 
HETATM    7  N6  UNL     1     -39.277 -19.305   8.492  1.00  0.00    -0.070 NA
ENDROOT
BRANCH   1   8
HETATM    8  N2  UNL     1     -41.051 -21.612   9.044  1.00  0.00    -0.283 N 
BRANCH   8   9
HETATM    9  C2  UNL     1     -41.147 -22.944   9.580  1.00  0.00     0.248 C 
BRANCH   9  10
HETATM   10  C1  UNL     1     -41.294 -22.945  11.048  1.00  0.00     0.250 C 
HETATM   11  N1  UNL     1     -42.566 -23.065  11.654  1.00  0.00    -0.061 NA
HETATM   12  O1  UNL     1     -40.294 -22.842  11.802  1.00  0.00    -0.275 OA
ENDBRANCH   9  10
ENDBRANCH   8   9
BRANCH   8  13
HETATM   13  N3  UNL     1     -41.534 -20.550   9.833  1.00  0.00    -0.342 N 
ATOM     14  H32 UNL     1     -42.008 -20.769  10.709  1.00  0.00     0.177 HD
ATOM     15  H31 UNL     1     -41.354 -19.599   9.512  1.00  0.00     0.177 HD
ENDBRANCH   8  13
ENDBRANCH   1   8
BRANCH   2  16
HETATM   16  N4  UNL     1     -41.478 -23.119   6.255  1.00  0.00    -0.093 N 
HETATM   17  O2  UNL     1     -40.956 -24.235   6.399  1.00  0.00    -0.530 OA
HETATM   18  O3  UNL     1     -42.739 -23.026   5.779  1.00  0.00    -0.530 OA
ENDBRANCH   2  16
TORSDOF 5
ENDMDL
MODEL 4
REMARK VINA RESULT: -5.725461399      1.423      3.114
REMARK  5 active torsions:
REMARK  status: ('A' for Active; 'I' for Inactive)
REMARK    1  A    between atoms: C1_2  and  C2_4 
REMARK    2  A    between atoms: C2_4  and  N2_5 
REMARK    3  A    between atoms: N2_5  and  N3_6 
REMARK    4  A    between atoms: N2_5  and  C3_9 
REMARK    5  A    between atoms: C4_10  and  N4_11 
ROOT
HETATM    1  C3  UNL     1     -40.709 -22.585  10.364  1.00  0.00     0.153 A 
HETATM    2  C4  UNL     1     -41.469 -21.822  11.186  1.00  0.00     0.226 A 
HETATM    3  N5  UNL     1     -41.737 -22.630  12.273  1.00  0.00    -0.236 N 
ATOM      4  H5  UNL     1     -42.292 -22.357  13.083  1.00  0.00     0.197 HD
HETATM    5  O4  UNL     1     -41.180 -23.784  12.111  1.00  0.00    -0.218 OA
HETATM    6  C5  UNL     1     -40.541 -23.834  10.979  1.00  0.00     0.212 A 
HETATM    7  N6  UNL     1     -39.817 -24.920  10.463  1.00  0.00    -0.070 NA
ENDROOT
BRANCH   1   8
HETATM    8  N2  UNL     1     -40.136 -22.294   9.129  1.00  0.00    -0.283 N 
BRANCH   8   9
HETATM    9  C2  UNL     1     -38.933 -21.521   8.973  1.00  0.00     0.248 C 
BRANCH   9  10
HETATM   10  C1  UNL     1     -38.950 -20.705   7.745  1.00  0.00     0.250 C 
HETATM   11  N1  UNL     1     -39.571 -19.434   7.721  1.00  0.00    -0.061 NA
HETATM   12  O1  UNL     1     -38.411 -21.113   6.685  1.00  0.00    -0.275 OA
ENDBRANCH   9  10
ENDBRANCH   8   9
BRANCH   8  13
HETATM   13  N3  UNL     1     -40.792 -22.730   7.962  1.00  0.00    -0.342 N 
ATOM     14  H32 UNL     1     -41.357 -23.578   8.007  1.00  0.00     0.177 HD
ATOM     15  H31 UNL     1     -40.707 -22.154   7.124  1.00  0.00     0.177 HD
ENDBRANCH   8  13
ENDBRANCH   1   8
BRANCH   2  16
HETATM   16  N4  UNL     1     -41.933 -20.500  11.072  1.00  0.00    -0.093 N 
HETATM   17  O2  UNL     1     -42.446 -19.952  12.060  1.00  0.00    -0.530 OA
HETATM   18  O3  UNL     1     -41.829 -19.820   9.909  1.00  0.00    -0.530 OA
ENDBRANCH   2  16
TORSDOF 5
ENDMDL
MODEL 5
REMARK VINA RESULT: -5.707929327      1.878      5.125
REMARK  5 active torsions:
REMARK  status: ('A' for Active; 'I' for Inactive)
REMARK    1  A    between atoms: C1_2  and  C2_4 
REMARK    2  A    between atoms: C2_4  and  N2_5 
REMARK    3  A    between atoms: N2_5  and  N3_6 
REMARK    4  A    between atoms: N2_5  and  C3_9 
REMARK    5  A    between atoms: C4_10  and  N4_11 
ROOT
HETATM    1  C3  UNL     1     -40.491 -21.632   7.988  1.00  0.00     0.153 A 
HETATM    2  C4  UNL     1     -39.857 -20.825   7.104  1.00  0.00     0.226 A 
HETATM    3  N5  UNL     1     -40.149 -21.358   5.864  1.00  0.00    -0.236 N 
ATOM      4  H5  UNL     1     -39.821 -20.984   4.974  1.00  0.00     0.197 HD
HETATM    5  O4  UNL     1     -40.899 -22.401   5.999  1.00  0.00    -0.218 OA
HETATM    6  C5  UNL     1     -41.148 -22.631   7.255  1.00  0.00     0.212 A 
HETATM    7  N6  UNL     1     -41.925 -23.672   7.786  1.00  0.00    -0.070 NA
ENDROOT
BRANCH   1   8
HETATM    8  N2  UNL     1     -40.563 -21.577   9.377  1.00  0.00    -0.283 N 
BRANCH   8   9
HETATM    9  C2  UNL     1     -39.861 -22.483  10.246  1.00  0.00     0.248 C 
BRANCH   9  10
HETATM   10  C1  UNL     1     -40.748 -23.524  10.800  1.00  0.00     0.250 C 
HETATM   11  N1  UNL     1     -40.307 -24.860  10.940  1.00  0.00    -0.061 NA
HETATM   12  O1  UNL     1     -41.920 -23.253  11.166  1.00  0.00    -0.275 OA
ENDBRANCH   9  10
ENDBRANCH   8   9
BRANCH   8  13
HETATM   13  N3  UNL     1     -41.410 -20.621   9.971  1.00  0.00    -0.342 N 
ATOM     14  H32 UNL     1     -42.386 -20.868  10.134  1.00  0.00     0.177 HD
ATOM     15  H31 UNL     1     -41.000 -19.730  10.250  1.00  0.00     0.177 HD
ENDBRANCH   8  13
ENDBRANCH   1   8
BRANCH   2  16
HETATM   16  N4  UNL     1     -39.064 -19.678   7.285  1.00  0.00    -0.093 N 
HETATM   17  O2  UNL     1     -39.469 -18.775   8.035  1.00  0.00    -0.530 OA
HETATM   18  O3  UNL     1     -37.875 -19.544   6.658  1.00  0.00    -0.530 OA
ENDBRANCH   2  16
TORSDOF 5
ENDMDL
