MODEL 1
REMARK VINA RESULT: -6.446049441      0.000      0.000
REMARK  4 active torsions:
REMARK  status: ('A' for Active; 'I' for Inactive)
REMARK    1  A    between atoms: C2_2  and  N1_3 
REMARK    2  A    between atoms: C2_2  and  C3_7 
REMARK       I    between atoms: C3_7  and  N2_9 
REMARK    3  A    between atoms: N2_9  and  N3_11 
REMARK    4  A    between atoms: C4_13  and  C5_14 
ROOT
HETATM    1  N3  UNL     1     -41.637 -22.134   8.859  1.00  0.00    -0.305 N 
ATOM      2  H3  UNL     1     -41.196 -21.250   9.117  1.00  0.00     0.186 HD
HETATM    3  C4  UNL     1     -41.923 -23.019   9.745  1.00  0.00     0.165 C 
ENDROOT
BRANCH   1   4
HETATM    4  N2  UNL     1     -41.954 -22.427   7.525  1.00  0.00    -0.269 N 
HETATM    5  C3  UNL     1     -40.932 -22.407   6.552  1.00  0.00     0.266 C 
HETATM    6  O1  UNL     1     -39.765 -22.134   6.862  1.00  0.00    -0.269 OA
ATOM      7  H2  UNL     1     -42.914 -22.653   7.260  1.00  0.00     0.190 HD
BRANCH   5   8
HETATM    8  C2  UNL     1     -41.274 -22.717   5.151  1.00  0.00     0.272 C 
HETATM    9  C1  UNL     1     -41.636 -24.185   5.085  1.00  0.00     0.050 C 
BRANCH   8  10
HETATM   10  N1  UNL     1     -42.339 -21.876   4.696  1.00  0.00    -0.067 N 
ATOM     11  H13 UNL     1     -43.234 -22.365   4.725  1.00  0.00     0.275 HD
ATOM     12  H12 UNL     1     -42.536 -21.135   5.369  1.00  0.00     0.275 HD
ATOM     13  H11 UNL     1     -42.159 -21.492   3.768  1.00  0.00     0.275 HD
ENDBRANCH   8  10
ENDBRANCH   5   8
ENDBRANCH   1   4
BRANCH   3  14
HETATM   14  C5  UNL     1     -41.601 -22.738  11.149  1.00  0.00     0.191 A 
HETATM   15  N4  UNL     1     -41.420 -23.648  12.125  1.00  0.00    -0.284 N 
HETATM   16  C6  UNL     1     -41.139 -23.018  13.288  1.00  0.00     0.346 A 
ATOM     17  H4  UNL     1     -41.485 -24.659  12.005  1.00  0.00     0.172 HD
HETATM   18  O2  UNL     1     -40.912 -23.567  14.402  1.00  0.00    -0.245 OA
HETATM   19  N5  UNL     1     -41.156 -21.707  12.988  1.00  0.00    -0.208 N 
HETATM   20  O3  UNL     1     -41.430 -21.576  11.725  1.00  0.00    -0.214 OA
ATOM     21  H5  UNL     1     -40.983 -20.943  13.643  1.00  0.00     0.200 HD
ENDBRANCH   3  14
TORSDOF 4
ENDMDL
MODEL 2
REMARK VINA RESULT: -5.306323449      3.382      5.003
REMARK  4 active torsions:
REMARK  status: ('A' for Active; 'I' for Inactive)
REMARK    1  A    between atoms: C2_2  and  N1_3 
REMARK    2  A    between atoms: C2_2  and  C3_7 
REMARK       I    between atoms: C3_7  and  N2_9 
REMARK    3  A    between atoms: N2_9  and  N3_11 
REMARK    4  A    between atoms: C4_13  and  C5_14 
ROOT
HETATM    1  N3  UNL     1     -40.229 -24.215   5.696  1.00  0.00    -0.305 N 
ATOM      2  H3  UNL     1     -39.264 -23.982   5.933  1.00  0.00     0.186 HD
HETATM    3  C4  UNL     1     -41.207 -23.477   6.083  1.00  0.00     0.165 C 
ENDROOT
BRANCH   1   4
HETATM    4  N2  UNL     1     -40.538 -25.352   4.935  1.00  0.00    -0.269 N 
HETATM    5  C3  UNL     1     -40.375 -26.631   5.508  1.00  0.00     0.266 C 
HETATM    6  O1  UNL     1     -39.963 -26.760   6.669  1.00  0.00    -0.269 OA
ATOM      7  H2  UNL     1     -40.878 -25.255   3.977  1.00  0.00     0.190 HD
BRANCH   5   8
HETATM    8  C2  UNL     1     -40.702 -27.822   4.702  1.00  0.00     0.272 C 
HETATM    9  C1  UNL     1     -39.429 -28.275   4.021  1.00  0.00     0.050 C 
BRANCH   8  10
HETATM   10  N1  UNL     1     -41.270 -28.845   5.526  1.00  0.00    -0.067 N 
ATOM     11  H13 UNL     1     -41.381 -28.524   6.488  1.00  0.00     0.275 HD
ATOM     12  H12 UNL     1     -42.250 -29.004   5.293  1.00  0.00     0.275 HD
ATOM     13  H11 UNL     1     -40.736 -29.713   5.487  1.00  0.00     0.275 HD
ENDBRANCH   8  10
ENDBRANCH   5   8
ENDBRANCH   1   4
BRANCH   3  14
HETATM   14  C5  UNL     1     -40.912 -22.281   6.881  1.00  0.00     0.191 A 
HETATM   15  N4  UNL     1     -41.499 -21.929   8.041  1.00  0.00    -0.284 N 
HETATM   16  C6  UNL     1     -40.971 -20.767   8.484  1.00  0.00     0.346 A 
ATOM     17  H4  UNL     1     -42.231 -22.460   8.513  1.00  0.00     0.172 HD
HETATM   18  O2  UNL     1     -41.290 -20.154   9.541  1.00  0.00    -0.245 OA
HETATM   19  N5  UNL     1     -40.051 -20.427   7.563  1.00  0.00    -0.208 N 
HETATM   20  O3  UNL     1     -40.041 -21.336   6.636  1.00  0.00    -0.214 OA
ATOM     21  H5  UNL     1     -39.462 -19.594   7.588  1.00  0.00     0.200 HD
ENDBRANCH   3  14
TORSDOF 4
ENDMDL
MODEL 3
REMARK VINA RESULT: -5.245852037      3.601      5.155
REMARK  4 active torsions:
REMARK  status: ('A' for Active; 'I' for Inactive)
REMARK    1  A    between atoms: C2_2  and  N1_3 
REMARK    2  A    between atoms: C2_2  and  C3_7 
REMARK       I    between atoms: C3_7  and  N2_9 
REMARK    3  A    between atoms: N2_9  and  N3_11 
REMARK    4  A    between atoms: C4_13  and  C5_14 
ROOT
HETATM    1  N3  UNL     1     -40.237 -24.143   5.717  1.00  0.00    -0.305 N 
ATOM      2  H3  UNL     1     -39.283 -23.821   5.878  1.00  0.00     0.186 HD
HETATM    3  C4  UNL     1     -41.244 -23.524   6.222  1.00  0.00     0.165 C 
ENDROOT
BRANCH   1   4
HETATM    4  N2  UNL     1     -40.501 -25.279   4.937  1.00  0.00    -0.269 N 
HETATM    5  C3  UNL     1     -40.342 -26.559   5.508  1.00  0.00     0.266 C 
HETATM    6  O1  UNL     1     -39.976 -26.691   6.683  1.00  0.00    -0.269 OA
ATOM      7  H2  UNL     1     -40.804 -25.180   3.968  1.00  0.00     0.190 HD
BRANCH   5   8
HETATM    8  C2  UNL     1     -40.622 -27.749   4.681  1.00  0.00     0.272 C 
HETATM    9  C1  UNL     1     -39.320 -28.170   4.035  1.00  0.00     0.050 C 
BRANCH   8  10
HETATM   10  N1  UNL     1     -41.193 -28.791   5.479  1.00  0.00    -0.067 N 
ATOM     11  H13 UNL     1     -42.156 -28.982   5.202  1.00  0.00     0.275 HD
ATOM     12  H12 UNL     1     -40.777 -29.695   5.257  1.00  0.00     0.275 HD
ATOM     13  H11 UNL     1     -41.131 -28.592   6.478  1.00  0.00     0.275 HD
ENDBRANCH   8  10
ENDBRANCH   5   8
ENDBRANCH   1   4
BRANCH   3  14
HETATM   14  C5  UNL     1     -40.996 -22.333   7.043  1.00  0.00     0.191 A 
HETATM   15  N4  UNL     1     -40.198 -21.296   6.725  1.00  0.00    -0.284 N 
HETATM   16  C6  UNL     1     -40.217 -20.385   7.723  1.00  0.00     0.346 A 
ATOM     17  H4  UNL     1     -39.661 -21.211   5.862  1.00  0.00     0.172 HD
HETATM   18  O2  UNL     1     -39.584 -19.293   7.754  1.00  0.00    -0.245 OA
HETATM   19  N5  UNL     1     -41.046 -20.899   8.650  1.00  0.00    -0.208 N 
HETATM   20  O3  UNL     1     -41.487 -22.043   8.219  1.00  0.00    -0.214 OA
ATOM     21  H5  UNL     1     -41.287 -20.464   9.541  1.00  0.00     0.200 HD
ENDBRANCH   3  14
TORSDOF 4
ENDMDL
MODEL 4
REMARK VINA RESULT: -4.638431442      1.790      6.510
REMARK  4 active torsions:
REMARK  status: ('A' for Active; 'I' for Inactive)
REMARK    1  A    between atoms: C2_2  and  N1_3 
REMARK    2  A    between atoms: C2_2  and  C3_7 
REMARK       I    between atoms: C3_7  and  N2_9 
REMARK    3  A    between atoms: N2_9  and  N3_11 
REMARK    4  A    between atoms: C4_13  and  C5_14 
ROOT
HETATM    1  N3  UNL     1     -42.109 -22.682   8.905  1.00  0.00    -0.305 N 
ATOM      2  H3  UNL     1     -42.850 -23.333   8.644  1.00  0.00     0.186 HD
HETATM    3  C4  UNL     1     -41.228 -22.299   8.051  1.00  0.00     0.165 C 
ENDROOT
BRANCH   1   4
HETATM    4  N2  UNL     1     -42.013 -22.170  10.207  1.00  0.00    -0.269 N 
HETATM    5  C3  UNL     1     -41.701 -23.044  11.270  1.00  0.00     0.266 C 
HETATM    6  O1  UNL     1     -41.511 -24.251  11.066  1.00  0.00    -0.269 OA
ATOM      7  H2  UNL     1     -42.168 -21.177  10.384  1.00  0.00     0.190 HD
BRANCH   5   8
HETATM    8  C2  UNL     1     -41.601 -22.499  12.637  1.00  0.00     0.272 C 
HETATM    9  C1  UNL     1     -40.684 -23.409  13.424  1.00  0.00     0.050 C 
BRANCH   8  10
HETATM   10  N1  UNL     1     -41.128 -21.148  12.605  1.00  0.00    -0.067 N 
ATOM     11  H13 UNL     1     -41.696 -20.545  13.200  1.00  0.00     0.275 HD
ATOM     12  H12 UNL     1     -40.234 -21.060  13.088  1.00  0.00     0.275 HD
ATOM     13  H11 UNL     1     -41.072 -20.781  11.655  1.00  0.00     0.275 HD
ENDBRANCH   8  10
ENDBRANCH   5   8
ENDBRANCH   1   4
BRANCH   3  14
HETATM   14  C5  UNL     1     -41.305 -22.819   6.681  1.00  0.00     0.191 A 
HETATM   15  N4  UNL     1     -41.229 -24.112   6.312  1.00  0.00    -0.284 N 
HETATM   16  C6  UNL     1     -41.338 -24.209   4.968  1.00  0.00     0.346 A 
ATOM     17  H4  UNL     1     -41.108 -24.899   6.950  1.00  0.00     0.172 HD
HETATM   18  O2  UNL     1     -41.310 -25.273   4.289  1.00  0.00    -0.245 OA
HETATM   19  N5  UNL     1     -41.481 -22.942   4.537  1.00  0.00    -0.208 N 
HETATM   20  O3  UNL     1     -41.457 -22.151   5.567  1.00  0.00    -0.214 OA
ATOM     21  H5  UNL     1     -41.589 -22.652   3.564  1.00  0.00     0.200 HD
ENDBRANCH   3  14
TORSDOF 4
ENDMDL
MODEL 5
REMARK VINA RESULT: -4.634516756      2.562      2.858
REMARK  4 active torsions:
REMARK  status: ('A' for Active; 'I' for Inactive)
REMARK    1  A    between atoms: C2_2  and  N1_3 
REMARK    2  A    between atoms: C2_2  and  C3_7 
REMARK       I    between atoms: C3_7  and  N2_9 
REMARK    3  A    between atoms: N2_9  and  N3_11 
REMARK    4  A    between atoms: C4_13  and  C5_14 
ROOT
HETATM    1  N3  UNL     1     -40.987 -21.192  10.042  1.00  0.00    -0.305 N 
ATOM      2  H3  UNL     1     -41.553 -20.644  10.690  1.00  0.00     0.186 HD
HETATM    3  C4  UNL     1     -40.510 -22.337  10.379  1.00  0.00     0.165 C 
ENDROOT
BRANCH   1   4
HETATM    4  N2  UNL     1     -40.699 -20.726   8.751  1.00  0.00    -0.269 N 
HETATM    5  C3  UNL     1     -39.429 -20.982   8.193  1.00  0.00     0.266 C 
HETATM    6  O1  UNL     1     -38.570 -21.610   8.827  1.00  0.00    -0.269 OA
ATOM      7  H2  UNL     1     -41.401 -20.208   8.222  1.00  0.00     0.190 HD
BRANCH   5   8
HETATM    8  C2  UNL     1     -39.133 -20.488   6.834  1.00  0.00     0.272 C 
HETATM    9  C1  UNL     1     -38.624 -19.070   6.966  1.00  0.00     0.050 C 
BRANCH   8  10
HETATM   10  N1  UNL     1     -38.189 -21.345   6.184  1.00  0.00    -0.067 N 
ATOM     11  H13 UNL     1     -37.384 -20.818   5.847  1.00  0.00     0.275 HD
ATOM     12  H12 UNL     1     -37.718 -21.951   6.856  1.00  0.00     0.275 HD
ATOM     13  H11 UNL     1     -38.614 -21.889   5.433  1.00  0.00     0.275 HD
ENDBRANCH   8  10
ENDBRANCH   5   8
ENDBRANCH   1   4
BRANCH   3  14
HETATM   14  C5  UNL     1     -40.796 -22.849  11.725  1.00  0.00     0.191 A 
HETATM   15  N4  UNL     1     -41.223 -22.128  12.780  1.00  0.00    -0.284 N 
HETATM   16  C6  UNL     1     -41.377 -22.937  13.851  1.00  0.00     0.346 A 
ATOM     17  H4  UNL     1     -41.403 -21.124  12.771  1.00  0.00     0.172 HD
HETATM   18  O2  UNL     1     -41.765 -22.591  15.002  1.00  0.00    -0.245 OA
HETATM   19  N5  UNL     1     -41.032 -24.163  13.416  1.00  0.00    -0.208 N 
HETATM   20  O3  UNL     1     -40.697 -24.076  12.164  1.00  0.00    -0.214 OA
ATOM     21  H5  UNL     1     -41.033 -25.016  13.976  1.00  0.00     0.200 HD
ENDBRANCH   3  14
TORSDOF 4
ENDMDL
