MODEL 1
REMARK VINA RESULT: -6.904089767      0.000      0.000
REMARK  4 active torsions:
REMARK  status: ('A' for Active; 'I' for Inactive)
REMARK    1  A    between atoms: C2_2  and  N2_6 
REMARK    2  A    between atoms: N3_8  and  C3_10 
REMARK    3  A    between atoms: C5_15  and  C6_16 
REMARK    4  A    between atoms: C12_26  and  N7_27 
ROOT
HETATM    1  C3  UNL     1      -0.058  -0.441  25.191  1.00  0.00     0.103 A 
HETATM    2  C4  UNL     1      -0.716  -1.108  26.199  1.00  0.00     0.133 A 
HETATM    3 CL1  UNL     1      -1.562  -2.611  25.818  1.00  0.00    -0.062 Cl
HETATM    4  N4  UNL     1      -0.697  -0.603  27.437  1.00  0.00    -0.346 N 
ATOM      5  H4  UNL     1      -1.193  -1.118  28.164  1.00  0.00     0.167 HD
HETATM    6  C5  UNL     1      -0.074   0.532  27.794  1.00  0.00     0.042 A 
HETATM    7  C10 UNL     1       0.589   1.211  26.790  1.00  0.00     0.072 A 
HETATM    8  N5  UNL     1       1.253   2.366  27.029  1.00  0.00    -0.350 N 
ATOM      9  H5  UNL     1       1.262   2.743  27.977  1.00  0.00     0.166 HD
HETATM   10  C11 UNL     1       1.901   3.032  26.058  1.00  0.00     0.182 A 
HETATM   11  N6  UNL     1       1.926   2.580  24.771  1.00  0.00    -0.338 N 
ATOM     12  H6  UNL     1       2.420   3.094  24.041  1.00  0.00     0.168 HD
HETATM   13  C12 UNL     1       1.279   1.437  24.499  1.00  0.00     0.114 A 
HETATM   14  C13 UNL     1       0.602   0.731  25.485  1.00  0.00     0.067 A 
ENDROOT
BRANCH   1  15
HETATM   15  N3  UNL     1      -0.081  -0.977  23.886  1.00  0.00    -0.295 N 
HETATM   16  N2  UNL     1       0.642  -1.987  23.591  1.00  0.00    -0.289 N 
ATOM     17  H2  UNL     1       1.233  -2.395  24.317  1.00  0.00     0.188 HD
ATOM     18  H3  UNL     1      -0.678  -0.556  23.175  1.00  0.00     0.187 HD
BRANCH  16  19
HETATM   19  C2  UNL     1       0.659  -2.560  22.313  1.00  0.00     0.085 C 
HETATM   20  C1  UNL     1       1.544  -1.975  21.246  1.00  0.00     0.090 C 
HETATM   21  N1  UNL     1      -0.044  -3.587  21.954  1.00  0.00    -0.388 N 
ATOM     22  H12 UNL     1      -0.031  -4.004  21.024  1.00  0.00     0.157 HD
ATOM     23  H11 UNL     1      -0.644  -3.984  22.678  1.00  0.00     0.157 HD
ENDBRANCH  16  19
ENDBRANCH   1  15
BRANCH  13  24
HETATM   24  N7  UNL     1       1.274   0.970  23.299  1.00  0.00    -0.385 N 
ATOM     25  H72 UNL     1       1.607   1.569  22.544  1.00  0.00     0.157 HD
ATOM     26  H71 UNL     1       0.945   0.021  23.122  1.00  0.00     0.157 HD
ENDBRANCH  13  24
BRANCH   6  27
HETATM   27  C6  UNL     1      -0.102   1.014  29.170  1.00  0.00     0.038 C 
HETATM   28  C7  UNL     1      -1.516   1.296  29.636  1.00  0.00     0.011 C 
HETATM   29  C8  UNL     1      -1.099   0.748  30.985  1.00  0.00     0.001 C 
HETATM   30  C9  UNL     1      -0.042  -0.050  30.249  1.00  0.00     0.011 C 
ENDBRANCH   6  27
TORSDOF 4
ENDMDL
MODEL 2
REMARK VINA RESULT: -6.895568552      2.354      4.119
REMARK  4 active torsions:
REMARK  status: ('A' for Active; 'I' for Inactive)
REMARK    1  A    between atoms: C2_2  and  N2_6 
REMARK    2  A    between atoms: N3_8  and  C3_10 
REMARK    3  A    between atoms: C5_15  and  C6_16 
REMARK    4  A    between atoms: C12_26  and  N7_27 
ROOT
HETATM    1  C3  UNL     1       0.095   0.504  25.208  1.00  0.00     0.103 A 
HETATM    2  C4  UNL     1       0.732   1.166  26.233  1.00  0.00     0.133 A 
HETATM    3 CL1  UNL     1       1.577   2.677  25.879  1.00  0.00    -0.062 Cl
HETATM    4  N4  UNL     1       0.694   0.650  27.466  1.00  0.00    -0.346 N 
ATOM      5  H4  UNL     1       1.175   1.161  28.206  1.00  0.00     0.167 HD
HETATM    6  C5  UNL     1       0.071  -0.490  27.802  1.00  0.00     0.042 A 
HETATM    7  C10 UNL     1      -0.572  -1.164  26.782  1.00  0.00     0.072 A 
HETATM    8  N5  UNL     1      -1.234  -2.324  26.999  1.00  0.00    -0.350 N 
ATOM      9  H5  UNL     1      -1.258  -2.709  27.944  1.00  0.00     0.166 HD
HETATM   10  C11 UNL     1      -1.861  -2.985  26.012  1.00  0.00     0.182 A 
HETATM   11  N6  UNL     1      -1.867  -2.522  24.729  1.00  0.00    -0.338 N 
ATOM     12  H6  UNL     1      -2.346  -3.032  23.985  1.00  0.00     0.168 HD
HETATM   13  C12 UNL     1      -1.221  -1.374  24.478  1.00  0.00     0.114 A 
HETATM   14  C13 UNL     1      -0.564  -0.673  25.481  1.00  0.00     0.067 A 
ENDROOT
BRANCH   1  15
HETATM   15  N3  UNL     1       0.138   1.052  23.909  1.00  0.00    -0.295 N 
HETATM   16  N2  UNL     1      -0.654   1.999  23.581  1.00  0.00    -0.289 N 
ATOM     17  H2  UNL     1      -1.314   2.347  24.277  1.00  0.00     0.188 HD
ATOM     18  H3  UNL     1       0.805   0.691  23.227  1.00  0.00     0.187 HD
BRANCH  16  19
HETATM   19  C2  UNL     1      -0.656   2.579  22.306  1.00  0.00     0.085 C 
HETATM   20  C1  UNL     1      -1.585   2.049  21.247  1.00  0.00     0.090 C 
HETATM   21  N1  UNL     1       0.098   3.568  21.944  1.00  0.00    -0.388 N 
ATOM     22  H12 UNL     1       0.097   3.990  21.015  1.00  0.00     0.157 HD
ATOM     23  H11 UNL     1       0.728   3.927  22.662  1.00  0.00     0.157 HD
ENDBRANCH  16  19
ENDBRANCH   1  15
BRANCH  13  24
HETATM   24  N7  UNL     1      -1.198  -0.896  23.281  1.00  0.00    -0.385 N 
ATOM     25  H72 UNL     1      -0.300  -0.838  22.800  1.00  0.00     0.157 HD
ATOM     26  H71 UNL     1      -2.063  -0.589  22.838  1.00  0.00     0.157 HD
ENDBRANCH  13  24
BRANCH   6  27
HETATM   27  C6  UNL     1       0.078  -0.985  29.175  1.00  0.00     0.038 C 
HETATM   28  C7  UNL     1       1.488  -1.187  29.690  1.00  0.00     0.011 C 
HETATM   29  C8  UNL     1       0.990  -0.678  31.028  1.00  0.00     0.001 C 
HETATM   30  C9  UNL     1      -0.085   0.064  30.260  1.00  0.00     0.011 C 
ENDBRANCH   6  27
TORSDOF 4
ENDMDL
MODEL 3
REMARK VINA RESULT: -6.544262820      3.681      6.652
REMARK  4 active torsions:
REMARK  status: ('A' for Active; 'I' for Inactive)
REMARK    1  A    between atoms: C2_2  and  N2_6 
REMARK    2  A    between atoms: N3_8  and  C3_10 
REMARK    3  A    between atoms: C5_15  and  C6_16 
REMARK    4  A    between atoms: C12_26  and  N7_27 
ROOT
HETATM    1  C3  UNL     1       1.560  -1.452  29.769  1.00  0.00     0.103 A 
HETATM    2  C4  UNL     1       1.898  -1.734  28.465  1.00  0.00     0.133 A 
HETATM    3 CL1  UNL     1       3.185  -2.904  28.151  1.00  0.00    -0.062 Cl
HETATM    4  N4  UNL     1       1.245  -1.119  27.474  1.00  0.00    -0.346 N 
ATOM      5  H4  UNL     1       1.516  -1.347  26.517  1.00  0.00     0.167 HD
HETATM    6  C5  UNL     1       0.260  -0.223  27.644  1.00  0.00     0.042 A 
HETATM    7  C10 UNL     1      -0.088   0.070  28.948  1.00  0.00     0.072 A 
HETATM    8  N5  UNL     1      -1.066   0.957  29.244  1.00  0.00    -0.350 N 
ATOM      9  H5  UNL     1      -1.559   1.421  28.481  1.00  0.00     0.166 HD
HETATM   10  C11 UNL     1      -1.410   1.246  30.510  1.00  0.00     0.182 A 
HETATM   11  N6  UNL     1      -0.789   0.660  31.575  1.00  0.00    -0.338 N 
ATOM     12  H6  UNL     1      -1.057   0.887  32.533  1.00  0.00     0.168 HD
HETATM   13  C12 UNL     1       0.185  -0.226  31.318  1.00  0.00     0.114 A 
HETATM   14  C13 UNL     1       0.559  -0.541  30.017  1.00  0.00     0.067 A 
ENDROOT
BRANCH   1  15
HETATM   15  N3  UNL     1       2.252  -2.104  30.812  1.00  0.00    -0.295 N 
HETATM   16  N2  UNL     1       3.486  -1.854  31.022  1.00  0.00    -0.289 N 
ATOM     17  H2  UNL     1       3.957  -1.177  30.423  1.00  0.00     0.188 HD
ATOM     18  H3  UNL     1       1.764  -2.778  31.401  1.00  0.00     0.187 HD
BRANCH  16  19
HETATM   19  C2  UNL     1       4.222  -2.472  32.042  1.00  0.00     0.085 C 
HETATM   20  C1  UNL     1       5.705  -2.239  32.137  1.00  0.00     0.090 C 
HETATM   21  N1  UNL     1       3.720  -3.254  32.945  1.00  0.00    -0.388 N 
ATOM     22  H12 UNL     1       4.255  -3.703  33.687  1.00  0.00     0.157 HD
ATOM     23  H11 UNL     1       2.713  -3.411  32.880  1.00  0.00     0.157 HD
ENDBRANCH  16  19
ENDBRANCH   1  15
BRANCH  13  24
HETATM   24  N7  UNL     1       0.800  -0.806  32.289  1.00  0.00    -0.385 N 
ATOM     25  H72 UNL     1       0.553  -0.547  33.244  1.00  0.00     0.157 HD
ATOM     26  H71 UNL     1       1.513  -1.509  32.094  1.00  0.00     0.157 HD
ENDBRANCH  13  24
BRANCH   6  27
HETATM   27  C6  UNL     1      -0.402   0.405  26.505  1.00  0.00     0.038 C 
HETATM   28  C7  UNL     1       0.559   1.247  25.692  1.00  0.00     0.011 C 
HETATM   29  C8  UNL     1      -0.173   0.756  24.460  1.00  0.00     0.001 C 
HETATM   30  C9  UNL     1      -0.566  -0.463  25.271  1.00  0.00     0.011 C 
ENDBRANCH   6  27
TORSDOF 4
ENDMDL
MODEL 4
REMARK VINA RESULT: -6.528971190      3.385      7.290
REMARK  4 active torsions:
REMARK  status: ('A' for Active; 'I' for Inactive)
REMARK    1  A    between atoms: C2_2  and  N2_6 
REMARK    2  A    between atoms: N3_8  and  C3_10 
REMARK    3  A    between atoms: C5_15  and  C6_16 
REMARK    4  A    between atoms: C12_26  and  N7_27 
ROOT
HETATM    1  C3  UNL     1      -1.547   1.380  29.763  1.00  0.00     0.103 A 
HETATM    2  C4  UNL     1      -1.881   1.700  28.467  1.00  0.00     0.133 A 
HETATM    3 CL1  UNL     1      -3.200   2.843  28.183  1.00  0.00    -0.062 Cl
HETATM    4  N4  UNL     1      -1.203   1.142  27.460  1.00  0.00    -0.346 N 
ATOM      5  H4  UNL     1      -1.472   1.397  26.510  1.00  0.00     0.167 HD
HETATM    6  C5  UNL     1      -0.193   0.269  27.606  1.00  0.00     0.042 A 
HETATM    7  C10 UNL     1       0.152  -0.062  28.902  1.00  0.00     0.072 A 
HETATM    8  N5  UNL     1       1.154  -0.930  29.174  1.00  0.00    -0.350 N 
ATOM      9  H5  UNL     1       1.666  -1.351  28.399  1.00  0.00     0.166 HD
HETATM   10  C11 UNL     1       1.495  -1.257  30.432  1.00  0.00     0.182 A 
HETATM   11  N6  UNL     1       0.849  -0.728  31.511  1.00  0.00    -0.338 N 
ATOM     12  H6  UNL     1       1.115  -0.984  32.463  1.00  0.00     0.168 HD
HETATM   13  C12 UNL     1      -0.149   0.137  31.278  1.00  0.00     0.114 A 
HETATM   14  C13 UNL     1      -0.521   0.490  29.987  1.00  0.00     0.067 A 
ENDROOT
BRANCH   1  15
HETATM   15  N3  UNL     1      -2.266   1.971  30.822  1.00  0.00    -0.295 N 
HETATM   16  N2  UNL     1      -3.512   1.732  30.969  1.00  0.00    -0.289 N 
ATOM     17  H2  UNL     1      -3.971   1.107  30.307  1.00  0.00     0.188 HD
ATOM     18  H3  UNL     1      -1.789   2.594  31.474  1.00  0.00     0.187 HD
BRANCH  16  19
HETATM   19  C2  UNL     1      -4.275   2.293  32.002  1.00  0.00     0.085 C 
HETATM   20  C1  UNL     1      -5.667   1.784  32.261  1.00  0.00     0.090 C 
HETATM   21  N1  UNL     1      -3.874   3.244  32.784  1.00  0.00    -0.388 N 
ATOM     22  H12 UNL     1      -4.429   3.652  33.536  1.00  0.00     0.157 HD
ATOM     23  H11 UNL     1      -2.929   3.590  32.608  1.00  0.00     0.157 HD
ENDBRANCH  16  19
ENDBRANCH   1  15
BRANCH  13  24
HETATM   24  N7  UNL     1      -0.790   0.663  32.264  1.00  0.00    -0.385 N 
ATOM     25  H72 UNL     1      -0.324   1.383  32.816  1.00  0.00     0.157 HD
ATOM     26  H71 UNL     1      -1.740   0.358  32.476  1.00  0.00     0.157 HD
ENDBRANCH  13  24
BRANCH   6  27
HETATM   27  C6  UNL     1       0.497  -0.296  26.451  1.00  0.00     0.038 C 
HETATM   28  C7  UNL     1      -0.426  -1.153  25.611  1.00  0.00     0.011 C 
HETATM   29  C8  UNL     1       0.287  -0.596  24.396  1.00  0.00     0.001 C 
HETATM   30  C9  UNL     1       0.626   0.614  25.243  1.00  0.00     0.011 C 
ENDBRANCH   6  27
TORSDOF 4
ENDMDL
MODEL 5
REMARK VINA RESULT: -6.323780189      3.152      6.683
REMARK  4 active torsions:
REMARK  status: ('A' for Active; 'I' for Inactive)
REMARK    1  A    between atoms: C2_2  and  N2_6 
REMARK    2  A    between atoms: N3_8  and  C3_10 
REMARK    3  A    between atoms: C5_15  and  C6_16 
REMARK    4  A    between atoms: C12_26  and  N7_27 
ROOT
HETATM    1  C3  UNL     1       0.762  -0.446  29.793  1.00  0.00     0.103 A 
HETATM    2  C4  UNL     1       1.513  -1.086  28.834  1.00  0.00     0.133 A 
HETATM    3 CL1  UNL     1       2.821  -2.158  29.349  1.00  0.00    -0.062 Cl
HETATM    4  N4  UNL     1       1.234  -0.883  27.543  1.00  0.00    -0.346 N 
ATOM      5  H4  UNL     1       1.807  -1.370  26.853  1.00  0.00     0.167 HD
HETATM    6  C5  UNL     1       0.256  -0.085  27.085  1.00  0.00     0.042 A 
HETATM    7  C10 UNL     1      -0.504   0.564  28.038  1.00  0.00     0.072 A 
HETATM    8  N5  UNL     1      -1.517   1.394  27.698  1.00  0.00    -0.350 N 
ATOM      9  H5  UNL     1      -1.723   1.543  26.710  1.00  0.00     0.166 HD
HETATM   10  C11 UNL     1      -2.261   2.030  28.619  1.00  0.00     0.182 A 
HETATM   11  N6  UNL     1      -2.037   1.873  29.956  1.00  0.00    -0.338 N 
ATOM     12  H6  UNL     1      -2.607   2.361  30.648  1.00  0.00     0.168 HD
HETATM   13  C12 UNL     1      -1.041   1.056  30.328  1.00  0.00     0.114 A 
HETATM   14  C13 UNL     1      -0.257   0.389  29.395  1.00  0.00     0.067 A 
ENDROOT
BRANCH   1  15
HETATM   15  N3  UNL     1       1.061  -0.663  31.155  1.00  0.00    -0.295 N 
HETATM   16  N2  UNL     1       0.867  -1.810  31.683  1.00  0.00    -0.289 N 
ATOM     17  H2  UNL     1       0.494  -2.560  31.100  1.00  0.00     0.188 HD
ATOM     18  H3  UNL     1       1.434   0.099  31.721  1.00  0.00     0.187 HD
BRANCH  16  19
HETATM   19  C2  UNL     1       1.145  -2.081  33.029  1.00  0.00     0.085 C 
HETATM   20  C1  UNL     1       2.574  -2.171  33.491  1.00  0.00     0.090 C 
HETATM   21  N1  UNL     1       0.249  -2.267  33.945  1.00  0.00    -0.388 N 
ATOM     22  H12 UNL     1       0.451  -2.465  34.925  1.00  0.00     0.157 HD
ATOM     23  H11 UNL     1      -0.721  -2.206  33.631  1.00  0.00     0.157 HD
ENDBRANCH  16  19
ENDBRANCH   1  15
BRANCH  13  24
HETATM   24  N7  UNL     1      -0.790   0.876  31.579  1.00  0.00    -0.385 N 
ATOM     25  H72 UNL     1      -1.561   0.624  32.197  1.00  0.00     0.157 HD
ATOM     26  H71 UNL     1       0.162   0.983  31.929  1.00  0.00     0.157 HD
ENDBRANCH  13  24
BRANCH   6  27
HETATM   27  C6  UNL     1       0.018   0.082  25.656  1.00  0.00     0.038 C 
HETATM   28  C7  UNL     1       0.851   1.207  25.076  1.00  0.00     0.011 C 
HETATM   29  C8  UNL     1       1.018   0.344  23.842  1.00  0.00     0.001 C 
HETATM   30  C9  UNL     1       0.784  -0.854  24.740  1.00  0.00     0.011 C 
ENDBRANCH   6  27
TORSDOF 4
ENDMDL
