MODEL 1
REMARK VINA RESULT: -7.889378093      0.000      0.000
REMARK  3 active torsions:
REMARK  status: ('A' for Active; 'I' for Inactive)
REMARK    1  A    between atoms: C3_4  and  N2_5 
REMARK    2  A    between atoms: C7_12  and  C8_13 
REMARK    3  A    between atoms: C8_13  and  C9_14 
ROOT
HETATM    1  N1  UNL     1       1.406   2.330  24.141  1.00  0.00    -0.196 NA
HETATM    2  C1  UNL     1       0.512   1.731  24.540  1.00  0.00     0.075 C 
HETATM    3  C2  UNL     1      -0.623   0.962  25.048  1.00  0.00     0.182 C 
HETATM    4  C3  UNL     1      -1.016  -0.041  24.020  1.00  0.00     0.062 C 
HETATM    5  S1  UNL     1       0.197  -1.330  23.757  1.00  0.00    -0.111 SA
HETATM    6  C4  UNL     1       1.206  -1.306  25.240  1.00  0.00     0.115 C 
HETATM    7  C5  UNL     1       0.513  -0.720  26.421  1.00  0.00    -0.061 C 
HETATM    8  C6  UNL     1      -0.314   0.306  26.349  1.00  0.00    -0.025 C 
HETATM    9  C7  UNL     1      -0.789   0.639  27.705  1.00  0.00    -0.049 C 
HETATM   10  C14 UNL     1      -0.636  -0.628  28.464  1.00  0.00     0.043 C 
HETATM   11  C15 UNL     1       0.617  -1.185  27.812  1.00  0.00     0.040 C 
ENDROOT
BRANCH   4  12
HETATM   12  N2  UNL     1      -2.094   0.013  23.405  1.00  0.00    -0.396 N 
ATOM     13  H22 UNL     1      -2.977   0.269  23.848  1.00  0.00     0.156 HD
ATOM     14  H21 UNL     1      -2.173  -0.191  22.408  1.00  0.00     0.156 HD
ENDBRANCH   4  12
BRANCH   9  15
HETATM   15  C8  UNL     1      -1.216   1.785  28.193  1.00  0.00     0.020 C 
BRANCH  15  16
HETATM   16  C9  UNL     1      -2.000   1.829  29.410  1.00  0.00    -0.017 A 
HETATM   17  C10 UNL     1      -1.544   2.341  30.608  1.00  0.00     0.101 A 
HETATM   18  N3  UNL     1      -2.360   2.376  31.676  1.00  0.00    -0.349 N 
HETATM   19  C11 UNL     1      -3.635   1.926  31.640  1.00  0.00     0.138 A 
ATOM     20  H3  UNL     1      -2.003   2.758  32.551  1.00  0.00     0.167 HD
HETATM   21  N4  UNL     1      -4.378   1.990  32.702  1.00  0.00    -0.383 N 
HETATM   22  C12 UNL     1      -4.120   1.413  30.475  1.00  0.00     0.160 A 
ATOM     23  H42 UNL     1      -4.014   2.374  33.574  1.00  0.00     0.157 HD
ATOM     24  H41 UNL     1      -5.339   1.651  32.675  1.00  0.00     0.157 HD
HETATM   25  F1  UNL     1      -5.404   0.961  30.441  1.00  0.00    -0.202 F 
HETATM   26  C13 UNL     1      -3.302   1.366  29.368  1.00  0.00     0.059 A 
ENDBRANCH  15  16
ENDBRANCH   9  15
TORSDOF 3
ENDMDL
MODEL 2
REMARK VINA RESULT: -7.874409473      3.980      5.523
REMARK  3 active torsions:
REMARK  status: ('A' for Active; 'I' for Inactive)
REMARK    1  A    between atoms: C3_4  and  N2_5 
REMARK    2  A    between atoms: C7_12  and  C8_13 
REMARK    3  A    between atoms: C8_13  and  C9_14 
ROOT
HETATM    1  N1  UNL     1      -1.356  -2.362  24.141  1.00  0.00    -0.196 NA
HETATM    2  C1  UNL     1      -0.472  -1.750  24.543  1.00  0.00     0.075 C 
HETATM    3  C2  UNL     1       0.649  -0.965  25.055  1.00  0.00     0.182 C 
HETATM    4  C3  UNL     1       1.030   0.046  24.029  1.00  0.00     0.062 C 
HETATM    5  S1  UNL     1      -0.202   1.317  23.765  1.00  0.00    -0.111 SA
HETATM    6  C4  UNL     1      -1.215   1.275  25.245  1.00  0.00     0.115 C 
HETATM    7  C5  UNL     1      -0.515   0.698  26.427  1.00  0.00    -0.061 C 
HETATM    8  C6  UNL     1       0.328  -0.315  26.357  1.00  0.00    -0.025 C 
HETATM    9  C7  UNL     1       0.804  -0.643  27.713  1.00  0.00    -0.049 C 
HETATM   10  C14 UNL     1       0.630   0.621  28.473  1.00  0.00     0.043 C 
HETATM   11  C15 UNL     1      -0.630   1.159  27.819  1.00  0.00     0.040 C 
ENDROOT
BRANCH   4  12
HETATM   12  N2  UNL     1       2.111   0.009  23.417  1.00  0.00    -0.396 N 
ATOM     13  H22 UNL     1       3.002  -0.193  23.870  1.00  0.00     0.156 HD
ATOM     14  H21 UNL     1       2.183   0.175  22.413  1.00  0.00     0.156 HD
ENDBRANCH   4  12
BRANCH   9  15
HETATM   15  C8  UNL     1       1.247  -1.782  28.201  1.00  0.00     0.020 C 
BRANCH  15  16
HETATM   16  C9  UNL     1       2.024  -1.816  29.423  1.00  0.00    -0.017 A 
HETATM   17  C10 UNL     1       1.555  -2.306  30.626  1.00  0.00     0.101 A 
HETATM   18  N3  UNL     1       2.364  -2.333  31.699  1.00  0.00    -0.349 N 
HETATM   19  C11 UNL     1       3.644  -1.898  31.664  1.00  0.00     0.138 A 
ATOM     20  H3  UNL     1       1.997  -2.698  32.578  1.00  0.00     0.167 HD
HETATM   21  N4  UNL     1       4.380  -1.954  32.732  1.00  0.00    -0.383 N 
HETATM   22  C12 UNL     1       4.142  -1.407  30.495  1.00  0.00     0.160 A 
ATOM     23  H42 UNL     1       4.007  -2.321  33.607  1.00  0.00     0.157 HD
ATOM     24  H41 UNL     1       5.344  -1.626  32.706  1.00  0.00     0.157 HD
HETATM   25  F1  UNL     1       5.431  -0.970  30.462  1.00  0.00    -0.202 F 
HETATM   26  C13 UNL     1       3.331  -1.369  29.382  1.00  0.00     0.059 A 
ENDBRANCH  15  16
ENDBRANCH   9  15
TORSDOF 3
ENDMDL
MODEL 3
REMARK VINA RESULT: -7.533180702      1.180      1.452
REMARK  3 active torsions:
REMARK  status: ('A' for Active; 'I' for Inactive)
REMARK    1  A    between atoms: C3_4  and  N2_5 
REMARK    2  A    between atoms: C7_12  and  C8_13 
REMARK    3  A    between atoms: C8_13  and  C9_14 
ROOT
HETATM    1  N1  UNL     1       1.559   2.309  24.103  1.00  0.00    -0.196 NA
HETATM    2  C1  UNL     1       0.651   1.733  24.505  1.00  0.00     0.075 C 
HETATM    3  C2  UNL     1      -0.501   0.994  25.018  1.00  0.00     0.182 C 
HETATM    4  C3  UNL     1      -0.936   0.014  23.985  1.00  0.00     0.062 C 
HETATM    5  S1  UNL     1       0.234  -1.309  23.695  1.00  0.00    -0.111 SA
HETATM    6  C4  UNL     1       1.260  -1.331  25.167  1.00  0.00     0.115 C 
HETATM    7  C5  UNL     1       0.597  -0.736  26.361  1.00  0.00    -0.061 C 
HETATM    8  C6  UNL     1      -0.198   0.316  26.310  1.00  0.00    -0.025 C 
HETATM    9  C7  UNL     1      -0.648   0.649  27.674  1.00  0.00    -0.049 C 
HETATM   10  C14 UNL     1      -0.526  -0.631  28.418  1.00  0.00     0.043 C 
HETATM   11  C15 UNL     1       0.702  -1.219  27.746  1.00  0.00     0.040 C 
ENDROOT
BRANCH   4  12
HETATM   12  N2  UNL     1      -2.019   0.108  23.382  1.00  0.00    -0.396 N 
ATOM     13  H22 UNL     1      -2.912  -0.161  23.795  1.00  0.00     0.156 HD
ATOM     14  H21 UNL     1      -2.092   0.466  22.430  1.00  0.00     0.156 HD
ENDBRANCH   4  12
BRANCH   9  15
HETATM   15  C8  UNL     1      -1.034   1.802  28.178  1.00  0.00     0.020 C 
BRANCH  15  16
HETATM   16  C9  UNL     1      -1.940   1.853  29.307  1.00  0.00    -0.017 A 
HETATM   17  C10 UNL     1      -3.292   1.586  29.228  1.00  0.00     0.101 A 
HETATM   18  N3  UNL     1      -4.047   1.620  30.340  1.00  0.00    -0.349 N 
HETATM   19  C11 UNL     1      -3.543   1.909  31.561  1.00  0.00     0.138 A 
ATOM     20  H3  UNL     1      -5.044   1.420  30.259  1.00  0.00     0.167 HD
HETATM   21  N4  UNL     1      -4.321   1.921  32.600  1.00  0.00    -0.383 N 
HETATM   22  C12 UNL     1      -2.213   2.178  31.679  1.00  0.00     0.160 A 
ATOM     23  H42 UNL     1      -5.317   1.719  32.512  1.00  0.00     0.157 HD
ATOM     24  H41 UNL     1      -3.941   2.138  33.520  1.00  0.00     0.157 HD
HETATM   25  F1  UNL     1      -1.708   2.468  32.909  1.00  0.00    -0.202 F 
HETATM   26  C13 UNL     1      -1.419   2.150  30.553  1.00  0.00     0.059 A 
ENDBRANCH  15  16
ENDBRANCH   9  15
TORSDOF 3
ENDMDL
MODEL 4
REMARK VINA RESULT: -7.517518089      3.876      5.194
REMARK  3 active torsions:
REMARK  status: ('A' for Active; 'I' for Inactive)
REMARK    1  A    between atoms: C3_4  and  N2_5 
REMARK    2  A    between atoms: C7_12  and  C8_13 
REMARK    3  A    between atoms: C8_13  and  C9_14 
ROOT
HETATM    1  N1  UNL     1      -1.429  -2.371  24.072  1.00  0.00    -0.196 NA
HETATM    2  C1  UNL     1      -0.541  -1.770  24.480  1.00  0.00     0.075 C 
HETATM    3  C2  UNL     1       0.587  -0.999  25.001  1.00  0.00     0.182 C 
HETATM    4  C3  UNL     1       1.000  -0.007  23.970  1.00  0.00     0.062 C 
HETATM    5  S1  UNL     1      -0.205   1.283  23.674  1.00  0.00    -0.111 SA
HETATM    6  C4  UNL     1      -1.240   1.276  25.140  1.00  0.00     0.115 C 
HETATM    7  C5  UNL     1      -0.568   0.699  26.338  1.00  0.00    -0.061 C 
HETATM    8  C6  UNL     1       0.258  -0.330  26.291  1.00  0.00    -0.025 C 
HETATM    9  C7  UNL     1       0.708  -0.651  27.657  1.00  0.00    -0.049 C 
HETATM   10  C14 UNL     1       0.546   0.624  28.402  1.00  0.00     0.043 C 
HETATM   11  C15 UNL     1      -0.695   1.177  27.722  1.00  0.00     0.040 C 
ENDROOT
BRANCH   4  12
HETATM   12  N2  UNL     1       2.089  -0.069  23.375  1.00  0.00    -0.396 N 
ATOM     13  H22 UNL     1       2.782  -0.796  23.553  1.00  0.00     0.156 HD
ATOM     14  H21 UNL     1       2.367   0.604  22.659  1.00  0.00     0.156 HD
ENDBRANCH   4  12
BRANCH   9  15
HETATM   15  C8  UNL     1       1.124  -1.793  28.164  1.00  0.00     0.020 C 
BRANCH  15  16
HETATM   16  C9  UNL     1       1.993  -1.820  29.322  1.00  0.00    -0.017 A 
HETATM   17  C10 UNL     1       3.338  -1.512  29.289  1.00  0.00     0.101 A 
HETATM   18  N3  UNL     1       4.056  -1.526  30.425  1.00  0.00    -0.349 N 
HETATM   19  C11 UNL     1       3.520  -1.833  31.629  1.00  0.00     0.138 A 
ATOM     20  H3  UNL     1       5.049  -1.296  30.378  1.00  0.00     0.167 HD
HETATM   21  N4  UNL     1       4.263  -1.825  32.693  1.00  0.00    -0.383 N 
HETATM   22  C12 UNL     1       2.196  -2.144  31.701  1.00  0.00     0.160 A 
ATOM     23  H42 UNL     1       5.254  -1.593  32.639  1.00  0.00     0.157 HD
ATOM     24  H41 UNL     1       3.859  -2.057  33.600  1.00  0.00     0.157 HD
HETATM   25  F1  UNL     1       1.659  -2.452  32.913  1.00  0.00    -0.202 F 
HETATM   26  C13 UNL     1       1.440  -2.136  30.549  1.00  0.00     0.059 A 
ENDBRANCH  15  16
ENDBRANCH   9  15
TORSDOF 3
ENDMDL
MODEL 5
REMARK VINA RESULT: -7.135205650      3.811      4.436
REMARK  3 active torsions:
REMARK  status: ('A' for Active; 'I' for Inactive)
REMARK    1  A    between atoms: C3_4  and  N2_5 
REMARK    2  A    between atoms: C7_12  and  C8_13 
REMARK    3  A    between atoms: C8_13  and  C9_14 
ROOT
HETATM    1  N1  UNL     1       2.422   1.609  23.930  1.00  0.00    -0.196 NA
HETATM    2  C1  UNL     1       1.301   1.387  23.830  1.00  0.00     0.075 C 
HETATM    3  C2  UNL     1      -0.126   1.099  23.697  1.00  0.00     0.182 C 
HETATM    4  C3  UNL     1      -0.560   1.468  22.321  1.00  0.00     0.062 C 
HETATM    5  S1  UNL     1       0.131   0.432  21.036  1.00  0.00    -0.111 SA
HETATM    6  C4  UNL     1       0.641  -1.062  21.889  1.00  0.00     0.115 C 
HETATM    7  C5  UNL     1      -0.087  -1.293  23.168  1.00  0.00    -0.061 C 
HETATM    8  C6  UNL     1      -0.438  -0.327  23.996  1.00  0.00    -0.025 C 
HETATM    9  C7  UNL     1      -1.109  -0.916  25.169  1.00  0.00    -0.049 C 
HETATM   10  C14 UNL     1      -1.633  -2.214  24.674  1.00  0.00     0.043 C 
HETATM   11  C15 UNL     1      -0.537  -2.591  23.692  1.00  0.00     0.040 C 
ENDROOT
BRANCH   4  12
HETATM   12  N2  UNL     1      -1.338   2.409  22.090  1.00  0.00    -0.396 N 
ATOM     13  H22 UNL     1      -1.818   2.929  22.825  1.00  0.00     0.156 HD
ATOM     14  H21 UNL     1      -1.550   2.732  21.146  1.00  0.00     0.156 HD
ENDBRANCH   4  12
BRANCH   9  15
HETATM   15  C8  UNL     1      -1.211  -0.462  26.401  1.00  0.00     0.020 C 
BRANCH  15  16
HETATM   16  C9  UNL     1      -0.134  -0.644  27.352  1.00  0.00    -0.017 A 
HETATM   17  C10 UNL     1       0.770   0.340  27.697  1.00  0.00     0.101 A 
HETATM   18  N3  UNL     1       1.713   0.089  28.622  1.00  0.00    -0.349 N 
HETATM   19  C11 UNL     1       1.827  -1.104  29.249  1.00  0.00     0.138 A 
ATOM     20  H3  UNL     1       2.372   0.830  28.862  1.00  0.00     0.167 HD
HETATM   21  N4  UNL     1       2.755  -1.286  30.138  1.00  0.00    -0.383 N 
HETATM   22  C12 UNL     1       0.953  -2.100  28.934  1.00  0.00     0.160 A 
ATOM     23  H42 UNL     1       3.409  -0.540  30.373  1.00  0.00     0.157 HD
ATOM     24  H41 UNL     1       2.841  -2.185  30.610  1.00  0.00     0.157 HD
HETATM   25  F1  UNL     1       1.069  -3.300  29.567  1.00  0.00    -0.202 F 
HETATM   26  C13 UNL     1      -0.022  -1.866  27.989  1.00  0.00     0.059 A 
ENDBRANCH  15  16
ENDBRANCH   9  15
TORSDOF 3
ENDMDL
