MODEL 1
REMARK VINA RESULT: -6.730765142      0.000      0.000
REMARK  2 active torsions:
REMARK  status: ('A' for Active; 'I' for Inactive)
REMARK    1  A    between atoms: S1_3  and  C4_6 
REMARK    2  A    between atoms: C5_9  and  N2_10 
REMARK       I    between atoms: N2_10  and  C6_12 
ROOT
HETATM    1  C1  UNL     1       1.917  -0.681  28.662  1.00  0.00     0.111 C 
HETATM    2  C2  UNL     1       0.920   0.036  28.314  1.00  0.00    -0.102 C 
HETATM    3  S1  UNL     1      -0.412   0.900  28.072  1.00  0.00    -0.001 SA
HETATM    4  C3  UNL     1      -1.608   0.293  29.075  1.00  0.00     0.122 C 
HETATM    5  F1  UNL     1      -0.008   2.412  28.391  1.00  0.00    -0.171 F 
ENDROOT
BRANCH   3   6
HETATM    6  C4  UNL     1      -0.355   0.429  26.533  1.00  0.00     0.119 A 
HETATM    7  N1  UNL     1       0.089   1.342  25.699  1.00  0.00    -0.333 N 
HETATM    8  C5  UNL     1       0.127   0.985  24.407  1.00  0.00     0.131 A 
ATOM      9  H1  UNL     1       0.387   2.265  26.015  1.00  0.00     0.168 HD
HETATM   10  C7  UNL     1      -0.305  -0.299  24.049  1.00  0.00     0.101 A 
HETATM   11  C8  UNL     1      -0.264  -0.687  22.667  1.00  0.00     0.104 C 
HETATM   12  C9  UNL     1      -0.783  -1.241  24.994  1.00  0.00     0.026 A 
HETATM   13  N4  UNL     1      -0.232  -0.980  21.547  1.00  0.00    -0.191 NA
HETATM   14  C10 UNL     1      -1.298  -2.499  24.763  1.00  0.00     0.083 A 
HETATM   15  C11 UNL     1      -0.803  -0.842  26.300  1.00  0.00     0.086 A 
HETATM   16  S2  UNL     1      -1.765  -3.025  26.310  1.00  0.00    -0.025 SA
HETATM   17  N5  UNL     1      -1.319  -1.699  27.208  1.00  0.00    -0.323 N 
ATOM     18  H5  UNL     1      -1.412  -1.563  28.215  1.00  0.00     0.174 HD
BRANCH   8  19
HETATM   19  N2  UNL     1       0.582   1.863  23.399  1.00  0.00    -0.296 N 
HETATM   20  C6  UNL     1      -0.112   2.635  22.490  1.00  0.00     0.334 C 
HETATM   21  N3  UNL     1      -1.501   2.728  22.365  1.00  0.00    -0.040 NA
HETATM   22  O1  UNL     1       0.548   3.360  21.654  1.00  0.00    -0.251 OA
ATOM     23  H2  UNL     1       1.597   1.939  23.331  1.00  0.00     0.171 HD
ENDBRANCH   8  19
ENDBRANCH   3   6
TORSDOF 2
ENDMDL
MODEL 2
REMARK VINA RESULT: -6.725635070      2.509      3.993
REMARK  2 active torsions:
REMARK  status: ('A' for Active; 'I' for Inactive)
REMARK    1  A    between atoms: S1_3  and  C4_6 
REMARK    2  A    between atoms: C5_9  and  N2_10 
REMARK       I    between atoms: N2_10  and  C6_12 
ROOT
HETATM    1  C1  UNL     1      -1.917   0.663  28.669  1.00  0.00     0.111 C 
HETATM    2  C2  UNL     1      -0.914  -0.047  28.322  1.00  0.00    -0.102 C 
HETATM    3  S1  UNL     1       0.424  -0.901  28.080  1.00  0.00    -0.001 SA
HETATM    4  C3  UNL     1       1.614  -0.287  29.085  1.00  0.00     0.122 C 
HETATM    5  F1  UNL     1       0.030  -2.417  28.397  1.00  0.00    -0.171 F 
ENDROOT
BRANCH   3   6
HETATM    6  C4  UNL     1       0.365  -0.429  26.542  1.00  0.00     0.119 A 
HETATM    7  N1  UNL     1      -0.082  -1.340  25.707  1.00  0.00    -0.333 N 
HETATM    8  C5  UNL     1      -0.121  -0.982  24.416  1.00  0.00     0.131 A 
ATOM      9  H1  UNL     1      -0.380  -2.263  26.023  1.00  0.00     0.168 HD
HETATM   10  C7  UNL     1       0.312   0.302  24.058  1.00  0.00     0.101 A 
HETATM   11  C8  UNL     1       0.270   0.691  22.676  1.00  0.00     0.104 C 
HETATM   12  C9  UNL     1       0.793   1.243  25.004  1.00  0.00     0.026 A 
HETATM   13  N4  UNL     1       0.236   0.985  21.557  1.00  0.00    -0.191 NA
HETATM   14  C10 UNL     1       1.310   2.500  24.773  1.00  0.00     0.083 A 
HETATM   15  C11 UNL     1       0.815   0.842  26.309  1.00  0.00     0.086 A 
HETATM   16  S2  UNL     1       1.780   3.024  26.319  1.00  0.00    -0.025 SA
HETATM   17  N5  UNL     1       1.333   1.698  27.217  1.00  0.00    -0.323 N 
ATOM     18  H5  UNL     1       1.427   1.561  28.224  1.00  0.00     0.174 HD
BRANCH   8  19
HETATM   19  N2  UNL     1      -0.579  -1.858  23.408  1.00  0.00    -0.296 N 
HETATM   20  C6  UNL     1       0.113  -2.630  22.496  1.00  0.00     0.334 C 
HETATM   21  N3  UNL     1       1.502  -2.724  22.369  1.00  0.00    -0.040 NA
HETATM   22  O1  UNL     1      -0.550  -3.353  21.661  1.00  0.00    -0.251 OA
ATOM     23  H2  UNL     1      -1.594  -1.934  23.341  1.00  0.00     0.171 HD
ENDBRANCH   8  19
ENDBRANCH   3   6
TORSDOF 2
ENDMDL
MODEL 3
REMARK VINA RESULT: -6.610594007      4.203      6.321
REMARK  2 active torsions:
REMARK  status: ('A' for Active; 'I' for Inactive)
REMARK    1  A    between atoms: S1_3  and  C4_6 
REMARK    2  A    between atoms: C5_9  and  N2_10 
REMARK       I    between atoms: N2_10  and  C6_12 
ROOT
HETATM    1  C1  UNL     1      -1.081   2.045  32.301  1.00  0.00     0.111 C 
HETATM    2  C2  UNL     1      -1.359   1.932  31.060  1.00  0.00    -0.102 C 
HETATM    3  S1  UNL     1      -1.910   1.826  29.555  1.00  0.00    -0.001 SA
HETATM    4  C3  UNL     1      -3.514   1.350  29.627  1.00  0.00     0.122 C 
HETATM    5  F1  UNL     1      -1.695   3.274  28.915  1.00  0.00    -0.171 F 
ENDROOT
BRANCH   3   6
HETATM    6  C4  UNL     1      -0.768   0.723  29.287  1.00  0.00     0.119 A 
HETATM    7  N1  UNL     1      -0.210   0.240  30.374  1.00  0.00    -0.333 N 
HETATM    8  C5  UNL     1       0.760  -0.665  30.181  1.00  0.00     0.131 A 
ATOM      9  H1  UNL     1      -0.498   0.535  31.307  1.00  0.00     0.168 HD
HETATM   10  C7  UNL     1       1.104  -1.016  28.869  1.00  0.00     0.101 A 
HETATM   11  C8  UNL     1       2.142  -1.986  28.657  1.00  0.00     0.104 C 
HETATM   12  C9  UNL     1       0.472  -0.453  27.731  1.00  0.00     0.026 A 
HETATM   13  N4  UNL     1       2.984  -2.765  28.504  1.00  0.00    -0.191 NA
HETATM   14  C10 UNL     1       0.765  -0.659  26.400  1.00  0.00     0.083 A 
HETATM   15  C11 UNL     1      -0.513   0.462  27.969  1.00  0.00     0.086 A 
HETATM   16  S2  UNL     1      -0.298   0.392  25.594  1.00  0.00    -0.025 SA
HETATM   17  N5  UNL     1      -1.082   1.060  26.900  1.00  0.00    -0.323 N 
ATOM     18  H5  UNL     1      -1.823   1.762  26.895  1.00  0.00     0.174 HD
BRANCH   8  19
HETATM   19  N2  UNL     1       1.447  -1.270  31.256  1.00  0.00    -0.296 N 
HETATM   20  C6  UNL     1       1.048  -1.538  32.549  1.00  0.00     0.334 C 
HETATM   21  N3  UNL     1      -0.202  -1.260  33.110  1.00  0.00    -0.040 NA
HETATM   22  O1  UNL     1       1.880  -2.104  33.355  1.00  0.00    -0.251 OA
ATOM     23  H2  UNL     1       2.402  -1.557  31.040  1.00  0.00     0.171 HD
ENDBRANCH   8  19
ENDBRANCH   3   6
TORSDOF 2
ENDMDL
MODEL 4
REMARK VINA RESULT: -6.607801086      4.343      6.319
REMARK  2 active torsions:
REMARK  status: ('A' for Active; 'I' for Inactive)
REMARK    1  A    between atoms: S1_3  and  C4_6 
REMARK    2  A    between atoms: C5_9  and  N2_10 
REMARK       I    between atoms: N2_10  and  C6_12 
ROOT
HETATM    1  C1  UNL     1       1.072  -2.087  32.294  1.00  0.00     0.111 C 
HETATM    2  C2  UNL     1       1.371  -1.950  31.060  1.00  0.00    -0.102 C 
HETATM    3  S1  UNL     1       1.948  -1.812  29.568  1.00  0.00    -0.001 SA
HETATM    4  C3  UNL     1       3.543  -1.310  29.678  1.00  0.00     0.122 C 
HETATM    5  F1  UNL     1       1.770  -3.253  28.902  1.00  0.00    -0.171 F 
ENDROOT
BRANCH   3   6
HETATM    6  C4  UNL     1       0.794  -0.723  29.295  1.00  0.00     0.119 A 
HETATM    7  N1  UNL     1       0.226  -0.246  30.380  1.00  0.00    -0.333 N 
HETATM    8  C5  UNL     1      -0.755   0.646  30.183  1.00  0.00     0.131 A 
ATOM      9  H1  UNL     1       0.514  -0.536  31.314  1.00  0.00     0.168 HD
HETATM   10  C7  UNL     1      -1.099   0.991  28.869  1.00  0.00     0.101 A 
HETATM   11  C8  UNL     1      -2.148   1.949  28.653  1.00  0.00     0.104 C 
HETATM   12  C9  UNL     1      -0.456   0.436  27.735  1.00  0.00     0.026 A 
HETATM   13  N4  UNL     1      -3.000   2.716  28.497  1.00  0.00    -0.191 NA
HETATM   14  C10 UNL     1      -0.748   0.637  26.402  1.00  0.00     0.083 A 
HETATM   15  C11 UNL     1       0.539  -0.467  27.976  1.00  0.00     0.086 A 
HETATM   16  S2  UNL     1       0.331  -0.401  25.600  1.00  0.00    -0.025 SA
HETATM   17  N5  UNL     1       1.119  -1.058  26.909  1.00  0.00    -0.323 N 
ATOM     18  H5  UNL     1       1.869  -1.751  26.907  1.00  0.00     0.174 HD
BRANCH   8  19
HETATM   19  N2  UNL     1      -1.453   1.243  31.256  1.00  0.00    -0.296 N 
HETATM   20  C6  UNL     1      -1.056   1.533  32.545  1.00  0.00     0.334 C 
HETATM   21  N3  UNL     1       0.202   1.290  33.104  1.00  0.00    -0.040 NA
HETATM   22  O1  UNL     1      -1.899   2.085  33.349  1.00  0.00    -0.251 OA
ATOM     23  H2  UNL     1      -2.415   1.505  31.041  1.00  0.00     0.171 HD
ENDBRANCH   8  19
ENDBRANCH   3   6
TORSDOF 2
ENDMDL
MODEL 5
REMARK VINA RESULT: -6.430941672      4.918      7.460
REMARK  2 active torsions:
REMARK  status: ('A' for Active; 'I' for Inactive)
REMARK    1  A    between atoms: S1_3  and  C4_6 
REMARK    2  A    between atoms: C5_9  and  N2_10 
REMARK       I    between atoms: N2_10  and  C6_12 
ROOT
HETATM    1  C1  UNL     1      -0.947  -1.753  27.416  1.00  0.00     0.111 C 
HETATM    2  C2  UNL     1      -0.798  -0.548  27.809  1.00  0.00    -0.102 C 
HETATM    3  S1  UNL     1      -0.523   1.005  28.114  1.00  0.00    -0.001 SA
HETATM    4  C3  UNL     1       0.786   1.486  27.186  1.00  0.00     0.122 C 
HETATM    5  F1  UNL     1      -1.882   1.762  27.755  1.00  0.00    -0.171 F 
ENDROOT
BRANCH   3   6
HETATM    6  C4  UNL     1      -0.292   0.591  29.653  1.00  0.00     0.119 A 
HETATM    7  N1  UNL     1       0.693  -0.257  29.849  1.00  0.00    -0.333 N 
HETATM    8  C5  UNL     1       0.894  -0.637  31.118  1.00  0.00     0.131 A 
ATOM      9  H1  UNL     1       1.268  -0.605  29.082  1.00  0.00     0.168 HD
HETATM   10  C7  UNL     1       0.058  -0.121  32.118  1.00  0.00     0.101 A 
HETATM   11  C8  UNL     1       0.271  -0.524  33.480  1.00  0.00     0.104 C 
HETATM   12  C9  UNL     1      -0.997   0.787  31.845  1.00  0.00     0.026 A 
HETATM   13  N4  UNL     1       0.452  -0.864  34.572  1.00  0.00    -0.191 NA
HETATM   14  C10 UNL     1      -1.926   1.306  32.722  1.00  0.00     0.083 A 
HETATM   15  C11 UNL     1      -1.168   1.152  30.541  1.00  0.00     0.086 A 
HETATM   16  S2  UNL     1      -2.942   2.228  31.719  1.00  0.00    -0.025 SA
HETATM   17  N5  UNL     1      -2.209   1.962  30.250  1.00  0.00    -0.323 N 
ATOM     18  H5  UNL     1      -2.483   2.328  29.338  1.00  0.00     0.174 HD
BRANCH   8  19
HETATM   19  N2  UNL     1       1.916  -1.542  31.478  1.00  0.00    -0.296 N 
HETATM   20  C6  UNL     1       3.140  -1.804  30.896  1.00  0.00     0.334 C 
HETATM   21  N3  UNL     1       3.670  -1.188  29.759  1.00  0.00    -0.040 NA
HETATM   22  O1  UNL     1       3.903  -2.698  31.424  1.00  0.00    -0.251 OA
ATOM     23  H2  UNL     1       1.716  -2.098  32.310  1.00  0.00     0.171 HD
ENDBRANCH   8  19
ENDBRANCH   3   6
TORSDOF 2
ENDMDL
