MODEL 1
REMARK VINA RESULT: -6.197778641      0.000      0.000
REMARK  3 active torsions:
REMARK  status: ('A' for Active; 'I' for Inactive)
REMARK    1  A    between atoms: S1_2  and  C2_3 
REMARK    2  A    between atoms: C3_6  and  N2_7 
REMARK    3  A    between atoms: N4_18  and  O1_20 
ROOT
HETATM    1  C2  UNL     1      -0.341   0.511  29.690  1.00  0.00     0.146 A 
HETATM    2  N1  UNL     1       0.210   1.500  29.012  1.00  0.00    -0.323 N 
ATOM      3  H1  UNL     1       0.516   2.311  29.549  1.00  0.00     0.169 HD
HETATM    4  C3  UNL     1       0.406   1.543  27.693  1.00  0.00     0.114 A 
HETATM    5  C4  UNL     1       0.002   0.449  26.899  1.00  0.00     0.049 A 
HETATM    6  C5  UNL     1       0.121   0.309  25.558  1.00  0.00    -0.022 A 
HETATM    7  C6  UNL     1      -0.367  -0.904  25.042  1.00  0.00     0.038 A 
HETATM    8  S2  UNL     1      -0.940  -1.740  26.404  1.00  0.00    -0.069 SA
HETATM    9  C7  UNL     1      -0.570  -0.580  27.600  1.00  0.00     0.091 A 
HETATM   10  N3  UNL     1      -0.738  -0.552  28.960  1.00  0.00    -0.330 N 
ATOM     11  H3  UNL     1      -1.171  -1.348  29.429  1.00  0.00     0.168 HD
HETATM   12  C8  UNL     1      -0.371  -1.365  23.637  1.00  0.00     0.049 C 
HETATM   13  N4  UNL     1      -1.096  -2.378  23.431  1.00  0.00    -0.272 N 
ATOM     14  H4  UNL     1      -1.164  -2.772  22.492  1.00  0.00     0.194 HD
HETATM   15  C9  UNL     1       0.393  -0.751  22.487  1.00  0.00     0.060 C 
HETATM   16  C10 UNL     1       1.766  -0.441  23.041  1.00  0.00     0.006 C 
HETATM   17  C11 UNL     1       1.895   0.764  23.866  1.00  0.00     0.005 C 
HETATM   18  C12 UNL     1       0.697   1.299  24.567  1.00  0.00     0.041 C 
ENDROOT
BRANCH  13  19
HETATM   19  O1  UNL     1      -1.789  -2.949  24.462  1.00  0.00    -0.290 OA
ATOM     20  H1  UNL     1      -1.979  -3.879  24.452  1.00  0.00     0.244 HD
ENDBRANCH  13  19
BRANCH   4  21
HETATM   21  N2  UNL     1       0.965   2.569  27.176  1.00  0.00    -0.385 N 
ATOM     22  H22 UNL     1       1.714   3.065  27.659  1.00  0.00     0.157 HD
ATOM     23  H21 UNL     1       0.652   2.903  26.264  1.00  0.00     0.157 HD
ENDBRANCH   4  21
BRANCH   1  24
HETATM   24  S1  UNL     1      -0.574   0.513  31.437  1.00  0.00    -0.098 SA
HETATM   25  C1  UNL     1       0.524  -0.660  32.249  1.00  0.00     0.099 C 
ENDBRANCH   1  24
TORSDOF 3
ENDMDL
MODEL 2
REMARK VINA RESULT: -6.134036018      2.430      3.309
REMARK  3 active torsions:
REMARK  status: ('A' for Active; 'I' for Inactive)
REMARK    1  A    between atoms: S1_2  and  C2_3 
REMARK    2  A    between atoms: C3_6  and  N2_7 
REMARK    3  A    between atoms: N4_18  and  O1_20 
ROOT
HETATM    1  C2  UNL     1       0.364  -0.554  29.809  1.00  0.00     0.146 A 
HETATM    2  N1  UNL     1      -0.143  -1.554  29.113  1.00  0.00    -0.323 N 
ATOM      3  H1  UNL     1      -0.428  -2.381  29.638  1.00  0.00     0.169 HD
HETATM    4  C3  UNL     1      -0.319  -1.591  27.791  1.00  0.00     0.114 A 
HETATM    5  C4  UNL     1       0.059  -0.476  27.014  1.00  0.00     0.049 A 
HETATM    6  C5  UNL     1      -0.046  -0.326  25.673  1.00  0.00    -0.022 A 
HETATM    7  C6  UNL     1       0.408   0.909  25.175  1.00  0.00     0.038 A 
HETATM    8  S2  UNL     1       0.932   1.749  26.554  1.00  0.00    -0.069 SA
HETATM    9  C7  UNL     1       0.585   0.566  27.733  1.00  0.00     0.091 A 
HETATM   10  N3  UNL     1       0.734   0.530  29.095  1.00  0.00    -0.330 N 
ATOM     11  H3  UNL     1       1.133   1.335  29.578  1.00  0.00     0.168 HD
HETATM   12  C8  UNL     1       0.416   1.383  23.775  1.00  0.00     0.049 C 
HETATM   13  N4  UNL     1       1.108   2.423  23.590  1.00  0.00    -0.272 N 
ATOM     14  H4  UNL     1       1.176   2.828  22.656  1.00  0.00     0.194 HD
HETATM   15  C9  UNL     1      -0.310   0.755  22.609  1.00  0.00     0.060 C 
HETATM   16  C10 UNL     1      -1.679   0.392  23.139  1.00  0.00     0.006 C 
HETATM   17  C11 UNL     1      -1.778  -0.825  23.950  1.00  0.00     0.005 C 
HETATM   18  C12 UNL     1      -0.573  -1.326  24.664  1.00  0.00     0.041 C 
ENDROOT
BRANCH  13  19
HETATM   19  O1  UNL     1       1.766   3.006  24.636  1.00  0.00    -0.290 OA
ATOM     20  H1  UNL     1       1.765   3.951  24.733  1.00  0.00     0.244 HD
ENDBRANCH  13  19
BRANCH   4  21
HETATM   21  N2  UNL     1      -0.834  -2.630  27.256  1.00  0.00    -0.385 N 
ATOM     22  H22 UNL     1      -1.380  -2.568  26.396  1.00  0.00     0.157 HD
ATOM     23  H21 UNL     1      -0.705  -3.538  27.700  1.00  0.00     0.157 HD
ENDBRANCH   4  21
BRANCH   1  24
HETATM   24  S1  UNL     1       0.571  -0.565  31.560  1.00  0.00    -0.098 SA
HETATM   25  C1  UNL     1       1.427  -2.049  32.112  1.00  0.00     0.099 C 
ENDBRANCH   1  24
TORSDOF 3
ENDMDL
MODEL 3
REMARK VINA RESULT: -5.942503710      4.902      6.947
REMARK  3 active torsions:
REMARK  status: ('A' for Active; 'I' for Inactive)
REMARK    1  A    between atoms: S1_2  and  C2_3 
REMARK    2  A    between atoms: C3_6  and  N2_7 
REMARK    3  A    between atoms: N4_18  and  O1_20 
ROOT
HETATM    1  C2  UNL     1      -3.764   3.351  34.605  1.00  0.00     0.146 A 
HETATM    2  N1  UNL     1      -4.530   3.326  33.531  1.00  0.00    -0.323 N 
ATOM      3  H1  UNL     1      -5.444   3.773  33.607  1.00  0.00     0.169 HD
HETATM    4  C3  UNL     1      -4.228   2.774  32.355  1.00  0.00     0.114 A 
HETATM    5  C4  UNL     1      -2.978   2.140  32.191  1.00  0.00     0.049 A 
HETATM    6  C5  UNL     1      -2.495   1.534  31.082  1.00  0.00    -0.022 A 
HETATM    7  C6  UNL     1      -1.203   0.994  31.215  1.00  0.00     0.038 A 
HETATM    8  S2  UNL     1      -0.762   1.351  32.815  1.00  0.00    -0.069 SA
HETATM    9  C7  UNL     1      -2.179   2.165  33.304  1.00  0.00     0.091 A 
HETATM   10  N3  UNL     1      -2.560   2.754  34.482  1.00  0.00    -0.330 N 
ATOM     11  H3  UNL     1      -1.924   2.742  35.278  1.00  0.00     0.168 HD
HETATM   12  C8  UNL     1      -0.398   0.289  30.195  1.00  0.00     0.049 C 
HETATM   13  N4  UNL     1       0.615  -0.305  30.661  1.00  0.00    -0.272 N 
ATOM     14  H4  UNL     1       1.235  -0.820  30.036  1.00  0.00     0.194 HD
HETATM   15  C9  UNL     1      -0.674   0.233  28.711  1.00  0.00     0.060 C 
HETATM   16  C10 UNL     1      -1.079   1.639  28.327  1.00  0.00     0.006 C 
HETATM   17  C11 UNL     1      -2.452   2.046  28.642  1.00  0.00     0.005 C 
HETATM   18  C12 UNL     1      -3.181   1.361  29.742  1.00  0.00     0.041 C 
ENDROOT
BRANCH  13  19
HETATM   19  O1  UNL     1       0.883  -0.258  32.001  1.00  0.00    -0.290 OA
ATOM     20  H1  UNL     1       0.368  -0.775  32.609  1.00  0.00     0.244 HD
ENDBRANCH  13  19
BRANCH   4  21
HETATM   21  N2  UNL     1      -5.071   2.838  31.397  1.00  0.00    -0.385 N 
ATOM     22  H22 UNL     1      -5.589   2.014  31.090  1.00  0.00     0.157 HD
ATOM     23  H21 UNL     1      -5.223   3.728  30.923  1.00  0.00     0.157 HD
ENDBRANCH   4  21
BRANCH   1  24
HETATM   24  S1  UNL     1      -4.221   4.099  36.135  1.00  0.00    -0.098 SA
HETATM   25  C1  UNL     1      -3.938   5.876  36.110  1.00  0.00     0.099 C 
ENDBRANCH   1  24
TORSDOF 3
ENDMDL
MODEL 4
REMARK VINA RESULT: -5.916351898      4.801      6.938
REMARK  3 active torsions:
REMARK  status: ('A' for Active; 'I' for Inactive)
REMARK    1  A    between atoms: S1_2  and  C2_3 
REMARK    2  A    between atoms: C3_6  and  N2_7 
REMARK    3  A    between atoms: N4_18  and  O1_20 
ROOT
HETATM    1  C2  UNL     1       3.626  -3.304  34.667  1.00  0.00     0.146 A 
HETATM    2  N1  UNL     1       4.428  -3.301  33.619  1.00  0.00    -0.323 N 
ATOM      3  H1  UNL     1       5.336  -3.753  33.733  1.00  0.00     0.169 HD
HETATM    4  C3  UNL     1       4.170  -2.764  32.425  1.00  0.00     0.114 A 
HETATM    5  C4  UNL     1       2.931  -2.124  32.210  1.00  0.00     0.049 A 
HETATM    6  C5  UNL     1       2.491  -1.531  31.076  1.00  0.00    -0.022 A 
HETATM    7  C6  UNL     1       1.199  -0.980  31.157  1.00  0.00     0.038 A 
HETATM    8  S2  UNL     1       0.701  -1.309  32.746  1.00  0.00    -0.069 SA
HETATM    9  C7  UNL     1       2.095  -2.126  33.295  1.00  0.00     0.091 A 
HETATM   10  N3  UNL     1       2.432  -2.700  34.494  1.00  0.00    -0.330 N 
ATOM     11  H3  UNL     1       1.769  -2.671  35.268  1.00  0.00     0.168 HD
HETATM   12  C8  UNL     1       0.434  -0.285  30.100  1.00  0.00     0.049 C 
HETATM   13  N4  UNL     1      -0.589   0.323  30.523  1.00  0.00    -0.272 N 
ATOM     14  H4  UNL     1      -1.184   0.833  29.869  1.00  0.00     0.194 HD
HETATM   15  C9  UNL     1       0.761  -0.253  28.626  1.00  0.00     0.060 C 
HETATM   16  C10 UNL     1       1.168  -1.668  28.276  1.00  0.00     0.006 C 
HETATM   17  C11 UNL     1       2.526  -2.080  28.644  1.00  0.00     0.005 C 
HETATM   18  C12 UNL     1       3.223  -1.383  29.758  1.00  0.00     0.041 C 
ENDROOT
BRANCH  13  19
HETATM   19  O1  UNL     1      -0.902   0.299  31.853  1.00  0.00    -0.290 OA
ATOM     20  H1  UNL     1      -1.191   1.091  32.290  1.00  0.00     0.244 HD
ENDBRANCH  13  19
BRANCH   4  21
HETATM   21  N2  UNL     1       5.044  -2.849  31.497  1.00  0.00    -0.385 N 
ATOM     22  H22 UNL     1       6.008  -3.116  31.699  1.00  0.00     0.157 HD
ATOM     23  H21 UNL     1       4.776  -2.638  30.536  1.00  0.00     0.157 HD
ENDBRANCH   4  21
BRANCH   1  24
HETATM   24  S1  UNL     1       4.026  -4.031  36.222  1.00  0.00    -0.098 SA
HETATM   25  C1  UNL     1       3.917  -5.827  36.157  1.00  0.00     0.099 C 
ENDBRANCH   1  24
TORSDOF 3
ENDMDL
MODEL 5
REMARK VINA RESULT: -5.825485470      4.411      6.474
REMARK  3 active torsions:
REMARK  status: ('A' for Active; 'I' for Inactive)
REMARK    1  A    between atoms: S1_2  and  C2_3 
REMARK    2  A    between atoms: C3_6  and  N2_7 
REMARK    3  A    between atoms: N4_18  and  O1_20 
ROOT
HETATM    1  C2  UNL     1      -1.744   1.044  29.551  1.00  0.00     0.146 A 
HETATM    2  N1  UNL     1      -1.002   0.525  28.591  1.00  0.00    -0.323 N 
ATOM      3  H1  UNL     1      -1.298   0.706  27.632  1.00  0.00     0.169 HD
HETATM    4  C3  UNL     1       0.098  -0.213  28.751  1.00  0.00     0.114 A 
HETATM    5  C4  UNL     1       0.554  -0.497  30.056  1.00  0.00     0.049 A 
HETATM    6  C5  UNL     1       1.642  -1.218  30.415  1.00  0.00    -0.022 A 
HETATM    7  C6  UNL     1       1.852  -1.325  31.801  1.00  0.00     0.038 A 
HETATM    8  S2  UNL     1       0.570  -0.450  32.489  1.00  0.00    -0.069 SA
HETATM    9  C7  UNL     1      -0.214   0.041  31.055  1.00  0.00     0.091 A 
HETATM   10  N3  UNL     1      -1.334   0.792  30.811  1.00  0.00    -0.330 N 
ATOM     11  H3  UNL     1      -1.868   1.167  31.596  1.00  0.00     0.168 HD
HETATM   12  C8  UNL     1       2.946  -2.024  32.509  1.00  0.00     0.049 C 
HETATM   13  N4  UNL     1       2.746  -2.169  33.747  1.00  0.00    -0.272 N 
ATOM     14  H4  UNL     1       3.444  -2.640  34.323  1.00  0.00     0.194 HD
HETATM   15  C9  UNL     1       4.224  -2.545  31.897  1.00  0.00     0.060 C 
HETATM   16  C10 UNL     1       4.685  -1.459  30.949  1.00  0.00     0.006 C 
HETATM   17  C11 UNL     1       4.010  -1.378  29.650  1.00  0.00     0.005 C 
HETATM   18  C12 UNL     1       2.632  -1.922  29.510  1.00  0.00     0.041 C 
ENDROOT
BRANCH  13  19
HETATM   19  O1  UNL     1       1.596  -1.698  34.318  1.00  0.00    -0.290 OA
ATOM     20  H1  UNL     1       1.163  -2.196  35.000  1.00  0.00     0.244 HD
ENDBRANCH  13  19
BRANCH   4  21
HETATM   21  N2  UNL     1       0.722  -0.640  27.722  1.00  0.00    -0.385 N 
ATOM     22  H22 UNL     1       0.929  -0.025  26.934  1.00  0.00     0.157 HD
ATOM     23  H21 UNL     1       1.012  -1.617  27.682  1.00  0.00     0.157 HD
ENDBRANCH   4  21
BRANCH   1  24
HETATM   24  S1  UNL     1      -3.190   2.014  29.275  1.00  0.00    -0.098 SA
HETATM   25  C1  UNL     1      -4.279   1.996  30.708  1.00  0.00     0.099 C 
ENDBRANCH   1  24
TORSDOF 3
ENDMDL
