MODEL 1
REMARK VINA RESULT: -7.517096352      0.000      0.000
REMARK  3 active torsions:
REMARK  status: ('A' for Active; 'I' for Inactive)
REMARK    1  A    between atoms: N1_1  and  C1_4 
REMARK    2  A    between atoms: C3_9  and  N3_10 
REMARK    3  A    between atoms: N3_10  and  C4_12 
ROOT
HETATM    1  C1  UNL     1      -2.135   1.729  31.458  1.00  0.00     0.139 A 
HETATM    2  N2  UNL     1      -0.918   1.222  31.182  1.00  0.00    -0.331 N 
ATOM      3  H2  UNL     1      -0.188   1.254  31.893  1.00  0.00     0.168 HD
HETATM    4  C2  UNL     1      -0.648   0.668  29.965  1.00  0.00     0.123 A 
HETATM    5  S1  UNL     1       0.723  -0.068  29.222  1.00  0.00    -0.033 SA
HETATM    6  C3  UNL     1       0.035  -0.424  27.702  1.00  0.00     0.148 A 
HETATM    7  N4  UNL     1      -1.195   0.033  27.838  1.00  0.00    -0.321 N 
ATOM      8  H4  UNL     1      -1.856  -0.046  27.065  1.00  0.00     0.169 HD
HETATM    9  C12 UNL     1      -1.567   0.582  28.955  1.00  0.00     0.143 A 
HETATM   10  N5  UNL     1      -2.815   1.100  29.236  1.00  0.00    -0.328 N 
ATOM     11  H5  UNL     1      -3.552   1.073  28.532  1.00  0.00     0.168 HD
HETATM   12  C13 UNL     1      -3.049   1.633  30.426  1.00  0.00     0.149 A 
HETATM   13 CL1  UNL     1      -4.653   2.293  30.768  1.00  0.00    -0.060 Cl
ENDROOT
BRANCH   6  14
HETATM   14  N3  UNL     1       0.594  -1.048  26.554  1.00  0.00    -0.366 N 
ATOM     15  H3  UNL     1       1.045  -1.960  26.642  1.00  0.00     0.162 HD
BRANCH  14  16
HETATM   16  C4  UNL     1       0.529  -0.399  25.266  1.00  0.00     0.083 C 
HETATM   17  C5  UNL     1       0.332   1.058  25.439  1.00  0.00     0.025 C 
HETATM   18  C6  UNL     1       1.310   1.833  24.543  1.00  0.00     0.002 C 
HETATM   19  C7  UNL     1       0.642   2.327  23.301  1.00  0.00     0.000 C 
HETATM   20  C8  UNL     1       0.175   1.093  22.516  1.00  0.00     0.000 C 
HETATM   21  C9  UNL     1      -1.244   0.813  22.814  1.00  0.00     0.000 C 
HETATM   22  C10 UNL     1      -1.549  -0.214  23.823  1.00  0.00     0.002 C 
HETATM   23  C11 UNL     1      -0.436  -1.063  24.321  1.00  0.00     0.025 C 
ENDBRANCH  14  16
ENDBRANCH   6  14
BRANCH   1  24
HETATM   24  N1  UNL     1      -2.388   2.246  32.591  1.00  0.00    -0.383 N 
ATOM     25  H12 UNL     1      -2.138   1.821  33.484  1.00  0.00     0.157 HD
ATOM     26  H11 UNL     1      -2.869   3.143  32.664  1.00  0.00     0.157 HD
ENDBRANCH   1  24
TORSDOF 3
ENDMDL
MODEL 2
REMARK VINA RESULT: -7.514371218      3.347      4.378
REMARK  3 active torsions:
REMARK  status: ('A' for Active; 'I' for Inactive)
REMARK    1  A    between atoms: N1_1  and  C1_4 
REMARK    2  A    between atoms: C3_9  and  N3_10 
REMARK    3  A    between atoms: N3_10  and  C4_12 
ROOT
HETATM    1  C1  UNL     1       2.118  -1.753  31.467  1.00  0.00     0.139 A 
HETATM    2  N2  UNL     1       0.907  -1.240  31.182  1.00  0.00    -0.331 N 
ATOM      3  H2  UNL     1       0.169  -1.272  31.885  1.00  0.00     0.168 HD
HETATM    4  C2  UNL     1       0.651  -0.679  29.965  1.00  0.00     0.123 A 
HETATM    5  S1  UNL     1      -0.710   0.066  29.212  1.00  0.00    -0.033 SA
HETATM    6  C3  UNL     1      -0.005   0.426  27.700  1.00  0.00     0.148 A 
HETATM    7  N4  UNL     1       1.222  -0.036  27.846  1.00  0.00    -0.321 N 
ATOM      8  H4  UNL     1       1.891   0.044  27.080  1.00  0.00     0.169 HD
HETATM    9  C12 UNL     1       1.581  -0.592  28.964  1.00  0.00     0.143 A 
HETATM   10  N5  UNL     1       2.823  -1.116  29.255  1.00  0.00    -0.328 N 
ATOM     11  H5  UNL     1       3.568  -1.089  28.559  1.00  0.00     0.168 HD
HETATM   12  C13 UNL     1       3.043  -1.656  30.445  1.00  0.00     0.149 A 
HETATM   13 CL1  UNL     1       4.641  -2.323  30.800  1.00  0.00    -0.060 Cl
ENDROOT
BRANCH   6  14
HETATM   14  N3  UNL     1      -0.550   1.058  26.550  1.00  0.00    -0.366 N 
ATOM     15  H3  UNL     1      -0.977   1.981  26.633  1.00  0.00     0.162 HD
BRANCH  14  16
HETATM   16  C4  UNL     1      -0.504   0.401  25.265  1.00  0.00     0.083 C 
HETATM   17  C5  UNL     1      -0.313  -1.056  25.445  1.00  0.00     0.025 C 
HETATM   18  C6  UNL     1      -1.306  -1.831  24.565  1.00  0.00     0.002 C 
HETATM   19  C7  UNL     1      -0.655  -2.336  23.318  1.00  0.00     0.000 C 
HETATM   20  C8  UNL     1      -0.189  -1.110  22.521  1.00  0.00     0.000 C 
HETATM   21  C9  UNL     1       1.235  -0.837  22.801  1.00  0.00     0.000 C 
HETATM   22  C10 UNL     1       1.557   0.195  23.800  1.00  0.00     0.002 C 
HETATM   23  C11 UNL     1       0.455   1.053  24.305  1.00  0.00     0.025 C 
ENDBRANCH  14  16
ENDBRANCH   6  14
BRANCH   1  24
HETATM   24  N1  UNL     1       2.358  -2.277  32.601  1.00  0.00    -0.383 N 
ATOM     25  H12 UNL     1       1.733  -2.929  33.074  1.00  0.00     0.157 HD
ATOM     26  H11 UNL     1       3.217  -2.063  33.107  1.00  0.00     0.157 HD
ENDBRANCH   1  24
TORSDOF 3
ENDMDL
MODEL 3
REMARK VINA RESULT: -7.300053670      3.316      4.062
REMARK  3 active torsions:
REMARK  status: ('A' for Active; 'I' for Inactive)
REMARK    1  A    between atoms: N1_1  and  C1_4 
REMARK    2  A    between atoms: C3_9  and  N3_10 
REMARK    3  A    between atoms: N3_10  and  C4_12 
ROOT
HETATM    1  C1  UNL     1       2.214  -1.653  31.625  1.00  0.00     0.139 A 
HETATM    2  N2  UNL     1       1.010  -1.122  31.338  1.00  0.00    -0.331 N 
ATOM      3  H2  UNL     1       0.297  -1.073  32.065  1.00  0.00     0.168 HD
HETATM    4  C2  UNL     1       0.731  -0.649  30.089  1.00  0.00     0.123 A 
HETATM    5  S1  UNL     1      -0.630   0.081  29.322  1.00  0.00    -0.033 SA
HETATM    6  C3  UNL     1       0.035   0.297  27.765  1.00  0.00     0.148 A 
HETATM    7  N4  UNL     1       1.250  -0.195  27.909  1.00  0.00    -0.321 N 
ATOM      8  H4  UNL     1       1.895  -0.198  27.118  1.00  0.00     0.169 HD
HETATM    9  C12 UNL     1       1.629  -0.674  29.056  1.00  0.00     0.143 A 
HETATM   10  N5  UNL     1       2.863  -1.216  29.348  1.00  0.00    -0.328 N 
ATOM     11  H5  UNL     1       3.584  -1.269  28.629  1.00  0.00     0.168 HD
HETATM   12  C13 UNL     1       3.106  -1.668  30.569  1.00  0.00     0.149 A 
HETATM   13 CL1  UNL     1       4.693  -2.361  30.926  1.00  0.00    -0.060 Cl
ENDROOT
BRANCH   6  14
HETATM   14  N3  UNL     1      -0.529   0.855  26.586  1.00  0.00    -0.366 N 
ATOM     15  H3  UNL     1      -1.232   1.591  26.660  1.00  0.00     0.162 HD
BRANCH  14  16
HETATM   16  C4  UNL     1      -0.112   0.387  25.285  1.00  0.00     0.083 C 
HETATM   17  C5  UNL     1      -0.805   1.150  24.223  1.00  0.00     0.025 C 
HETATM   18  C6  UNL     1       0.203   1.605  23.156  1.00  0.00     0.002 C 
HETATM   19  C7  UNL     1       0.161   0.722  21.951  1.00  0.00     0.000 C 
HETATM   20  C8  UNL     1       0.572  -0.685  22.406  1.00  0.00     0.000 C 
HETATM   21  C9  UNL     1      -0.629  -1.499  22.677  1.00  0.00     0.000 C 
HETATM   22  C10 UNL     1      -1.082  -1.620  24.073  1.00  0.00     0.002 C 
HETATM   23  C11 UNL     1      -0.190  -1.110  25.147  1.00  0.00     0.025 C 
ENDBRANCH  14  16
ENDBRANCH   6  14
BRANCH   1  24
HETATM   24  N1  UNL     1       2.475  -2.094  32.788  1.00  0.00    -0.383 N 
ATOM     25  H12 UNL     1       2.357  -1.555  33.646  1.00  0.00     0.157 HD
ATOM     26  H11 UNL     1       2.827  -3.042  32.924  1.00  0.00     0.157 HD
ENDBRANCH   1  24
TORSDOF 3
ENDMDL
MODEL 4
REMARK VINA RESULT: -7.269067029      0.678      1.651
REMARK  3 active torsions:
REMARK  status: ('A' for Active; 'I' for Inactive)
REMARK    1  A    between atoms: N1_1  and  C1_4 
REMARK    2  A    between atoms: C3_9  and  N3_10 
REMARK    3  A    between atoms: N3_10  and  C4_12 
ROOT
HETATM    1  C1  UNL     1      -2.191   1.664  31.539  1.00  0.00     0.139 A 
HETATM    2  N2  UNL     1      -0.993   1.142  31.217  1.00  0.00    -0.331 N 
ATOM      3  H2  UNL     1      -0.261   1.089  31.926  1.00  0.00     0.168 HD
HETATM    4  C2  UNL     1      -0.743   0.683  29.957  1.00  0.00     0.123 A 
HETATM    5  S1  UNL     1       0.603  -0.033  29.149  1.00  0.00    -0.033 SA
HETATM    6  C3  UNL     1      -0.099  -0.237  27.607  1.00  0.00     0.148 A 
HETATM    7  N4  UNL     1      -1.313   0.248  27.786  1.00  0.00    -0.321 N 
ATOM      8  H4  UNL     1      -1.976   0.256  27.011  1.00  0.00     0.169 HD
HETATM    9  C12 UNL     1      -1.665   0.714  28.946  1.00  0.00     0.143 A 
HETATM   10  N5  UNL     1      -2.894   1.247  29.275  1.00  0.00    -0.328 N 
ATOM     11  H5  UNL     1      -3.633   1.304  28.574  1.00  0.00     0.168 HD
HETATM   12  C13 UNL     1      -3.109   1.686  30.506  1.00  0.00     0.149 A 
HETATM   13 CL1  UNL     1      -4.690   2.367  30.909  1.00  0.00    -0.060 Cl
ENDROOT
BRANCH   6  14
HETATM   14  N3  UNL     1       0.438  -0.780  26.409  1.00  0.00    -0.366 N 
ATOM     15  H3  UNL     1       1.113  -1.544  26.457  1.00  0.00     0.162 HD
BRANCH  14  16
HETATM   16  C4  UNL     1       0.034  -0.257  25.125  1.00  0.00     0.083 C 
HETATM   17  C5  UNL     1       0.756  -0.958  24.040  1.00  0.00     0.025 C 
HETATM   18  C6  UNL     1      -0.227  -1.378  22.936  1.00  0.00     0.002 C 
HETATM   19  C7  UNL     1      -0.182  -0.440  21.775  1.00  0.00     0.000 C 
HETATM   20  C8  UNL     1      -0.624   0.938  22.288  1.00  0.00     0.000 C 
HETATM   21  C9  UNL     1       0.560   1.758  22.617  1.00  0.00     0.000 C 
HETATM   22  C10 UNL     1       0.988   1.819  24.024  1.00  0.00     0.002 C 
HETATM   23  C11 UNL     1       0.088   1.245  25.058  1.00  0.00     0.025 C 
ENDBRANCH  14  16
ENDBRANCH   6  14
BRANCH   1  24
HETATM   24  N1  UNL     1      -2.426   2.093  32.713  1.00  0.00    -0.383 N 
ATOM     25  H12 UNL     1      -1.735   2.554  33.303  1.00  0.00     0.157 HD
ATOM     26  H11 UNL     1      -3.349   1.992  33.134  1.00  0.00     0.157 HD
ENDBRANCH   1  24
TORSDOF 3
ENDMDL
MODEL 5
REMARK VINA RESULT: -7.190253435      3.168      3.916
REMARK  3 active torsions:
REMARK  status: ('A' for Active; 'I' for Inactive)
REMARK    1  A    between atoms: N1_1  and  C1_4 
REMARK    2  A    between atoms: C3_9  and  N3_10 
REMARK    3  A    between atoms: N3_10  and  C4_12 
ROOT
HETATM    1  C1  UNL     1       1.741  -1.416  31.379  1.00  0.00     0.139 A 
HETATM    2  N2  UNL     1       0.576  -0.833  31.041  1.00  0.00    -0.331 N 
ATOM      3  H2  UNL     1      -0.149  -0.711  31.748  1.00  0.00     0.168 HD
HETATM    4  C2  UNL     1       0.351  -0.401  29.766  1.00  0.00     0.123 A 
HETATM    5  S1  UNL     1      -0.950   0.369  28.937  1.00  0.00    -0.033 SA
HETATM    6  C3  UNL     1      -0.242   0.478  27.388  1.00  0.00     0.148 A 
HETATM    7  N4  UNL     1       0.940  -0.074  27.581  1.00  0.00    -0.321 N 
ATOM      8  H4  UNL     1       1.599  -0.149  26.807  1.00  0.00     0.169 HD
HETATM    9  C12 UNL     1       1.267  -0.522  28.756  1.00  0.00     0.143 A 
HETATM   10  N5  UNL     1       2.461  -1.119  29.101  1.00  0.00    -0.328 N 
ATOM     11  H5  UNL     1       3.193  -1.245  28.402  1.00  0.00     0.168 HD
HETATM   12  C13 UNL     1       2.653  -1.529  30.346  1.00  0.00     0.149 A 
HETATM   13 CL1  UNL     1       4.190  -2.293  30.770  1.00  0.00    -0.060 Cl
ENDROOT
BRANCH   6  14
HETATM   14  N3  UNL     1      -0.749   1.014  26.173  1.00  0.00    -0.366 N 
ATOM     15  H3  UNL     1      -1.256   1.899  26.181  1.00  0.00     0.162 HD
BRANCH  14  16
HETATM   16  C4  UNL     1      -0.550   0.311  24.927  1.00  0.00     0.083 C 
HETATM   17  C5  UNL     1       0.856   0.448  24.484  1.00  0.00     0.025 C 
HETATM   18  C6  UNL     1       1.413  -0.921  24.065  1.00  0.00     0.002 C 
HETATM   19  C7  UNL     1       1.413  -1.082  22.580  1.00  0.00     0.000 C 
HETATM   20  C8  UNL     1      -0.049  -1.017  22.117  1.00  0.00     0.000 C 
HETATM   21  C9  UNL     1      -0.378   0.352  21.672  1.00  0.00     0.000 C 
HETATM   22  C10 UNL     1      -1.061   1.243  22.624  1.00  0.00     0.002 C 
HETATM   23  C11 UNL     1      -1.581   0.656  23.886  1.00  0.00     0.025 C 
ENDBRANCH  14  16
ENDBRANCH   6  14
BRANCH   1  24
HETATM   24  N1  UNL     1       1.953  -1.819  32.566  1.00  0.00    -0.383 N 
ATOM     25  H12 UNL     1       1.363  -2.491  33.057  1.00  0.00     0.157 HD
ATOM     26  H11 UNL     1       2.750  -1.478  33.103  1.00  0.00     0.157 HD
ENDBRANCH   1  24
TORSDOF 3
ENDMDL
