MODEL 1
REMARK VINA RESULT: -9.864851579      0.000      0.000
REMARK  12 active torsions:
REMARK  status: ('A' for Active; 'I' for Inactive)
REMARK    1  A    between atoms: O1_2  and  C2_3 
REMARK    2  A    between atoms: C2_3  and  C3_5 
REMARK    3  A    between atoms: C4_6  and  O3_7 
REMARK    4  A    between atoms: C8_15  and  C9_16 
REMARK    5  A    between atoms: C9_16  and  S1_17 
REMARK    6  A    between atoms: S1_17  and  C10_18 
REMARK    7  A    between atoms: N5_25  and  C11_26 
REMARK    8  A    between atoms: C11_26  and  C12_27 
REMARK    9  A    between atoms: C12_27  and  O5_30 
REMARK   10  A    between atoms: O5_30  and  C14_31 
REMARK   11  A    between atoms: C16_33  and  N7_34 
REMARK       I    between atoms: N7_34  and  C17_36 
REMARK   12  A    between atoms: C18_43  and  N11_44 
ROOT
HETATM    1  C12 UNL     1     365.242 237.886 187.708  1.00  0.00     0.256 C 
HETATM    2  C13 UNL     1     364.808 236.802 188.532  1.00  0.00     0.093 C 
HETATM    3  N6  UNL     1     364.426 235.925 189.212  1.00  0.00    -0.194 NA
ENDROOT
BRANCH   1   4
HETATM    4  C11 UNL     1     365.553 239.165 188.473  1.00  0.00     0.200 C 
BRANCH   4   5
HETATM    5  N5  UNL     1     366.421 239.016 189.615  1.00  0.00    -0.251 N 
HETATM    6  C10 UNL     1     365.997 239.679 190.783  1.00  0.00     0.178 A 
HETATM    7  N2  UNL     1     366.971 239.279 191.694  1.00  0.00    -0.263 N 
HETATM    8  N3  UNL     1     367.833 238.495 191.100  1.00  0.00    -0.226 N 
ATOM      9  H2  UNL     1     367.006 239.555 192.676  1.00  0.00     0.190 HD
HETATM   10  N4  UNL     1     367.490 238.343 189.845  1.00  0.00    -0.224 N 
ATOM     11  H3  UNL     1     368.646 238.068 191.545  1.00  0.00     0.210 HD
ATOM     12  H4  UNL     1     367.991 237.779 189.159  1.00  0.00     0.210 HD
BRANCH   6  13
HETATM   13  S1  UNL     1     364.784 240.757 191.016  1.00  0.00    -0.086 SA
BRANCH  13  14
HETATM   14  C9  UNL     1     363.938 242.122 190.672  1.00  0.00     0.128 C 
BRANCH  14  15
HETATM   15  C8  UNL     1     363.759 242.292 189.164  1.00  0.00     0.039 A 
HETATM   16  C3  UNL     1     364.664 243.175 188.542  1.00  0.00     0.087 A 
HETATM   17  C4  UNL     1     364.505 243.289 187.171  1.00  0.00     0.104 A 
HETATM   18  C5  UNL     1     363.499 242.561 186.511  1.00  0.00     0.042 A 
HETATM   19  C6  UNL     1     363.416 242.684 185.036  1.00  0.00     0.071 C 
HETATM   20  N1  UNL     1     362.658 241.750 187.113  1.00  0.00    -0.324 N 
HETATM   21  C7  UNL     1     362.809 241.633 188.467  1.00  0.00     0.254 A 
ATOM     22  H1  UNL     1     361.937 241.240 186.603  1.00  0.00     0.169 HD
HETATM   23  O4  UNL     1     361.979 240.872 189.019  1.00  0.00    -0.268 OA
BRANCH  16  24
HETATM   24  C2  UNL     1     365.621 243.902 189.314  1.00  0.00     0.296 C 
HETATM   25  O2  UNL     1     365.472 244.977 189.932  1.00  0.00    -0.259 OA
BRANCH  24  26
HETATM   26  O1  UNL     1     366.964 243.428 189.463  1.00  0.00    -0.322 OA
HETATM   27  C1  UNL     1     367.539 243.374 190.741  1.00  0.00     0.213 C 
ENDBRANCH  24  26
ENDBRANCH  16  24
BRANCH  17  28
HETATM   28  O3  UNL     1     365.314 244.094 186.421  1.00  0.00    -0.358 OA
ATOM     29  H3  UNL     1     365.280 244.088 185.471  1.00  0.00     0.217 HD
ENDBRANCH  17  28
ENDBRANCH  14  15
ENDBRANCH  13  14
ENDBRANCH   6  13
ENDBRANCH   4   5
ENDBRANCH   1   4
BRANCH   1  30
HETATM   30  O5  UNL     1     365.895 237.649 186.581  1.00  0.00    -0.313 OA
BRANCH  30  31
HETATM   31  C14 UNL     1     366.062 236.778 185.569  1.00  0.00     0.162 A 
HETATM   32  C15 UNL     1     366.147 235.438 185.878  1.00  0.00     0.105 A 
HETATM   33  C16 UNL     1     366.293 234.492 184.861  1.00  0.00     0.127 A 
HETATM   34  N10 UNL     1     366.353 234.907 183.588  1.00  0.00    -0.177 N 
HETATM   35  C18 UNL     1     366.268 236.235 183.338  1.00  0.00     0.679 A 
ATOM     36  H10 UNL     1     366.461 234.238 182.825  1.00  0.00     0.185 HD
HETATM   37  N12 UNL     1     366.124 237.161 184.289  1.00  0.00    -0.171 N 
ATOM     38  H12 UNL     1     366.062 238.149 184.042  1.00  0.00     0.186 HD
BRANCH  33  39
HETATM   39  N7  UNL     1     366.273 233.241 185.150  1.00  0.00    -0.316 N 
HETATM   40  C17 UNL     1     367.119 232.589 186.013  1.00  0.00     0.187 C 
HETATM   41  N8  UNL     1     368.340 232.345 185.982  1.00  0.00    -0.373 N 
HETATM   42  N9  UNL     1     366.464 232.017 187.213  1.00  0.00    -0.064 NA
ATOM     43  H82 UNL     1     368.791 232.740 185.156  1.00  0.00     0.158 HD
ATOM     44  H81 UNL     1     368.969 231.861 186.623  1.00  0.00     0.158 HD
ATOM     45  H7  UNL     1     365.558 232.675 184.694  1.00  0.00     0.170 HD
ENDBRANCH  33  39
BRANCH  35  46
HETATM   46  N11 UNL     1     366.332 236.620 182.075  1.00  0.00    -0.234 N 
ATOM     47 2H11 UNL     1     365.484 236.597 181.508  1.00  0.00     0.174 HD
ATOM     48 1H11 UNL     1     367.239 236.926 181.724  1.00  0.00     0.174 HD
ENDBRANCH  35  46
ENDBRANCH  30  31
ENDBRANCH   1  30
TORSDOF 12
ENDMDL
MODEL 2
REMARK VINA RESULT: -9.833526337      2.655      4.681
REMARK  12 active torsions:
REMARK  status: ('A' for Active; 'I' for Inactive)
REMARK    1  A    between atoms: O1_2  and  C2_3 
REMARK    2  A    between atoms: C2_3  and  C3_5 
REMARK    3  A    between atoms: C4_6  and  O3_7 
REMARK    4  A    between atoms: C8_15  and  C9_16 
REMARK    5  A    between atoms: C9_16  and  S1_17 
REMARK    6  A    between atoms: S1_17  and  C10_18 
REMARK    7  A    between atoms: N5_25  and  C11_26 
REMARK    8  A    between atoms: C11_26  and  C12_27 
REMARK    9  A    between atoms: C12_27  and  O5_30 
REMARK   10  A    between atoms: O5_30  and  C14_31 
REMARK   11  A    between atoms: C16_33  and  N7_34 
REMARK       I    between atoms: N7_34  and  C17_36 
REMARK   12  A    between atoms: C18_43  and  N11_44 
ROOT
HETATM    1  C12 UNL     1     364.732 233.923 188.066  1.00  0.00     0.256 C 
HETATM    2  C13 UNL     1     364.736 233.138 189.260  1.00  0.00     0.093 C 
HETATM    3  N6  UNL     1     364.710 232.494 190.240  1.00  0.00    -0.194 NA
ENDROOT
BRANCH   1   4
HETATM    4  C11 UNL     1     364.384 235.389 188.284  1.00  0.00     0.200 C 
BRANCH   4   5
HETATM    5  N5  UNL     1     364.855 236.302 187.271  1.00  0.00    -0.251 N 
HETATM    6  C10 UNL     1     365.539 237.434 187.754  1.00  0.00     0.178 A 
HETATM    7  N2  UNL     1     365.927 238.047 186.565  1.00  0.00    -0.263 N 
HETATM    8  N3  UNL     1     365.503 237.342 185.548  1.00  0.00    -0.226 N 
ATOM      9  H2  UNL     1     366.461 238.913 186.498  1.00  0.00     0.190 HD
HETATM   10  N4  UNL     1     364.858 236.289 185.988  1.00  0.00    -0.224 N 
ATOM     11  H3  UNL     1     365.651 237.575 184.566  1.00  0.00     0.210 HD
ATOM     12  H4  UNL     1     364.426 235.574 185.403  1.00  0.00     0.210 HD
BRANCH   6  13
HETATM   13  S1  UNL     1     365.724 237.997 189.283  1.00  0.00    -0.086 SA
BRANCH  13  14
HETATM   14  C9  UNL     1     365.329 238.951 190.560  1.00  0.00     0.128 C 
BRANCH  14  15
HETATM   15  C8  UNL     1     366.417 239.993 190.824  1.00  0.00     0.039 A 
HETATM   16  C3  UNL     1     366.139 241.290 190.351  1.00  0.00     0.087 A 
HETATM   17  C4  UNL     1     367.122 242.226 190.630  1.00  0.00     0.104 A 
HETATM   18  C5  UNL     1     368.282 241.847 191.328  1.00  0.00     0.042 A 
HETATM   19  C6  UNL     1     369.272 242.906 191.644  1.00  0.00     0.071 C 
HETATM   20  N1  UNL     1     368.525 240.627 191.752  1.00  0.00    -0.324 N 
HETATM   21  C7  UNL     1     367.559 239.699 191.479  1.00  0.00     0.254 A 
ATOM     22  H1  UNL     1     369.380 240.387 192.252  1.00  0.00     0.169 HD
HETATM   23  O4  UNL     1     367.827 238.539 191.874  1.00  0.00    -0.268 OA
BRANCH  16  24
HETATM   24  C2  UNL     1     364.947 241.559 189.611  1.00  0.00     0.296 C 
HETATM   25  O2  UNL     1     363.840 241.960 190.032  1.00  0.00    -0.259 OA
BRANCH  24  26
HETATM   26  O1  UNL     1     364.899 241.373 188.193  1.00  0.00    -0.322 OA
HETATM   27  C1  UNL     1     363.759 240.803 187.609  1.00  0.00     0.213 C 
ENDBRANCH  24  26
ENDBRANCH  16  24
BRANCH  17  28
HETATM   28  O3  UNL     1     366.996 243.532 190.250  1.00  0.00    -0.358 OA
ATOM     29  H3  UNL     1     366.250 244.057 190.514  1.00  0.00     0.217 HD
ENDBRANCH  17  28
ENDBRANCH  14  15
ENDBRANCH  13  14
ENDBRANCH   6  13
ENDBRANCH   4   5
ENDBRANCH   1   4
BRANCH   1  30
HETATM   30  O5  UNL     1     365.525 233.606 187.054  1.00  0.00    -0.313 OA
BRANCH  30  31
HETATM   31  C14 UNL     1     365.569 233.096 185.810  1.00  0.00     0.162 A 
HETATM   32  C15 UNL     1     366.748 232.521 185.389  1.00  0.00     0.105 A 
HETATM   33  C16 UNL     1     366.836 231.953 184.116  1.00  0.00     0.127 A 
HETATM   34  N10 UNL     1     365.763 231.982 183.313  1.00  0.00    -0.177 N 
HETATM   35  C18 UNL     1     364.629 232.562 183.773  1.00  0.00     0.679 A 
ATOM     36  H10 UNL     1     365.800 231.576 182.378  1.00  0.00     0.185 HD
HETATM   37  N12 UNL     1     364.515 233.108 184.986  1.00  0.00    -0.171 N 
ATOM     38  H12 UNL     1     363.634 233.529 185.281  1.00  0.00     0.186 HD
BRANCH  33  39
HETATM   39  N7  UNL     1     367.907 231.334 183.770  1.00  0.00    -0.316 N 
HETATM   40  C17 UNL     1     367.990 230.263 182.914  1.00  0.00     0.187 C 
HETATM   41  N8  UNL     1     367.586 229.086 182.985  1.00  0.00    -0.373 N 
HETATM   42  N9  UNL     1     368.742 230.523 181.664  1.00  0.00    -0.064 NA
ATOM     43  H82 UNL     1     367.069 228.908 183.845  1.00  0.00     0.158 HD
ATOM     44  H81 UNL     1     367.648 228.291 182.349  1.00  0.00     0.158 HD
ATOM     45  H7  UNL     1     368.782 231.670 184.170  1.00  0.00     0.170 HD
ENDBRANCH  33  39
BRANCH  35  46
HETATM   46  N11 UNL     1     363.585 232.580 182.963  1.00  0.00    -0.234 N 
ATOM     47 2H11 UNL     1     363.162 233.476 182.722  1.00  0.00     0.174 HD
ATOM     48 1H11 UNL     1     363.248 231.683 182.613  1.00  0.00     0.174 HD
ENDBRANCH  35  46
ENDBRANCH  30  31
ENDBRANCH   1  30
TORSDOF 12
ENDMDL
MODEL 3
REMARK VINA RESULT: -9.577589346      4.310      5.908
REMARK  12 active torsions:
REMARK  status: ('A' for Active; 'I' for Inactive)
REMARK    1  A    between atoms: O1_2  and  C2_3 
REMARK    2  A    between atoms: C2_3  and  C3_5 
REMARK    3  A    between atoms: C4_6  and  O3_7 
REMARK    4  A    between atoms: C8_15  and  C9_16 
REMARK    5  A    between atoms: C9_16  and  S1_17 
REMARK    6  A    between atoms: S1_17  and  C10_18 
REMARK    7  A    between atoms: N5_25  and  C11_26 
REMARK    8  A    between atoms: C11_26  and  C12_27 
REMARK    9  A    between atoms: C12_27  and  O5_30 
REMARK   10  A    between atoms: O5_30  and  C14_31 
REMARK   11  A    between atoms: C16_33  and  N7_34 
REMARK       I    between atoms: N7_34  and  C17_36 
REMARK   12  A    between atoms: C18_43  and  N11_44 
ROOT
HETATM    1  C12 UNL     1     364.708 239.593 188.901  1.00  0.00     0.256 C 
HETATM    2  C13 UNL     1     363.714 240.313 188.169  1.00  0.00     0.093 C 
HETATM    3  N6  UNL     1     362.919 240.922 187.558  1.00  0.00    -0.194 NA
ENDROOT
BRANCH   1   4
HETATM    4  C11 UNL     1     365.178 240.294 190.169  1.00  0.00     0.200 C 
BRANCH   4   5
HETATM    5  N5  UNL     1     366.229 239.627 190.899  1.00  0.00    -0.251 N 
HETATM    6  C10 UNL     1     366.055 239.582 192.295  1.00  0.00     0.178 A 
HETATM    7  N2  UNL     1     367.155 238.822 192.684  1.00  0.00    -0.263 N 
HETATM    8  N3  UNL     1     367.856 238.494 191.630  1.00  0.00    -0.226 N 
ATOM      9  H2  UNL     1     367.379 238.562 193.645  1.00  0.00     0.190 HD
HETATM   10  N4  UNL     1     367.286 238.984 190.558  1.00  0.00    -0.224 N 
ATOM     11  H3  UNL     1     368.714 237.941 191.642  1.00  0.00     0.210 HD
ATOM     12  H4  UNL     1     367.628 238.873 189.604  1.00  0.00     0.210 HD
BRANCH   6  13
HETATM   13  S1  UNL     1     364.957 240.330 193.258  1.00  0.00    -0.086 SA
BRANCH  13  14
HETATM   14  C9  UNL     1     364.278 240.701 194.706  1.00  0.00     0.128 C 
BRANCH  14  15
HETATM   15  C8  UNL     1     362.801 240.307 194.737  1.00  0.00     0.039 A 
HETATM   16  C3  UNL     1     362.514 239.092 195.391  1.00  0.00     0.087 A 
HETATM   17  C4  UNL     1     361.167 238.769 195.437  1.00  0.00     0.104 A 
HETATM   18  C5  UNL     1     360.214 239.624 194.855  1.00  0.00     0.042 A 
HETATM   19  C6  UNL     1     358.785 239.251 194.986  1.00  0.00     0.071 C 
HETATM   20  N1  UNL     1     360.506 240.749 194.241  1.00  0.00    -0.324 N 
HETATM   21  C7  UNL     1     361.834 241.072 194.191  1.00  0.00     0.254 A 
ATOM     22  H1  UNL     1     359.788 241.343 193.827  1.00  0.00     0.169 HD
HETATM   23  O4  UNL     1     362.086 242.138 193.579  1.00  0.00    -0.268 OA
BRANCH  16  24
HETATM   24  C2  UNL     1     363.564 238.275 195.909  1.00  0.00     0.296 C 
HETATM   25  O2  UNL     1     364.109 237.278 195.387  1.00  0.00    -0.259 OA
BRANCH  24  26
HETATM   26  O1  UNL     1     364.143 238.540 197.191  1.00  0.00    -0.322 OA
HETATM   27  C1  UNL     1     363.454 238.159 198.351  1.00  0.00     0.213 C 
ENDBRANCH  24  26
ENDBRANCH  16  24
BRANCH  17  28
HETATM   28  O3  UNL     1     360.724 237.631 196.048  1.00  0.00    -0.358 OA
ATOM     29  H3  UNL     1     360.706 237.549 196.994  1.00  0.00     0.217 HD
ENDBRANCH  17  28
ENDBRANCH  14  15
ENDBRANCH  13  14
ENDBRANCH   6  13
ENDBRANCH   4   5
ENDBRANCH   1   4
BRANCH   1  30
HETATM   30  O5  UNL     1     364.741 238.271 188.861  1.00  0.00    -0.313 OA
BRANCH  30  31
HETATM   31  C14 UNL     1     364.829 237.197 188.055  1.00  0.00     0.162 A 
HETATM   32  C15 UNL     1     364.618 235.953 188.610  1.00  0.00     0.105 A 
HETATM   33  C16 UNL     1     364.671 234.809 187.810  1.00  0.00     0.127 A 
HETATM   34  N10 UNL     1     364.935 234.940 186.503  1.00  0.00    -0.177 N 
HETATM   35  C18 UNL     1     365.139 236.184 186.007  1.00  0.00     0.679 A 
ATOM     36  H10 UNL     1     364.982 234.122 185.895  1.00  0.00     0.185 HD
HETATM   37  N12 UNL     1     365.090 237.294 186.747  1.00  0.00    -0.171 N 
ATOM     38  H12 UNL     1     365.249 238.207 186.319  1.00  0.00     0.186 HD
BRANCH  33  39
HETATM   39  N7  UNL     1     364.376 233.667 188.316  1.00  0.00    -0.316 N 
HETATM   40  C17 UNL     1     365.261 232.730 188.788  1.00  0.00     0.187 C 
HETATM   41  N8  UNL     1     366.125 232.023 188.234  1.00  0.00    -0.373 N 
HETATM   42  N9  UNL     1     365.163 232.457 190.241  1.00  0.00    -0.064 NA
ATOM     43  H82 UNL     1     366.192 232.212 187.234  1.00  0.00     0.158 HD
ATOM     44  H81 UNL     1     366.783 231.327 188.584  1.00  0.00     0.158 HD
ATOM     45  H7  UNL     1     363.385 233.431 188.373  1.00  0.00     0.170 HD
ENDBRANCH  33  39
BRANCH  35  46
HETATM   46  N11 UNL     1     365.400 236.287 184.715  1.00  0.00    -0.234 N 
ATOM     47 2H11 UNL     1     364.770 236.831 184.126  1.00  0.00     0.174 HD
ATOM     48 1H11 UNL     1     366.231 235.810 184.366  1.00  0.00     0.174 HD
ENDBRANCH  35  46
ENDBRANCH  30  31
ENDBRANCH   1  30
TORSDOF 12
ENDMDL
MODEL 4
REMARK VINA RESULT: -9.563172403      3.034      4.282
REMARK  12 active torsions:
REMARK  status: ('A' for Active; 'I' for Inactive)
REMARK    1  A    between atoms: O1_2  and  C2_3 
REMARK    2  A    between atoms: C2_3  and  C3_5 
REMARK    3  A    between atoms: C4_6  and  O3_7 
REMARK    4  A    between atoms: C8_15  and  C9_16 
REMARK    5  A    between atoms: C9_16  and  S1_17 
REMARK    6  A    between atoms: S1_17  and  C10_18 
REMARK    7  A    between atoms: N5_25  and  C11_26 
REMARK    8  A    between atoms: C11_26  and  C12_27 
REMARK    9  A    between atoms: C12_27  and  O5_30 
REMARK   10  A    between atoms: O5_30  and  C14_31 
REMARK   11  A    between atoms: C16_33  and  N7_34 
REMARK       I    between atoms: N7_34  and  C17_36 
REMARK   12  A    between atoms: C18_43  and  N11_44 
ROOT
HETATM    1  C12 UNL     1     365.204 237.870 187.680  1.00  0.00     0.256 C 
HETATM    2  C13 UNL     1     364.774 236.785 188.505  1.00  0.00     0.093 C 
HETATM    3  N6  UNL     1     364.395 235.908 189.185  1.00  0.00    -0.194 NA
ENDROOT
BRANCH   1   4
HETATM    4  C11 UNL     1     365.508 239.152 188.444  1.00  0.00     0.200 C 
BRANCH   4   5
HETATM    5  N5  UNL     1     366.347 239.003 189.608  1.00  0.00    -0.251 N 
HETATM    6  C10 UNL     1     365.850 239.592 190.786  1.00  0.00     0.178 A 
HETATM    7  N2  UNL     1     366.816 239.208 191.713  1.00  0.00    -0.263 N 
HETATM    8  N3  UNL     1     367.739 238.499 191.117  1.00  0.00    -0.226 N 
ATOM      9  H2  UNL     1     366.805 239.444 192.705  1.00  0.00     0.190 HD
HETATM   10  N4  UNL     1     367.444 238.381 189.846  1.00  0.00    -0.224 N 
ATOM     11  H3  UNL     1     368.561 238.099 191.571  1.00  0.00     0.210 HD
ATOM     12  H4  UNL     1     367.998 237.875 189.155  1.00  0.00     0.210 HD
BRANCH   6  13
HETATM   13  S1  UNL     1     364.571 240.590 191.022  1.00  0.00    -0.086 SA
BRANCH  13  14
HETATM   14  C9  UNL     1     363.752 241.776 191.809  1.00  0.00     0.128 C 
BRANCH  14  15
HETATM   15  C8  UNL     1     362.610 241.195 192.643  1.00  0.00     0.039 A 
HETATM   16  C3  UNL     1     362.953 240.818 193.957  1.00  0.00     0.087 A 
HETATM   17  C4  UNL     1     361.897 240.325 194.707  1.00  0.00     0.104 A 
HETATM   18  C5  UNL     1     360.613 240.228 194.143  1.00  0.00     0.042 A 
HETATM   19  C6  UNL     1     359.513 239.745 195.013  1.00  0.00     0.071 C 
HETATM   20  N1  UNL     1     360.317 240.577 192.910  1.00  0.00    -0.324 N 
HETATM   21  C7  UNL     1     361.356 241.064 192.165  1.00  0.00     0.254 A 
ATOM     22  H1  UNL     1     359.374 240.490 192.533  1.00  0.00     0.169 HD
HETATM   23  O4  UNL     1     361.051 241.366 190.986  1.00  0.00    -0.268 OA
BRANCH  16  24
HETATM   24  C2  UNL     1     364.301 240.916 194.417  1.00  0.00     0.296 C 
HETATM   25  O2  UNL     1     364.859 241.867 195.004  1.00  0.00    -0.259 OA
BRANCH  24  26
HETATM   26  O1  UNL     1     365.226 239.839 194.228  1.00  0.00    -0.322 OA
HETATM   27  C1  UNL     1     365.199 238.745 195.105  1.00  0.00     0.213 C 
ENDBRANCH  24  26
ENDBRANCH  16  24
BRANCH  17  28
HETATM   28  O3  UNL     1     362.062 239.930 196.003  1.00  0.00    -0.358 OA
ATOM     29  H3  UNL     1     361.836 240.499 196.730  1.00  0.00     0.217 HD
ENDBRANCH  17  28
ENDBRANCH  14  15
ENDBRANCH  13  14
ENDBRANCH   6  13
ENDBRANCH   4   5
ENDBRANCH   1   4
BRANCH   1  30
HETATM   30  O5  UNL     1     365.859 237.636 186.554  1.00  0.00    -0.313 OA
BRANCH  30  31
HETATM   31  C14 UNL     1     366.035 236.762 185.546  1.00  0.00     0.162 A 
HETATM   32  C15 UNL     1     366.134 235.424 185.859  1.00  0.00     0.105 A 
HETATM   33  C16 UNL     1     366.288 234.475 184.846  1.00  0.00     0.127 A 
HETATM   34  N10 UNL     1     366.344 234.886 183.572  1.00  0.00    -0.177 N 
HETATM   35  C18 UNL     1     366.246 236.212 183.316  1.00  0.00     0.679 A 
ATOM     36  H10 UNL     1     366.459 234.216 182.812  1.00  0.00     0.185 HD
HETATM   37  N12 UNL     1     366.093 237.140 184.264  1.00  0.00    -0.171 N 
ATOM     38  H12 UNL     1     366.021 238.127 184.013  1.00  0.00     0.186 HD
BRANCH  33  39
HETATM   39  N7  UNL     1     366.281 233.226 185.140  1.00  0.00    -0.316 N 
HETATM   40  C17 UNL     1     367.118 232.590 186.024  1.00  0.00     0.187 C 
HETATM   41  N8  UNL     1     368.343 232.364 186.018  1.00  0.00    -0.373 N 
HETATM   42  N9  UNL     1     366.448 232.013 187.212  1.00  0.00    -0.064 NA
ATOM     43  H82 UNL     1     368.805 232.761 185.200  1.00  0.00     0.158 HD
ATOM     44  H81 UNL     1     368.966 231.892 186.674  1.00  0.00     0.158 HD
ATOM     45  H7  UNL     1     365.583 232.647 184.672  1.00  0.00     0.170 HD
ENDBRANCH  33  39
BRANCH  35  46
HETATM   46  N11 UNL     1     366.306 236.593 182.052  1.00  0.00    -0.234 N 
ATOM     47 2H11 UNL     1     365.439 236.686 181.522  1.00  0.00     0.174 HD
ATOM     48 1H11 UNL     1     367.230 236.778 181.662  1.00  0.00     0.174 HD
ENDBRANCH  35  46
ENDBRANCH  30  31
ENDBRANCH   1  30
TORSDOF 12
ENDMDL
MODEL 5
REMARK VINA RESULT: -9.526293744      3.005      4.723
REMARK  12 active torsions:
REMARK  status: ('A' for Active; 'I' for Inactive)
REMARK    1  A    between atoms: O1_2  and  C2_3 
REMARK    2  A    between atoms: C2_3  and  C3_5 
REMARK    3  A    between atoms: C4_6  and  O3_7 
REMARK    4  A    between atoms: C8_15  and  C9_16 
REMARK    5  A    between atoms: C9_16  and  S1_17 
REMARK    6  A    between atoms: S1_17  and  C10_18 
REMARK    7  A    between atoms: N5_25  and  C11_26 
REMARK    8  A    between atoms: C11_26  and  C12_27 
REMARK    9  A    between atoms: C12_27  and  O5_30 
REMARK   10  A    between atoms: O5_30  and  C14_31 
REMARK   11  A    between atoms: C16_33  and  N7_34 
REMARK       I    between atoms: N7_34  and  C17_36 
REMARK   12  A    between atoms: C18_43  and  N11_44 
ROOT
HETATM    1  C12 UNL     1     364.875 233.692 187.938  1.00  0.00     0.256 C 
HETATM    2  C13 UNL     1     364.984 233.022 189.195  1.00  0.00     0.093 C 
HETATM    3  N6  UNL     1     365.044 232.471 190.229  1.00  0.00    -0.194 NA
ENDROOT
BRANCH   1   4
HETATM    4  C11 UNL     1     364.397 235.134 188.038  1.00  0.00     0.200 C 
BRANCH   4   5
HETATM    5  N5  UNL     1     364.804 236.004 186.961  1.00  0.00    -0.251 N 
HETATM    6  C10 UNL     1     365.505 237.160 187.355  1.00  0.00     0.178 A 
HETATM    7  N2  UNL     1     365.821 237.722 186.121  1.00  0.00    -0.263 N 
HETATM    8  N3  UNL     1     365.346 236.972 185.161  1.00  0.00    -0.226 N 
ATOM      9  H2  UNL     1     366.344 238.588 185.986  1.00  0.00     0.190 HD
HETATM   10  N4  UNL     1     364.735 235.936 185.682  1.00  0.00    -0.224 N 
ATOM     11  H3  UNL     1     365.438 237.162 184.163  1.00  0.00     0.210 HD
ATOM     12  H4  UNL     1     364.277 235.193 185.153  1.00  0.00     0.210 HD
BRANCH   6  13
HETATM   13  S1  UNL     1     365.770 237.791 188.845  1.00  0.00    -0.086 SA
BRANCH  13  14
HETATM   14  C9  UNL     1     365.317 238.572 190.217  1.00  0.00     0.128 C 
BRANCH  14  15
HETATM   15  C8  UNL     1     365.842 240.007 190.232  1.00  0.00     0.039 A 
HETATM   16  C3  UNL     1     366.819 240.284 191.209  1.00  0.00     0.087 A 
HETATM   17  C4  UNL     1     367.305 241.581 191.183  1.00  0.00     0.104 A 
HETATM   18  C5  UNL     1     366.820 242.501 190.238  1.00  0.00     0.042 A 
HETATM   19  C6  UNL     1     367.420 243.857 190.225  1.00  0.00     0.071 C 
HETATM   20  N1  UNL     1     365.900 242.223 189.340  1.00  0.00    -0.324 N 
HETATM   21  C7  UNL     1     365.415 240.945 189.361  1.00  0.00     0.254 A 
ATOM     22  H1  UNL     1     365.568 242.917 188.671  1.00  0.00     0.169 HD
HETATM   23  O4  UNL     1     364.522 240.714 188.510  1.00  0.00    -0.268 OA
BRANCH  16  24
HETATM   24  C2  UNL     1     367.209 239.287 192.154  1.00  0.00     0.296 C 
HETATM   25  O2  UNL     1     368.077 238.395 192.035  1.00  0.00    -0.259 OA
BRANCH  24  26
HETATM   26  O1  UNL     1     366.586 239.202 193.440  1.00  0.00    -0.322 OA
HETATM   27  C1  UNL     1     365.256 239.619 193.591  1.00  0.00     0.213 C 
ENDBRANCH  24  26
ENDBRANCH  16  24
BRANCH  17  28
HETATM   28  O3  UNL     1     368.266 242.003 192.057  1.00  0.00    -0.358 OA
ATOM     29  H3  UNL     1     368.484 242.923 192.151  1.00  0.00     0.217 HD
ENDBRANCH  17  28
ENDBRANCH  14  15
ENDBRANCH  13  14
ENDBRANCH   6  13
ENDBRANCH   4   5
ENDBRANCH   1   4
BRANCH   1  30
HETATM   30  O5  UNL     1     365.667 233.358 186.931  1.00  0.00    -0.313 OA
BRANCH  30  31
HETATM   31  C14 UNL     1     365.704 232.907 185.664  1.00  0.00     0.162 A 
HETATM   32  C15 UNL     1     366.866 232.312 185.223  1.00  0.00     0.105 A 
HETATM   33  C16 UNL     1     366.946 231.803 183.925  1.00  0.00     0.127 A 
HETATM   34  N10 UNL     1     365.881 231.908 183.118  1.00  0.00    -0.177 N 
HETATM   35  C18 UNL     1     364.764 232.504 183.597  1.00  0.00     0.679 A 
ATOM     36  H10 UNL     1     365.911 231.547 182.164  1.00  0.00     0.185 HD
HETATM   37  N12 UNL     1     364.658 232.995 184.835  1.00  0.00    -0.171 N 
ATOM     38  H12 UNL     1     363.790 233.432 185.144  1.00  0.00     0.186 HD
BRANCH  33  39
HETATM   39  N7  UNL     1     367.997 231.165 183.557  1.00  0.00    -0.316 N 
HETATM   40  C17 UNL     1     368.042 230.088 182.705  1.00  0.00     0.187 C 
HETATM   41  N8  UNL     1     367.621 228.919 182.792  1.00  0.00    -0.373 N 
HETATM   42  N9  UNL     1     368.767 230.329 181.435  1.00  0.00    -0.064 NA
ATOM     43  H82 UNL     1     367.122 228.754 183.666  1.00  0.00     0.158 HD
ATOM     44  H81 UNL     1     367.654 228.120 182.159  1.00  0.00     0.158 HD
ATOM     45  H7  UNL     1     368.887 231.489 183.934  1.00  0.00     0.170 HD
ENDBRANCH  33  39
BRANCH  35  46
HETATM   46  N11 UNL     1     363.727 232.597 182.782  1.00  0.00    -0.234 N 
ATOM     47 2H11 UNL     1     363.407 233.521 182.493  1.00  0.00     0.174 HD
ATOM     48 1H11 UNL     1     363.291 231.726 182.478  1.00  0.00     0.174 HD
ENDBRANCH  35  46
ENDBRANCH  30  31
ENDBRANCH   1  30
TORSDOF 12
ENDMDL
