MODEL 1
REMARK VINA RESULT: -7.979323785      0.000      0.000
REMARK  10 active torsions:
REMARK  status: ('A' for Active; 'I' for Inactive)
REMARK    1  A    between atoms: O1_2  and  C2_3 
REMARK    2  A    between atoms: C3_4  and  O2_5 
REMARK    3  A    between atoms: O2_5  and  C4_6 
REMARK    4  A    between atoms: C4_6  and  C5_8 
REMARK    5  A    between atoms: C5_8  and  O4_9 
REMARK    6  A    between atoms: N1_11  and  C6_12 
REMARK    7  A    between atoms: C6_12  and  O5_13 
REMARK    8  A    between atoms: C8_16  and  C9_17 
REMARK    9  A    between atoms: C13_23  and  N3_24 
REMARK   10  A    between atoms: C17_38  and  N8_39 
REMARK       I    between atoms: N8_39  and  C18_41 
REMARK       I    between atoms: C18_41  and  N9_42 
REMARK       I    between atoms: C18_41  and  N10_46 
ROOT
HETATM    1  N8  UNL     1     363.451 243.464 191.494  1.00  0.00    -0.329 N 
ATOM      2  H8  UNL     1     364.113 244.187 191.210  1.00  0.00     0.165 HD
HETATM    3  C18 UNL     1     362.353 244.110 191.997  1.00  0.00     0.396 C 
HETATM    4  N9  UNL     1     362.268 244.206 193.446  1.00  0.00    -0.040 N 
ATOM      5  H91 UNL     1     361.450 244.687 193.820  1.00  0.00     0.279 HD
ATOM      6  H92 UNL     1     363.118 244.635 193.812  1.00  0.00     0.279 HD
ATOM      7  H93 UNL     1     362.338 243.275 193.857  1.00  0.00     0.279 HD
HETATM    8  N10 UNL     1     362.343 245.525 191.544  1.00  0.00    -0.284 N 
ATOM      9  H10 UNL     1     363.084 245.887 190.945  1.00  0.00     0.175 HD
HETATM   10  C19 UNL     1     361.298 246.344 191.956  1.00  0.00     0.180 C 
HETATM   11  N11 UNL     1     360.417 247.045 192.300  1.00  0.00    -0.172 NA
ENDROOT
BRANCH   1  12
HETATM   12  C17 UNL     1     363.976 242.384 191.240  1.00  0.00     0.166 A 
HETATM   13  C2  UNL     1     364.712 241.785 192.262  1.00  0.00     0.166 A 
HETATM   14  C3  UNL     1     365.342 240.597 192.111  1.00  0.00     0.194 A 
HETATM   15  N1  UNL     1     365.280 239.934 190.945  1.00  0.00    -0.286 N 
HETATM   16  C7  UNL     1     364.570 240.485 189.914  1.00  0.00     0.153 A 
HETATM   17  C8  UNL     1     364.277 240.059 188.638  1.00  0.00     0.099 A 
HETATM   18  N7  UNL     1     363.939 241.684 190.080  1.00  0.00    -0.218 N 
HETATM   19  C16 UNL     1     363.456 241.057 188.074  1.00  0.00     0.132 A 
HETATM   20  N5  UNL     1     363.017 241.066 186.888  1.00  0.00    -0.384 N 
HETATM   21  N6  UNL     1     363.286 242.008 188.988  1.00  0.00    -0.275 N 
ATOM     22  H52 UNL     1     363.146 240.337 186.188  1.00  0.00     0.157 HD
ATOM     23  H51 UNL     1     362.423 241.788 186.481  1.00  0.00     0.157 HD
ATOM     24  H6  UNL     1     362.736 242.857 188.860  1.00  0.00     0.189 HD
BRANCH  13  25
HETATM   25  O1  UNL     1     364.796 242.441 193.476  1.00  0.00    -0.349 OA
HETATM   26  C1  UNL     1     365.951 243.273 193.663  1.00  0.00     0.210 C 
ENDBRANCH  13  25
BRANCH  14  27
HETATM   27  O2  UNL     1     366.065 240.035 193.160  1.00  0.00    -0.256 OA
BRANCH  27  28
HETATM   28  C4  UNL     1     365.449 239.327 194.198  1.00  0.00     0.289 C 
HETATM   29  O3  UNL     1     366.214 238.769 195.023  1.00  0.00    -0.262 OA
BRANCH  28  30
HETATM   30  C5  UNL     1     363.993 239.201 194.373  1.00  0.00     0.275 C 
BRANCH  30  31
HETATM   31  O4  UNL     1     363.441 240.219 195.118  1.00  0.00    -0.391 OA
ATOM     32  H4  UNL     1     362.491 240.217 195.116  1.00  0.00     0.210 HD
ENDBRANCH  30  31
ENDBRANCH  28  30
ENDBRANCH  27  28
ENDBRANCH  14  27
BRANCH  15  33
HETATM   33  C6  UNL     1     365.898 238.642 190.829  1.00  0.00     0.299 C 
BRANCH  33  34
HETATM   34  O5  UNL     1     367.303 238.700 190.794  1.00  0.00    -0.382 OA
ATOM     35  H5  UNL     1     367.648 238.887 189.929  1.00  0.00     0.211 HD
ENDBRANCH  33  34
ENDBRANCH  15  33
BRANCH  17  36
HETATM   36  C9  UNL     1     364.746 238.905 187.894  1.00  0.00     0.124 A 
HETATM   37  N2  UNL     1     365.403 238.715 186.771  1.00  0.00    -0.340 N 
HETATM   38  C10 UNL     1     365.484 237.446 186.393  1.00  0.00     0.060 A 
ATOM     39  H2  UNL     1     365.815 239.479 186.235  1.00  0.00     0.167 HD
HETATM   40  C11 UNL     1     366.061 236.796 185.312  1.00  0.00     0.034 A 
HETATM   41  C15 UNL     1     364.816 236.737 187.360  1.00  0.00     0.063 A 
HETATM   42  C12 UNL     1     365.981 235.432 185.180  1.00  0.00     0.038 A 
HETATM   43  C13 UNL     1     365.305 234.722 186.160  1.00  0.00     0.105 A 
HETATM   44  C14 UNL     1     364.728 235.373 187.240  1.00  0.00     0.068 A 
HETATM   45  N4  UNL     1     364.378 237.626 188.256  1.00  0.00    -0.340 N 
ATOM     46  H4  UNL     1     363.844 237.391 189.093  1.00  0.00     0.167 HD
BRANCH  43  47
HETATM   47  N3  UNL     1     365.216 233.317 186.035  1.00  0.00    -0.116 N 
HETATM   48  O6  UNL     1     364.417 232.766 185.264  1.00  0.00    -0.532 OA
HETATM   49  O7  UNL     1     366.042 232.530 186.790  1.00  0.00    -0.532 OA
ENDBRANCH  43  47
ENDBRANCH  17  36
ENDBRANCH   1  12
TORSDOF 10
ENDMDL
MODEL 2
REMARK VINA RESULT: -7.827966833      3.494      7.452
REMARK  10 active torsions:
REMARK  status: ('A' for Active; 'I' for Inactive)
REMARK    1  A    between atoms: O1_2  and  C2_3 
REMARK    2  A    between atoms: C3_4  and  O2_5 
REMARK    3  A    between atoms: O2_5  and  C4_6 
REMARK    4  A    between atoms: C4_6  and  C5_8 
REMARK    5  A    between atoms: C5_8  and  O4_9 
REMARK    6  A    between atoms: N1_11  and  C6_12 
REMARK    7  A    between atoms: C6_12  and  O5_13 
REMARK    8  A    between atoms: C8_16  and  C9_17 
REMARK    9  A    between atoms: C13_23  and  N3_24 
REMARK   10  A    between atoms: C17_38  and  N8_39 
REMARK       I    between atoms: N8_39  and  C18_41 
REMARK       I    between atoms: C18_41  and  N9_42 
REMARK       I    between atoms: C18_41  and  N10_46 
ROOT
HETATM    1  N8  UNL     1     364.849 244.737 188.823  1.00  0.00    -0.329 N 
ATOM      2  H8  UNL     1     363.924 244.887 188.421  1.00  0.00     0.165 HD
HETATM    3  C18 UNL     1     365.620 245.805 188.449  1.00  0.00     0.396 C 
HETATM    4  N9  UNL     1     366.508 245.594 187.316  1.00  0.00    -0.040 N 
ATOM      5  H91 UNL     1     367.082 246.390 187.037  1.00  0.00     0.279 HD
ATOM      6  H92 UNL     1     365.971 245.260 186.516  1.00  0.00     0.279 HD
ATOM      7  H93 UNL     1     367.104 244.785 187.491  1.00  0.00     0.279 HD
HETATM    8  N10 UNL     1     364.753 246.932 188.018  1.00  0.00    -0.284 N 
ATOM      9  H10 UNL     1     363.737 246.844 188.029  1.00  0.00     0.175 HD
HETATM   10  C19 UNL     1     365.360 248.111 187.600  1.00  0.00     0.180 C 
HETATM   11  N11 UNL     1     365.865 249.113 187.244  1.00  0.00    -0.172 NA
ENDROOT
BRANCH   1  12
HETATM   12  C17 UNL     1     364.800 243.675 189.438  1.00  0.00     0.166 A 
HETATM   13  C2  UNL     1     365.072 242.514 188.714  1.00  0.00     0.166 A 
HETATM   14  C3  UNL     1     365.049 241.282 189.272  1.00  0.00     0.194 A 
HETATM   15  N1  UNL     1     364.757 241.126 190.574  1.00  0.00    -0.286 N 
HETATM   16  C7  UNL     1     364.483 242.237 191.322  1.00  0.00     0.153 A 
HETATM   17  C8  UNL     1     364.197 242.429 192.655  1.00  0.00     0.099 A 
HETATM   18  N7  UNL     1     364.510 243.475 190.746  1.00  0.00    -0.218 N 
HETATM   19  C16 UNL     1     364.059 243.822 192.826  1.00  0.00     0.132 A 
HETATM   20  N5  UNL     1     363.740 244.402 193.903  1.00  0.00    -0.384 N 
HETATM   21  N6  UNL     1     364.259 244.399 191.646  1.00  0.00    -0.275 N 
ATOM     22  H52 UNL     1     363.587 243.960 194.809  1.00  0.00     0.157 HD
ATOM     23  H51 UNL     1     363.640 245.410 194.027  1.00  0.00     0.157 HD
ATOM     24  H6  UNL     1     364.223 245.402 191.466  1.00  0.00     0.189 HD
BRANCH  13  25
HETATM   25  O1  UNL     1     365.376 242.639 187.371  1.00  0.00    -0.349 OA
HETATM   26  C1  UNL     1     364.256 242.706 186.476  1.00  0.00     0.210 C 
ENDBRANCH  13  25
BRANCH  14  27
HETATM   27  O2  UNL     1     365.328 240.150 188.512  1.00  0.00    -0.256 OA
BRANCH  27  28
HETATM   28  C4  UNL     1     364.321 239.308 188.026  1.00  0.00     0.289 C 
HETATM   29  O3  UNL     1     363.164 239.795 187.972  1.00  0.00    -0.262 OA
BRANCH  28  30
HETATM   30  C5  UNL     1     364.533 237.920 187.586  1.00  0.00     0.275 C 
BRANCH  30  31
HETATM   31  O4  UNL     1     363.385 237.159 187.597  1.00  0.00    -0.391 OA
ATOM     32  H4  UNL     1     363.496 236.302 187.205  1.00  0.00     0.210 HD
ENDBRANCH  30  31
ENDBRANCH  28  30
ENDBRANCH  27  28
ENDBRANCH  14  27
BRANCH  15  33
HETATM   33  C6  UNL     1     364.807 239.815 191.160  1.00  0.00     0.299 C 
BRANCH  33  34
HETATM   34  O5  UNL     1     366.081 239.477 191.653  1.00  0.00    -0.382 OA
ATOM     35  H5  UNL     1     366.488 238.763 191.177  1.00  0.00     0.211 HD
ENDBRANCH  33  34
ENDBRANCH  15  33
BRANCH  17  36
HETATM   36  C9  UNL     1     363.959 241.472 193.719  1.00  0.00     0.124 A 
HETATM   37  N2  UNL     1     364.704 240.655 194.432  1.00  0.00    -0.340 N 
HETATM   38  C10 UNL     1     364.019 239.833 195.216  1.00  0.00     0.060 A 
ATOM     39  H2  UNL     1     365.723 240.654 194.386  1.00  0.00     0.167 HD
HETATM   40  C11 UNL     1     364.372 238.836 196.112  1.00  0.00     0.034 A 
HETATM   41  C15 UNL     1     362.699 240.140 194.995  1.00  0.00     0.063 A 
HETATM   42  C12 UNL     1     363.418 238.130 196.800  1.00  0.00     0.038 A 
HETATM   43  C13 UNL     1     362.086 238.445 196.572  1.00  0.00     0.105 A 
HETATM   44  C14 UNL     1     361.734 239.442 195.676  1.00  0.00     0.068 A 
HETATM   45  N4  UNL     1     362.678 241.126 194.094  1.00  0.00    -0.340 N 
ATOM     46  H4  UNL     1     361.830 241.563 193.733  1.00  0.00     0.167 HD
BRANCH  43  47
HETATM   47  N3  UNL     1     361.094 237.724 197.275  1.00  0.00    -0.116 N 
HETATM   48  O6  UNL     1     361.369 236.837 198.095  1.00  0.00    -0.532 OA
HETATM   49  O7  UNL     1     359.776 238.015 197.047  1.00  0.00    -0.532 OA
ENDBRANCH  43  47
ENDBRANCH  17  36
ENDBRANCH   1  12
TORSDOF 10
ENDMDL
MODEL 3
REMARK VINA RESULT: -7.812919677      7.475      9.846
REMARK  10 active torsions:
REMARK  status: ('A' for Active; 'I' for Inactive)
REMARK    1  A    between atoms: O1_2  and  C2_3 
REMARK    2  A    between atoms: C3_4  and  O2_5 
REMARK    3  A    between atoms: O2_5  and  C4_6 
REMARK    4  A    between atoms: C4_6  and  C5_8 
REMARK    5  A    between atoms: C5_8  and  O4_9 
REMARK    6  A    between atoms: N1_11  and  C6_12 
REMARK    7  A    between atoms: C6_12  and  O5_13 
REMARK    8  A    between atoms: C8_16  and  C9_17 
REMARK    9  A    between atoms: C13_23  and  N3_24 
REMARK   10  A    between atoms: C17_38  and  N8_39 
REMARK       I    between atoms: N8_39  and  C18_41 
REMARK       I    between atoms: C18_41  and  N9_42 
REMARK       I    between atoms: C18_41  and  N10_46 
ROOT
HETATM    1  N8  UNL     1     371.900 248.771 190.514  1.00  0.00    -0.329 N 
ATOM      2  H8  UNL     1     371.410 249.661 190.433  1.00  0.00     0.165 HD
HETATM    3  C18 UNL     1     373.197 249.062 190.843  1.00  0.00     0.396 C 
HETATM    4  N9  UNL     1     374.160 249.046 189.752  1.00  0.00    -0.040 N 
ATOM      5  H91 UNL     1     375.125 249.264 189.998  1.00  0.00     0.279 HD
ATOM      6  H92 UNL     1     373.845 249.668 189.007  1.00  0.00     0.279 HD
ATOM      7  H93 UNL     1     374.121 248.146 189.273  1.00  0.00     0.279 HD
HETATM    8  N10 UNL     1     373.288 250.446 191.378  1.00  0.00    -0.284 N 
ATOM      9  H10 UNL     1     372.456 251.031 191.457  1.00  0.00     0.175 HD
HETATM   10  C19 UNL     1     374.533 250.924 191.769  1.00  0.00     0.180 C 
HETATM   11  N11 UNL     1     375.583 251.337 192.102  1.00  0.00    -0.172 NA
ENDROOT
BRANCH   1  12
HETATM   12  C17 UNL     1     371.078 247.891 190.275  1.00  0.00     0.166 A 
HETATM   13  C2  UNL     1     370.238 248.094 189.180  1.00  0.00     0.166 A 
HETATM   14  C3  UNL     1     369.288 247.203 188.811  1.00  0.00     0.194 A 
HETATM   15  N1  UNL     1     369.115 246.064 189.502  1.00  0.00    -0.286 N 
HETATM   16  C7  UNL     1     369.916 245.824 190.583  1.00  0.00     0.153 A 
HETATM   17  C8  UNL     1     370.028 244.766 191.457  1.00  0.00     0.099 A 
HETATM   18  N7  UNL     1     370.871 246.731 190.944  1.00  0.00    -0.218 N 
HETATM   19  C16 UNL     1     371.081 245.097 192.335  1.00  0.00     0.132 A 
HETATM   20  N5  UNL     1     371.461 244.403 193.322  1.00  0.00    -0.384 N 
HETATM   21  N6  UNL     1     371.549 246.288 191.978  1.00  0.00    -0.275 N 
ATOM     22  H52 UNL     1     371.102 243.489 193.596  1.00  0.00     0.157 HD
ATOM     23  H51 UNL     1     372.222 244.643 193.957  1.00  0.00     0.157 HD
ATOM     24  H6  UNL     1     372.316 246.782 192.435  1.00  0.00     0.189 HD
BRANCH  13  25
HETATM   25  O1  UNL     1     370.390 249.257 188.448  1.00  0.00    -0.349 OA
HETATM   26  C1  UNL     1     371.244 249.169 187.298  1.00  0.00     0.210 C 
ENDBRANCH  13  25
BRANCH  14  27
HETATM   27  O2  UNL     1     368.472 247.446 187.710  1.00  0.00    -0.256 OA
BRANCH  27  28
HETATM   28  C4  UNL     1     367.219 248.057 187.829  1.00  0.00     0.289 C 
HETATM   29  O3  UNL     1     366.220 247.335 187.584  1.00  0.00    -0.262 OA
BRANCH  28  30
HETATM   30  C5  UNL     1     367.009 249.462 188.212  1.00  0.00     0.275 C 
BRANCH  30  31
HETATM   31  O4  UNL     1     367.899 250.331 187.620  1.00  0.00    -0.391 OA
ATOM     32  H4  UNL     1     368.397 250.845 188.243  1.00  0.00     0.210 HD
ENDBRANCH  30  31
ENDBRANCH  28  30
ENDBRANCH  27  28
ENDBRANCH  14  27
BRANCH  15  33
HETATM   33  C6  UNL     1     368.148 245.101 189.051  1.00  0.00     0.299 C 
BRANCH  33  34
HETATM   34  O5  UNL     1     368.468 244.539 187.801  1.00  0.00    -0.382 OA
ATOM     35  H5  UNL     1     367.888 244.822 187.104  1.00  0.00     0.211 HD
ENDBRANCH  33  34
ENDBRANCH  15  33
BRANCH  17  36
HETATM   36  C9  UNL     1     369.221 243.569 191.602  1.00  0.00     0.124 A 
HETATM   37  N2  UNL     1     369.381 242.291 191.339  1.00  0.00    -0.340 N 
HETATM   38  C10 UNL     1     368.287 241.557 191.503  1.00  0.00     0.060 A 
ATOM     39  H2  UNL     1     370.271 241.896 191.033  1.00  0.00     0.167 HD
HETATM   40  C11 UNL     1     367.996 240.210 191.348  1.00  0.00     0.034 A 
HETATM   41  C15 UNL     1     367.319 242.439 191.913  1.00  0.00     0.063 A 
HETATM   42  C12 UNL     1     366.738 239.723 191.598  1.00  0.00     0.038 A 
HETATM   43  C13 UNL     1     365.764 240.620 192.011  1.00  0.00     0.105 A 
HETATM   44  C14 UNL     1     366.056 241.966 192.166  1.00  0.00     0.068 A 
HETATM   45  N4  UNL     1     367.894 243.644 191.969  1.00  0.00    -0.340 N 
ATOM     46  H4  UNL     1     367.416 244.502 192.244  1.00  0.00     0.167 HD
BRANCH  43  47
HETATM   47  N3  UNL     1     364.464 240.130 192.272  1.00  0.00    -0.116 N 
HETATM   48  O6  UNL     1     364.129 239.683 193.377  1.00  0.00    -0.532 OA
HETATM   49  O7  UNL     1     363.534 240.150 191.268  1.00  0.00    -0.532 OA
ENDBRANCH  43  47
ENDBRANCH  17  36
ENDBRANCH   1  12
TORSDOF 10
ENDMDL
MODEL 4
REMARK VINA RESULT: -7.792381802      3.822      5.609
REMARK  10 active torsions:
REMARK  status: ('A' for Active; 'I' for Inactive)
REMARK    1  A    between atoms: O1_2  and  C2_3 
REMARK    2  A    between atoms: C3_4  and  O2_5 
REMARK    3  A    between atoms: O2_5  and  C4_6 
REMARK    4  A    between atoms: C4_6  and  C5_8 
REMARK    5  A    between atoms: C5_8  and  O4_9 
REMARK    6  A    between atoms: N1_11  and  C6_12 
REMARK    7  A    between atoms: C6_12  and  O5_13 
REMARK    8  A    between atoms: C8_16  and  C9_17 
REMARK    9  A    between atoms: C13_23  and  N3_24 
REMARK   10  A    between atoms: C17_38  and  N8_39 
REMARK       I    between atoms: N8_39  and  C18_41 
REMARK       I    between atoms: C18_41  and  N9_42 
REMARK       I    between atoms: C18_41  and  N10_46 
ROOT
HETATM    1  N8  UNL     1     367.669 243.412 190.617  1.00  0.00    -0.329 N 
ATOM      2  H8  UNL     1     367.249 243.599 191.527  1.00  0.00     0.165 HD
HETATM    3  C18 UNL     1     368.832 244.131 190.562  1.00  0.00     0.396 C 
HETATM    4  N9  UNL     1     368.778 245.393 189.839  1.00  0.00    -0.040 N 
ATOM      5  H91 UNL     1     369.645 245.928 189.799  1.00  0.00     0.279 HD
ATOM      6  H92 UNL     1     368.031 245.974 190.219  1.00  0.00     0.279 HD
ATOM      7  H93 UNL     1     368.428 245.233 188.895  1.00  0.00     0.279 HD
HETATM    8  N10 UNL     1     369.254 244.522 191.932  1.00  0.00    -0.284 N 
ATOM      9  H10 UNL     1     368.701 244.254 192.746  1.00  0.00     0.175 HD
HETATM   10  C19 UNL     1     370.422 245.263 192.079  1.00  0.00     0.180 C 
HETATM   11  N11 UNL     1     371.409 245.890 192.213  1.00  0.00    -0.172 NA
ENDROOT
BRANCH   1  12
HETATM   12  C17 UNL     1     366.917 242.636 190.034  1.00  0.00     0.166 A 
HETATM   13  C2  UNL     1     365.981 243.198 189.165  1.00  0.00     0.166 A 
HETATM   14  C3  UNL     1     365.094 242.455 188.464  1.00  0.00     0.194 A 
HETATM   15  N1  UNL     1     365.080 241.117 188.582  1.00  0.00    -0.286 N 
HETATM   16  C7  UNL     1     365.979 240.523 189.424  1.00  0.00     0.153 A 
HETATM   17  C8  UNL     1     366.254 239.210 189.735  1.00  0.00     0.099 A 
HETATM   18  N7  UNL     1     366.869 241.285 190.125  1.00  0.00    -0.218 N 
HETATM   19  C16 UNL     1     367.334 239.243 190.641  1.00  0.00     0.132 A 
HETATM   20  N5  UNL     1     367.850 238.238 191.207  1.00  0.00    -0.384 N 
HETATM   21  N6  UNL     1     367.661 240.517 190.837  1.00  0.00    -0.275 N 
ATOM     22  H52 UNL     1     367.600 237.261 191.057  1.00  0.00     0.157 HD
ATOM     23  H51 UNL     1     368.632 238.262 191.863  1.00  0.00     0.157 HD
ATOM     24  H6  UNL     1     368.411 240.846 191.445  1.00  0.00     0.189 HD
BRANCH  13  25
HETATM   25  O1  UNL     1     365.969 244.573 189.021  1.00  0.00    -0.349 OA
HETATM   26  C1  UNL     1     364.990 245.278 189.797  1.00  0.00     0.210 C 
ENDBRANCH  13  25
BRANCH  14  27
HETATM   27  O2  UNL     1     364.179 243.058 187.606  1.00  0.00    -0.256 OA
BRANCH  27  28
HETATM   28  C4  UNL     1     364.469 243.310 186.260  1.00  0.00     0.289 C 
HETATM   29  O3  UNL     1     363.493 243.315 185.470  1.00  0.00    -0.262 OA
BRANCH  28  30
HETATM   30  C5  UNL     1     365.819 243.561 185.731  1.00  0.00     0.275 C 
BRANCH  30  31
HETATM   31  O4  UNL     1     366.351 244.765 186.136  1.00  0.00    -0.391 OA
ATOM     32  H4  UNL     1     366.228 245.464 185.506  1.00  0.00     0.210 HD
ENDBRANCH  30  31
ENDBRANCH  28  30
ENDBRANCH  27  28
ENDBRANCH  14  27
BRANCH  15  33
HETATM   33  C6  UNL     1     364.176 240.343 187.776  1.00  0.00     0.299 C 
BRANCH  33  34
HETATM   34  O5  UNL     1     362.874 240.284 188.306  1.00  0.00    -0.382 OA
ATOM     35  H5  UNL     1     362.284 240.921 187.920  1.00  0.00     0.211 HD
ENDBRANCH  33  34
ENDBRANCH  15  33
BRANCH  17  36
HETATM   36  C9  UNL     1     365.575 237.985 189.355  1.00  0.00     0.124 A 
HETATM   37  N2  UNL     1     364.701 237.182 189.921  1.00  0.00    -0.340 N 
HETATM   38  C10 UNL     1     364.465 236.066 189.243  1.00  0.00     0.060 A 
ATOM     39  H2  UNL     1     364.243 237.398 190.806  1.00  0.00     0.167 HD
HETATM   40  C11 UNL     1     363.647 234.965 189.451  1.00  0.00     0.034 A 
HETATM   41  C15 UNL     1     365.261 236.145 188.128  1.00  0.00     0.063 A 
HETATM   42  C12 UNL     1     363.611 233.929 188.552  1.00  0.00     0.038 A 
HETATM   43  C13 UNL     1     364.418 234.016 187.427  1.00  0.00     0.105 A 
HETATM   44  C14 UNL     1     365.235 235.116 187.221  1.00  0.00     0.068 A 
HETATM   45  N4  UNL     1     365.923 237.303 188.208  1.00  0.00    -0.340 N 
ATOM     46  H4  UNL     1     366.592 237.637 187.515  1.00  0.00     0.167 HD
BRANCH  43  47
HETATM   47  N3  UNL     1     364.389 232.955 186.494  1.00  0.00    -0.116 N 
HETATM   48  O6  UNL     1     363.632 231.981 186.614  1.00  0.00    -0.532 OA
HETATM   49  O7  UNL     1     365.225 232.999 185.412  1.00  0.00    -0.532 OA
ENDBRANCH  43  47
ENDBRANCH  17  36
ENDBRANCH   1  12
TORSDOF 10
ENDMDL
MODEL 5
REMARK VINA RESULT: -7.728385025      8.133     10.428
REMARK  10 active torsions:
REMARK  status: ('A' for Active; 'I' for Inactive)
REMARK    1  A    between atoms: O1_2  and  C2_3 
REMARK    2  A    between atoms: C3_4  and  O2_5 
REMARK    3  A    between atoms: O2_5  and  C4_6 
REMARK    4  A    between atoms: C4_6  and  C5_8 
REMARK    5  A    between atoms: C5_8  and  O4_9 
REMARK    6  A    between atoms: N1_11  and  C6_12 
REMARK    7  A    between atoms: C6_12  and  O5_13 
REMARK    8  A    between atoms: C8_16  and  C9_17 
REMARK    9  A    between atoms: C13_23  and  N3_24 
REMARK   10  A    between atoms: C17_38  and  N8_39 
REMARK       I    between atoms: N8_39  and  C18_41 
REMARK       I    between atoms: C18_41  and  N9_42 
REMARK       I    between atoms: C18_41  and  N10_46 
ROOT
HETATM    1  N8  UNL     1     372.626 247.775 191.369  1.00  0.00    -0.329 N 
ATOM      2  H8  UNL     1     373.429 247.962 190.769  1.00  0.00     0.165 HD
HETATM    3  C18 UNL     1     373.082 247.808 192.659  1.00  0.00     0.396 C 
HETATM    4  N9  UNL     1     373.351 246.521 193.282  1.00  0.00    -0.040 N 
ATOM      5  H91 UNL     1     373.690 246.546 194.244  1.00  0.00     0.279 HD
ATOM      6  H92 UNL     1     373.999 245.987 192.702  1.00  0.00     0.279 HD
ATOM      7  H93 UNL     1     372.521 245.931 193.226  1.00  0.00     0.279 HD
HETATM    8  N10 UNL     1     374.388 248.515 192.721  1.00  0.00    -0.284 N 
ATOM      9  H10 UNL     1     374.817 248.892 191.877  1.00  0.00     0.175 HD
HETATM   10  C19 UNL     1     375.010 248.649 193.957  1.00  0.00     0.180 C 
HETATM   11  N11 UNL     1     375.544 248.767 194.999  1.00  0.00    -0.172 NA
ENDROOT
BRANCH   1  12
HETATM   12  C17 UNL     1     371.661 247.616 190.628  1.00  0.00     0.166 A 
HETATM   13  C2  UNL     1     371.353 248.663 189.759  1.00  0.00     0.166 A 
HETATM   14  C3  UNL     1     370.314 248.614 188.893  1.00  0.00     0.194 A 
HETATM   15  N1  UNL     1     369.522 247.531 188.837  1.00  0.00    -0.286 N 
HETATM   16  C7  UNL     1     369.786 246.481 189.671  1.00  0.00     0.153 A 
HETATM   17  C8  UNL     1     369.213 245.239 189.834  1.00  0.00     0.099 A 
HETATM   18  N7  UNL     1     370.838 246.542 190.539  1.00  0.00    -0.218 N 
HETATM   19  C16 UNL     1     369.973 244.588 190.828  1.00  0.00     0.132 A 
HETATM   20  N5  UNL     1     369.733 243.442 191.304  1.00  0.00    -0.384 N 
HETATM   21  N6  UNL     1     370.935 245.420 191.214  1.00  0.00    -0.275 N 
ATOM     22  H52 UNL     1     368.995 242.804 191.008  1.00  0.00     0.157 HD
ATOM     23  H51 UNL     1     370.282 242.972 192.023  1.00  0.00     0.157 HD
ATOM     24  H6  UNL     1     371.640 245.218 191.923  1.00  0.00     0.189 HD
BRANCH  13  25
HETATM   25  O1  UNL     1     372.149 249.793 189.792  1.00  0.00    -0.349 OA
HETATM   26  C1  UNL     1     373.402 249.700 189.098  1.00  0.00     0.210 C 
ENDBRANCH  13  25
BRANCH  14  27
HETATM   27  O2  UNL     1     370.044 249.683 188.043  1.00  0.00    -0.256 OA
BRANCH  27  28
HETATM   28  C4  UNL     1     370.617 249.789 186.770  1.00  0.00     0.289 C 
HETATM   29  O3  UNL     1     370.308 250.807 186.102  1.00  0.00    -0.262 OA
BRANCH  28  30
HETATM   30  C5  UNL     1     371.536 248.800 186.184  1.00  0.00     0.275 C 
BRANCH  30  31
HETATM   31  O4  UNL     1     370.919 247.922 185.320  1.00  0.00    -0.391 OA
ATOM     32  H4  UNL     1     371.475 247.642 184.604  1.00  0.00     0.210 HD
ENDBRANCH  30  31
ENDBRANCH  28  30
ENDBRANCH  27  28
ENDBRANCH  14  27
BRANCH  15  33
HETATM   33  C6  UNL     1     368.467 247.474 187.862  1.00  0.00     0.299 C 
BRANCH  33  34
HETATM   34  O5  UNL     1     368.779 246.660 186.757  1.00  0.00    -0.382 OA
ATOM     35  H5  UNL     1     368.011 246.301 186.328  1.00  0.00     0.211 HD
ENDBRANCH  33  34
ENDBRANCH  15  33
BRANCH  17  36
HETATM   36  C9  UNL     1     368.021 244.662 189.242  1.00  0.00     0.124 A 
HETATM   37  N2  UNL     1     367.711 244.138 188.076  1.00  0.00    -0.340 N 
HETATM   38  C10 UNL     1     366.421 243.866 187.925  1.00  0.00     0.060 A 
ATOM     39  H2  UNL     1     368.403 243.955 187.350  1.00  0.00     0.167 HD
HETATM   40  C11 UNL     1     365.662 243.325 186.898  1.00  0.00     0.034 A 
HETATM   41  C15 UNL     1     365.830 244.250 189.103  1.00  0.00     0.063 A 
HETATM   42  C12 UNL     1     364.306 243.159 187.029  1.00  0.00     0.038 A 
HETATM   43  C13 UNL     1     363.716 243.549 188.222  1.00  0.00     0.105 A 
HETATM   44  C14 UNL     1     364.475 244.089 189.248  1.00  0.00     0.068 A 
HETATM   45  N4  UNL     1     366.803 244.726 189.886  1.00  0.00    -0.340 N 
ATOM     46  H4  UNL     1     366.664 245.086 190.829  1.00  0.00     0.167 HD
BRANCH  43  47
HETATM   47  N3  UNL     1     362.320 243.383 188.369  1.00  0.00    -0.116 N 
HETATM   48  O6  UNL     1     361.553 244.334 188.571  1.00  0.00    -0.532 OA
HETATM   49  O7  UNL     1     361.789 242.124 188.284  1.00  0.00    -0.532 OA
ENDBRANCH  43  47
ENDBRANCH  17  36
ENDBRANCH   1  12
TORSDOF 10
ENDMDL
