MODEL 1
REMARK VINA RESULT: -8.338680934      0.000      0.000
REMARK  13 active torsions:
REMARK  status: ('A' for Active; 'I' for Inactive)
REMARK    1  A    between atoms: C3_4  and  N2_5 
REMARK    2  A    between atoms: N2_5  and  C4_6 
REMARK    3  A    between atoms: N2_5  and  C5_9 
REMARK    4  A    between atoms: C4_6  and  S1_7 
REMARK    5  A    between atoms: C5_9  and  O1_10 
REMARK    6  A    between atoms: C5_9  and  C6_12 
REMARK    7  A    between atoms: C6_12  and  C7_14 
REMARK    8  A    between atoms: C7_14  and  N3_15 
REMARK    9  A    between atoms: C7_14  and  C8_19 
REMARK   10  A    between atoms: C8_19  and  C9_20 
REMARK   11  A    between atoms: C12_23  and  O3_24 
REMARK   12  A    between atoms: N7_37  and  O4_39 
REMARK   13  A    between atoms: N8_43  and  N9_45 
ROOT
HETATM    1  C1  UNL     1     369.918 244.230 192.062  1.00  0.00     0.157 C 
HETATM    2  N1  UNL     1     368.804 243.729 191.258  1.00  0.00    -0.344 N 
HETATM    3  C2  UNL     1     368.150 242.615 191.658  1.00  0.00     0.124 A 
HETATM    4  C3  UNL     1     367.074 242.068 190.961  1.00  0.00     0.081 A 
HETATM    5  C15 UNL     1     366.707 242.717 189.839  1.00  0.00     0.081 A 
HETATM    6  N4  UNL     1     365.685 242.316 189.060  1.00  0.00    -0.331 N 
ATOM      7  H4  UNL     1     365.180 241.478 189.349  1.00  0.00     0.168 HD
HETATM    8  C16 UNL     1     365.277 242.918 187.946  1.00  0.00     0.190 A 
HETATM    9  C17 UNL     1     364.172 242.477 187.119  1.00  0.00     0.137 C 
HETATM   10  N5  UNL     1     363.287 242.149 186.454  1.00  0.00    -0.188 NA
HETATM   11  N6  UNL     1     365.946 244.037 187.556  1.00  0.00    -0.318 N 
ATOM     12  H6  UNL     1     365.662 244.526 186.708  1.00  0.00     0.169 HD
HETATM   13  C18 UNL     1     366.977 244.502 188.280  1.00  0.00     0.143 A 
HETATM   14  N7  UNL     1     367.593 245.568 187.884  1.00  0.00    -0.252 N 
ATOM     15  H7  UNL     1     368.378 245.931 188.426  1.00  0.00     0.196 HD
HETATM   16  C19 UNL     1     367.377 243.870 189.415  1.00  0.00     0.084 A 
HETATM   17  C20 UNL     1     368.455 244.380 190.156  1.00  0.00     0.138 A 
HETATM   18  N8  UNL     1     368.980 245.427 189.674  1.00  0.00    -0.291 N 
ATOM     19  H8  UNL     1     368.553 245.763 188.812  1.00  0.00     0.188 HD
ENDROOT
BRANCH   4  20
HETATM   20  N2  UNL     1     366.456 240.915 191.463  1.00  0.00    -0.311 N 
BRANCH  20  21
HETATM   21  C4  UNL     1     365.479 241.180 192.541  1.00  0.00     0.218 C 
BRANCH  21  22
HETATM   22  S1  UNL     1     363.804 241.395 192.093  1.00  0.00    -0.065 SA
HETATM   23  S2  UNL     1     363.252 243.400 191.754  1.00  0.00    -0.011 SA
ENDBRANCH  21  22
ENDBRANCH  20  21
BRANCH  20  24
HETATM   24  C5  UNL     1     366.688 239.582 191.158  1.00  0.00     0.193 C 
BRANCH  24  25
HETATM   25  O1  UNL     1     366.853 238.808 192.195  1.00  0.00    -0.343 OA
ATOM     26  H1  UNL     1     366.055 238.413 192.525  1.00  0.00     0.219 HD
ENDBRANCH  24  25
BRANCH  24  27
HETATM   27  C6  UNL     1     366.791 238.875 189.918  1.00  0.00     0.230 C 
HETATM   28  O2  UNL     1     367.941 238.448 189.566  1.00  0.00    -0.286 OA
BRANCH  27  29
HETATM   29  C7  UNL     1     365.695 238.584 189.003  1.00  0.00     0.265 C 
BRANCH  29  30
HETATM   30  N3  UNL     1     364.451 239.189 189.432  1.00  0.00    -0.068 N 
ATOM     31  H33 UNL     1     364.590 240.159 189.717  1.00  0.00     0.275 HD
ATOM     32  H32 UNL     1     363.823 239.342 188.642  1.00  0.00     0.275 HD
ATOM     33  H31 UNL     1     363.995 238.650 190.167  1.00  0.00     0.275 HD
ENDBRANCH  29  30
BRANCH  29  34
HETATM   34  C8  UNL     1     365.429 237.209 188.580  1.00  0.00     0.079 C 
BRANCH  34  35
HETATM   35  C9  UNL     1     365.328 236.858 187.184  1.00  0.00    -0.056 A 
HETATM   36  C10 UNL     1     364.814 235.679 186.729  1.00  0.00     0.010 A 
HETATM   37  C11 UNL     1     364.748 235.341 185.391  1.00  0.00     0.037 A 
HETATM   38  C12 UNL     1     365.220 236.229 184.460  1.00  0.00     0.065 A 
HETATM   39  C13 UNL     1     365.754 237.447 184.855  1.00  0.00     0.037 A 
HETATM   40  C14 UNL     1     365.797 237.737 186.218  1.00  0.00     0.010 A 
BRANCH  38  41
HETATM   41  O3  UNL     1     365.162 235.908 183.117  1.00  0.00    -0.361 OA
ATOM     42  H3  UNL     1     364.455 236.250 182.582  1.00  0.00     0.217 HD
ENDBRANCH  38  41
ENDBRANCH  34  35
ENDBRANCH  29  34
ENDBRANCH  27  29
ENDBRANCH  24  27
ENDBRANCH  20  24
ENDBRANCH   4  20
BRANCH  14  43
HETATM   43  O4  UNL     1     367.201 246.212 186.746  1.00  0.00    -0.288 OA
ATOM     44  H4  UNL     1     367.847 246.542 186.133  1.00  0.00     0.244 HD
ENDBRANCH  14  43
BRANCH  18  45
HETATM   45  N9  UNL     1     370.026 246.172 190.125  1.00  0.00    -0.344 N 
ATOM     46  H92 UNL     1     370.893 246.015 189.611  1.00  0.00     0.176 HD
ATOM     47  H91 UNL     1     370.070 246.852 190.884  1.00  0.00     0.176 HD
ENDBRANCH  18  45
TORSDOF 13
ENDMDL
MODEL 2
REMARK VINA RESULT: -8.288070580      1.237      3.533
REMARK  13 active torsions:
REMARK  status: ('A' for Active; 'I' for Inactive)
REMARK    1  A    between atoms: C3_4  and  N2_5 
REMARK    2  A    between atoms: N2_5  and  C4_6 
REMARK    3  A    between atoms: N2_5  and  C5_9 
REMARK    4  A    between atoms: C4_6  and  S1_7 
REMARK    5  A    between atoms: C5_9  and  O1_10 
REMARK    6  A    between atoms: C5_9  and  C6_12 
REMARK    7  A    between atoms: C6_12  and  C7_14 
REMARK    8  A    between atoms: C7_14  and  N3_15 
REMARK    9  A    between atoms: C7_14  and  C8_19 
REMARK   10  A    between atoms: C8_19  and  C9_20 
REMARK   11  A    between atoms: C12_23  and  O3_24 
REMARK   12  A    between atoms: N7_37  and  O4_39 
REMARK   13  A    between atoms: N8_43  and  N9_45 
ROOT
HETATM    1  C1  UNL     1     362.989 242.226 187.646  1.00  0.00     0.157 C 
HETATM    2  N1  UNL     1     364.256 242.618 188.261  1.00  0.00    -0.344 N 
HETATM    3  C2  UNL     1     364.811 241.816 189.197  1.00  0.00     0.124 A 
HETATM    4  C3  UNL     1     366.018 242.103 189.834  1.00  0.00     0.081 A 
HETATM    5  C15 UNL     1     366.620 243.250 189.463  1.00  0.00     0.081 A 
HETATM    6  N4  UNL     1     367.792 243.664 189.983  1.00  0.00    -0.331 N 
ATOM      7  H4  UNL     1     368.224 243.069 190.689  1.00  0.00     0.168 HD
HETATM    8  C16 UNL     1     368.433 244.782 189.654  1.00  0.00     0.190 A 
HETATM    9  C17 UNL     1     369.696 245.213 190.218  1.00  0.00     0.137 C 
HETATM   10  N5  UNL     1     370.708 245.568 190.647  1.00  0.00    -0.188 NA
HETATM   11  N6  UNL     1     367.861 245.580 188.711  1.00  0.00    -0.318 N 
ATOM     12  H6  UNL     1     368.323 246.445 188.433  1.00  0.00     0.169 HD
HETATM   13  C18 UNL     1     366.692 245.236 188.145  1.00  0.00     0.143 A 
HETATM   14  N7  UNL     1     366.173 246.014 187.252  1.00  0.00    -0.252 N 
ATOM     15  H7  UNL     1     365.286 245.764 186.815  1.00  0.00     0.196 HD
HETATM   16  C19 UNL     1     366.055 244.088 188.497  1.00  0.00     0.084 A 
HETATM   17  C20 UNL     1     364.836 243.750 187.886  1.00  0.00     0.138 A 
HETATM   18  N8  UNL     1     364.425 244.586 187.028  1.00  0.00    -0.291 N 
ATOM     19  H8  UNL     1     365.031 245.394 186.891  1.00  0.00     0.188 HD
ENDROOT
BRANCH   4  20
HETATM   20  N2  UNL     1     366.516 241.202 190.784  1.00  0.00    -0.311 N 
BRANCH  20  21
HETATM   21  C4  UNL     1     366.335 241.645 192.183  1.00  0.00     0.218 C 
BRANCH  21  22
HETATM   22  S1  UNL     1     364.822 241.270 192.971  1.00  0.00    -0.065 SA
HETATM   23  S2  UNL     1     364.830 239.448 194.032  1.00  0.00    -0.011 SA
ENDBRANCH  21  22
ENDBRANCH  20  21
BRANCH  20  24
HETATM   24  C5  UNL     1     367.216 240.019 190.600  1.00  0.00     0.193 C 
BRANCH  24  25
HETATM   25  O1  UNL     1     368.308 239.918 191.307  1.00  0.00    -0.343 OA
ATOM     26  H1  UNL     1     368.180 239.984 192.246  1.00  0.00     0.219 HD
ENDBRANCH  24  25
BRANCH  24  27
HETATM   27  C6  UNL     1     366.982 238.873 189.776  1.00  0.00     0.230 C 
HETATM   28  O2  UNL     1     367.996 238.218 189.360  1.00  0.00    -0.286 OA
BRANCH  27  29
HETATM   29  C7  UNL     1     365.681 238.364 189.361  1.00  0.00     0.265 C 
BRANCH  29  30
HETATM   30  N3  UNL     1     364.684 238.503 190.403  1.00  0.00    -0.068 N 
ATOM     31  H33 UNL     1     364.965 239.200 191.093  1.00  0.00     0.275 HD
ATOM     32  H32 UNL     1     363.841 238.955 190.050  1.00  0.00     0.275 HD
ATOM     33  H31 UNL     1     364.467 237.611 190.847  1.00  0.00     0.275 HD
ENDBRANCH  29  30
BRANCH  29  34
HETATM   34  C8  UNL     1     365.562 237.033 188.768  1.00  0.00     0.079 C 
BRANCH  34  35
HETATM   35  C9  UNL     1     365.409 236.855 187.344  1.00  0.00    -0.056 A 
HETATM   36  C10 UNL     1     364.816 235.769 186.770  1.00  0.00     0.010 A 
HETATM   37  C11 UNL     1     364.700 235.596 185.404  1.00  0.00     0.037 A 
HETATM   38  C12 UNL     1     365.205 236.558 184.569  1.00  0.00     0.065 A 
HETATM   39  C13 UNL     1     365.819 237.689 185.089  1.00  0.00     0.037 A 
HETATM   40  C14 UNL     1     365.909 237.814 186.474  1.00  0.00     0.010 A 
BRANCH  38  41
HETATM   41  O3  UNL     1     365.098 236.401 183.201  1.00  0.00    -0.361 OA
ATOM     42  H3  UNL     1     365.418 237.083 182.623  1.00  0.00     0.217 HD
ENDBRANCH  38  41
ENDBRANCH  34  35
ENDBRANCH  29  34
ENDBRANCH  27  29
ENDBRANCH  24  27
ENDBRANCH  20  24
ENDBRANCH   4  20
BRANCH  14  43
HETATM   43  O4  UNL     1     366.804 247.170 186.890  1.00  0.00    -0.288 OA
ATOM     44  H4  UNL     1     366.527 248.003 187.252  1.00  0.00     0.244 HD
ENDBRANCH  14  43
BRANCH  18  45
HETATM   45  N9  UNL     1     363.302 244.575 186.259  1.00  0.00    -0.344 N 
ATOM     46  H92 UNL     1     363.459 244.884 185.300  1.00  0.00     0.176 HD
ATOM     47  H91 UNL     1     362.346 244.308 186.495  1.00  0.00     0.176 HD
ENDBRANCH  18  45
TORSDOF 13
ENDMDL
MODEL 3
REMARK VINA RESULT: -8.283602482      3.563      5.143
REMARK  13 active torsions:
REMARK  status: ('A' for Active; 'I' for Inactive)
REMARK    1  A    between atoms: C3_4  and  N2_5 
REMARK    2  A    between atoms: N2_5  and  C4_6 
REMARK    3  A    between atoms: N2_5  and  C5_9 
REMARK    4  A    between atoms: C4_6  and  S1_7 
REMARK    5  A    between atoms: C5_9  and  O1_10 
REMARK    6  A    between atoms: C5_9  and  C6_12 
REMARK    7  A    between atoms: C6_12  and  C7_14 
REMARK    8  A    between atoms: C7_14  and  N3_15 
REMARK    9  A    between atoms: C7_14  and  C8_19 
REMARK   10  A    between atoms: C8_19  and  C9_20 
REMARK   11  A    between atoms: C12_23  and  O3_24 
REMARK   12  A    between atoms: N7_37  and  O4_39 
REMARK   13  A    between atoms: N8_43  and  N9_45 
ROOT
HETATM    1  C1  UNL     1     365.076 238.853 195.527  1.00  0.00     0.157 C 
HETATM    2  N1  UNL     1     364.803 239.336 194.174  1.00  0.00    -0.344 N 
HETATM    3  C2  UNL     1     365.751 239.195 193.220  1.00  0.00     0.124 A 
HETATM    4  C3  UNL     1     365.579 239.619 191.903  1.00  0.00     0.081 A 
HETATM    5  C15 UNL     1     364.393 240.192 191.618  1.00  0.00     0.081 A 
HETATM    6  N4  UNL     1     364.075 240.648 190.391  1.00  0.00    -0.331 N 
ATOM      7  H4  UNL     1     364.779 240.548 189.660  1.00  0.00     0.168 HD
HETATM    8  C16 UNL     1     362.921 241.217 190.053  1.00  0.00     0.190 A 
HETATM    9  C17 UNL     1     362.591 241.700 188.727  1.00  0.00     0.137 C 
HETATM   10  N5  UNL     1     362.303 242.079 187.675  1.00  0.00    -0.188 NA
HETATM   11  N6  UNL     1     361.978 241.352 191.024  1.00  0.00    -0.318 N 
ATOM     12  H6  UNL     1     361.082 241.784 190.802  1.00  0.00     0.169 HD
HETATM   13  C18 UNL     1     362.220 240.922 192.274  1.00  0.00     0.143 A 
HETATM   14  N7  UNL     1     361.304 241.064 193.176  1.00  0.00    -0.252 N 
ATOM     15  H7  UNL     1     361.475 240.741 194.128  1.00  0.00     0.196 HD
HETATM   16  C19 UNL     1     363.406 240.343 192.597  1.00  0.00     0.084 A 
HETATM   17  C20 UNL     1     363.631 239.897 193.910  1.00  0.00     0.138 A 
HETATM   18  N8  UNL     1     362.665 240.088 194.706  1.00  0.00    -0.291 N 
ATOM     19  H8  UNL     1     361.850 240.540 194.292  1.00  0.00     0.188 HD
ENDROOT
BRANCH   4  20
HETATM   20  N2  UNL     1     366.619 239.420 190.985  1.00  0.00    -0.311 N 
BRANCH  20  21
HETATM   21  C4  UNL     1     367.747 240.363 191.143  1.00  0.00     0.218 C 
BRANCH  21  22
HETATM   22  S1  UNL     1     367.413 242.070 190.986  1.00  0.00    -0.065 SA
HETATM   23  S2  UNL     1     368.955 243.320 191.698  1.00  0.00    -0.011 SA
ENDBRANCH  21  22
ENDBRANCH  20  21
BRANCH  20  24
HETATM   24  C5  UNL     1     366.700 238.538 189.917  1.00  0.00     0.193 C 
BRANCH  24  25
HETATM   25  O1  UNL     1     367.912 238.302 189.497  1.00  0.00    -0.343 OA
ATOM     26  H1  UNL     1     368.151 238.759 188.699  1.00  0.00     0.219 HD
ENDBRANCH  24  25
BRANCH  24  27
HETATM   27  C6  UNL     1     365.707 237.829 189.169  1.00  0.00     0.230 C 
HETATM   28  O2  UNL     1     364.926 237.044 189.805  1.00  0.00    -0.286 OA
BRANCH  27  29
HETATM   29  C7  UNL     1     365.490 237.917 187.731  1.00  0.00     0.265 C 
BRANCH  29  30
HETATM   30  N3  UNL     1     365.180 239.267 187.308  1.00  0.00    -0.068 N 
ATOM     31  H33 UNL     1     364.949 239.300 186.315  1.00  0.00     0.275 HD
ATOM     32  H32 UNL     1     364.288 239.579 187.692  1.00  0.00     0.275 HD
ATOM     33  H31 UNL     1     365.929 239.922 187.535  1.00  0.00     0.275 HD
ENDBRANCH  29  30
BRANCH  29  34
HETATM   34  C8  UNL     1     364.575 236.992 187.063  1.00  0.00     0.079 C 
BRANCH  34  35
HETATM   35  C9  UNL     1     365.052 236.023 186.106  1.00  0.00    -0.056 A 
HETATM   36  C10 UNL     1     365.395 236.325 184.820  1.00  0.00     0.010 A 
HETATM   37  C11 UNL     1     365.824 235.385 183.904  1.00  0.00     0.037 A 
HETATM   38  C12 UNL     1     365.915 234.074 184.293  1.00  0.00     0.065 A 
HETATM   39  C13 UNL     1     365.583 233.699 185.587  1.00  0.00     0.037 A 
HETATM   40  C14 UNL     1     365.156 234.689 186.471  1.00  0.00     0.010 A 
BRANCH  38  41
HETATM   41  O3  UNL     1     366.342 233.120 183.389  1.00  0.00    -0.361 OA
ATOM     42  H3  UNL     1     365.888 233.019 182.562  1.00  0.00     0.217 HD
ENDBRANCH  38  41
ENDBRANCH  34  35
ENDBRANCH  29  34
ENDBRANCH  27  29
ENDBRANCH  24  27
ENDBRANCH  20  24
ENDBRANCH   4  20
BRANCH  14  43
HETATM   43  O4  UNL     1     360.108 241.644 192.862  1.00  0.00    -0.288 OA
ATOM     44  H4  UNL     1     359.300 241.151 192.940  1.00  0.00     0.244 HD
ENDBRANCH  14  43
BRANCH  18  45
HETATM   45  N9  UNL     1     362.543 239.786 196.027  1.00  0.00    -0.344 N 
ATOM     46  H92 UNL     1     363.422 239.516 196.468  1.00  0.00     0.176 HD
ATOM     47  H91 UNL     1     361.720 239.790 196.631  1.00  0.00     0.176 HD
ENDBRANCH  18  45
TORSDOF 13
ENDMDL
MODEL 4
REMARK VINA RESULT: -8.275024164      2.377      3.074
REMARK  13 active torsions:
REMARK  status: ('A' for Active; 'I' for Inactive)
REMARK    1  A    between atoms: C3_4  and  N2_5 
REMARK    2  A    between atoms: N2_5  and  C4_6 
REMARK    3  A    between atoms: N2_5  and  C5_9 
REMARK    4  A    between atoms: C4_6  and  S1_7 
REMARK    5  A    between atoms: C5_9  and  O1_10 
REMARK    6  A    between atoms: C5_9  and  C6_12 
REMARK    7  A    between atoms: C6_12  and  C7_14 
REMARK    8  A    between atoms: C7_14  and  N3_15 
REMARK    9  A    between atoms: C7_14  and  C8_19 
REMARK   10  A    between atoms: C8_19  and  C9_20 
REMARK   11  A    between atoms: C12_23  and  O3_24 
REMARK   12  A    between atoms: N7_37  and  O4_39 
REMARK   13  A    between atoms: N8_43  and  N9_45 
ROOT
HETATM    1  C1  UNL     1     368.329 242.869 191.714  1.00  0.00     0.157 C 
HETATM    2  N1  UNL     1     367.413 242.734 190.583  1.00  0.00    -0.344 N 
HETATM    3  C2  UNL     1     366.549 241.694 190.554  1.00  0.00     0.124 A 
HETATM    4  C3  UNL     1     365.635 241.486 189.522  1.00  0.00     0.081 A 
HETATM    5  C15 UNL     1     365.654 242.394 188.527  1.00  0.00     0.081 A 
HETATM    6  N4  UNL     1     364.831 242.334 187.463  1.00  0.00    -0.331 N 
ATOM      7  H4  UNL     1     364.172 241.557 187.427  1.00  0.00     0.168 HD
HETATM    8  C16 UNL     1     364.803 243.203 186.456  1.00  0.00     0.190 A 
HETATM    9  C17 UNL     1     363.908 243.128 185.319  1.00  0.00     0.137 C 
HETATM   10  N5  UNL     1     363.195 243.093 184.411  1.00  0.00    -0.188 NA
HETATM   11  N6  UNL     1     365.679 244.243 186.499  1.00  0.00    -0.318 N 
ATOM     12  H6  UNL     1     365.686 244.929 185.744  1.00  0.00     0.169 HD
HETATM   13  C18 UNL     1     366.533 244.373 187.527  1.00  0.00     0.143 A 
HETATM   14  N7  UNL     1     367.353 245.373 187.540  1.00  0.00    -0.252 N 
ATOM     15  H7  UNL     1     368.007 245.483 188.316  1.00  0.00     0.196 HD
HETATM   16  C19 UNL     1     366.544 243.474 188.546  1.00  0.00     0.084 A 
HETATM   17  C20 UNL     1     367.444 243.636 189.612  1.00  0.00     0.138 A 
HETATM   18  N8  UNL     1     368.198 244.649 189.518  1.00  0.00    -0.291 N 
ATOM     19  H8  UNL     1     368.053 245.216 188.682  1.00  0.00     0.188 HD
ENDROOT
BRANCH   4  20
HETATM   20  N2  UNL     1     364.775 240.382 189.589  1.00  0.00    -0.311 N 
BRANCH  20  21
HETATM   21  C4  UNL     1     363.948 240.341 190.814  1.00  0.00     0.218 C 
BRANCH  21  22
HETATM   22  S1  UNL     1     362.869 241.680 191.119  1.00  0.00    -0.065 SA
HETATM   23  S2  UNL     1     361.678 242.224 189.466  1.00  0.00    -0.011 SA
ENDBRANCH  21  22
ENDBRANCH  20  21
BRANCH  20  24
HETATM   24  C5  UNL     1     364.653 239.301 188.728  1.00  0.00     0.193 C 
BRANCH  24  25
HETATM   25  O1  UNL     1     363.578 239.311 187.991  1.00  0.00    -0.343 OA
ATOM     26  H1  UNL     1     362.771 239.464 188.469  1.00  0.00     0.219 HD
ENDBRANCH  24  25
BRANCH  24  27
HETATM   27  C6  UNL     1     365.480 238.158 188.487  1.00  0.00     0.230 C 
HETATM   28  O2  UNL     1     366.269 237.783 189.418  1.00  0.00    -0.286 OA
BRANCH  27  29
HETATM   29  C7  UNL     1     365.509 237.362 187.267  1.00  0.00     0.265 C 
BRANCH  29  30
HETATM   30  N3  UNL     1     365.513 238.188 186.077  1.00  0.00    -0.068 N 
ATOM     31  H33 UNL     1     366.464 238.420 185.791  1.00  0.00     0.275 HD
ATOM     32  H32 UNL     1     365.223 237.655 185.257  1.00  0.00     0.275 HD
ATOM     33  H31 UNL     1     364.946 239.028 186.191  1.00  0.00     0.275 HD
ENDBRANCH  29  30
BRANCH  29  34
HETATM   34  C8  UNL     1     364.562 236.264 187.076  1.00  0.00     0.079 C 
BRANCH  34  35
HETATM   35  C9  UNL     1     364.548 235.122 187.959  1.00  0.00    -0.056 A 
HETATM   36  C10 UNL     1     363.900 235.095 189.159  1.00  0.00     0.010 A 
HETATM   37  C11 UNL     1     363.916 234.005 190.010  1.00  0.00     0.037 A 
HETATM   38  C12 UNL     1     364.616 232.887 189.640  1.00  0.00     0.065 A 
HETATM   39  C13 UNL     1     365.296 232.849 188.431  1.00  0.00     0.037 A 
HETATM   40  C14 UNL     1     365.247 233.975 187.611  1.00  0.00     0.010 A 
BRANCH  38  41
HETATM   41  O3  UNL     1     364.643 231.789 190.478  1.00  0.00    -0.361 OA
ATOM     42  H3  UNL     1     365.411 231.623 191.012  1.00  0.00     0.217 HD
ENDBRANCH  38  41
ENDBRANCH  34  35
ENDBRANCH  29  34
ENDBRANCH  27  29
ENDBRANCH  24  27
ENDBRANCH  20  24
ENDBRANCH   4  20
BRANCH  14  43
HETATM   43  O4  UNL     1     367.351 246.283 186.523  1.00  0.00    -0.288 OA
ATOM     44  H4  UNL     1     368.169 246.613 186.171  1.00  0.00     0.244 HD
ENDBRANCH  14  43
BRANCH  18  45
HETATM   45  N9  UNL     1     369.170 245.101 190.356  1.00  0.00    -0.344 N 
ATOM     46  H92 UNL     1     369.088 246.093 190.581  1.00  0.00     0.176 HD
ATOM     47  H91 UNL     1     369.953 244.606 190.784  1.00  0.00     0.176 HD
ENDBRANCH  18  45
TORSDOF 13
ENDMDL
MODEL 5
REMARK VINA RESULT: -8.236997879      3.712      8.873
REMARK  13 active torsions:
REMARK  status: ('A' for Active; 'I' for Inactive)
REMARK    1  A    between atoms: C3_4  and  N2_5 
REMARK    2  A    between atoms: N2_5  and  C4_6 
REMARK    3  A    between atoms: N2_5  and  C5_9 
REMARK    4  A    between atoms: C4_6  and  S1_7 
REMARK    5  A    between atoms: C5_9  and  O1_10 
REMARK    6  A    between atoms: C5_9  and  C6_12 
REMARK    7  A    between atoms: C6_12  and  C7_14 
REMARK    8  A    between atoms: C7_14  and  N3_15 
REMARK    9  A    between atoms: C7_14  and  C8_19 
REMARK   10  A    between atoms: C8_19  and  C9_20 
REMARK   11  A    between atoms: C12_23  and  O3_24 
REMARK   12  A    between atoms: N7_37  and  O4_39 
REMARK   13  A    between atoms: N8_43  and  N9_45 
ROOT
HETATM    1  C1  UNL     1     363.595 234.198 190.009  1.00  0.00     0.157 C 
HETATM    2  N1  UNL     1     364.223 234.830 188.849  1.00  0.00    -0.344 N 
HETATM    3  C2  UNL     1     364.591 236.129 188.924  1.00  0.00     0.124 A 
HETATM    4  C3  UNL     1     365.201 236.814 187.873  1.00  0.00     0.081 A 
HETATM    5  C15 UNL     1     365.409 236.102 186.749  1.00  0.00     0.081 A 
HETATM    6  N4  UNL     1     365.991 236.620 185.650  1.00  0.00    -0.331 N 
ATOM      7  H4  UNL     1     366.276 237.598 185.691  1.00  0.00     0.168 HD
HETATM    8  C16 UNL     1     366.225 235.964 184.516  1.00  0.00     0.190 A 
HETATM    9  C17 UNL     1     366.855 236.534 183.342  1.00  0.00     0.137 C 
HETATM   10  N5  UNL     1     367.367 236.965 182.401  1.00  0.00    -0.188 NA
HETATM   11  N6  UNL     1     365.847 234.659 184.456  1.00  0.00    -0.318 N 
ATOM     12  H6  UNL     1     366.010 234.124 183.603  1.00  0.00     0.169 HD
HETATM   13  C18 UNL     1     365.261 234.069 185.511  1.00  0.00     0.143 A 
HETATM   14  N7  UNL     1     364.913 232.826 185.423  1.00  0.00    -0.252 N 
ATOM     15  H7  UNL     1     364.468 232.367 186.218  1.00  0.00     0.196 HD
HETATM   16  C19 UNL     1     365.032 234.757 186.660  1.00  0.00     0.084 A 
HETATM   17  C20 UNL     1     364.421 234.116 187.749  1.00  0.00     0.138 A 
HETATM   18  N8  UNL     1     364.125 232.901 187.549  1.00  0.00    -0.291 N 
ATOM     19  H8  UNL     1     364.369 232.546 186.625  1.00  0.00     0.188 HD
ENDROOT
BRANCH   4  20
HETATM   20  N2  UNL     1     365.554 238.158 188.053  1.00  0.00    -0.311 N 
BRANCH  20  21
HETATM   21  C4  UNL     1     366.558 238.376 189.117  1.00  0.00     0.218 C 
BRANCH  21  22
HETATM   22  S1  UNL     1     365.991 238.920 190.677  1.00  0.00    -0.065 SA
HETATM   23  S2  UNL     1     367.510 239.121 192.125  1.00  0.00    -0.011 SA
ENDBRANCH  21  22
ENDBRANCH  20  21
BRANCH  20  24
HETATM   24  C5  UNL     1     365.042 239.296 187.448  1.00  0.00     0.193 C 
BRANCH  24  25
HETATM   25  O1  UNL     1     365.512 239.535 186.254  1.00  0.00    -0.343 OA
ATOM     26  H1  UNL     1     364.853 239.583 185.572  1.00  0.00     0.219 HD
ENDBRANCH  24  25
BRANCH  24  27
HETATM   27  C6  UNL     1     364.094 240.278 187.876  1.00  0.00     0.230 C 
HETATM   28  O2  UNL     1     362.939 239.875 188.242  1.00  0.00    -0.286 OA
BRANCH  27  29
HETATM   29  C7  UNL     1     364.318 241.716 187.944  1.00  0.00     0.265 C 
BRANCH  29  30
HETATM   30  N3  UNL     1     364.019 242.374 186.688  1.00  0.00    -0.068 N 
ATOM     31  H33 UNL     1     364.397 241.852 185.898  1.00  0.00     0.275 HD
ATOM     32  H32 UNL     1     363.026 242.308 186.465  1.00  0.00     0.275 HD
ATOM     33  H31 UNL     1     364.336 243.343 186.678  1.00  0.00     0.275 HD
ENDBRANCH  29  30
BRANCH  29  34
HETATM   34  C8  UNL     1     365.577 242.246 188.466  1.00  0.00     0.079 C 
BRANCH  34  35
HETATM   35  C9  UNL     1     365.747 242.532 189.870  1.00  0.00    -0.056 A 
HETATM   36  C10 UNL     1     366.961 242.652 190.482  1.00  0.00     0.010 A 
HETATM   37  C11 UNL     1     367.113 242.898 191.833  1.00  0.00     0.037 A 
HETATM   38  C12 UNL     1     365.993 243.031 192.612  1.00  0.00     0.065 A 
HETATM   39  C13 UNL     1     364.728 242.922 192.052  1.00  0.00     0.037 A 
HETATM   40  C14 UNL     1     364.632 242.673 190.684  1.00  0.00     0.010 A 
BRANCH  38  41
HETATM   41  O3  UNL     1     366.127 243.278 193.965  1.00  0.00    -0.361 OA
ATOM     42  H3  UNL     1     365.785 242.653 194.593  1.00  0.00     0.217 HD
ENDBRANCH  38  41
ENDBRANCH  34  35
ENDBRANCH  29  34
ENDBRANCH  27  29
ENDBRANCH  24  27
ENDBRANCH  20  24
ENDBRANCH   4  20
BRANCH  14  43
HETATM   43  O4  UNL     1     365.139 232.124 184.274  1.00  0.00    -0.288 OA
ATOM     44  H4  UNL     1     365.988 231.731 184.110  1.00  0.00     0.244 HD
ENDBRANCH  14  43
BRANCH  18  45
HETATM   45  N9  UNL     1     363.534 231.994 188.374  1.00  0.00    -0.344 N 
ATOM     46  H92 UNL     1     364.125 231.700 189.151  1.00  0.00     0.176 HD
ATOM     47  H91 UNL     1     362.605 231.573 188.331  1.00  0.00     0.176 HD
ENDBRANCH  18  45
TORSDOF 13
ENDMDL
