MODEL 1
REMARK VINA RESULT: -5.629366651      0.000      0.000
REMARK  4 active torsions:
REMARK  status: ('A' for Active; 'I' for Inactive)
REMARK    1  A    between atoms: C2_2  and  C3_3 
REMARK    2  A    between atoms: N1_8  and  C8_10 
REMARK    3  A    between atoms: C8_10  and  C9_11 
REMARK    4  A    between atoms: C9_11  and  O1_12 
ROOT
HETATM    1  C8  UNL     1     -18.236  -7.026  20.849  1.00  0.00     0.124 C 
HETATM    2  C10 UNL     1     -19.421  -7.352  19.909  1.00  0.00     0.090 C 
HETATM    3  C11 UNL     1     -20.499  -6.426  20.310  1.00  0.00     0.157 A 
HETATM    4  O2  UNL     1     -21.639  -6.574  20.938  1.00  0.00    -0.374 OA
HETATM    5  C12 UNL     1     -20.663  -6.775  21.792  1.00  0.00     0.168 A 
HETATM    6  C13 UNL     1     -19.678  -5.859  22.417  1.00  0.00     0.151 C 
HETATM    7  N2  UNL     1     -18.488  -5.884  21.652  1.00  0.00    -0.392 N 
ATOM      8  H2  UNL     1     -17.830  -5.105  21.677  1.00  0.00     0.155 HD
ENDROOT
BRANCH   1   9
HETATM    9  N1  UNL     1     -18.023  -8.163  21.658  1.00  0.00    -0.360 N 
HETATM   10  C7  UNL     1     -17.161  -8.322  22.520  1.00  0.00     0.049 C 
HETATM   11  C6  UNL     1     -17.007  -9.584  23.342  1.00  0.00     0.070 C 
HETATM   12  S1  UNL     1     -15.846  -7.300  23.151  1.00  0.00    -0.082 SA
HETATM   13  C5  UNL     1     -15.495  -9.843  23.318  1.00  0.00     0.052 C 
HETATM   14  C4  UNL     1     -14.843  -8.619  23.846  1.00  0.00    -0.019 C 
HETATM   15  C3  UNL     1     -13.789  -8.575  24.627  1.00  0.00    -0.013 C 
ATOM     16  H1  UNL     1     -18.659  -8.947  21.509  1.00  0.00     0.162 HD
BRANCH  15  17
HETATM   17  C2  UNL     1     -13.058  -9.762  25.123  1.00  0.00     0.024 C 
HETATM   18  C1  UNL     1     -13.517  -9.998  26.555  1.00  0.00     0.009 C 
ENDBRANCH  15  17
ENDBRANCH   1   9
BRANCH   1  19
HETATM   19  C9  UNL     1     -17.044  -6.855  19.935  1.00  0.00     0.217 C 
BRANCH  19  20
HETATM   20  O1  UNL     1     -17.529  -7.115  18.630  1.00  0.00    -0.397 OA
ATOM     21  H1  UNL     1     -16.928  -7.749  18.258  1.00  0.00     0.209 HD
ENDBRANCH  19  20
ENDBRANCH   1  19
TORSDOF 4
ENDMDL
MODEL 2
REMARK VINA RESULT: -5.411606078      2.199      3.074
REMARK  4 active torsions:
REMARK  status: ('A' for Active; 'I' for Inactive)
REMARK    1  A    between atoms: C2_2  and  C3_3 
REMARK    2  A    between atoms: N1_8  and  C8_10 
REMARK    3  A    between atoms: C8_10  and  C9_11 
REMARK    4  A    between atoms: C9_11  and  O1_12 
ROOT
HETATM    1  C8  UNL     1     -17.240  -8.761  22.022  1.00  0.00     0.124 C 
HETATM    2  C10 UNL     1     -18.210  -8.688  23.225  1.00  0.00     0.090 C 
HETATM    3  C11 UNL     1     -18.903  -7.391  23.085  1.00  0.00     0.157 A 
HETATM    4  O2  UNL     1     -18.846  -6.254  23.733  1.00  0.00    -0.374 OA
HETATM    5  C12 UNL     1     -17.722  -6.416  23.075  1.00  0.00     0.168 A 
HETATM    6  C13 UNL     1     -17.397  -6.369  21.628  1.00  0.00     0.151 C 
HETATM    7  N2  UNL     1     -17.430  -7.687  21.114  1.00  0.00    -0.392 N 
ATOM      8  H2  UNL     1     -17.586  -7.860  20.121  1.00  0.00     0.155 HD
ENDROOT
BRANCH   1   9
HETATM    9  N1  UNL     1     -15.929  -8.743  22.543  1.00  0.00    -0.360 N 
HETATM   10  C7  UNL     1     -15.437  -9.513  23.365  1.00  0.00     0.049 C 
HETATM   11  C6  UNL     1     -14.012  -9.416  23.870  1.00  0.00     0.070 C 
HETATM   12  S1  UNL     1     -16.054 -10.928  24.254  1.00  0.00    -0.082 SA
HETATM   13  C5  UNL     1     -14.156  -9.609  25.385  1.00  0.00     0.052 C 
HETATM   14  C4  UNL     1     -14.849 -10.906  25.586  1.00  0.00    -0.019 C 
HETATM   15  C3  UNL     1     -14.598 -11.783  26.530  1.00  0.00    -0.013 C 
ATOM     16  H1  UNL     1     -15.317  -8.003  22.198  1.00  0.00     0.162 HD
BRANCH  15  17
HETATM   17  C2  UNL     1     -13.562 -11.624  27.573  1.00  0.00     0.024 C 
HETATM   18  C1  UNL     1     -14.240 -10.988  28.779  1.00  0.00     0.009 C 
ENDBRANCH  15  17
ENDBRANCH   1   9
BRANCH   1  19
HETATM   19  C9  UNL     1     -17.491 -10.115  21.396  1.00  0.00     0.217 C 
BRANCH  19  20
HETATM   20  O1  UNL     1     -18.062  -9.845  20.129  1.00  0.00    -0.397 OA
ATOM     21  H1  UNL     1     -17.338  -9.874  19.514  1.00  0.00     0.209 HD
ENDBRANCH  19  20
ENDBRANCH   1  19
TORSDOF 4
ENDMDL
MODEL 3
REMARK VINA RESULT: -5.227511428      6.378      8.300
REMARK  4 active torsions:
REMARK  status: ('A' for Active; 'I' for Inactive)
REMARK    1  A    between atoms: C2_2  and  C3_3 
REMARK    2  A    between atoms: N1_8  and  C8_10 
REMARK    3  A    between atoms: C8_10  and  C9_11 
REMARK    4  A    between atoms: C9_11  and  O1_12 
ROOT
HETATM    1  C8  UNL     1     -14.555 -11.195  27.222  1.00  0.00     0.124 C 
HETATM    2  C10 UNL     1     -13.516 -12.323  27.018  1.00  0.00     0.090 C 
HETATM    3  C11 UNL     1     -13.624 -13.171  28.222  1.00  0.00     0.157 A 
HETATM    4  O2  UNL     1     -12.857 -13.371  29.266  1.00  0.00    -0.374 OA
HETATM    5  C12 UNL     1     -13.347 -12.155  29.334  1.00  0.00     0.168 A 
HETATM    6  C13 UNL     1     -14.712 -11.642  29.605  1.00  0.00     0.151 C 
HETATM    7  N2  UNL     1     -15.362 -11.411  28.369  1.00  0.00    -0.392 N 
ATOM      8  H2  UNL     1     -16.380 -11.401  28.305  1.00  0.00     0.155 HD
ENDROOT
BRANCH   1   9
HETATM    9  N1  UNL     1     -13.838  -9.986  27.342  1.00  0.00    -0.360 N 
HETATM   10  C7  UNL     1     -13.362  -9.301  26.439  1.00  0.00     0.049 C 
HETATM   11  C6  UNL     1     -12.602  -8.011  26.663  1.00  0.00     0.070 C 
HETATM   12  S1  UNL     1     -13.325  -9.454  24.664  1.00  0.00    -0.082 SA
HETATM   13  C5  UNL     1     -11.386  -8.146  25.737  1.00  0.00     0.052 C 
HETATM   14  C4  UNL     1     -11.915  -8.380  24.370  1.00  0.00    -0.019 C 
HETATM   15  C3  UNL     1     -11.426  -7.894  23.254  1.00  0.00    -0.013 C 
ATOM     16  H1  UNL     1     -13.697  -9.638  28.291  1.00  0.00     0.162 HD
BRANCH  15  17
HETATM   17  C2  UNL     1     -10.242  -7.012  23.167  1.00  0.00     0.024 C 
HETATM   18  C1  UNL     1     -10.621  -5.847  22.264  1.00  0.00     0.009 C 
ENDBRANCH  15  17
ENDBRANCH   1   9
BRANCH   1  19
HETATM   19  C9  UNL     1     -15.352 -11.156  25.938  1.00  0.00     0.217 C 
BRANCH  19  20
HETATM   20  O1  UNL     1     -16.237 -12.260  26.009  1.00  0.00    -0.397 OA
ATOM     21  H1  UNL     1     -16.151 -12.708  25.176  1.00  0.00     0.209 HD
ENDBRANCH  19  20
ENDBRANCH   1  19
TORSDOF 4
ENDMDL
MODEL 4
REMARK VINA RESULT: -4.964518110      4.475      7.539
REMARK  4 active torsions:
REMARK  status: ('A' for Active; 'I' for Inactive)
REMARK    1  A    between atoms: C2_2  and  C3_3 
REMARK    2  A    between atoms: N1_8  and  C8_10 
REMARK    3  A    between atoms: C8_10  and  C9_11 
REMARK    4  A    between atoms: C9_11  and  O1_12 
ROOT
HETATM    1  C8  UNL     1     -13.630 -10.555  26.239  1.00  0.00     0.124 C 
HETATM    2  C10 UNL     1     -14.415  -9.765  27.314  1.00  0.00     0.090 C 
HETATM    3  C11 UNL     1     -14.498 -10.671  28.477  1.00  0.00     0.157 A 
HETATM    4  O2  UNL     1     -15.467 -11.360  29.027  1.00  0.00    -0.374 OA
HETATM    5  C12 UNL     1     -15.186 -11.893  27.860  1.00  0.00     0.168 A 
HETATM    6  C13 UNL     1     -14.021 -12.668  27.372  1.00  0.00     0.151 C 
HETATM    7  N2  UNL     1     -13.118 -11.778  26.741  1.00  0.00    -0.392 N 
ATOM      8  H2  UNL     1     -12.129 -12.010  26.651  1.00  0.00     0.155 HD
ENDROOT
BRANCH   1   9
HETATM    9  N1  UNL     1     -14.517 -10.791  25.167  1.00  0.00    -0.360 N 
HETATM   10  C7  UNL     1     -14.911  -9.987  24.326  1.00  0.00     0.049 C 
HETATM   11  C6  UNL     1     -15.870 -10.333  23.205  1.00  0.00     0.070 C 
HETATM   12  S1  UNL     1     -14.604  -8.256  24.036  1.00  0.00    -0.082 SA
HETATM   13  C5  UNL     1     -16.867  -9.167  23.215  1.00  0.00     0.052 C 
HETATM   14  C4  UNL     1     -16.072  -7.924  23.054  1.00  0.00    -0.019 C 
HETATM   15  C3  UNL     1     -16.414  -6.869  22.351  1.00  0.00    -0.013 C 
ATOM     16  H1  UNL     1     -14.874 -11.743  25.080  1.00  0.00     0.162 HD
BRANCH  15  17
HETATM   17  C2  UNL     1     -17.672  -6.738  21.586  1.00  0.00     0.024 C 
HETATM   18  C1  UNL     1     -17.347  -7.074  20.137  1.00  0.00     0.009 C 
ENDBRANCH  15  17
ENDBRANCH   1   9
BRANCH   1  19
HETATM   19  C9  UNL     1     -12.548  -9.609  25.768  1.00  0.00     0.217 C 
BRANCH  19  20
HETATM   20  O1  UNL     1     -11.892  -9.171  26.944  1.00  0.00    -0.397 OA
ATOM     21  H1  UNL     1     -11.737  -8.243  26.817  1.00  0.00     0.209 HD
ENDBRANCH  19  20
ENDBRANCH   1  19
TORSDOF 4
ENDMDL
MODEL 5
REMARK VINA RESULT: -4.916339569      1.150      1.266
REMARK  4 active torsions:
REMARK  status: ('A' for Active; 'I' for Inactive)
REMARK    1  A    between atoms: C2_2  and  C3_3 
REMARK    2  A    between atoms: N1_8  and  C8_10 
REMARK    3  A    between atoms: C8_10  and  C9_11 
REMARK    4  A    between atoms: C9_11  and  O1_12 
ROOT
HETATM    1  C8  UNL     1     -19.174  -7.446  20.371  1.00  0.00     0.124 C 
HETATM    2  C10 UNL     1     -20.043  -8.047  19.241  1.00  0.00     0.090 C 
HETATM    3  C11 UNL     1     -21.352  -7.375  19.360  1.00  0.00     0.157 A 
HETATM    4  O2  UNL     1     -22.539  -7.759  19.761  1.00  0.00    -0.374 OA
HETATM    5  C12 UNL     1     -21.739  -7.718  20.801  1.00  0.00     0.168 A 
HETATM    6  C13 UNL     1     -21.123  -6.592  21.544  1.00  0.00     0.151 C 
HETATM    7  N2  UNL     1     -19.823  -6.370  21.030  1.00  0.00    -0.392 N 
ATOM      8  H2  UNL     1     -19.366  -5.464  21.131  1.00  0.00     0.155 HD
ENDROOT
BRANCH   1   9
HETATM    9  N1  UNL     1     -18.895  -8.488  21.281  1.00  0.00    -0.360 N 
HETATM   10  C7  UNL     1     -17.978  -8.548  22.097  1.00  0.00     0.049 C 
HETATM   11  C6  UNL     1     -17.755  -9.715  23.037  1.00  0.00     0.070 C 
HETATM   12  S1  UNL     1     -16.637  -7.458  22.527  1.00  0.00    -0.082 SA
HETATM   13  C5  UNL     1     -16.245  -9.967  22.942  1.00  0.00     0.052 C 
HETATM   14  C4  UNL     1     -15.575  -8.690  23.292  1.00  0.00    -0.019 C 
HETATM   15  C3  UNL     1     -14.474  -8.557  23.993  1.00  0.00    -0.013 C 
ATOM     16  H1  UNL     1     -19.530  -9.287  21.258  1.00  0.00     0.162 HD
BRANCH  15  17
HETATM   17  C2  UNL     1     -13.698  -9.679  24.564  1.00  0.00     0.024 C 
HETATM   18  C1  UNL     1     -12.546  -9.067  25.349  1.00  0.00     0.009 C 
ENDBRANCH  15  17
ENDBRANCH   1   9
BRANCH   1  19
HETATM   19  C9  UNL     1     -17.883  -7.035  19.699  1.00  0.00     0.217 C 
BRANCH  19  20
HETATM   20  O1  UNL     1     -18.118  -7.183  18.310  1.00  0.00    -0.397 OA
ATOM     21  H1  UNL     1     -18.881  -6.649  18.124  1.00  0.00     0.209 HD
ENDBRANCH  19  20
ENDBRANCH   1  19
TORSDOF 4
ENDMDL
