MODEL 1
REMARK VINA RESULT: -5.145895443      0.000      0.000
REMARK  6 active torsions:
REMARK  status: ('A' for Active; 'I' for Inactive)
REMARK    1  A    between atoms: C9_10  and  C11_12 
REMARK    2  A    between atoms: C11_12  and  O1_13 
REMARK    3  A    between atoms: O1_13  and  C12_14 
REMARK    4  A    between atoms: C12_14  and  O2_15 
REMARK    5  A    between atoms: C12_14  and  C13_17 
REMARK    6  A    between atoms: C15_19  and  O3_20 
ROOT
HETATM    1  C1  UNL     1     -14.808  -9.987  24.481  1.00  0.00     0.015 C 
HETATM    2  C2  UNL     1     -14.560 -10.281  25.745  1.00  0.00    -0.068 C 
HETATM    3  C3  UNL     1     -15.479 -11.259  26.401  1.00  0.00     0.077 C 
HETATM    4  C4  UNL     1     -15.079 -12.632  25.964  1.00  0.00    -0.004 C 
HETATM    5  C5  UNL     1     -16.373 -13.427  25.754  1.00  0.00     0.011 C 
HETATM    6  C6  UNL     1     -14.206 -13.366  26.919  1.00  0.00     0.035 C 
HETATM    7  C7  UNL     1     -13.395 -12.537  27.838  1.00  0.00     0.276 C 
HETATM    8  N1  UNL     1     -13.960 -11.281  28.210  1.00  0.00     0.118 N 
HETATM    9  C8  UNL     1     -13.203 -10.139  27.832  1.00  0.00     0.291 C 
HETATM   10  C9  UNL     1     -13.420  -9.653  26.437  1.00  0.00     0.027 C 
HETATM   11  C10 UNL     1     -13.698  -8.141  26.449  1.00  0.00     0.024 C 
HETATM   12  C15 UNL     1     -15.364 -11.187  27.899  1.00  0.00     0.365 C 
ENDROOT
BRANCH  10  13
HETATM   13  C11 UNL     1     -12.124  -9.795  25.626  1.00  0.00     0.186 C 
BRANCH  13  14
HETATM   14  O1  UNL     1     -11.535  -8.536  25.568  1.00  0.00    -0.360 OA
BRANCH  14  15
HETATM   15  C12 UNL     1     -10.918  -8.272  24.376  1.00  0.00     0.256 C 
BRANCH  15  16
HETATM   16  O2  UNL     1     -11.918  -8.116  23.396  1.00  0.00    -0.371 OA
ATOM     17  H2  UNL     1     -11.490  -7.934  22.568  1.00  0.00     0.212 HD
ENDBRANCH  15  16
BRANCH  15  18
HETATM   18  C13 UNL     1     -10.170  -6.955  24.423  1.00  0.00     0.056 C 
HETATM   19  C14 UNL     1     -10.186  -6.391  23.015  1.00  0.00     0.010 C 
ENDBRANCH  15  18
ENDBRANCH  14  15
ENDBRANCH  13  14
ENDBRANCH  10  13
BRANCH  12  20
HETATM   20  O3  UNL     1     -16.015 -12.228  28.509  1.00  0.00    -0.367 OA
ATOM     21  H3  UNL     1     -16.430 -12.803  27.877  1.00  0.00     0.212 HD
ENDBRANCH  12  20
TORSDOF 6
ENDMDL
MODEL 2
REMARK VINA RESULT: -5.102601676      2.128      3.104
REMARK  6 active torsions:
REMARK  status: ('A' for Active; 'I' for Inactive)
REMARK    1  A    between atoms: C9_10  and  C11_12 
REMARK    2  A    between atoms: C11_12  and  O1_13 
REMARK    3  A    between atoms: O1_13  and  C12_14 
REMARK    4  A    between atoms: C12_14  and  O2_15 
REMARK    5  A    between atoms: C12_14  and  C13_17 
REMARK    6  A    between atoms: C15_19  and  O3_20 
ROOT
HETATM    1  C1  UNL     1     -15.484 -12.459  25.781  1.00  0.00     0.015 C 
HETATM    2  C2  UNL     1     -14.788 -12.835  26.840  1.00  0.00    -0.068 C 
HETATM    3  C3  UNL     1     -14.791 -14.294  27.164  1.00  0.00     0.077 C 
HETATM    4  C4  UNL     1     -13.829 -14.973  26.242  1.00  0.00    -0.004 C 
HETATM    5  C5  UNL     1     -14.460 -16.312  25.848  1.00  0.00     0.011 C 
HETATM    6  C6  UNL     1     -12.479 -15.220  26.815  1.00  0.00     0.035 C 
HETATM    7  C7  UNL     1     -12.057 -14.324  27.913  1.00  0.00     0.276 C 
HETATM    8  N1  UNL     1     -13.101 -13.817  28.744  1.00  0.00     0.118 N 
HETATM    9  C8  UNL     1     -13.243 -12.403  28.748  1.00  0.00     0.291 C 
HETATM   10  C9  UNL     1     -14.057 -11.833  27.634  1.00  0.00     0.027 C 
HETATM   11  C10 UNL     1     -15.114 -10.871  28.201  1.00  0.00     0.024 C 
HETATM   12  C15 UNL     1     -14.340 -14.534  28.578  1.00  0.00     0.365 C 
ENDROOT
BRANCH  10  13
HETATM   13  C11 UNL     1     -13.175 -10.946  26.743  1.00  0.00     0.186 C 
BRANCH  13  14
HETATM   14  O1  UNL     1     -13.597  -9.632  26.924  1.00  0.00    -0.360 OA
BRANCH  14  15
HETATM   15  C12 UNL     1     -12.909  -8.724  26.166  1.00  0.00     0.256 C 
BRANCH  15  16
HETATM   16  O2  UNL     1     -11.561  -8.750  26.579  1.00  0.00    -0.371 OA
ATOM     17  H2  UNL     1     -11.452  -8.093  27.256  1.00  0.00     0.212 HD
ENDBRANCH  15  16
BRANCH  15  18
HETATM   18  C13 UNL     1     -12.905  -9.117  24.703  1.00  0.00     0.056 C 
HETATM   19  C14 UNL     1     -14.236  -8.673  24.126  1.00  0.00     0.010 C 
ENDBRANCH  15  18
ENDBRANCH  14  15
ENDBRANCH  13  14
ENDBRANCH  10  13
BRANCH  12  20
HETATM   20  O3  UNL     1     -14.110 -15.864  28.820  1.00  0.00    -0.367 OA
ATOM     21  H3  UNL     1     -13.206 -16.026  29.065  1.00  0.00     0.212 HD
ENDBRANCH  12  20
TORSDOF 6
ENDMDL
MODEL 3
REMARK VINA RESULT: -5.098276845      7.027      9.533
REMARK  6 active torsions:
REMARK  status: ('A' for Active; 'I' for Inactive)
REMARK    1  A    between atoms: C9_10  and  C11_12 
REMARK    2  A    between atoms: C11_12  and  O1_13 
REMARK    3  A    between atoms: O1_13  and  C12_14 
REMARK    4  A    between atoms: C12_14  and  O2_15 
REMARK    5  A    between atoms: C12_14  and  C13_17 
REMARK    6  A    between atoms: C15_19  and  O3_20 
ROOT
HETATM    1  C1  UNL     1     -19.933  -5.459  22.671  1.00  0.00     0.015 C 
HETATM    2  C2  UNL     1     -19.575  -6.177  21.621  1.00  0.00    -0.068 C 
HETATM    3  C3  UNL     1     -18.114  -6.250  21.322  1.00  0.00     0.077 C 
HETATM    4  C4  UNL     1     -17.501  -7.243  22.257  1.00  0.00    -0.004 C 
HETATM    5  C5  UNL     1     -16.137  -6.680  22.673  1.00  0.00     0.011 C 
HETATM    6  C6  UNL     1     -17.314  -8.606  21.692  1.00  0.00     0.035 C 
HETATM    7  C7  UNL     1     -18.212  -8.985  20.580  1.00  0.00     0.276 C 
HETATM    8  N1  UNL     1     -18.649  -7.919  19.738  1.00  0.00     0.118 N 
HETATM    9  C8  UNL     1     -20.054  -7.705  19.709  1.00  0.00     0.291 C 
HETATM   10  C9  UNL     1     -20.601  -6.859  20.811  1.00  0.00     0.027 C 
HETATM   11  C10 UNL     1     -21.497  -5.756  20.225  1.00  0.00     0.024 C 
HETATM   12  C15 UNL     1     -17.873  -6.718  19.913  1.00  0.00     0.365 C 
ENDROOT
BRANCH  10  13
HETATM   13  C11 UNL     1     -21.547  -7.691  21.689  1.00  0.00     0.186 C 
BRANCH  13  14
HETATM   14  O1  UNL     1     -21.691  -8.932  21.077  1.00  0.00    -0.360 OA
BRANCH  14  15
HETATM   15  C12 UNL     1     -21.701  -9.980  21.956  1.00  0.00     0.256 C 
BRANCH  15  16
HETATM   16  O2  UNL     1     -21.095 -11.083  21.320  1.00  0.00    -0.371 OA
ATOM     17  H2  UNL     1     -20.928 -11.745  21.980  1.00  0.00     0.212 HD
ENDBRANCH  15  16
BRANCH  15  18
HETATM   18  C13 UNL     1     -20.854  -9.684  23.177  1.00  0.00     0.056 C 
HETATM   19  C14 UNL     1     -19.914 -10.861  23.353  1.00  0.00     0.010 C 
ENDBRANCH  15  18
ENDBRANCH  14  15
ENDBRANCH  13  14
ENDBRANCH  10  13
BRANCH  12  20
HETATM   20  O3  UNL     1     -16.553  -7.018  19.695  1.00  0.00    -0.367 OA
ATOM     21  H3  UNL     1     -16.450  -7.709  19.051  1.00  0.00     0.212 HD
ENDBRANCH  12  20
TORSDOF 6
ENDMDL
MODEL 4
REMARK VINA RESULT: -5.038695508      2.307      4.086
REMARK  6 active torsions:
REMARK  status: ('A' for Active; 'I' for Inactive)
REMARK    1  A    between atoms: C9_10  and  C11_12 
REMARK    2  A    between atoms: C11_12  and  O1_13 
REMARK    3  A    between atoms: O1_13  and  C12_14 
REMARK    4  A    between atoms: C12_14  and  O2_15 
REMARK    5  A    between atoms: C12_14  and  C13_17 
REMARK    6  A    between atoms: C15_19  and  O3_20 
ROOT
HETATM    1  C1  UNL     1     -12.381  -8.494  26.425  1.00  0.00     0.015 C 
HETATM    2  C2  UNL     1     -13.119  -9.547  26.119  1.00  0.00    -0.068 C 
HETATM    3  C3  UNL     1     -13.044 -10.714  27.049  1.00  0.00     0.077 C 
HETATM    4  C4  UNL     1     -13.899 -10.412  28.238  1.00  0.00    -0.004 C 
HETATM    5  C5  UNL     1     -13.159 -10.951  29.467  1.00  0.00     0.011 C 
HETATM    6  C6  UNL     1     -15.265 -10.999  28.194  1.00  0.00     0.035 C 
HETATM    7  C7  UNL     1     -15.813 -11.288  26.852  1.00  0.00     0.276 C 
HETATM    8  N1  UNL     1     -14.859 -11.629  25.847  1.00  0.00     0.118 N 
HETATM    9  C8  UNL     1     -14.809 -10.747  24.733  1.00  0.00     0.291 C 
HETATM   10  C9  UNL     1     -13.963  -9.530  24.911  1.00  0.00     0.027 C 
HETATM   11  C10 UNL     1     -13.008  -9.380  23.716  1.00  0.00     0.024 C 
HETATM   12  C15 UNL     1     -13.569 -11.962  26.394  1.00  0.00     0.365 C 
ENDROOT
BRANCH  10  13
HETATM   13  C11 UNL     1     -14.840  -8.270  24.858  1.00  0.00     0.186 C 
BRANCH  13  14
HETATM   14  O1  UNL     1     -14.821  -7.811  23.545  1.00  0.00    -0.360 OA
BRANCH  14  15
HETATM   15  C12 UNL     1     -15.995  -7.233  23.148  1.00  0.00     0.256 C 
BRANCH  15  16
HETATM   16  O2  UNL     1     -15.700  -6.317  22.117  1.00  0.00    -0.371 OA
ATOM     17  H2  UNL     1     -16.493  -6.178  21.615  1.00  0.00     0.212 HD
ENDBRANCH  15  16
BRANCH  15  18
HETATM   18  C13 UNL     1     -16.935  -8.255  22.541  1.00  0.00     0.056 C 
HETATM   19  C14 UNL     1     -18.322  -7.942  23.067  1.00  0.00     0.010 C 
ENDBRANCH  15  18
ENDBRANCH  14  15
ENDBRANCH  13  14
ENDBRANCH  10  13
BRANCH  12  20
HETATM   20  O3  UNL     1     -13.729 -12.981  27.297  1.00  0.00    -0.367 OA
ATOM     21  H3  UNL     1     -14.582 -13.392  27.216  1.00  0.00     0.212 HD
ENDBRANCH  12  20
TORSDOF 6
ENDMDL
MODEL 5
REMARK VINA RESULT: -5.002546311      6.661      8.871
REMARK  6 active torsions:
REMARK  status: ('A' for Active; 'I' for Inactive)
REMARK    1  A    between atoms: C9_10  and  C11_12 
REMARK    2  A    between atoms: C11_12  and  O1_13 
REMARK    3  A    between atoms: O1_13  and  C12_14 
REMARK    4  A    between atoms: C12_14  and  O2_15 
REMARK    5  A    between atoms: C12_14  and  C13_17 
REMARK    6  A    between atoms: C15_19  and  O3_20 
ROOT
HETATM    1  C1  UNL     1     -18.157 -10.434  22.924  1.00  0.00     0.015 C 
HETATM    2  C2  UNL     1     -18.734  -9.260  22.740  1.00  0.00    -0.068 C 
HETATM    3  C3  UNL     1     -18.016  -8.065  23.278  1.00  0.00     0.077 C 
HETATM    4  C4  UNL     1     -16.919  -7.718  22.322  1.00  0.00    -0.004 C 
HETATM    5  C5  UNL     1     -15.712  -7.293  23.166  1.00  0.00     0.011 C 
HETATM    6  C6  UNL     1     -17.246  -6.634  21.359  1.00  0.00     0.035 C 
HETATM    7  C7  UNL     1     -18.680  -6.433  21.057  1.00  0.00     0.276 C 
HETATM    8  N1  UNL     1     -19.591  -6.749  22.109  1.00  0.00     0.118 N 
HETATM    9  C8  UNL     1     -20.520  -7.784  21.818  1.00  0.00     0.291 C 
HETATM   10  C9  UNL     1     -20.024  -9.176  22.032  1.00  0.00     0.027 C 
HETATM   11  C10 UNL     1     -21.036  -9.965  22.878  1.00  0.00     0.024 C 
HETATM   12  C15 UNL     1     -18.939  -6.883  23.387  1.00  0.00     0.365 C 
ENDROOT
BRANCH  10  13
HETATM   13  C11 UNL     1     -19.979  -9.927  20.694  1.00  0.00     0.186 C 
BRANCH  13  14
HETATM   14  O1  UNL     1     -20.570  -9.105  19.740  1.00  0.00    -0.360 OA
BRANCH  14  15
HETATM   15  C12 UNL     1     -20.155  -9.359  18.462  1.00  0.00     0.256 C 
BRANCH  15  16
HETATM   16  O2  UNL     1     -19.092  -8.480  18.169  1.00  0.00    -0.371 OA
ATOM     17  H2  UNL     1     -19.123  -8.284  17.241  1.00  0.00     0.212 HD
ENDBRANCH  15  16
BRANCH  15  18
HETATM   18  C13 UNL     1     -19.588 -10.758  18.333  1.00  0.00     0.056 C 
HETATM   19  C14 UNL     1     -20.323 -11.425  17.187  1.00  0.00     0.010 C 
ENDBRANCH  15  18
ENDBRANCH  14  15
ENDBRANCH  13  14
ENDBRANCH  10  13
BRANCH  12  20
HETATM   20  O3  UNL     1     -18.254  -5.725  23.650  1.00  0.00    -0.367 OA
ATOM     21  H3  UNL     1     -17.946  -5.694  24.548  1.00  0.00     0.212 HD
ENDBRANCH  12  20
TORSDOF 6
ENDMDL
