MODEL 1
REMARK VINA RESULT: -5.666334224      0.000      0.000
REMARK  4 active torsions:
REMARK  status: ('A' for Active; 'I' for Inactive)
REMARK    1  A    between atoms: C2_2  and  N1_3 
REMARK    2  A    between atoms: N1_3  and  C4_5 
REMARK    3  A    between atoms: N2_13  and  N3_15 
REMARK    4  A    between atoms: N3_15  and  C12_17 
ROOT
HETATM    1  C4  UNL     1     -14.742  -9.147  23.811  1.00  0.00     0.263 C 
HETATM    2  C5  UNL     1     -15.474  -7.799  23.781  1.00  0.00     0.082 C 
HETATM    3  C6  UNL     1     -14.483  -9.587  25.205  1.00  0.00     0.081 C 
HETATM    4  C7  UNL     1     -13.202  -9.239  25.828  1.00  0.00    -0.036 C 
HETATM    5  C8  UNL     1     -12.718 -10.471  26.614  1.00  0.00     0.015 C 
HETATM    6  C9  UNL     1     -13.411  -8.145  26.891  1.00  0.00     0.015 C 
HETATM    7  C10 UNL     1     -12.087  -8.808  24.964  1.00  0.00     0.094 C 
HETATM    8  C11 UNL     1     -12.407  -8.562  23.552  1.00  0.00     0.136 C 
HETATM    9  N2  UNL     1     -11.582  -7.947  22.805  1.00  0.00    -0.281 N 
ATOM     10  H2  UNL     1     -11.808  -7.778  21.825  1.00  0.00     0.189 HD
HETATM   11  O1  UNL     1     -13.597  -8.988  23.015  1.00  0.00    -0.296 OA
ENDROOT
BRANCH   9  12
HETATM   12  N3  UNL     1     -10.369  -7.506  23.327  1.00  0.00    -0.277 N 
ATOM     13  H3  UNL     1      -9.757  -8.172  23.800  1.00  0.00     0.189 HD
BRANCH  12  14
HETATM   14  C12 UNL     1      -9.966  -6.154  23.217  1.00  0.00     0.199 C 
HETATM   15  N4  UNL     1      -9.129  -5.566  24.206  1.00  0.00    -0.068 NA
HETATM   16  S1  UNL     1     -10.436  -5.220  21.967  1.00  0.00    -0.043 SA
ENDBRANCH  12  14
ENDBRANCH   9  12
BRANCH   1  17
HETATM   17  N1  UNL     1     -15.541 -10.141  23.103  1.00  0.00     0.119 N 
HETATM   18  C3  UNL     1     -15.707 -11.360  23.816  1.00  0.00     0.314 C 
BRANCH  17  19
HETATM   19  C2  UNL     1     -16.739  -9.536  22.631  1.00  0.00     0.271 C 
HETATM   20  C1  UNL     1     -17.945 -10.444  22.756  1.00  0.00     0.037 C 
ENDBRANCH  17  19
ENDBRANCH   1  17
TORSDOF 4
ENDMDL
MODEL 2
REMARK VINA RESULT: -5.163572930      3.392      5.695
REMARK  4 active torsions:
REMARK  status: ('A' for Active; 'I' for Inactive)
REMARK    1  A    between atoms: C2_2  and  N1_3 
REMARK    2  A    between atoms: N1_3  and  C4_5 
REMARK    3  A    between atoms: N2_13  and  N3_15 
REMARK    4  A    between atoms: N3_15  and  C12_17 
ROOT
HETATM    1  C4  UNL     1     -14.384  -9.667  24.445  1.00  0.00     0.263 C 
HETATM    2  C5  UNL     1     -13.181  -9.791  23.501  1.00  0.00     0.082 C 
HETATM    3  C6  UNL     1     -15.038 -10.982  24.656  1.00  0.00     0.081 C 
HETATM    4  C7  UNL     1     -16.161 -11.360  23.791  1.00  0.00    -0.036 C 
HETATM    5  C8  UNL     1     -17.227 -12.026  24.679  1.00  0.00     0.015 C 
HETATM    6  C9  UNL     1     -15.723 -12.455  22.804  1.00  0.00     0.015 C 
HETATM    7  C10 UNL     1     -16.840 -10.307  23.012  1.00  0.00     0.094 C 
HETATM    8  C11 UNL     1     -16.205  -8.982  23.003  1.00  0.00     0.136 C 
HETATM    9  N2  UNL     1     -16.569  -8.102  22.162  1.00  0.00    -0.281 N 
ATOM     10  H2  UNL     1     -16.126  -7.183  22.159  1.00  0.00     0.189 HD
HETATM   11  O1  UNL     1     -15.211  -8.673  23.898  1.00  0.00    -0.296 OA
ENDROOT
BRANCH   9  12
HETATM   12  N3  UNL     1     -17.576  -8.394  21.245  1.00  0.00    -0.277 N 
ATOM     13  H3  UNL     1     -18.063  -9.288  21.305  1.00  0.00     0.189 HD
BRANCH  12  14
HETATM   14  C12 UNL     1     -17.937  -7.476  20.230  1.00  0.00     0.199 C 
HETATM   15  N4  UNL     1     -16.937  -6.791  19.484  1.00  0.00    -0.068 NA
HETATM   16  S1  UNL     1     -19.497  -7.166  19.871  1.00  0.00    -0.043 SA
ENDBRANCH  12  14
ENDBRANCH   9  12
BRANCH   1  17
HETATM   17  N1  UNL     1     -13.939  -9.109  25.717  1.00  0.00     0.119 N 
HETATM   18  C3  UNL     1     -14.189  -9.952  26.834  1.00  0.00     0.314 C 
BRANCH  17  19
HETATM   19  C2  UNL     1     -12.601  -8.642  25.586  1.00  0.00     0.271 C 
HETATM   20  C1  UNL     1     -12.041  -8.092  26.882  1.00  0.00     0.037 C 
ENDBRANCH  17  19
ENDBRANCH   1  17
TORSDOF 4
ENDMDL
MODEL 3
REMARK VINA RESULT: -5.144864967      2.854      4.931
REMARK  4 active torsions:
REMARK  status: ('A' for Active; 'I' for Inactive)
REMARK    1  A    between atoms: C2_2  and  N1_3 
REMARK    2  A    between atoms: N1_3  and  C4_5 
REMARK    3  A    between atoms: N2_13  and  N3_15 
REMARK    4  A    between atoms: N3_15  and  C12_17 
ROOT
HETATM    1  C4  UNL     1     -18.563  -9.628  22.185  1.00  0.00     0.263 C 
HETATM    2  C5  UNL     1     -18.311  -9.960  20.708  1.00  0.00     0.082 C 
HETATM    3  C6  UNL     1     -19.081  -8.247  22.345  1.00  0.00     0.081 C 
HETATM    4  C7  UNL     1     -18.129  -7.160  22.594  1.00  0.00    -0.036 C 
HETATM    5  C8  UNL     1     -18.745  -6.239  23.663  1.00  0.00     0.015 C 
HETATM    6  C9  UNL     1     -17.992  -6.279  21.340  1.00  0.00     0.015 C 
HETATM    7  C10 UNL     1     -16.767  -7.500  23.046  1.00  0.00     0.094 C 
HETATM    8  C11 UNL     1     -16.400  -8.923  23.015  1.00  0.00     0.136 C 
HETATM    9  N2  UNL     1     -15.184  -9.275  23.134  1.00  0.00    -0.281 N 
ATOM     10  H2  UNL     1     -14.934 -10.263  23.112  1.00  0.00     0.189 HD
HETATM   11  O1  UNL     1     -17.359  -9.893  22.857  1.00  0.00    -0.296 OA
ENDROOT
BRANCH   9  12
HETATM   12  N3  UNL     1     -14.195  -8.308  23.296  1.00  0.00    -0.277 N 
ATOM     13  H3  UNL     1     -14.375  -7.353  22.985  1.00  0.00     0.189 HD
BRANCH  12  14
HETATM   14  C12 UNL     1     -12.946  -8.622  23.881  1.00  0.00     0.199 C 
HETATM   15  N4  UNL     1     -11.732  -8.287  23.218  1.00  0.00    -0.068 NA
HETATM   16  S1  UNL     1     -12.840  -9.370  25.325  1.00  0.00    -0.043 SA
ENDBRANCH  12  14
ENDBRANCH   9  12
BRANCH   1  17
HETATM   17  N1  UNL     1     -19.506 -10.594  22.738  1.00  0.00     0.119 N 
HETATM   18  C3  UNL     1     -18.889 -11.657  23.452  1.00  0.00     0.314 C 
BRANCH  17  19
HETATM   19  C2  UNL     1     -20.538  -9.903  23.433  1.00  0.00     0.271 C 
HETATM   20  C1  UNL     1     -21.433 -10.830  24.229  1.00  0.00     0.037 C 
ENDBRANCH  17  19
ENDBRANCH   1  17
TORSDOF 4
ENDMDL
MODEL 4
REMARK VINA RESULT: -5.127482810      3.354      5.315
REMARK  4 active torsions:
REMARK  status: ('A' for Active; 'I' for Inactive)
REMARK    1  A    between atoms: C2_2  and  N1_3 
REMARK    2  A    between atoms: N1_3  and  C4_5 
REMARK    3  A    between atoms: N2_13  and  N3_15 
REMARK    4  A    between atoms: N3_15  and  C12_17 
ROOT
HETATM    1  C4  UNL     1     -18.484  -7.431  22.319  1.00  0.00     0.263 C 
HETATM    2  C5  UNL     1     -19.003  -7.122  23.729  1.00  0.00     0.082 C 
HETATM    3  C6  UNL     1     -18.934  -8.769  21.862  1.00  0.00     0.081 C 
HETATM    4  C7  UNL     1     -18.061  -9.925  22.091  1.00  0.00    -0.036 C 
HETATM    5  C8  UNL     1     -18.099 -10.795  20.821  1.00  0.00     0.015 C 
HETATM    6  C9  UNL     1     -18.642 -10.815  23.202  1.00  0.00     0.015 C 
HETATM    7  C10 UNL     1     -16.641  -9.688  22.412  1.00  0.00     0.094 C 
HETATM    8  C11 UNL     1     -16.251  -8.297  22.683  1.00  0.00     0.136 C 
HETATM    9  N2  UNL     1     -15.126  -8.038  23.215  1.00  0.00    -0.281 N 
ATOM     10  H2  UNL     1     -14.860  -7.071  23.402  1.00  0.00     0.189 HD
HETATM   11  O1  UNL     1     -17.091  -7.257  22.367  1.00  0.00    -0.296 OA
ENDROOT
BRANCH   9  12
HETATM   12  N3  UNL     1     -14.259  -9.076  23.543  1.00  0.00    -0.277 N 
ATOM     13  H3  UNL     1     -14.560 -10.041  23.406  1.00  0.00     0.189 HD
BRANCH  12  14
HETATM   14  C12 UNL     1     -12.967  -8.822  24.062  1.00  0.00     0.199 C 
HETATM   15  N4  UNL     1     -11.956  -8.252  23.239  1.00  0.00    -0.068 NA
HETATM   16  S1  UNL     1     -12.583  -9.165  25.609  1.00  0.00    -0.043 SA
ENDBRANCH  12  14
ENDBRANCH   9  12
BRANCH   1  17
HETATM   17  N1  UNL     1     -18.946  -6.396  21.401  1.00  0.00     0.119 N 
HETATM   18  C3  UNL     1     -19.368  -6.894  20.138  1.00  0.00     0.314 C 
BRANCH  17  19
HETATM   19  C2  UNL     1     -19.874  -5.551  22.071  1.00  0.00     0.271 C 
HETATM   20  C1  UNL     1     -21.148  -5.332  21.280  1.00  0.00     0.037 C 
ENDBRANCH  17  19
ENDBRANCH   1  17
TORSDOF 4
ENDMDL
MODEL 5
REMARK VINA RESULT: -5.078489234      2.663      4.795
REMARK  4 active torsions:
REMARK  status: ('A' for Active; 'I' for Inactive)
REMARK    1  A    between atoms: C2_2  and  N1_3 
REMARK    2  A    between atoms: N1_3  and  C4_5 
REMARK    3  A    between atoms: N2_13  and  N3_15 
REMARK    4  A    between atoms: N3_15  and  C12_17 
ROOT
HETATM    1  C4  UNL     1     -18.341  -9.769  22.440  1.00  0.00     0.263 C 
HETATM    2  C5  UNL     1     -18.126 -10.243  20.997  1.00  0.00     0.082 C 
HETATM    3  C6  UNL     1     -18.878  -8.386  22.476  1.00  0.00     0.081 C 
HETATM    4  C7  UNL     1     -17.938  -7.266  22.586  1.00  0.00    -0.036 C 
HETATM    5  C8  UNL     1     -18.538  -6.251  23.576  1.00  0.00     0.015 C 
HETATM    6  C9  UNL     1     -17.852  -6.514  21.247  1.00  0.00     0.015 C 
HETATM    7  C10 UNL     1     -16.557  -7.540  23.028  1.00  0.00     0.094 C 
HETATM    8  C11 UNL     1     -16.168  -8.953  23.129  1.00  0.00     0.136 C 
HETATM    9  N2  UNL     1     -14.943  -9.274  23.246  1.00  0.00    -0.281 N 
ATOM     10  H2  UNL     1     -14.677 -10.257  23.316  1.00  0.00     0.189 HD
HETATM   11  O1  UNL     1     -17.114  -9.948  23.099  1.00  0.00    -0.296 OA
ENDROOT
BRANCH   9  12
HETATM   12  N3  UNL     1     -13.966  -8.283  23.280  1.00  0.00    -0.277 N 
ATOM     13  H3  UNL     1     -14.179  -7.359  22.902  1.00  0.00     0.189 HD
BRANCH  12  14
HETATM   14  C12 UNL     1     -12.685  -8.528  23.829  1.00  0.00     0.199 C 
HETATM   15  N4  UNL     1     -11.510  -8.246  23.076  1.00  0.00    -0.068 NA
HETATM   16  S1  UNL     1     -12.497  -9.135  25.329  1.00  0.00    -0.043 SA
ENDBRANCH  12  14
ENDBRANCH   9  12
BRANCH   1  17
HETATM   17  N1  UNL     1     -19.252 -10.687  23.115  1.00  0.00     0.119 N 
HETATM   18  C3  UNL     1     -20.540 -10.141  23.363  1.00  0.00     0.314 C 
BRANCH  17  19
HETATM   19  C2  UNL     1     -19.234 -11.945  22.449  1.00  0.00     0.271 C 
HETATM   20  C1  UNL     1     -18.871 -13.092  23.369  1.00  0.00     0.037 C 
ENDBRANCH  17  19
ENDBRANCH   1  17
TORSDOF 4
ENDMDL
