MODEL 1
REMARK VINA RESULT: -4.164091541      0.000      0.000
REMARK  0 active torsions:
REMARK  status: ('A' for Active; 'I' for Inactive)
ROOT
HETATM    1  C1  UNL     1      12.220 -10.272   8.438  1.00  0.00     0.011 C 
HETATM    2  C2  UNL     1      13.693 -10.605   8.550  1.00  0.00     0.011 C 
HETATM    3  C3  UNL     1      14.020 -11.206   9.879  1.00  0.00     0.076 C 
HETATM    4  S1  UNL     1      12.602 -12.097  10.506  1.00  0.00    -0.140 SA
HETATM    5  C4  UNL     1      12.534 -13.811  10.052  1.00  0.00     0.184 A 
HETATM    6  N1  UNL     1      12.991 -14.190   8.775  1.00  0.00    -0.324 N 
ATOM      7  H1  UNL     1      13.940 -14.223   8.402  1.00  0.00     0.181 HD
HETATM    8  N2  UNL     1      11.912 -14.473   8.230  1.00  0.00    -0.331 N 
ATOM      9  H2  UNL     1      11.636 -14.804   7.305  1.00  0.00     0.180 HD
HETATM   10  C5  UNL     1      11.230 -14.149   9.403  1.00  0.00     0.142 A 
HETATM   11  C6  UNL     1      10.223 -13.076   9.415  1.00  0.00     0.103 C 
HETATM   12  S2  UNL     1      10.098 -11.998   8.039  1.00  0.00    -0.167 SA
HETATM   13  C7  UNL     1      11.528 -11.177   7.430  1.00  0.00     0.074 C 
ENDROOT
TORSDOF 0
ENDMDL
MODEL 2
REMARK VINA RESULT: -3.917078711      2.105      2.885
REMARK  0 active torsions:
REMARK  status: ('A' for Active; 'I' for Inactive)
ROOT
HETATM    1  C1  UNL     1      10.214 -10.348   9.438  1.00  0.00     0.011 C 
HETATM    2  C2  UNL     1       9.738 -10.702   8.045  1.00  0.00     0.011 C 
HETATM    3  C3  UNL     1      10.831 -11.312   7.230  1.00  0.00     0.076 C 
HETATM    4  S1  UNL     1      11.969 -12.185   8.297  1.00  0.00    -0.140 SA
HETATM    5  C4  UNL     1      11.583 -13.896   8.564  1.00  0.00     0.184 A 
HETATM    6  N1  UNL     1      10.230 -14.277   8.654  1.00  0.00    -0.324 N 
ATOM      7  H1  UNL     1       9.514 -14.323   7.929  1.00  0.00     0.181 HD
HETATM    8  N2  UNL     1      10.156 -14.543   9.864  1.00  0.00    -0.331 N 
ATOM      9  H2  UNL     1       9.416 -14.867  10.487  1.00  0.00     0.180 HD
HETATM   10  C5  UNL     1      11.502 -14.213  10.023  1.00  0.00     0.142 A 
HETATM   11  C6  UNL     1      11.907 -13.126  10.928  1.00  0.00     0.103 C 
HETATM   12  S2  UNL     1      10.690 -12.042  11.571  1.00  0.00    -0.167 SA
HETATM   13  C7  UNL     1       9.564 -11.240  10.484  1.00  0.00     0.074 C 
ENDROOT
TORSDOF 0
ENDMDL
MODEL 3
REMARK VINA RESULT: -3.825879199      1.569      1.999
REMARK  0 active torsions:
REMARK  status: ('A' for Active; 'I' for Inactive)
ROOT
HETATM    1  C1  UNL     1      12.395 -10.667   9.967  1.00  0.00     0.011 C 
HETATM    2  C2  UNL     1      12.887 -11.617  11.040  1.00  0.00     0.011 C 
HETATM    3  C3  UNL     1      11.752 -12.295  11.734  1.00  0.00     0.076 C 
HETATM    4  S1  UNL     1      10.369 -12.465  10.614  1.00  0.00    -0.140 SA
HETATM    5  C4  UNL     1      10.342 -13.973   9.680  1.00  0.00     0.184 A 
HETATM    6  N1  UNL     1      11.565 -14.520   9.245  1.00  0.00    -0.324 N 
ATOM      7  H1  UNL     1      12.307 -14.971   9.780  1.00  0.00     0.181 HD
HETATM    8  N2  UNL     1      11.484 -14.298   8.026  1.00  0.00    -0.331 N 
ATOM      9  H2  UNL     1      12.083 -14.477   7.220  1.00  0.00     0.180 HD
HETATM   10  C5  UNL     1      10.238 -13.701   8.213  1.00  0.00     0.142 A 
HETATM   11  C6  UNL     1      10.016 -12.294   7.847  1.00  0.00     0.103 C 
HETATM   12  S2  UNL     1      11.391 -11.277   7.465  1.00  0.00    -0.167 SA
HETATM   13  C7  UNL     1      12.748 -11.176   8.579  1.00  0.00     0.074 C 
ENDROOT
TORSDOF 0
ENDMDL
MODEL 4
REMARK VINA RESULT: -3.798652837      0.965      1.043
REMARK  0 active torsions:
REMARK  status: ('A' for Active; 'I' for Inactive)
ROOT
HETATM    1  C1  UNL     1      12.043  -9.704   7.413  1.00  0.00     0.011 C 
HETATM    2  C2  UNL     1      13.503 -10.104   7.432  1.00  0.00     0.011 C 
HETATM    3  C3  UNL     1      13.960 -10.446   8.813  1.00  0.00     0.076 C 
HETATM    4  S1  UNL     1      12.590 -11.095   9.762  1.00  0.00    -0.140 SA
HETATM    5  C4  UNL     1      12.394 -12.857   9.685  1.00  0.00     0.184 A 
HETATM    6  N1  UNL     1      12.678 -13.516   8.473  1.00  0.00    -0.324 N 
ATOM      7  H1  UNL     1      13.573 -13.686   8.015  1.00  0.00     0.181 HD
HETATM    8  N2  UNL     1      11.530 -13.829   8.118  1.00  0.00    -0.331 N 
ATOM      9  H2  UNL     1      11.132 -14.321   7.318  1.00  0.00     0.180 HD
HETATM   10  C5  UNL     1      11.008 -13.230   9.265  1.00  0.00     0.142 A 
HETATM   11  C6  UNL     1      10.058 -12.112   9.162  1.00  0.00     0.103 C 
HETATM   12  S2  UNL     1       9.815 -11.328   7.614  1.00  0.00    -0.167 SA
HETATM   13  C7  UNL     1      11.197 -10.745   6.697  1.00  0.00     0.074 C 
ENDROOT
TORSDOF 0
ENDMDL
MODEL 5
REMARK VINA RESULT: -3.593247722      1.685      2.190
REMARK  0 active torsions:
REMARK  status: ('A' for Active; 'I' for Inactive)
ROOT
HETATM    1  C1  UNL     1       9.376 -10.950   7.749  1.00  0.00     0.011 C 
HETATM    2  C2  UNL     1      10.422  -9.875   7.953  1.00  0.00     0.011 C 
HETATM    3  C3  UNL     1      10.845  -9.785   9.384  1.00  0.00     0.076 C 
HETATM    4  S1  UNL     1      10.695 -11.388  10.163  1.00  0.00    -0.140 SA
HETATM    5  C4  UNL     1      12.150 -12.399  10.080  1.00  0.00     0.184 A 
HETATM    6  N1  UNL     1      12.946 -12.344   8.919  1.00  0.00    -0.324 N 
ATOM      7  H1  UNL     1      13.554 -11.600   8.577  1.00  0.00     0.181 HD
HETATM    8  N2  UNL     1      12.698 -13.457   8.429  1.00  0.00    -0.331 N 
ATOM      9  H2  UNL     1      12.994 -13.958   7.591  1.00  0.00     0.180 HD
HETATM   10  C5  UNL     1      11.845 -13.741   9.495  1.00  0.00     0.142 A 
HETATM   11  C6  UNL     1      10.419 -14.019   9.264  1.00  0.00     0.103 C 
HETATM   12  S2  UNL     1       9.723 -13.692   7.690  1.00  0.00    -0.167 SA
HETATM   13  C7  UNL     1       9.934 -12.114   6.945  1.00  0.00     0.074 C 
ENDROOT
TORSDOF 0
ENDMDL
