MODEL 1
REMARK VINA RESULT: -4.029109211      0.000      0.000
REMARK  0 active torsions:
REMARK  status: ('A' for Active; 'I' for Inactive)
ROOT
HETATM    1  C1  UNL     1       8.358 -11.838   6.058  1.00  0.00     0.049 C 
HETATM    2  C2  UNL     1       9.339 -11.067   6.956  1.00  0.00     0.091 C 
HETATM    3  C3  UNL     1       8.816  -9.716   7.266  1.00  0.00     0.049 C 
HETATM    4  C4  UNL     1      10.656 -11.089   6.243  1.00  0.00     0.067 C 
HETATM    5  C5  UNL     1      11.698 -10.205   6.852  1.00  0.00     0.179 C 
HETATM    6  O1  UNL     1      12.019 -10.434   8.161  1.00  0.00    -0.344 OA
HETATM    7  C6  UNL     1      11.834 -11.440   9.025  1.00  0.00     0.114 C 
HETATM    8  S1  UNL     1      11.325 -11.225  10.563  1.00  0.00    -0.058 SA
HETATM    9  C7  UNL     1      12.092 -12.835   8.606  1.00  0.00     0.106 C 
HETATM   10  C8  UNL     1      10.819 -13.634   8.437  1.00  0.00     0.217 C 
HETATM   11  O2  UNL     1       9.928 -13.031   7.596  1.00  0.00    -0.240 OA
HETATM   12  O3  UNL     1       9.490 -11.883   8.097  1.00  0.00    -0.230 OA
ENDROOT
TORSDOF 0
ENDMDL
MODEL 2
REMARK VINA RESULT: -4.025382081      1.723      3.948
REMARK  0 active torsions:
REMARK  status: ('A' for Active; 'I' for Inactive)
ROOT
HETATM    1  C1  UNL     1      13.004 -13.781  10.409  1.00  0.00     0.049 C 
HETATM    2  C2  UNL     1      11.613 -13.388   9.889  1.00  0.00     0.091 C 
HETATM    3  C3  UNL     1      10.559 -13.789  10.850  1.00  0.00     0.049 C 
HETATM    4  C4  UNL     1      11.493 -13.997   8.526  1.00  0.00     0.067 C 
HETATM    5  C5  UNL     1      10.123 -13.910   7.933  1.00  0.00     0.179 C 
HETATM    6  O1  UNL     1       9.585 -12.661   7.791  1.00  0.00    -0.344 OA
HETATM    7  C6  UNL     1      10.065 -11.412   7.805  1.00  0.00     0.114 C 
HETATM    8  S1  UNL     1       9.355 -10.183   8.617  1.00  0.00    -0.058 SA
HETATM    9  C7  UNL     1      11.298 -11.082   7.059  1.00  0.00     0.106 C 
HETATM   10  C8  UNL     1      12.478 -10.829   7.970  1.00  0.00     0.217 C 
HETATM   11  O2  UNL     1      12.697 -11.857   8.843  1.00  0.00    -0.240 OA
HETATM   12  O3  UNL     1      11.690 -11.992   9.695  1.00  0.00    -0.230 OA
ENDROOT
TORSDOF 0
ENDMDL
MODEL 3
REMARK VINA RESULT: -3.786046669      2.097      3.252
REMARK  0 active torsions:
REMARK  status: ('A' for Active; 'I' for Inactive)
ROOT
HETATM    1  C1  UNL     1      10.360 -11.549   6.804  1.00  0.00     0.049 C 
HETATM    2  C2  UNL     1      10.623 -12.399   8.056  1.00  0.00     0.091 C 
HETATM    3  C3  UNL     1      10.023 -13.745   7.914  1.00  0.00     0.049 C 
HETATM    4  C4  UNL     1      10.114 -11.597   9.215  1.00  0.00     0.067 C 
HETATM    5  C5  UNL     1      10.082 -12.343  10.511  1.00  0.00     0.179 C 
HETATM    6  O1  UNL     1      11.265 -12.864  10.957  1.00  0.00    -0.344 OA
HETATM    7  C6  UNL     1      12.558 -12.672  10.669  1.00  0.00     0.114 C 
HETATM    8  S1  UNL     1      13.625 -13.892  10.454  1.00  0.00    -0.058 SA
HETATM    9  C7  UNL     1      13.093 -11.300  10.531  1.00  0.00     0.106 C 
HETATM   10  C8  UNL     1      13.412 -10.943   9.097  1.00  0.00     0.217 C 
HETATM   11  O2  UNL     1      12.352 -11.140   8.259  1.00  0.00    -0.240 OA
HETATM   12  O3  UNL     1      12.029 -12.423   8.177  1.00  0.00    -0.230 OA
ENDROOT
TORSDOF 0
ENDMDL
MODEL 4
REMARK VINA RESULT: -3.785410719      1.809      2.862
REMARK  0 active torsions:
REMARK  status: ('A' for Active; 'I' for Inactive)
ROOT
HETATM    1  C1  UNL     1       7.289 -11.187   5.220  1.00  0.00     0.049 C 
HETATM    2  C2  UNL     1       8.693 -11.590   5.699  1.00  0.00     0.091 C 
HETATM    3  C3  UNL     1       9.564 -11.926   4.549  1.00  0.00     0.049 C 
HETATM    4  C4  UNL     1       8.490 -12.699   6.685  1.00  0.00     0.067 C 
HETATM    5  C5  UNL     1       9.752 -13.380   7.111  1.00  0.00     0.179 C 
HETATM    6  O1  UNL     1      10.719 -12.598   7.679  1.00  0.00    -0.344 OA
HETATM    7  C6  UNL     1      10.758 -11.372   8.215  1.00  0.00     0.114 C 
HETATM    8  S1  UNL     1      11.931 -10.282   7.887  1.00  0.00    -0.058 SA
HETATM    9  C7  UNL     1       9.706 -10.941   9.160  1.00  0.00     0.106 C 
HETATM   10  C8  UNL     1       8.769  -9.919   8.558  1.00  0.00     0.217 C 
HETATM   11  O2  UNL     1       8.223 -10.337   7.379  1.00  0.00    -0.240 OA
HETATM   12  O3  UNL     1       9.147 -10.478   6.438  1.00  0.00    -0.230 OA
ENDROOT
TORSDOF 0
ENDMDL
MODEL 5
REMARK VINA RESULT: -3.721696747      1.937      2.441
REMARK  0 active torsions:
REMARK  status: ('A' for Active; 'I' for Inactive)
ROOT
HETATM    1  C1  UNL     1      10.872 -11.154   6.749  1.00  0.00     0.049 C 
HETATM    2  C2  UNL     1      10.581 -11.196   8.258  1.00  0.00     0.091 C 
HETATM    3  C3  UNL     1       9.385 -10.386   8.586  1.00  0.00     0.049 C 
HETATM    4  C4  UNL     1      11.845 -10.764   8.935  1.00  0.00     0.067 C 
HETATM    5  C5  UNL     1      11.705 -10.532  10.406  1.00  0.00     0.179 C 
HETATM    6  O1  UNL     1      11.261 -11.581  11.161  1.00  0.00    -0.344 OA
HETATM    7  C6  UNL     1      11.146 -12.902  10.981  1.00  0.00     0.114 C 
HETATM    8  S1  UNL     1       9.816 -13.757  11.395  1.00  0.00    -0.058 SA
HETATM    9  C7  UNL     1      12.259 -13.669  10.379  1.00  0.00     0.106 C 
HETATM   10  C8  UNL     1      11.953 -14.126   8.971  1.00  0.00     0.217 C 
HETATM   11  O2  UNL     1      11.573 -13.099   8.156  1.00  0.00    -0.240 OA
HETATM   12  O3  UNL     1      10.423 -12.568   8.549  1.00  0.00    -0.230 OA
ENDROOT
TORSDOF 0
ENDMDL
