MODEL 1
REMARK VINA RESULT: -3.817981867      0.000      0.000
REMARK  0 active torsions:
REMARK  status: ('A' for Active; 'I' for Inactive)
ROOT
HETATM    1  C1  UNL     1      12.284  -9.967   9.474  1.00  0.00     0.061 C 
HETATM    2  C2  UNL     1      11.380 -10.667   8.520  1.00  0.00     0.137 C 
HETATM    3  C3  UNL     1      10.942  -9.670   7.436  1.00  0.00     0.061 C 
HETATM    4  O1  UNL     1      11.916 -11.745   7.879  1.00  0.00    -0.216 OA
HETATM    5  O2  UNL     1      12.824 -12.399   8.518  1.00  0.00    -0.197 OA
HETATM    6  C4  UNL     1      12.393 -13.456   9.265  1.00  0.00     0.220 A 
HETATM    7  C5  UNL     1      13.119 -13.683  10.557  1.00  0.00     0.085 C 
HETATM    8  O3  UNL     1      11.898 -14.616   8.705  1.00  0.00    -0.340 OA
HETATM    9  C6  UNL     1      10.978 -13.690   9.064  1.00  0.00     0.191 A 
HETATM   10  C7  UNL     1      10.234 -13.681  10.346  1.00  0.00     0.048 C 
HETATM   11  C8  UNL     1      10.095 -12.207  10.755  1.00  0.00     0.080 C 
HETATM   12  S1  UNL     1       9.815 -11.197   9.309  1.00  0.00    -0.129 SA
ENDROOT
TORSDOF 0
ENDMDL
MODEL 2
REMARK VINA RESULT: -3.817048906      1.686      3.402
REMARK  0 active torsions:
REMARK  status: ('A' for Active; 'I' for Inactive)
ROOT
HETATM    1  C1  UNL     1       9.494 -12.093  11.550  1.00  0.00     0.061 C 
HETATM    2  C2  UNL     1      10.958 -12.345  11.649  1.00  0.00     0.137 C 
HETATM    3  C3  UNL     1      11.392 -12.155  13.110  1.00  0.00     0.061 C 
HETATM    4  O1  UNL     1      11.371 -13.588  11.267  1.00  0.00    -0.216 OA
HETATM    5  O2  UNL     1      10.667 -14.173  10.360  1.00  0.00    -0.197 OA
HETATM    6  C4  UNL     1      11.071 -13.990   9.070  1.00  0.00     0.220 A 
HETATM    7  C5  UNL     1       9.976 -13.884   8.051  1.00  0.00     0.085 C 
HETATM    8  O3  UNL     1      12.237 -14.529   8.567  1.00  0.00    -0.340 OA
HETATM    9  C6  UNL     1      12.318 -13.255   9.018  1.00  0.00     0.191 A 
HETATM   10  C7  UNL     1      12.204 -12.043   8.171  1.00  0.00     0.048 C 
HETATM   11  C8  UNL     1      11.442 -11.003   9.007  1.00  0.00     0.080 C 
HETATM   12  S1  UNL     1      11.940 -11.112  10.718  1.00  0.00    -0.129 SA
ENDROOT
TORSDOF 0
ENDMDL
MODEL 3
REMARK VINA RESULT: -3.795683782      1.795      4.000
REMARK  0 active torsions:
REMARK  status: ('A' for Active; 'I' for Inactive)
ROOT
HETATM    1  C1  UNL     1      10.343 -12.342  10.343  1.00  0.00     0.061 C 
HETATM    2  C2  UNL     1      11.393 -12.628   9.327  1.00  0.00     0.137 C 
HETATM    3  C3  UNL     1      12.291 -13.758   9.853  1.00  0.00     0.061 C 
HETATM    4  O1  UNL     1      10.939 -13.015   8.100  1.00  0.00    -0.216 OA
HETATM    5  O2  UNL     1       9.791 -12.553   7.741  1.00  0.00    -0.197 OA
HETATM    6  C4  UNL     1       9.805 -11.395   7.020  1.00  0.00     0.220 A 
HETATM    7  C5  UNL     1       8.681 -10.441   7.293  1.00  0.00     0.085 C 
HETATM    8  O3  UNL     1      10.280 -11.324   5.726  1.00  0.00    -0.340 OA
HETATM    9  C6  UNL     1      11.161 -11.000   6.702  1.00  0.00     0.191 A 
HETATM   10  C7  UNL     1      11.451  -9.621   7.162  1.00  0.00     0.048 C 
HETATM   11  C8  UNL     1      11.664  -9.708   8.681  1.00  0.00     0.080 C 
HETATM   12  S1  UNL     1      12.531 -11.215   9.090  1.00  0.00    -0.129 SA
ENDROOT
TORSDOF 0
ENDMDL
MODEL 4
REMARK VINA RESULT: -3.788591257      2.518      3.413
REMARK  0 active torsions:
REMARK  status: ('A' for Active; 'I' for Inactive)
ROOT
HETATM    1  C1  UNL     1      10.113 -11.518   5.196  1.00  0.00     0.061 C 
HETATM    2  C2  UNL     1       9.003 -11.616   6.184  1.00  0.00     0.137 C 
HETATM    3  C3  UNL     1       7.694 -11.892   5.427  1.00  0.00     0.061 C 
HETATM    4  O1  UNL     1       9.134 -12.593   7.127  1.00  0.00    -0.216 OA
HETATM    5  O2  UNL     1      10.337 -12.908   7.463  1.00  0.00    -0.197 OA
HETATM    6  C4  UNL     1      10.857 -12.245   8.535  1.00  0.00     0.220 A 
HETATM    7  C5  UNL     1      12.320 -11.924   8.458  1.00  0.00     0.085 C 
HETATM    8  O3  UNL     1      10.406 -12.436   9.825  1.00  0.00    -0.340 OA
HETATM    9  C6  UNL     1       9.860 -11.396   9.152  1.00  0.00     0.191 A 
HETATM   10  C7  UNL     1      10.318  -9.989   9.243  1.00  0.00     0.048 C 
HETATM   11  C8  UNL     1      10.177  -9.398   7.832  1.00  0.00     0.080 C 
HETATM   12  S1  UNL     1       8.703 -10.031   7.049  1.00  0.00    -0.129 SA
ENDROOT
TORSDOF 0
ENDMDL
MODEL 5
REMARK VINA RESULT: -3.754817727      1.298      1.521
REMARK  0 active torsions:
REMARK  status: ('A' for Active; 'I' for Inactive)
ROOT
HETATM    1  C1  UNL     1      12.363 -10.870   7.771  1.00  0.00     0.061 C 
HETATM    2  C2  UNL     1      11.007 -11.478   7.687  1.00  0.00     0.137 C 
HETATM    3  C3  UNL     1      10.419 -11.179   6.300  1.00  0.00     0.061 C 
HETATM    4  O1  UNL     1      10.952 -12.830   7.862  1.00  0.00    -0.216 OA
HETATM    5  O2  UNL     1      11.854 -13.347   8.624  1.00  0.00    -0.197 OA
HETATM    6  C4  UNL     1      11.526 -13.482   9.941  1.00  0.00     0.220 A 
HETATM    7  C5  UNL     1      12.639 -13.257  10.919  1.00  0.00     0.085 C 
HETATM    8  O3  UNL     1      10.579 -14.380  10.388  1.00  0.00    -0.340 OA
HETATM    9  C6  UNL     1      10.143 -13.117  10.170  1.00  0.00     0.191 A 
HETATM   10  C7  UNL     1      10.019 -12.068  11.210  1.00  0.00     0.048 C 
HETATM   11  C8  UNL     1      10.423 -10.746  10.540  1.00  0.00     0.080 C 
HETATM   12  S1  UNL     1       9.828 -10.708   8.857  1.00  0.00    -0.129 SA
ENDROOT
TORSDOF 0
ENDMDL
