MODEL 1
REMARK VINA RESULT: -8.015545163      0.000      0.000
REMARK  4 active torsions:
REMARK  status: ('A' for Active; 'I' for Inactive)
REMARK    1  A    between atoms: C2_2  and  N1_4 
REMARK    2  A    between atoms: C7_8  and  C8_9 
REMARK    3  A    between atoms: C8_9  and  C9_10 
REMARK    4  A    between atoms: N4_18  and  C13_20 
ROOT
HETATM    1  C9  UNL     1      17.817  75.737  61.119  1.00  0.00     0.079 A 
HETATM    2  N2  UNL     1      17.687  75.412  62.450  1.00  0.00    -0.340 N 
ATOM      3  H2  UNL     1      17.472  76.078  63.192  1.00  0.00     0.167 HD
HETATM    4  C10 UNL     1      17.881  74.107  62.632  1.00  0.00     0.097 A 
HETATM    5  C11 UNL     1      17.836  73.431  63.778  1.00  0.00     0.063 C 
HETATM    6  N3  UNL     1      18.141  73.541  61.448  1.00  0.00    -0.328 N 
ATOM      7  H3  UNL     1      18.332  72.555  61.275  1.00  0.00     0.169 HD
HETATM    8  C12 UNL     1      18.102  74.544  60.509  1.00  0.00     0.130 A 
HETATM    9  N4  UNL     1      18.311  74.316  59.270  1.00  0.00    -0.375 N 
ATOM     10  H4  UNL     1      18.275  75.077  58.591  1.00  0.00     0.161 HD
ENDROOT
BRANCH   1  11
HETATM   11  C8  UNL     1      17.675  76.955  60.669  1.00  0.00     0.046 C 
BRANCH  11  12
HETATM   12  C7  UNL     1      17.434  77.442  59.347  1.00  0.00    -0.018 A 
HETATM   13  C6  UNL     1      18.484  77.837  58.546  1.00  0.00     0.014 A 
HETATM   14  C5  UNL     1      18.281  78.343  57.275  1.00  0.00     0.019 A 
HETATM   15  C4  UNL     1      16.994  78.450  56.806  1.00  0.00     0.096 A 
HETATM   16  N1  UNL     1      15.929  78.070  57.569  1.00  0.00    -0.337 N 
HETATM   17  C15 UNL     1      16.152  77.582  58.799  1.00  0.00     0.107 A 
BRANCH  16  18
HETATM   18  C2  UNL     1      14.634  78.212  57.013  1.00  0.00     0.002 C 
HETATM   19  C1  UNL     1      13.879  77.163  56.782  1.00  0.00     0.038 C 
HETATM   20  C3  UNL     1      14.108  79.562  56.679  1.00  0.00     0.068 C 
ENDBRANCH  16  18
ENDBRANCH  11  12
ENDBRANCH   1  11
BRANCH   9  21
HETATM   21  C13 UNL     1      18.603  72.946  58.836  1.00  0.00     0.116 C 
HETATM   22  C14 UNL     1      19.269  72.920  57.492  1.00  0.00     0.026 C 
ENDBRANCH   9  21
TORSDOF 4
ENDMDL
MODEL 2
REMARK VINA RESULT: -7.538241917      2.491      5.605
REMARK  4 active torsions:
REMARK  status: ('A' for Active; 'I' for Inactive)
REMARK    1  A    between atoms: C2_2  and  N1_4 
REMARK    2  A    between atoms: C7_8  and  C8_9 
REMARK    3  A    between atoms: C8_9  and  C9_10 
REMARK    4  A    between atoms: N4_18  and  C13_20 
ROOT
HETATM    1  C9  UNL     1      19.075  72.141  58.005  1.00  0.00     0.079 A 
HETATM    2  N2  UNL     1      19.894  72.836  57.145  1.00  0.00    -0.340 N 
ATOM      3  H2  UNL     1      20.665  73.437  57.435  1.00  0.00     0.167 HD
HETATM    4  C10 UNL     1      19.539  72.612  55.881  1.00  0.00     0.097 A 
HETATM    5  C11 UNL     1      20.098  73.110  54.780  1.00  0.00     0.063 C 
HETATM    6  N3  UNL     1      18.493  71.779  55.868  1.00  0.00    -0.328 N 
ATOM      7  H3  UNL     1      18.004  71.429  55.044  1.00  0.00     0.169 HD
HETATM    8  C12 UNL     1      18.202  71.484  57.178  1.00  0.00     0.130 A 
HETATM    9  N4  UNL     1      17.243  70.703  57.497  1.00  0.00    -0.375 N 
ATOM     10  H4  UNL     1      17.047  70.498  58.477  1.00  0.00     0.161 HD
ENDROOT
BRANCH   1  11
HETATM   11  C8  UNL     1      19.208  72.186  59.303  1.00  0.00     0.046 C 
BRANCH  11  12
HETATM   12  C7  UNL     1      18.894  73.218  60.241  1.00  0.00    -0.018 A 
HETATM   13  C6  UNL     1      19.142  73.039  61.585  1.00  0.00     0.014 A 
HETATM   14  C5  UNL     1      18.820  74.006  62.521  1.00  0.00     0.019 A 
HETATM   15  C4  UNL     1      18.238  75.173  62.089  1.00  0.00     0.096 A 
HETATM   16  N1  UNL     1      17.977  75.386  60.768  1.00  0.00    -0.337 N 
HETATM   17  C15 UNL     1      18.298  74.434  59.878  1.00  0.00     0.107 A 
BRANCH  16  18
HETATM   18  C2  UNL     1      17.374  76.616  60.404  1.00  0.00     0.002 C 
HETATM   19  C1  UNL     1      17.803  77.752  60.904  1.00  0.00     0.038 C 
HETATM   20  C3  UNL     1      16.239  76.637  59.445  1.00  0.00     0.068 C 
ENDBRANCH  16  18
ENDBRANCH  11  12
ENDBRANCH   1  11
BRANCH   9  21
HETATM   21  C13 UNL     1      16.428  70.104  56.435  1.00  0.00     0.116 C 
HETATM   22  C14 UNL     1      16.774  68.661  56.216  1.00  0.00     0.026 C 
ENDBRANCH   9  21
TORSDOF 4
ENDMDL
MODEL 3
REMARK VINA RESULT: -7.393254877      3.471      6.286
REMARK  4 active torsions:
REMARK  status: ('A' for Active; 'I' for Inactive)
REMARK    1  A    between atoms: C2_2  and  N1_4 
REMARK    2  A    between atoms: C7_8  and  C8_9 
REMARK    3  A    between atoms: C8_9  and  C9_10 
REMARK    4  A    between atoms: N4_18  and  C13_20 
ROOT
HETATM    1  C9  UNL     1      16.310  72.486  57.002  1.00  0.00     0.079 A 
HETATM    2  N2  UNL     1      15.027  72.980  56.946  1.00  0.00    -0.340 N 
ATOM      3  H2  UNL     1      14.761  73.936  57.182  1.00  0.00     0.167 HD
HETATM    4  C10 UNL     1      14.181  72.034  56.539  1.00  0.00     0.097 A 
HETATM    5  C11 UNL     1      12.866  72.141  56.365  1.00  0.00     0.063 C 
HETATM    6  N3  UNL     1      14.868  70.907  56.320  1.00  0.00    -0.328 N 
ATOM      7  H3  UNL     1      14.488  70.016  56.003  1.00  0.00     0.169 HD
HETATM    8  C12 UNL     1      16.184  71.181  56.605  1.00  0.00     0.130 A 
HETATM    9  N4  UNL     1      17.097  70.296  56.489  1.00  0.00    -0.375 N 
ATOM     10  H4  UNL     1      18.068  70.523  56.705  1.00  0.00     0.161 HD
ENDROOT
BRANCH   1  11
HETATM   11  C8  UNL     1      17.333  73.209  57.373  1.00  0.00     0.046 C 
BRANCH  11  12
HETATM   12  C7  UNL     1      18.089  73.210  58.585  1.00  0.00    -0.018 A 
HETATM   13  C6  UNL     1      19.008  72.214  58.834  1.00  0.00     0.014 A 
HETATM   14  C5  UNL     1      19.733  72.169  60.012  1.00  0.00     0.019 A 
HETATM   15  C4  UNL     1      19.523  73.148  60.953  1.00  0.00     0.096 A 
HETATM   16  N1  UNL     1      18.622  74.150  60.742  1.00  0.00    -0.337 N 
HETATM   17  C15 UNL     1      17.931  74.172  59.591  1.00  0.00     0.107 A 
BRANCH  16  18
HETATM   18  C2  UNL     1      18.464  75.121  61.761  1.00  0.00     0.002 C 
HETATM   19  C1  UNL     1      18.944  74.920  62.967  1.00  0.00     0.038 C 
HETATM   20  C3  UNL     1      17.746  76.392  61.478  1.00  0.00     0.068 C 
ENDBRANCH  16  18
ENDBRANCH  11  12
ENDBRANCH   1  11
BRANCH   9  21
HETATM   21  C13 UNL     1      16.731  68.948  56.042  1.00  0.00     0.116 C 
HETATM   22  C14 UNL     1      17.452  67.889  56.824  1.00  0.00     0.026 C 
ENDBRANCH   9  21
TORSDOF 4
ENDMDL
MODEL 4
REMARK VINA RESULT: -7.374820800      0.999      1.931
REMARK  4 active torsions:
REMARK  status: ('A' for Active; 'I' for Inactive)
REMARK    1  A    between atoms: C2_2  and  N1_4 
REMARK    2  A    between atoms: C7_8  and  C8_9 
REMARK    3  A    between atoms: C8_9  and  C9_10 
REMARK    4  A    between atoms: N4_18  and  C13_20 
ROOT
HETATM    1  C9  UNL     1      17.702  75.496  61.061  1.00  0.00     0.079 A 
HETATM    2  N2  UNL     1      17.521  75.317  62.413  1.00  0.00    -0.340 N 
ATOM      3  H2  UNL     1      17.147  76.022  63.048  1.00  0.00     0.167 HD
HETATM    4  C10 UNL     1      17.902  74.093  62.776  1.00  0.00     0.097 A 
HETATM    5  C11 UNL     1      17.874  73.562  63.997  1.00  0.00     0.063 C 
HETATM    6  N3  UNL     1      18.340  73.440  61.694  1.00  0.00    -0.328 N 
ATOM      7  H3  UNL     1      18.696  72.484  61.664  1.00  0.00     0.169 HD
HETATM    8  C12 UNL     1      18.218  74.301  60.631  1.00  0.00     0.130 A 
HETATM    9  N4  UNL     1      18.556  73.964  59.447  1.00  0.00    -0.375 N 
ATOM     10  H4  UNL     1      18.455  74.621  58.673  1.00  0.00     0.161 HD
ENDROOT
BRANCH   1  11
HETATM   11  C8  UNL     1      17.407  76.610  60.447  1.00  0.00     0.046 C 
BRANCH  11  12
HETATM   12  C7  UNL     1      16.648  76.853  59.261  1.00  0.00    -0.018 A 
HETATM   13  C6  UNL     1      15.443  76.214  59.061  1.00  0.00     0.014 A 
HETATM   14  C5  UNL     1      14.700  76.403  57.909  1.00  0.00     0.019 A 
HETATM   15  C4  UNL     1      15.184  77.253  56.945  1.00  0.00     0.096 A 
HETATM   16  N1  UNL     1      16.372  77.903  57.107  1.00  0.00    -0.337 N 
HETATM   17  C15 UNL     1      17.075  77.703  58.233  1.00  0.00     0.107 A 
BRANCH  16  18
HETATM   18  C2  UNL     1      16.802  78.762  56.065  1.00  0.00     0.002 C 
HETATM   19  C1  UNL     1      18.068  78.828  55.723  1.00  0.00     0.038 C 
HETATM   20  C3  UNL     1      15.818  79.609  55.341  1.00  0.00     0.068 C 
ENDBRANCH  16  18
ENDBRANCH  11  12
ENDBRANCH   1  11
BRANCH   9  21
HETATM   21  C13 UNL     1      19.092  72.619  59.215  1.00  0.00     0.116 C 
HETATM   22  C14 UNL     1      18.793  72.134  57.827  1.00  0.00     0.026 C 
ENDBRANCH   9  21
TORSDOF 4
ENDMDL
MODEL 5
REMARK VINA RESULT: -7.349163341      3.150      6.315
REMARK  4 active torsions:
REMARK  status: ('A' for Active; 'I' for Inactive)
REMARK    1  A    between atoms: C2_2  and  N1_4 
REMARK    2  A    between atoms: C7_8  and  C8_9 
REMARK    3  A    between atoms: C8_9  and  C9_10 
REMARK    4  A    between atoms: N4_18  and  C13_20 
ROOT
HETATM    1  C9  UNL     1      14.009  75.264  57.528  1.00  0.00     0.079 A 
HETATM    2  N2  UNL     1      14.631  74.162  56.988  1.00  0.00    -0.340 N 
ATOM      3  H2  UNL     1      15.640  74.061  56.874  1.00  0.00     0.167 HD
HETATM    4  C10 UNL     1      13.732  73.245  56.634  1.00  0.00     0.097 A 
HETATM    5  C11 UNL     1      13.959  72.056  56.081  1.00  0.00     0.063 C 
HETATM    6  N3  UNL     1      12.510  73.706  56.924  1.00  0.00    -0.328 N 
ATOM      7  H3  UNL     1      11.625  73.225  56.765  1.00  0.00     0.169 HD
HETATM    8  C12 UNL     1      12.675  74.953  57.477  1.00  0.00     0.130 A 
HETATM    9  N4  UNL     1      11.682  75.657  57.864  1.00  0.00    -0.375 N 
ATOM     10  H4  UNL     1      11.830  76.579  58.273  1.00  0.00     0.161 HD
ENDROOT
BRANCH   1  11
HETATM   11  C8  UNL     1      14.663  76.310  57.956  1.00  0.00     0.046 C 
BRANCH  11  12
HETATM   12  C7  UNL     1      15.697  76.431  58.935  1.00  0.00    -0.018 A 
HETATM   13  C6  UNL     1      16.497  77.552  58.970  1.00  0.00     0.014 A 
HETATM   14  C5  UNL     1      17.527  77.685  59.885  1.00  0.00     0.019 A 
HETATM   15  C4  UNL     1      17.749  76.667  60.779  1.00  0.00     0.096 A 
HETATM   16  N1  UNL     1      16.978  75.541  60.776  1.00  0.00    -0.337 N 
HETATM   17  C15 UNL     1      15.985  75.436  59.878  1.00  0.00     0.107 A 
BRANCH  16  18
HETATM   18  C2  UNL     1      17.272  74.537  61.730  1.00  0.00     0.002 C 
HETATM   19  C1  UNL     1      16.436  73.548  61.950  1.00  0.00     0.038 C 
HETATM   20  C3  UNL     1      18.541  74.588  62.504  1.00  0.00     0.068 C 
ENDBRANCH  16  18
ENDBRANCH  11  12
ENDBRANCH   1  11
BRANCH   9  21
HETATM   21  C13 UNL     1      10.326  75.120  57.711  1.00  0.00     0.116 C 
HETATM   22  C14 UNL     1       9.532  75.246  58.978  1.00  0.00     0.026 C 
ENDBRANCH   9  21
TORSDOF 4
ENDMDL
