MODEL 1
REMARK VINA RESULT: -8.061012254      0.000      0.000
REMARK  4 active torsions:
REMARK  status: ('A' for Active; 'I' for Inactive)
REMARK       I    between atoms: N3_4  and  C2_6 
REMARK    1  A    between atoms: C2_6  and  C3_8 
REMARK    2  A    between atoms: C3_8  and  N4_9 
REMARK    3  A    between atoms: C7_13  and  C8_14 
REMARK    4  A    between atoms: C8_14  and  N5_15 
ROOT
HETATM    1  N4  UNL     1      15.923  77.301  57.970  1.00  0.00    -0.357 N 
HETATM    2  C4  UNL     1      16.833  77.938  57.198  1.00  0.00     0.091 A 
HETATM    3  C5  UNL     1      18.066  78.174  57.754  1.00  0.00     0.018 A 
HETATM    4  C6  UNL     1      18.371  77.782  59.040  1.00  0.00     0.011 A 
HETATM    5  C7  UNL     1      17.427  77.126  59.824  1.00  0.00    -0.024 A 
HETATM    6  C14 UNL     1      16.200  76.907  59.230  1.00  0.00     0.099 A 
ENDROOT
BRANCH   1   7
HETATM    7  C3  UNL     1      14.618  77.028  57.442  1.00  0.00     0.230 C 
BRANCH   7   8
HETATM    8  C2  UNL     1      14.287  75.611  57.353  1.00  0.00     0.241 C 
HETATM    9  N3  UNL     1      13.199  75.092  58.090  1.00  0.00    -0.302 N 
HETATM   10  C1  UNL     1      11.999  75.350  57.692  1.00  0.00     0.203 C 
ATOM     11  H3  UNL     1      13.360  74.523  58.921  1.00  0.00     0.171 HD
HETATM   12  N1  UNL     1      11.715  76.134  56.543  1.00  0.00    -0.066 NA
HETATM   13  N2  UNL     1      10.936  74.811  58.459  1.00  0.00    -0.066 NA
HETATM   14  O1  UNL     1      14.943  74.831  56.634  1.00  0.00    -0.271 OA
ENDBRANCH   7   8
ENDBRANCH   1   7
BRANCH   5  15
HETATM   15  C8  UNL     1      17.736  76.699  61.201  1.00  0.00     0.167 C 
BRANCH  15  16
HETATM   16  N5  UNL     1      18.128  75.307  61.279  1.00  0.00    -0.362 N 
HETATM   17  C9  UNL     1      18.248  74.759  62.492  1.00  0.00     0.090 A 
HETATM   18  C10 UNL     1      18.616  73.443  62.675  1.00  0.00     0.017 A 
HETATM   19  C11 UNL     1      18.860  72.695  61.542  1.00  0.00     0.003 A 
HETATM   20  C12 UNL     1      18.734  73.263  60.297  1.00  0.00     0.017 A 
HETATM   21  C13 UNL     1      18.365  74.578  60.193  1.00  0.00     0.090 A 
ENDBRANCH  15  16
ENDBRANCH   5  15
TORSDOF 4
ENDMDL
MODEL 2
REMARK VINA RESULT: -7.695521703      2.920      5.427
REMARK  4 active torsions:
REMARK  status: ('A' for Active; 'I' for Inactive)
REMARK       I    between atoms: N3_4  and  C2_6 
REMARK    1  A    between atoms: C2_6  and  C3_8 
REMARK    2  A    between atoms: C3_8  and  N4_9 
REMARK    3  A    between atoms: C7_13  and  C8_14 
REMARK    4  A    between atoms: C8_14  and  N5_15 
ROOT
HETATM    1  N4  UNL     1      17.702  73.451  60.250  1.00  0.00    -0.357 N 
HETATM    2  C4  UNL     1      18.511  72.962  61.217  1.00  0.00     0.091 A 
HETATM    3  C5  UNL     1      19.051  73.868  62.095  1.00  0.00     0.018 A 
HETATM    4  C6  UNL     1      18.785  75.219  62.002  1.00  0.00     0.011 A 
HETATM    5  C7  UNL     1      17.951  75.709  61.002  1.00  0.00    -0.024 A 
HETATM    6  C14 UNL     1      17.428  74.766  60.140  1.00  0.00     0.099 A 
ENDROOT
BRANCH   1   7
HETATM    7  C3  UNL     1      17.110  72.550  59.303  1.00  0.00     0.230 C 
BRANCH   7   8
HETATM    8  C2  UNL     1      17.979  72.187  58.190  1.00  0.00     0.241 C 
HETATM    9  N3  UNL     1      17.849  70.921  57.576  1.00  0.00    -0.302 N 
HETATM   10  C1  UNL     1      16.841  70.707  56.799  1.00  0.00     0.203 C 
ATOM     11  H3  UNL     1      18.541  70.190  57.744  1.00  0.00     0.171 HD
HETATM   12  N1  UNL     1      15.850  71.686  56.528  1.00  0.00    -0.066 NA
HETATM   13  N2  UNL     1      16.747  69.425  56.203  1.00  0.00    -0.066 NA
HETATM   14  O1  UNL     1      18.845  72.972  57.755  1.00  0.00    -0.271 OA
ENDBRANCH   7   8
ENDBRANCH   1   7
BRANCH   5  15
HETATM   15  C8  UNL     1      17.655  77.149  60.887  1.00  0.00     0.167 C 
BRANCH  15  16
HETATM   16  N5  UNL     1      17.413  77.562  59.520  1.00  0.00    -0.362 N 
HETATM   17  C9  UNL     1      18.473  77.861  58.762  1.00  0.00     0.090 A 
HETATM   18  C10 UNL     1      18.351  78.264  57.450  1.00  0.00     0.017 A 
HETATM   19  C11 UNL     1      17.075  78.350  56.933  1.00  0.00     0.003 A 
HETATM   20  C12 UNL     1      15.989  78.040  57.717  1.00  0.00     0.017 A 
HETATM   21  C13 UNL     1      16.187  77.647  59.014  1.00  0.00     0.090 A 
ENDBRANCH  15  16
ENDBRANCH   5  15
TORSDOF 4
ENDMDL
MODEL 3
REMARK VINA RESULT: -7.678629701      2.931      5.413
REMARK  4 active torsions:
REMARK  status: ('A' for Active; 'I' for Inactive)
REMARK       I    between atoms: N3_4  and  C2_6 
REMARK    1  A    between atoms: C2_6  and  C3_8 
REMARK    2  A    between atoms: C3_8  and  N4_9 
REMARK    3  A    between atoms: C7_13  and  C8_14 
REMARK    4  A    between atoms: C8_14  and  N5_15 
ROOT
HETATM    1  N4  UNL     1      17.700  73.438  60.226  1.00  0.00    -0.357 N 
HETATM    2  C4  UNL     1      18.525  72.956  61.183  1.00  0.00     0.091 A 
HETATM    3  C5  UNL     1      19.071  73.868  62.052  1.00  0.00     0.018 A 
HETATM    4  C6  UNL     1      18.795  75.216  61.959  1.00  0.00     0.011 A 
HETATM    5  C7  UNL     1      17.945  75.700  60.971  1.00  0.00    -0.024 A 
HETATM    6  C14 UNL     1      17.416  74.752  60.117  1.00  0.00     0.099 A 
ENDROOT
BRANCH   1   7
HETATM    7  C3  UNL     1      17.100  72.531  59.289  1.00  0.00     0.230 C 
BRANCH   7   8
HETATM    8  C2  UNL     1      17.961  72.162  58.172  1.00  0.00     0.241 C 
HETATM    9  N3  UNL     1      17.825  70.894  57.565  1.00  0.00    -0.302 N 
HETATM   10  C1  UNL     1      16.811  70.678  56.796  1.00  0.00     0.203 C 
ATOM     11  H3  UNL     1      18.515  70.162  57.732  1.00  0.00     0.171 HD
HETATM   12  N1  UNL     1      15.819  71.658  56.527  1.00  0.00    -0.066 NA
HETATM   13  N2  UNL     1      16.710  69.394  56.207  1.00  0.00    -0.066 NA
HETATM   14  O1  UNL     1      18.825  72.943  57.727  1.00  0.00    -0.271 OA
ENDBRANCH   7   8
ENDBRANCH   1   7
BRANCH   5  15
HETATM   15  C8  UNL     1      17.638  77.137  60.857  1.00  0.00     0.167 C 
BRANCH  15  16
HETATM   16  N5  UNL     1      17.459  77.563  59.484  1.00  0.00    -0.362 N 
HETATM   17  C9  UNL     1      16.210  77.653  59.017  1.00  0.00     0.090 A 
HETATM   18  C10 UNL     1      15.931  78.048  57.726  1.00  0.00     0.017 A 
HETATM   19  C11 UNL     1      17.004  78.355  56.917  1.00  0.00     0.003 A 
HETATM   20  C12 UNL     1      18.287  78.262  57.402  1.00  0.00     0.017 A 
HETATM   21  C13 UNL     1      18.487  77.861  58.697  1.00  0.00     0.090 A 
ENDBRANCH  15  16
ENDBRANCH   5  15
TORSDOF 4
ENDMDL
MODEL 4
REMARK VINA RESULT: -7.608582344      2.963      5.624
REMARK  4 active torsions:
REMARK  status: ('A' for Active; 'I' for Inactive)
REMARK       I    between atoms: N3_4  and  C2_6 
REMARK    1  A    between atoms: C2_6  and  C3_8 
REMARK    2  A    between atoms: C3_8  and  N4_9 
REMARK    3  A    between atoms: C7_13  and  C8_14 
REMARK    4  A    between atoms: C8_14  and  N5_15 
ROOT
HETATM    1  N4  UNL     1      17.749  73.427  60.234  1.00  0.00    -0.357 N 
HETATM    2  C4  UNL     1      18.509  72.930  61.237  1.00  0.00     0.091 A 
HETATM    3  C5  UNL     1      18.999  73.828  62.151  1.00  0.00     0.018 A 
HETATM    4  C6  UNL     1      18.732  75.179  62.059  1.00  0.00     0.011 A 
HETATM    5  C7  UNL     1      17.949  75.677  61.024  1.00  0.00    -0.024 A 
HETATM    6  C14 UNL     1      17.475  74.742  60.125  1.00  0.00     0.099 A 
ENDROOT
BRANCH   1   7
HETATM    7  C3  UNL     1      17.210  72.535  59.248  1.00  0.00     0.230 C 
BRANCH   7   8
HETATM    8  C2  UNL     1      17.254  73.045  57.884  1.00  0.00     0.241 C 
HETATM    9  N3  UNL     1      18.453  72.970  57.140  1.00  0.00    -0.302 N 
HETATM   10  C1  UNL     1      18.825  71.825  56.674  1.00  0.00     0.203 C 
ATOM     11  H3  UNL     1      19.014  73.806  56.974  1.00  0.00     0.171 HD
HETATM   12  N1  UNL     1      18.084  70.630  56.873  1.00  0.00    -0.066 NA
HETATM   13  N2  UNL     1      20.032  71.791  55.934  1.00  0.00    -0.066 NA
HETATM   14  O1  UNL     1      16.252  73.554  57.344  1.00  0.00    -0.271 OA
ENDBRANCH   7   8
ENDBRANCH   1   7
BRANCH   5  15
HETATM   15  C8  UNL     1      17.653  77.118  60.910  1.00  0.00     0.167 C 
BRANCH  15  16
HETATM   16  N5  UNL     1      17.474  77.544  59.537  1.00  0.00    -0.362 N 
HETATM   17  C9  UNL     1      16.226  77.625  59.067  1.00  0.00     0.090 A 
HETATM   18  C10 UNL     1      15.948  78.020  57.776  1.00  0.00     0.017 A 
HETATM   19  C11 UNL     1      17.021  78.336  56.970  1.00  0.00     0.003 A 
HETATM   20  C12 UNL     1      18.303  78.252  57.459  1.00  0.00     0.017 A 
HETATM   21  C13 UNL     1      18.502  77.851  58.754  1.00  0.00     0.090 A 
ENDBRANCH  15  16
ENDBRANCH   5  15
TORSDOF 4
ENDMDL
MODEL 5
REMARK VINA RESULT: -7.535029203      2.356      2.922
REMARK  4 active torsions:
REMARK  status: ('A' for Active; 'I' for Inactive)
REMARK       I    between atoms: N3_4  and  C2_6 
REMARK    1  A    between atoms: C2_6  and  C3_8 
REMARK    2  A    between atoms: C3_8  and  N4_9 
REMARK    3  A    between atoms: C7_13  and  C8_14 
REMARK    4  A    between atoms: C8_14  and  N5_15 
ROOT
HETATM    1  N4  UNL     1      16.361  77.727  56.909  1.00  0.00    -0.357 N 
HETATM    2  C4  UNL     1      17.549  78.322  56.654  1.00  0.00     0.091 A 
HETATM    3  C5  UNL     1      18.488  78.291  57.654  1.00  0.00     0.018 A 
HETATM    4  C6  UNL     1      18.240  77.684  58.867  1.00  0.00     0.011 A 
HETATM    5  C7  UNL     1      17.014  77.076  59.117  1.00  0.00    -0.024 A 
HETATM    6  C14 UNL     1      16.096  77.127  58.087  1.00  0.00     0.099 A 
ENDROOT
BRANCH   1   7
HETATM    7  C3  UNL     1      15.340  77.728  55.901  1.00  0.00     0.230 C 
BRANCH   7   8
HETATM    8  C2  UNL     1      14.035  78.183  56.364  1.00  0.00     0.241 C 
HETATM    9  N3  UNL     1      13.817  79.554  56.626  1.00  0.00    -0.302 N 
HETATM   10  C1  UNL     1      13.695  80.366  55.631  1.00  0.00     0.203 C 
ATOM     11  H3  UNL     1      13.756  79.895  57.586  1.00  0.00     0.171 HD
HETATM   12  N1  UNL     1      13.769  79.948  54.276  1.00  0.00    -0.066 NA
HETATM   13  N2  UNL     1      13.478  81.732  55.936  1.00  0.00    -0.066 NA
HETATM   14  O1  UNL     1      13.090  77.388  56.537  1.00  0.00    -0.271 OA
ENDBRANCH   7   8
ENDBRANCH   1   7
BRANCH   5  15
HETATM   15  C8  UNL     1      16.731  76.421  60.408  1.00  0.00     0.167 C 
BRANCH  15  16
HETATM   16  N5  UNL     1      17.660  75.351  60.707  1.00  0.00    -0.362 N 
HETATM   17  C9  UNL     1      18.281  75.376  61.890  1.00  0.00     0.090 A 
HETATM   18  C10 UNL     1      19.184  74.406  62.271  1.00  0.00     0.017 A 
HETATM   19  C11 UNL     1      19.429  73.388  61.374  1.00  0.00     0.003 A 
HETATM   20  C12 UNL     1      18.787  73.366  60.159  1.00  0.00     0.017 A 
HETATM   21  C13 UNL     1      17.902  74.365  59.849  1.00  0.00     0.090 A 
ENDBRANCH  15  16
ENDBRANCH   5  15
TORSDOF 4
ENDMDL
