MODEL 1
REMARK VINA RESULT: -6.294974995      0.000      0.000
REMARK  7 active torsions:
REMARK  status: ('A' for Active; 'I' for Inactive)
REMARK    1  A    between atoms: C3_3  and  C4_4 
REMARK    2  A    between atoms: C4_4  and  N1_5 
REMARK    3  A    between atoms: N1_5  and  C5_6 
REMARK    4  A    between atoms: C5_6  and  C6_7 
REMARK    5  A    between atoms: C6_7  and  N2_9 
REMARK    6  A    between atoms: N2_9  and  C8_11 
REMARK    7  A    between atoms: C8_11  and  N3_13 
ROOT
HETATM    1  C1  UNL     1      14.306  79.208  57.099  1.00  0.00     0.112 C 
HETATM    2  C2  UNL     1      15.396  78.253  57.307  1.00  0.00    -0.109 C 
HETATM    3  C3  UNL     1      16.305  77.447  57.462  1.00  0.00    -0.079 C 
ENDROOT
BRANCH   3   4
HETATM    4  C4  UNL     1      17.376  76.491  57.620  1.00  0.00     0.336 C 
BRANCH   4   5
HETATM    5  N1  UNL     1      17.048  75.477  58.626  1.00  0.00    -0.032 N 
HETATM    6  C10 UNL     1      18.084  74.521  58.796  1.00  0.00     0.272 C 
HETATM    7  C11 UNL     1      18.605  74.053  57.455  1.00  0.00     0.265 C 
HETATM    8  N4  UNL     1      17.570  73.335  56.789  1.00  0.00    -0.071 N 
HETATM    9  C12 UNL     1      17.515  71.987  57.383  1.00  0.00     0.272 C 
HETATM   10  C13 UNL     1      17.952  73.089  55.395  1.00  0.00     0.272 C 
HETATM   11  C14 UNL     1      16.291  73.971  56.801  1.00  0.00     0.265 C 
HETATM   12  C15 UNL     1      15.936  74.747  57.991  1.00  0.00     0.272 C 
BRANCH   5  13
HETATM   13  C5  UNL     1      16.501  76.030  59.834  1.00  0.00     0.227 C 
BRANCH  13  14
HETATM   14  C6  UNL     1      17.414  76.520  60.842  1.00  0.00     0.026 C 
HETATM   15  C7  UNL     1      18.368  77.658  60.659  1.00  0.00     0.069 C 
BRANCH  14  16
HETATM   16  N2  UNL     1      17.438  75.999  61.988  1.00  0.00    -0.366 N 
ATOM     17  H2  UNL     1      17.141  76.577  62.773  1.00  0.00     0.161 HD
BRANCH  16  18
HETATM   18  C8  UNL     1      17.848  74.659  62.276  1.00  0.00     0.277 C 
HETATM   19  C9  UNL     1      19.305  74.634  62.652  1.00  0.00     0.063 C 
BRANCH  18  20
HETATM   20  N3  UNL     1      17.126  74.143  63.447  1.00  0.00    -0.059 N 
ATOM     21  H33 UNL     1      17.422  74.602  64.309  1.00  0.00     0.276 HD
ATOM     22  H32 UNL     1      16.149  74.433  63.449  1.00  0.00     0.276 HD
ATOM     23  H31 UNL     1      17.221  73.129  63.505  1.00  0.00     0.276 HD
ENDBRANCH  18  20
ENDBRANCH  16  18
ENDBRANCH  14  16
ENDBRANCH  13  14
ENDBRANCH   5  13
ENDBRANCH   4   5
ENDBRANCH   3   4
TORSDOF 7
ENDMDL
MODEL 2
REMARK VINA RESULT: -5.866835457      1.424      1.625
REMARK  7 active torsions:
REMARK  status: ('A' for Active; 'I' for Inactive)
REMARK    1  A    between atoms: C3_3  and  C4_4 
REMARK    2  A    between atoms: C4_4  and  N1_5 
REMARK    3  A    between atoms: N1_5  and  C5_6 
REMARK    4  A    between atoms: C5_6  and  C6_7 
REMARK    5  A    between atoms: C6_7  and  N2_9 
REMARK    6  A    between atoms: N2_9  and  C8_11 
REMARK    7  A    between atoms: C8_11  and  N3_13 
ROOT
HETATM    1  C1  UNL     1      18.043  78.586  56.351  1.00  0.00     0.112 C 
HETATM    2  C2  UNL     1      18.135  77.328  57.093  1.00  0.00    -0.109 C 
HETATM    3  C3  UNL     1      18.232  76.278  57.716  1.00  0.00    -0.079 C 
ENDROOT
BRANCH   3   4
HETATM    4  C4  UNL     1      18.371  75.044  58.455  1.00  0.00     0.336 C 
BRANCH   4   5
HETATM    5  N1  UNL     1      17.093  74.609  59.021  1.00  0.00    -0.032 N 
HETATM    6  C10 UNL     1      17.136  73.276  59.509  1.00  0.00     0.272 C 
HETATM    7  C11 UNL     1      17.822  72.366  58.515  1.00  0.00     0.265 C 
HETATM    8  N4  UNL     1      17.019  72.284  57.340  1.00  0.00    -0.071 N 
HETATM    9  C12 UNL     1      15.913  71.353  57.626  1.00  0.00     0.272 C 
HETATM   10  C13 UNL     1      17.769  71.621  56.269  1.00  0.00     0.272 C 
HETATM   11  C14 UNL     1      16.542  73.538  56.848  1.00  0.00     0.265 C 
HETATM   12  C15 UNL     1      16.217  74.568  57.837  1.00  0.00     0.272 C 
BRANCH   5  13
HETATM   13  C5  UNL     1      16.499  75.579  59.900  1.00  0.00     0.227 C 
BRANCH  13  14
HETATM   14  C6  UNL     1      17.308  76.124  60.969  1.00  0.00     0.026 C 
HETATM   15  C7  UNL     1      18.244  77.284  60.834  1.00  0.00     0.069 C 
BRANCH  14  16
HETATM   16  N2  UNL     1      17.243  75.638  62.128  1.00  0.00    -0.366 N 
ATOM     17  H2  UNL     1      16.719  76.161  62.829  1.00  0.00     0.161 HD
BRANCH  16  18
HETATM   18  C8  UNL     1      17.848  74.409  62.541  1.00  0.00     0.277 C 
HETATM   19  C9  UNL     1      19.346  74.517  62.459  1.00  0.00     0.063 C 
BRANCH  18  20
HETATM   20  N3  UNL     1      17.545  74.138  63.953  1.00  0.00    -0.059 N 
ATOM     21  H33 UNL     1      18.302  73.632  64.414  1.00  0.00     0.276 HD
ATOM     22  H32 UNL     1      17.566  74.988  64.516  1.00  0.00     0.276 HD
ATOM     23  H31 UNL     1      16.654  73.649  64.038  1.00  0.00     0.276 HD
ENDBRANCH  18  20
ENDBRANCH  16  18
ENDBRANCH  14  16
ENDBRANCH  13  14
ENDBRANCH   5  13
ENDBRANCH   4   5
ENDBRANCH   3   4
TORSDOF 7
ENDMDL
MODEL 3
REMARK VINA RESULT: -5.802372628      2.163      2.899
REMARK  7 active torsions:
REMARK  status: ('A' for Active; 'I' for Inactive)
REMARK    1  A    between atoms: C3_3  and  C4_4 
REMARK    2  A    between atoms: C4_4  and  N1_5 
REMARK    3  A    between atoms: N1_5  and  C5_6 
REMARK    4  A    between atoms: C5_6  and  C6_7 
REMARK    5  A    between atoms: C6_7  and  N2_9 
REMARK    6  A    between atoms: N2_9  and  C8_11 
REMARK    7  A    between atoms: C8_11  and  N3_13 
ROOT
HETATM    1  C1  UNL     1      18.265  78.055  57.757  1.00  0.00     0.112 C 
HETATM    2  C2  UNL     1      18.390  76.628  57.453  1.00  0.00    -0.109 C 
HETATM    3  C3  UNL     1      18.513  75.434  57.210  1.00  0.00    -0.079 C 
ENDROOT
BRANCH   3   4
HETATM    4  C4  UNL     1      18.676  74.024  56.939  1.00  0.00     0.336 C 
BRANCH   4   5
HETATM    5  N1  UNL     1      17.825  73.208  57.807  1.00  0.00    -0.032 N 
HETATM    6  C10 UNL     1      18.096  71.819  57.689  1.00  0.00     0.272 C 
HETATM    7  C11 UNL     1      18.221  71.422  56.235  1.00  0.00     0.265 C 
HETATM    8  N4  UNL     1      16.952  71.588  55.605  1.00  0.00    -0.071 N 
HETATM    9  C12 UNL     1      16.118  70.433  55.984  1.00  0.00     0.272 C 
HETATM   10  C13 UNL     1      17.096  71.457  54.152  1.00  0.00     0.272 C 
HETATM   11  C14 UNL     1      16.299  72.827  55.885  1.00  0.00     0.265 C 
HETATM   12  C15 UNL     1      16.489  73.402  57.218  1.00  0.00     0.272 C 
BRANCH   5  13
HETATM   13  C5  UNL     1      17.727  73.714  59.148  1.00  0.00     0.227 C 
BRANCH  13  14
HETATM   14  C6  UNL     1      18.383  72.983  60.210  1.00  0.00     0.026 C 
HETATM   15  C7  UNL     1      19.777  72.441  60.148  1.00  0.00     0.069 C 
BRANCH  14  16
HETATM   16  N2  UNL     1      17.790  72.775  61.301  1.00  0.00    -0.366 N 
ATOM     17  H2  UNL     1      16.814  72.485  61.258  1.00  0.00     0.161 HD
BRANCH  16  18
HETATM   18  C8  UNL     1      18.379  72.912  62.598  1.00  0.00     0.277 C 
HETATM   19  C9  UNL     1      18.577  74.367  62.925  1.00  0.00     0.063 C 
BRANCH  18  20
HETATM   20  N3  UNL     1      17.472  72.391  63.629  1.00  0.00    -0.059 N 
ATOM     21  H33 UNL     1      17.603  72.864  64.524  1.00  0.00     0.276 HD
ATOM     22  H32 UNL     1      16.504  72.662  63.456  1.00  0.00     0.276 HD
ATOM     23  H31 UNL     1      17.573  71.380  63.715  1.00  0.00     0.276 HD
ENDBRANCH  18  20
ENDBRANCH  16  18
ENDBRANCH  14  16
ENDBRANCH  13  14
ENDBRANCH   5  13
ENDBRANCH   4   5
ENDBRANCH   3   4
TORSDOF 7
ENDMDL
MODEL 4
REMARK VINA RESULT: -5.787440115      1.937      2.989
REMARK  7 active torsions:
REMARK  status: ('A' for Active; 'I' for Inactive)
REMARK    1  A    between atoms: C3_3  and  C4_4 
REMARK    2  A    between atoms: C4_4  and  N1_5 
REMARK    3  A    between atoms: N1_5  and  C5_6 
REMARK    4  A    between atoms: C5_6  and  C6_7 
REMARK    5  A    between atoms: C6_7  and  N2_9 
REMARK    6  A    between atoms: N2_9  and  C8_11 
REMARK    7  A    between atoms: C8_11  and  N3_13 
ROOT
HETATM    1  C1  UNL     1      17.874  77.468  61.040  1.00  0.00     0.112 C 
HETATM    2  C2  UNL     1      17.363  76.558  60.013  1.00  0.00    -0.109 C 
HETATM    3  C3  UNL     1      16.936  75.781  59.168  1.00  0.00    -0.079 C 
ENDROOT
BRANCH   3   4
HETATM    4  C4  UNL     1      16.429  74.847  58.189  1.00  0.00     0.336 C 
BRANCH   4   5
HETATM    5  N1  UNL     1      17.343  73.718  57.999  1.00  0.00    -0.032 N 
HETATM    6  C10 UNL     1      18.676  74.132  57.737  1.00  0.00     0.272 C 
HETATM    7  C11 UNL     1      18.697  75.247  56.715  1.00  0.00     0.265 C 
HETATM    8  N4  UNL     1      18.237  74.732  55.467  1.00  0.00    -0.071 N 
HETATM    9  C12 UNL     1      19.351  73.981  54.863  1.00  0.00     0.272 C 
HETATM   10  C13 UNL     1      18.005  75.835  54.529  1.00  0.00     0.272 C 
HETATM   11  C14 UNL     1      17.047  73.946  55.543  1.00  0.00     0.265 C 
HETATM   12  C15 UNL     1      16.858  73.124  56.740  1.00  0.00     0.272 C 
BRANCH   5  13
HETATM   13  C5  UNL     1      17.190  72.688  58.989  1.00  0.00     0.227 C 
BRANCH  13  14
HETATM   14  C6  UNL     1      18.081  72.692  60.129  1.00  0.00     0.026 C 
HETATM   15  C7  UNL     1      19.507  72.238  60.108  1.00  0.00     0.069 C 
BRANCH  14  16
HETATM   16  N2  UNL     1      17.686  73.120  61.246  1.00  0.00    -0.366 N 
ATOM     17  H2  UNL     1      16.763  73.552  61.283  1.00  0.00     0.161 HD
BRANCH  16  18
HETATM   18  C8  UNL     1      18.429  73.048  62.465  1.00  0.00     0.277 C 
HETATM   19  C9  UNL     1      18.862  74.425  62.890  1.00  0.00     0.063 C 
BRANCH  18  20
HETATM   20  N3  UNL     1      17.580  72.545  63.553  1.00  0.00    -0.059 N 
ATOM     21  H33 UNL     1      17.632  73.138  64.382  1.00  0.00     0.276 HD
ATOM     22  H32 UNL     1      16.589  72.660  63.346  1.00  0.00     0.276 HD
ATOM     23  H31 UNL     1      17.813  71.575  63.766  1.00  0.00     0.276 HD
ENDBRANCH  18  20
ENDBRANCH  16  18
ENDBRANCH  14  16
ENDBRANCH  13  14
ENDBRANCH   5  13
ENDBRANCH   4   5
ENDBRANCH   3   4
TORSDOF 7
ENDMDL
MODEL 5
REMARK VINA RESULT: -5.732814215      1.550      3.791
REMARK  7 active torsions:
REMARK  status: ('A' for Active; 'I' for Inactive)
REMARK    1  A    between atoms: C3_3  and  C4_4 
REMARK    2  A    between atoms: C4_4  and  N1_5 
REMARK    3  A    between atoms: N1_5  and  C5_6 
REMARK    4  A    between atoms: C5_6  and  C6_7 
REMARK    5  A    between atoms: C6_7  and  N2_9 
REMARK    6  A    between atoms: N2_9  and  C8_11 
REMARK    7  A    between atoms: C8_11  and  N3_13 
ROOT
HETATM    1  C1  UNL     1      19.726  72.086  60.101  1.00  0.00     0.112 C 
HETATM    2  C2  UNL     1      18.770  72.867  59.314  1.00  0.00    -0.109 C 
HETATM    3  C3  UNL     1      17.985  73.536  58.654  1.00  0.00    -0.079 C 
ENDROOT
BRANCH   3   4
HETATM    4  C4  UNL     1      17.077  74.342  57.870  1.00  0.00     0.336 C 
BRANCH   4   5
HETATM    5  N1  UNL     1      16.824  75.638  58.503  1.00  0.00    -0.032 N 
HETATM    6  C10 UNL     1      15.974  76.469  57.726  1.00  0.00     0.272 C 
HETATM    7  C11 UNL     1      16.395  76.454  56.274  1.00  0.00     0.265 C 
HETATM    8  N4  UNL     1      17.679  77.064  56.163  1.00  0.00    -0.071 N 
HETATM    9  C12 UNL     1      17.481  78.523  56.226  1.00  0.00     0.272 C 
HETATM   10  C13 UNL     1      18.223  76.840  54.821  1.00  0.00     0.272 C 
HETATM   11  C14 UNL     1      18.641  76.619  57.121  1.00  0.00     0.265 C 
HETATM   12  C15 UNL     1      18.151  76.278  58.458  1.00  0.00     0.272 C 
BRANCH   5  13
HETATM   13  C5  UNL     1      16.498  75.537  59.898  1.00  0.00     0.227 C 
BRANCH  13  14
HETATM   14  C6  UNL     1      17.234  76.354  60.838  1.00  0.00     0.026 C 
HETATM   15  C7  UNL     1      17.777  77.719  60.551  1.00  0.00     0.069 C 
BRANCH  14  16
HETATM   16  N2  UNL     1      17.446  75.944  62.010  1.00  0.00    -0.366 N 
ATOM     17  H2  UNL     1      17.289  76.601  62.773  1.00  0.00     0.161 HD
BRANCH  16  18
HETATM   18  C8  UNL     1      17.890  74.629  62.355  1.00  0.00     0.277 C 
HETATM   19  C9  UNL     1      19.359  74.647  62.679  1.00  0.00     0.063 C 
BRANCH  18  20
HETATM   20  N3  UNL     1      17.218  74.166  63.576  1.00  0.00    -0.059 N 
ATOM     21  H33 UNL     1      16.225  74.399  63.575  1.00  0.00     0.276 HD
ATOM     22  H32 UNL     1      17.135  73.150  63.602  1.00  0.00     0.276 HD
ATOM     23  H31 UNL     1      17.693  74.528  64.403  1.00  0.00     0.276 HD
ENDBRANCH  18  20
ENDBRANCH  16  18
ENDBRANCH  14  16
ENDBRANCH  13  14
ENDBRANCH   5  13
ENDBRANCH   4   5
ENDBRANCH   3   4
TORSDOF 7
ENDMDL
