MODEL 1
REMARK VINA RESULT: -7.416264235      0.000      0.000
REMARK  6 active torsions:
REMARK  status: ('A' for Active; 'I' for Inactive)
REMARK    1  A    between atoms: C3_3  and  C4_4 
REMARK    2  A    between atoms: C5_5  and  C6_6 
REMARK    3  A    between atoms: C6_6  and  N1_7 
REMARK       I    between atoms: N1_7  and  C7_9 
REMARK    4  A    between atoms: C7_9  and  C8_11 
REMARK    5  A    between atoms: C8_11  and  N2_12 
REMARK    6  A    between atoms: C14_18  and  N3_19 
ROOT
HETATM    1  C1  UNL     1      14.696  81.180  53.165  1.00  0.00     0.113 C 
HETATM    2  C2  UNL     1      15.522  80.433  54.125  1.00  0.00    -0.097 C 
HETATM    3  C3  UNL     1      16.214  79.811  54.899  1.00  0.00    -0.015 C 
ENDROOT
BRANCH   3   4
HETATM    4  C4  UNL     1      17.035  79.067  55.791  1.00  0.00    -0.013 C 
HETATM    5  C5  UNL     1      17.728  78.443  56.567  1.00  0.00    -0.073 C 
BRANCH   5   6
HETATM    6  C6  UNL     1      18.553  77.700  57.523  1.00  0.00     0.218 C 
BRANCH   6   7
HETATM    7  N1  UNL     1      17.676  76.805  58.254  1.00  0.00    -0.349 N 
HETATM    8  C7  UNL     1      17.596  76.838  59.681  1.00  0.00     0.244 C 
HETATM    9  O1  UNL     1      18.322  77.680  60.277  1.00  0.00    -0.272 OA
ATOM     10  H1  UNL     1      17.103  76.137  57.738  1.00  0.00     0.163 HD
BRANCH   8  11
HETATM   11  C8  UNL     1      16.694  75.913  60.372  1.00  0.00     0.341 C 
BRANCH  11  12
HETATM   12  N2  UNL     1      17.279  74.648  60.748  1.00  0.00    -0.041 N 
HETATM   13  C9  UNL     1      16.306  73.626  60.975  1.00  0.00     0.275 C 
HETATM   14  C10 UNL     1      18.159  74.240  59.664  1.00  0.00     0.240 C 
HETATM   15  C11 UNL     1      18.775  72.886  59.924  1.00  0.00     0.028 C 
HETATM   16  C12 UNL     1      19.328  72.757  61.304  1.00  0.00     0.005 C 
HETATM   17  C13 UNL     1      19.342  74.078  61.991  1.00  0.00     0.056 C 
HETATM   18  C14 UNL     1      18.065  74.843  61.959  1.00  0.00     0.302 C 
BRANCH  18  19
HETATM   19  N3  UNL     1      17.232  74.617  63.092  1.00  0.00    -0.312 N 
HETATM   20  N4  UNL     1      17.645  74.215  64.192  1.00  0.00    -0.347 N 
ATOM     21  H42 UNL     1      18.647  74.040  64.271  1.00  0.00     0.176 HD
ATOM     22  H41 UNL     1      17.049  74.054  65.003  1.00  0.00     0.176 HD
ATOM     23  H3  UNL     1      16.233  74.798  62.994  1.00  0.00     0.182 HD
ENDBRANCH  18  19
ENDBRANCH  11  12
ENDBRANCH   8  11
ENDBRANCH   6   7
ENDBRANCH   5   6
ENDBRANCH   3   4
TORSDOF 6
ENDMDL
MODEL 2
REMARK VINA RESULT: -7.154455277      2.234      3.176
REMARK  6 active torsions:
REMARK  status: ('A' for Active; 'I' for Inactive)
REMARK    1  A    between atoms: C3_3  and  C4_4 
REMARK    2  A    between atoms: C5_5  and  C6_6 
REMARK    3  A    between atoms: C6_6  and  N1_7 
REMARK       I    between atoms: N1_7  and  C7_9 
REMARK    4  A    between atoms: C7_9  and  C8_11 
REMARK    5  A    between atoms: C8_11  and  N2_12 
REMARK    6  A    between atoms: C14_18  and  N3_19 
ROOT
HETATM    1  C1  UNL     1      20.096  73.595  53.133  1.00  0.00     0.113 C 
HETATM    2  C2  UNL     1      19.711  74.653  54.079  1.00  0.00    -0.097 C 
HETATM    3  C3  UNL     1      19.378  75.513  54.863  1.00  0.00    -0.015 C 
ENDROOT
BRANCH   3   4
HETATM    4  C4  UNL     1      18.965  76.512  55.787  1.00  0.00    -0.013 C 
HETATM    5  C5  UNL     1      18.601  77.351  56.584  1.00  0.00    -0.073 C 
BRANCH   5   6
HETATM    6  C6  UNL     1      18.152  78.346  57.562  1.00  0.00     0.218 C 
BRANCH   6   7
HETATM    7  N1  UNL     1      18.311  77.765  58.881  1.00  0.00    -0.349 N 
HETATM    8  C7  UNL     1      17.204  77.204  59.590  1.00  0.00     0.244 C 
HETATM    9  O1  UNL     1      16.081  77.235  59.017  1.00  0.00    -0.272 OA
ATOM     10  H1  UNL     1      19.235  77.757  59.314  1.00  0.00     0.163 HD
BRANCH   8  11
HETATM   11  C8  UNL     1      17.418  76.629  60.921  1.00  0.00     0.341 C 
BRANCH  11  12
HETATM   12  N2  UNL     1      17.578  75.195  60.953  1.00  0.00    -0.041 N 
HETATM   13  C9  UNL     1      16.333  74.493  60.969  1.00  0.00     0.275 C 
HETATM   14  C10 UNL     1      18.326  74.817  59.764  1.00  0.00     0.240 C 
HETATM   15  C11 UNL     1      18.492  73.319  59.662  1.00  0.00     0.028 C 
HETATM   16  C12 UNL     1      18.935  72.696  60.943  1.00  0.00     0.005 C 
HETATM   17  C13 UNL     1      19.328  73.742  61.928  1.00  0.00     0.056 C 
HETATM   18  C14 UNL     1      18.347  74.840  62.139  1.00  0.00     0.302 C 
BRANCH  18  19
HETATM   19  N3  UNL     1      17.449  74.609  63.220  1.00  0.00    -0.312 N 
HETATM   20  N4  UNL     1      17.691  73.857  64.177  1.00  0.00    -0.347 N 
ATOM     21  H42 UNL     1      18.594  73.382  64.175  1.00  0.00     0.176 HD
ATOM     22  H41 UNL     1      17.048  73.691  64.951  1.00  0.00     0.176 HD
ATOM     23  H3  UNL     1      16.550  75.091  63.206  1.00  0.00     0.182 HD
ENDBRANCH  18  19
ENDBRANCH  11  12
ENDBRANCH   8  11
ENDBRANCH   6   7
ENDBRANCH   5   6
ENDBRANCH   3   4
TORSDOF 6
ENDMDL
MODEL 3
REMARK VINA RESULT: -7.039406435      2.201      3.583
REMARK  6 active torsions:
REMARK  status: ('A' for Active; 'I' for Inactive)
REMARK    1  A    between atoms: C3_3  and  C4_4 
REMARK    2  A    between atoms: C5_5  and  C6_6 
REMARK    3  A    between atoms: C6_6  and  N1_7 
REMARK       I    between atoms: N1_7  and  C7_9 
REMARK    4  A    between atoms: C7_9  and  C8_11 
REMARK    5  A    between atoms: C8_11  and  N2_12 
REMARK    6  A    between atoms: C14_18  and  N3_19 
ROOT
HETATM    1  C1  UNL     1      22.530  73.942  53.952  1.00  0.00     0.113 C 
HETATM    2  C2  UNL     1      21.528  74.722  54.693  1.00  0.00    -0.097 C 
HETATM    3  C3  UNL     1      20.710  75.381  55.293  1.00  0.00    -0.015 C 
ENDROOT
BRANCH   3   4
HETATM    4  C4  UNL     1      19.760  76.176  55.992  1.00  0.00    -0.013 C 
HETATM    5  C5  UNL     1      18.959  76.872  56.581  1.00  0.00    -0.073 C 
BRANCH   5   6
HETATM    6  C6  UNL     1      18.000  77.731  57.280  1.00  0.00     0.218 C 
BRANCH   6   7
HETATM    7  N1  UNL     1      17.237  76.891  58.183  1.00  0.00    -0.349 N 
HETATM    8  C7  UNL     1      17.506  76.863  59.586  1.00  0.00     0.244 C 
HETATM    9  O1  UNL     1      18.438  77.603  60.006  1.00  0.00    -0.272 OA
ATOM     10  H1  UNL     1      16.490  76.306  57.807  1.00  0.00     0.163 HD
BRANCH   8  11
HETATM   11  C8  UNL     1      16.706  75.997  60.456  1.00  0.00     0.341 C 
BRANCH  11  12
HETATM   12  N2  UNL     1      17.307  74.725  60.779  1.00  0.00    -0.041 N 
HETATM   13  C9  UNL     1      16.348  73.677  60.935  1.00  0.00     0.275 C 
HETATM   14  C10 UNL     1      18.215  74.388  59.694  1.00  0.00     0.240 C 
HETATM   15  C11 UNL     1      18.851  73.034  59.898  1.00  0.00     0.028 C 
HETATM   16  C12 UNL     1      19.379  72.844  61.280  1.00  0.00     0.005 C 
HETATM   17  C13 UNL     1      19.356  74.129  62.034  1.00  0.00     0.056 C 
HETATM   18  C14 UNL     1      18.066  74.872  62.015  1.00  0.00     0.302 C 
BRANCH  18  19
HETATM   19  N3  UNL     1      17.215  74.574  63.118  1.00  0.00    -0.312 N 
HETATM   20  N4  UNL     1      17.622  74.202  64.230  1.00  0.00    -0.347 N 
ATOM     21  H42 UNL     1      18.631  74.108  64.344  1.00  0.00     0.176 HD
ATOM     22  H41 UNL     1      17.013  73.989  65.020  1.00  0.00     0.176 HD
ATOM     23  H3  UNL     1      16.209  74.674  62.985  1.00  0.00     0.182 HD
ENDBRANCH  18  19
ENDBRANCH  11  12
ENDBRANCH   8  11
ENDBRANCH   6   7
ENDBRANCH   5   6
ENDBRANCH   3   4
TORSDOF 6
ENDMDL
MODEL 4
REMARK VINA RESULT: -6.888806249      2.059      2.190
REMARK  6 active torsions:
REMARK  status: ('A' for Active; 'I' for Inactive)
REMARK    1  A    between atoms: C3_3  and  C4_4 
REMARK    2  A    between atoms: C5_5  and  C6_6 
REMARK    3  A    between atoms: C6_6  and  N1_7 
REMARK       I    between atoms: N1_7  and  C7_9 
REMARK    4  A    between atoms: C7_9  and  C8_11 
REMARK    5  A    between atoms: C8_11  and  N2_12 
REMARK    6  A    between atoms: C14_18  and  N3_19 
ROOT
HETATM    1  C1  UNL     1      13.815  82.091  55.489  1.00  0.00     0.113 C 
HETATM    2  C2  UNL     1      13.880  80.693  55.939  1.00  0.00    -0.097 C 
HETATM    3  C3  UNL     1      13.954  79.542  56.308  1.00  0.00    -0.015 C 
ENDROOT
BRANCH   3   4
HETATM    4  C4  UNL     1      14.064  78.190  56.734  1.00  0.00    -0.013 C 
HETATM    5  C5  UNL     1      14.142  77.031  57.086  1.00  0.00    -0.073 C 
BRANCH   5   6
HETATM    6  C6  UNL     1      14.221  75.626  57.492  1.00  0.00     0.218 C 
BRANCH   6   7
HETATM    7  N1  UNL     1      14.836  75.584  58.805  1.00  0.00    -0.349 N 
HETATM    8  C7  UNL     1      16.196  75.974  59.007  1.00  0.00     0.244 C 
HETATM    9  O1  UNL     1      16.839  76.358  57.992  1.00  0.00    -0.272 OA
ATOM     10  H1  UNL     1      14.284  75.268  59.603  1.00  0.00     0.163 HD
BRANCH   8  11
HETATM   11  C8  UNL     1      16.769  75.913  60.354  1.00  0.00     0.341 C 
BRANCH  11  12
HETATM   12  N2  UNL     1      17.312  74.631  60.734  1.00  0.00    -0.041 N 
HETATM   13  C9  UNL     1      16.307  73.640  60.953  1.00  0.00     0.275 C 
HETATM   14  C10 UNL     1      18.188  74.196  59.656  1.00  0.00     0.240 C 
HETATM   15  C11 UNL     1      18.760  72.824  59.922  1.00  0.00     0.028 C 
HETATM   16  C12 UNL     1      19.298  72.678  61.306  1.00  0.00     0.005 C 
HETATM   17  C13 UNL     1      19.347  73.998  61.993  1.00  0.00     0.056 C 
HETATM   18  C14 UNL     1      18.095  74.802  61.951  1.00  0.00     0.302 C 
BRANCH  18  19
HETATM   19  N3  UNL     1      17.246  74.602  63.078  1.00  0.00    -0.312 N 
HETATM   20  N4  UNL     1      17.645  74.227  64.192  1.00  0.00    -0.347 N 
ATOM     21  H42 UNL     1      18.646  74.055  64.290  1.00  0.00     0.176 HD
ATOM     22  H41 UNL     1      17.037  74.084  64.998  1.00  0.00     0.176 HD
ATOM     23  H3  UNL     1      16.249  74.778  62.962  1.00  0.00     0.182 HD
ENDBRANCH  18  19
ENDBRANCH  11  12
ENDBRANCH   8  11
ENDBRANCH   6   7
ENDBRANCH   5   6
ENDBRANCH   3   4
TORSDOF 6
ENDMDL
MODEL 5
REMARK VINA RESULT: -6.865103991      2.555      2.587
REMARK  6 active torsions:
REMARK  status: ('A' for Active; 'I' for Inactive)
REMARK    1  A    between atoms: C3_3  and  C4_4 
REMARK    2  A    between atoms: C5_5  and  C6_6 
REMARK    3  A    between atoms: C6_6  and  N1_7 
REMARK       I    between atoms: N1_7  and  C7_9 
REMARK    4  A    between atoms: C7_9  and  C8_11 
REMARK    5  A    between atoms: C8_11  and  N2_12 
REMARK    6  A    between atoms: C14_18  and  N3_19 
ROOT
HETATM    1  C1  UNL     1       9.877  77.521  55.406  1.00  0.00     0.113 C 
HETATM    2  C2  UNL     1      11.267  77.658  55.866  1.00  0.00    -0.097 C 
HETATM    3  C3  UNL     1      12.415  77.751  56.239  1.00  0.00    -0.015 C 
ENDROOT
BRANCH   3   4
HETATM    4  C4  UNL     1      13.765  77.837  56.678  1.00  0.00    -0.013 C 
HETATM    5  C5  UNL     1      14.910  77.919  57.070  1.00  0.00    -0.073 C 
BRANCH   5   6
HETATM    6  C6  UNL     1      16.285  78.025  57.565  1.00  0.00     0.218 C 
BRANCH   6   7
HETATM    7  N1  UNL     1      16.322  77.424  58.884  1.00  0.00    -0.349 N 
HETATM    8  C7  UNL     1      17.526  77.386  59.655  1.00  0.00     0.244 C 
HETATM    9  O1  UNL     1      18.555  77.900  59.137  1.00  0.00    -0.272 OA
ATOM     10  H1  UNL     1      15.470  77.019  59.271  1.00  0.00     0.163 HD
BRANCH   8  11
HETATM   11  C8  UNL     1      17.510  76.768  60.983  1.00  0.00     0.341 C 
BRANCH  11  12
HETATM   12  N2  UNL     1      17.616  75.329  60.993  1.00  0.00    -0.041 N 
HETATM   13  C9  UNL     1      16.346  74.673  60.964  1.00  0.00     0.275 C 
HETATM   14  C10 UNL     1      18.382  74.944  59.818  1.00  0.00     0.240 C 
HETATM   15  C11 UNL     1      18.495  73.443  59.692  1.00  0.00     0.028 C 
HETATM   16  C12 UNL     1      18.880  72.781  60.973  1.00  0.00     0.005 C 
HETATM   17  C13 UNL     1      19.285  73.794  61.987  1.00  0.00     0.056 C 
HETATM   18  C14 UNL     1      18.339  74.925  62.193  1.00  0.00     0.302 C 
BRANCH  18  19
HETATM   19  N3  UNL     1      17.404  74.708  63.245  1.00  0.00    -0.312 N 
HETATM   20  N4  UNL     1      17.621  73.987  64.232  1.00  0.00    -0.347 N 
ATOM     21  H42 UNL     1      18.531  73.529  64.277  1.00  0.00     0.176 HD
ATOM     22  H41 UNL     1      16.952  73.832  64.985  1.00  0.00     0.176 HD
ATOM     23  H3  UNL     1      16.499  75.174  63.183  1.00  0.00     0.182 HD
ENDBRANCH  18  19
ENDBRANCH  11  12
ENDBRANCH   8  11
ENDBRANCH   6   7
ENDBRANCH   5   6
ENDBRANCH   3   4
TORSDOF 6
ENDMDL
