MODEL 1
REMARK VINA RESULT: -7.411714217      0.000      0.000
REMARK  7 active torsions:
REMARK  status: ('A' for Active; 'I' for Inactive)
REMARK    1  A    between atoms: C2_2  and  C3_3 
REMARK    2  A    between atoms: C4_6  and  C5_7 
REMARK    3  A    between atoms: C5_7  and  C6_8 
REMARK    4  A    between atoms: C6_8  and  N2_9 
REMARK    5  A    between atoms: C10_13  and  C11_14 
REMARK    6  A    between atoms: C14_18  and  N3_19 
REMARK    7  A    between atoms: N3_19  and  N4_20 
ROOT
HETATM    1  C3  UNL     1      14.931  70.949  55.111  1.00  0.00     0.151 A 
HETATM    2  N1  UNL     1      15.864  71.762  55.611  1.00  0.00    -0.332 N 
ATOM      3  H1  UNL     1      15.908  72.769  55.459  1.00  0.00     0.168 HD
HETATM    4  C4  UNL     1      16.746  71.047  56.353  1.00  0.00     0.093 A 
HETATM    5  C14 UNL     1      16.321  69.739  56.296  1.00  0.00     0.231 A 
HETATM    6  N5  UNL     1      15.203  69.734  55.522  1.00  0.00    -0.307 N 
ATOM      7  H5  UNL     1      14.654  68.904  55.294  1.00  0.00     0.170 HD
ENDROOT
BRANCH   4   8
HETATM    8  C5  UNL     1      17.779  71.569  56.974  1.00  0.00     0.028 C 
BRANCH   8   9
HETATM    9  C6  UNL     1      17.702  72.962  57.456  1.00  0.00     0.157 C 
BRANCH   9  10
HETATM   10  N2  UNL     1      18.275  73.132  58.766  1.00  0.00    -0.362 N 
HETATM   11  C7  UNL     1      19.222  72.328  59.210  1.00  0.00     0.090 A 
HETATM   12  C8  UNL     1      19.798  72.457  60.463  1.00  0.00     0.018 A 
HETATM   13  C9  UNL     1      19.350  73.479  61.273  1.00  0.00     0.018 A 
HETATM   14  C10 UNL     1      18.363  74.316  60.810  1.00  0.00     0.025 A 
HETATM   15  C13 UNL     1      17.829  74.130  59.543  1.00  0.00     0.106 A 
BRANCH  14  16
HETATM   16  C11 UNL     1      17.848  75.413  61.616  1.00  0.00     0.157 C 
HETATM   17  C12 UNL     1      17.783  76.792  61.060  1.00  0.00     0.097 C 
HETATM   18  O1  UNL     1      17.446  75.236  62.790  1.00  0.00    -0.293 OA
ENDBRANCH  14  16
ENDBRANCH   9  10
ENDBRANCH   8   9
ENDBRANCH   4   8
BRANCH   5  19
HETATM   19  N3  UNL     1      16.875  68.785  56.852  1.00  0.00    -0.312 NA
BRANCH  19  20
HETATM   20  N4  UNL     1      17.194  67.735  57.410  1.00  0.00    -0.278 N 
ATOM     21  H42 UNL     1      16.313  67.307  57.124  1.00  0.00     0.191 HD
ATOM     22  H41 UNL     1      17.633  66.968  57.920  1.00  0.00     0.191 HD
ENDBRANCH  19  20
ENDBRANCH   5  19
BRANCH   1  23
HETATM   23  C2  UNL     1      13.901  71.174  54.356  1.00  0.00    -0.113 C 
HETATM   24  C1  UNL     1      12.691  71.231  53.883  1.00  0.00     0.106 C 
ENDBRANCH   1  23
TORSDOF 7
ENDMDL
MODEL 2
REMARK VINA RESULT: -7.397027031      1.433      2.518
REMARK  7 active torsions:
REMARK  status: ('A' for Active; 'I' for Inactive)
REMARK    1  A    between atoms: C2_2  and  C3_3 
REMARK    2  A    between atoms: C4_6  and  C5_7 
REMARK    3  A    between atoms: C5_7  and  C6_8 
REMARK    4  A    between atoms: C6_8  and  N2_9 
REMARK    5  A    between atoms: C10_13  and  C11_14 
REMARK    6  A    between atoms: C14_18  and  N3_19 
REMARK    7  A    between atoms: N3_19  and  N4_20 
ROOT
HETATM    1  C3  UNL     1      16.910  69.643  55.836  1.00  0.00     0.151 A 
HETATM    2  N1  UNL     1      17.457  70.773  56.288  1.00  0.00    -0.332 N 
ATOM      3  H1  UNL     1      18.458  70.953  56.359  1.00  0.00     0.168 HD
HETATM    4  C4  UNL     1      16.483  71.648  56.639  1.00  0.00     0.093 A 
HETATM    5  C14 UNL     1      15.289  71.012  56.383  1.00  0.00     0.231 A 
HETATM    6  N5  UNL     1      15.607  69.784  55.891  1.00  0.00    -0.307 N 
ATOM      7  H5  UNL     1      14.931  69.076  55.606  1.00  0.00     0.170 HD
ENDROOT
BRANCH   4   8
HETATM    8  C5  UNL     1      16.709  72.849  57.119  1.00  0.00     0.028 C 
BRANCH   8   9
HETATM    9  C6  UNL     1      18.102  73.306  57.291  1.00  0.00     0.157 C 
BRANCH   9  10
HETATM   10  N2  UNL     1      18.510  73.343  58.672  1.00  0.00    -0.362 N 
HETATM   11  C7  UNL     1      19.324  72.433  59.172  1.00  0.00     0.090 A 
HETATM   12  C8  UNL     1      19.739  72.432  60.494  1.00  0.00     0.018 A 
HETATM   13  C9  UNL     1      19.272  73.439  61.313  1.00  0.00     0.018 A 
HETATM   14  C10 UNL     1      18.425  74.387  60.791  1.00  0.00     0.025 A 
HETATM   15  C13 UNL     1      18.048  74.327  59.458  1.00  0.00     0.106 A 
BRANCH  14  16
HETATM   16  C11 UNL     1      17.898  75.474  61.604  1.00  0.00     0.157 C 
HETATM   17  C12 UNL     1      17.849  76.861  61.067  1.00  0.00     0.097 C 
HETATM   18  O1  UNL     1      17.472  75.281  62.766  1.00  0.00    -0.293 OA
ENDBRANCH  14  16
ENDBRANCH   9  10
ENDBRANCH   8   9
ENDBRANCH   4   8
BRANCH   5  19
HETATM   19  N3  UNL     1      14.168  71.494  56.577  1.00  0.00    -0.312 NA
BRANCH  19  20
HETATM   20  N4  UNL     1      12.990  71.739  56.836  1.00  0.00    -0.278 N 
ATOM     21  H42 UNL     1      12.717  70.815  56.501  1.00  0.00     0.191 HD
ATOM     22  H41 UNL     1      12.088  72.126  57.115  1.00  0.00     0.191 HD
ENDBRANCH  19  20
ENDBRANCH   5  19
BRANCH   1  23
HETATM   23  C2  UNL     1      17.434  68.542  55.395  1.00  0.00    -0.113 C 
HETATM   24  C1  UNL     1      17.856  67.583  54.624  1.00  0.00     0.106 C 
ENDBRANCH   1  23
TORSDOF 7
ENDMDL
MODEL 3
REMARK VINA RESULT: -7.289721282      3.790      6.264
REMARK  7 active torsions:
REMARK  status: ('A' for Active; 'I' for Inactive)
REMARK    1  A    between atoms: C2_2  and  C3_3 
REMARK    2  A    between atoms: C4_6  and  C5_7 
REMARK    3  A    between atoms: C5_7  and  C6_8 
REMARK    4  A    between atoms: C6_8  and  N2_9 
REMARK    5  A    between atoms: C10_13  and  C11_14 
REMARK    6  A    between atoms: C14_18  and  N3_19 
REMARK    7  A    between atoms: N3_19  and  N4_20 
ROOT
HETATM    1  C3  UNL     1      17.137  73.215  59.691  1.00  0.00     0.151 A 
HETATM    2  N1  UNL     1      17.694  74.426  59.636  1.00  0.00    -0.332 N 
ATOM      3  H1  UNL     1      17.987  74.899  58.782  1.00  0.00     0.168 HD
HETATM    4  C4  UNL     1      17.813  74.935  60.887  1.00  0.00     0.093 A 
HETATM    5  C14 UNL     1      17.299  73.982  61.737  1.00  0.00     0.231 A 
HETATM    6  N5  UNL     1      16.898  72.946  60.953  1.00  0.00    -0.307 N 
ATOM      7  H5  UNL     1      16.472  72.084  61.295  1.00  0.00     0.170 HD
ENDROOT
BRANCH   4   8
HETATM    8  C5  UNL     1      18.326  76.113  61.158  1.00  0.00     0.028 C 
BRANCH   8   9
HETATM    9  C6  UNL     1      17.515  77.324  60.920  1.00  0.00     0.157 C 
BRANCH   9  10
HETATM   10  N2  UNL     1      17.403  77.655  59.523  1.00  0.00    -0.362 N 
HETATM   11  C7  UNL     1      18.473  77.860  58.779  1.00  0.00     0.090 A 
HETATM   12  C8  UNL     1      18.408  78.181  57.432  1.00  0.00     0.018 A 
HETATM   13  C9  UNL     1      17.159  78.286  56.857  1.00  0.00     0.018 A 
HETATM   14  C10 UNL     1      16.044  78.071  57.634  1.00  0.00     0.025 A 
HETATM   15  C13 UNL     1      16.182  77.754  58.977  1.00  0.00     0.106 A 
BRANCH  14  16
HETATM   16  C11 UNL     1      14.699  78.167  57.087  1.00  0.00     0.157 C 
HETATM   17  C12 UNL     1      14.117  79.494  56.746  1.00  0.00     0.097 C 
HETATM   18  O1  UNL     1      13.995  77.151  56.887  1.00  0.00    -0.293 OA
ENDBRANCH  14  16
ENDBRANCH   9  10
ENDBRANCH   8   9
ENDBRANCH   4   8
BRANCH   5  19
HETATM   19  N3  UNL     1      17.235  74.084  62.967  1.00  0.00    -0.312 NA
BRANCH  19  20
HETATM   20  N4  UNL     1      17.420  74.223  64.176  1.00  0.00    -0.278 N 
ATOM     21  H42 UNL     1      18.429  74.178  64.035  1.00  0.00     0.191 HD
ATOM     22  H41 UNL     1      17.364  74.346  65.188  1.00  0.00     0.191 HD
ENDBRANCH  19  20
ENDBRANCH   5  19
BRANCH   1  23
HETATM   23  C2  UNL     1      16.831  72.359  58.767  1.00  0.00    -0.113 C 
HETATM   24  C1  UNL     1      16.425  71.812  57.658  1.00  0.00     0.106 C 
ENDBRANCH   1  23
TORSDOF 7
ENDMDL
MODEL 4
REMARK VINA RESULT: -7.183879785      3.451      5.200
REMARK  7 active torsions:
REMARK  status: ('A' for Active; 'I' for Inactive)
REMARK    1  A    between atoms: C2_2  and  C3_3 
REMARK    2  A    between atoms: C4_6  and  C5_7 
REMARK    3  A    between atoms: C5_7  and  C6_8 
REMARK    4  A    between atoms: C6_8  and  N2_9 
REMARK    5  A    between atoms: C10_13  and  C11_14 
REMARK    6  A    between atoms: C14_18  and  N3_19 
REMARK    7  A    between atoms: N3_19  and  N4_20 
ROOT
HETATM    1  C3  UNL     1      17.859  77.302  56.024  1.00  0.00     0.151 A 
HETATM    2  N1  UNL     1      17.667  76.009  56.293  1.00  0.00    -0.332 N 
ATOM      3  H1  UNL     1      16.771  75.588  56.538  1.00  0.00     0.168 HD
HETATM    4  C4  UNL     1      18.841  75.339  56.191  1.00  0.00     0.093 A 
HETATM    5  C14 UNL     1      19.787  76.276  55.842  1.00  0.00     0.231 A 
HETATM    6  N5  UNL     1      19.132  77.465  55.752  1.00  0.00    -0.307 N 
ATOM      7  H5  UNL     1      19.567  78.355  55.508  1.00  0.00     0.170 HD
ENDROOT
BRANCH   4   8
HETATM    8  C5  UNL     1      18.973  74.049  56.399  1.00  0.00     0.028 C 
BRANCH   8   9
HETATM    9  C6  UNL     1      18.025  73.363  57.299  1.00  0.00     0.157 C 
BRANCH   9  10
HETATM   10  N2  UNL     1      18.460  73.363  58.672  1.00  0.00    -0.362 N 
HETATM   11  C7  UNL     1      19.295  72.449  59.127  1.00  0.00     0.090 A 
HETATM   12  C8  UNL     1      19.737  72.414  60.440  1.00  0.00     0.018 A 
HETATM   13  C9  UNL     1      19.274  73.389  61.298  1.00  0.00     0.018 A 
HETATM   14  C10 UNL     1      18.404  74.342  60.823  1.00  0.00     0.025 A 
HETATM   15  C13 UNL     1      18.001  74.317  59.496  1.00  0.00     0.106 A 
BRANCH  14  16
HETATM   16  C11 UNL     1      17.880  75.396  61.678  1.00  0.00     0.157 C 
HETATM   17  C12 UNL     1      17.799  76.798  61.184  1.00  0.00     0.097 C 
HETATM   18  O1  UNL     1      17.485  75.163  62.844  1.00  0.00    -0.293 OA
ENDBRANCH  14  16
ENDBRANCH   9  10
ENDBRANCH   8   9
ENDBRANCH   4   8
BRANCH   5  19
HETATM   19  N3  UNL     1      20.986  76.044  55.658  1.00  0.00    -0.312 NA
BRANCH  19  20
HETATM   20  N4  UNL     1      22.216  76.021  55.612  1.00  0.00    -0.278 N 
ATOM     21  H42 UNL     1      22.250  75.614  56.547  1.00  0.00     0.191 HD
ATOM     22  H41 UNL     1      23.209  76.086  55.385  1.00  0.00     0.191 HD
ENDBRANCH  19  20
ENDBRANCH   5  19
BRANCH   1  23
HETATM   23  C2  UNL     1      17.046  78.312  55.996  1.00  0.00    -0.113 C 
HETATM   24  C1  UNL     1      16.007  79.071  55.807  1.00  0.00     0.106 C 
ENDBRANCH   1  23
TORSDOF 7
ENDMDL
MODEL 5
REMARK VINA RESULT: -7.041385858      3.587      7.186
REMARK  7 active torsions:
REMARK  status: ('A' for Active; 'I' for Inactive)
REMARK    1  A    between atoms: C2_2  and  C3_3 
REMARK    2  A    between atoms: C4_6  and  C5_7 
REMARK    3  A    between atoms: C5_7  and  C6_8 
REMARK    4  A    between atoms: C6_8  and  N2_9 
REMARK    5  A    between atoms: C10_13  and  C11_14 
REMARK    6  A    between atoms: C14_18  and  N3_19 
REMARK    7  A    between atoms: N3_19  and  N4_20 
ROOT
HETATM    1  C3  UNL     1      18.588  72.706  59.792  1.00  0.00     0.151 A 
HETATM    2  N1  UNL     1      17.392  72.610  59.208  1.00  0.00    -0.332 N 
ATOM      3  H1  UNL     1      16.501  72.817  59.658  1.00  0.00     0.168 HD
HETATM    4  C4  UNL     1      17.539  72.197  57.925  1.00  0.00     0.093 A 
HETATM    5  C14 UNL     1      18.892  72.037  57.728  1.00  0.00     0.231 A 
HETATM    6  N5  UNL     1      19.491  72.363  58.905  1.00  0.00    -0.307 N 
ATOM      7  H5  UNL     1      20.497  72.344  59.074  1.00  0.00     0.170 HD
ENDROOT
BRANCH   4   8
HETATM    8  C5  UNL     1      16.541  72.009  57.093  1.00  0.00     0.028 C 
BRANCH   8   9
HETATM    9  C6  UNL     1      15.864  70.697  57.064  1.00  0.00     0.157 C 
BRANCH   9  10
HETATM   10  N2  UNL     1      16.521  69.750  56.200  1.00  0.00    -0.362 N 
HETATM   11  C7  UNL     1      17.078  68.655  56.680  1.00  0.00     0.090 A 
HETATM   12  C8  UNL     1      17.719  67.720  55.883  1.00  0.00     0.018 A 
HETATM   13  C9  UNL     1      17.769  67.960  54.526  1.00  0.00     0.018 A 
HETATM   14  C10 UNL     1      17.188  69.102  54.026  1.00  0.00     0.025 A 
HETATM   15  C13 UNL     1      16.562  69.997  54.882  1.00  0.00     0.106 A 
BRANCH  14  16
HETATM   16  C11 UNL     1      17.206  69.412  52.605  1.00  0.00     0.157 C 
HETATM   17  C12 UNL     1      18.217  70.355  52.052  1.00  0.00     0.097 C 
HETATM   18  O1  UNL     1      16.383  68.904  51.808  1.00  0.00    -0.293 OA
ENDBRANCH  14  16
ENDBRANCH   9  10
ENDBRANCH   8   9
ENDBRANCH   4   8
BRANCH   5  19
HETATM   19  N3  UNL     1      19.420  71.667  56.675  1.00  0.00    -0.312 NA
BRANCH  19  20
HETATM   20  N4  UNL     1      19.915  71.067  55.720  1.00  0.00    -0.278 N 
ATOM     21  H42 UNL     1      19.842  70.185  56.228  1.00  0.00     0.191 HD
ATOM     22  H41 UNL     1      20.332  70.759  54.841  1.00  0.00     0.191 HD
ENDBRANCH  19  20
ENDBRANCH   5  19
BRANCH   1  23
HETATM   23  C2  UNL     1      18.942  73.056  60.990  1.00  0.00    -0.113 C 
HETATM   24  C1  UNL     1      19.090  73.706  62.106  1.00  0.00     0.106 C 
ENDBRANCH   1  23
TORSDOF 7
ENDMDL
