MODEL 1
REMARK VINA RESULT: -8.930859082      0.000      0.000
REMARK  10 active torsions:
REMARK  status: ('A' for Active; 'I' for Inactive)
REMARK    1  A    between atoms: C2_2  and  C3_3 
REMARK    2  A    between atoms: C3_3  and  N1_6 
REMARK    3  A    between atoms: N1_6  and  N2_8 
REMARK       I    between atoms: N2_8  and  C6_10 
REMARK    4  A    between atoms: C6_10  and  C7_12 
REMARK    5  A    between atoms: C7_12  and  C8_13 
REMARK    6  A    between atoms: C8_13  and  N3_14 
REMARK       I    between atoms: N3_14  and  C9_16 
REMARK       I    between atoms: C9_16  and  N4_18 
REMARK    7  A    between atoms: N4_18  and  C10_20 
REMARK    8  A    between atoms: C15_31  and  C16_32 
REMARK    9  A    between atoms: C16_32  and  C17_33 
REMARK   10  A    between atoms: C17_33  and  C18_34 
ROOT
HETATM    1  C10 UNL     1      19.185  72.088  56.385  1.00  0.00     0.111 A 
HETATM    2  C11 UNL     1      18.643  71.087  55.758  1.00  0.00     0.061 A 
HETATM    3  N5  UNL     1      18.163  69.970  56.558  1.00  0.00    -0.309 N 
ATOM      4  H5  UNL     1      18.653  69.694  57.409  1.00  0.00     0.170 HD
HETATM    5  C12 UNL     1      17.007  69.272  56.138  1.00  0.00     0.327 C 
HETATM    6  O3  UNL     1      16.586  68.305  56.848  1.00  0.00    -0.247 OA
HETATM    7  N6  UNL     1      16.357  69.677  54.942  1.00  0.00    -0.278 N 
ATOM      8  H6  UNL     1      15.519  69.189  54.625  1.00  0.00     0.173 HD
HETATM    9  C13 UNL     1      16.886  70.780  54.174  1.00  0.00     0.239 C 
HETATM   10  O4  UNL     1      16.204  71.512  53.486  1.00  0.00    -0.272 OA
HETATM   11  C14 UNL     1      18.379  70.950  54.303  1.00  0.00     0.159 A 
HETATM   12  C15 UNL     1      18.903  72.059  53.510  1.00  0.00    -0.057 A 
HETATM   13  C19 UNL     1      19.478  73.080  54.069  1.00  0.00     0.061 A 
HETATM   14  C20 UNL     1      19.662  73.202  55.478  1.00  0.00     0.200 A 
HETATM   15  O6  UNL     1      20.205  74.208  55.970  1.00  0.00    -0.286 OA
ENDROOT
BRANCH   1  16
HETATM   16  N4  UNL     1      19.378  72.292  57.744  1.00  0.00    -0.304 N 
HETATM   17  C9  UNL     1      18.712  72.647  58.905  1.00  0.00     0.320 C 
HETATM   18  N3  UNL     1      19.504  72.623  60.145  1.00  0.00    -0.342 N 
HETATM   19  O2  UNL     1      17.548  72.993  59.134  1.00  0.00    -0.247 OA
ATOM     20  H3  UNL     1      20.490  72.369  60.094  1.00  0.00     0.164 HD
ATOM     21  H4  UNL     1      20.358  72.120  57.968  1.00  0.00     0.171 HD
BRANCH  18  22
HETATM   22  C8  UNL     1      18.947  72.940  61.401  1.00  0.00     0.134 C 
BRANCH  22  23
HETATM   23  C7  UNL     1      19.207  74.320  61.926  1.00  0.00     0.124 C 
BRANCH  23  24
HETATM   24  C6  UNL     1      18.056  75.228  61.710  1.00  0.00     0.237 C 
HETATM   25  N2  UNL     1      17.873  75.830  60.455  1.00  0.00    -0.270 N 
ATOM     26  H2  UNL     1      18.552  75.625  59.722  1.00  0.00     0.190 HD
HETATM   27  O1  UNL     1      17.255  75.450  62.642  1.00  0.00    -0.272 OA
BRANCH  25  28
HETATM   28  N1  UNL     1      16.820  76.691  60.151  1.00  0.00    -0.299 N 
ATOM     29  H1  UNL     1      16.061  76.815  60.822  1.00  0.00     0.187 HD
BRANCH  28  30
HETATM   30  C3  UNL     1      16.793  77.397  58.922  1.00  0.00     0.043 C 
HETATM   31  C4  UNL     1      15.755  77.244  58.134  1.00  0.00    -0.000 C 
HETATM   32  C5  UNL     1      14.641  76.372  58.519  1.00  0.00     0.038 C 
BRANCH  30  33
HETATM   33  C2  UNL     1      17.870  78.262  58.518  1.00  0.00     0.020 C 
HETATM   34  C1  UNL     1      18.088  78.628  57.283  1.00  0.00     0.013 C 
ENDBRANCH  30  33
ENDBRANCH  28  30
ENDBRANCH  25  28
ENDBRANCH  23  24
ENDBRANCH  22  23
ENDBRANCH  18  22
ENDBRANCH   1  16
BRANCH  12  35
HETATM   35  C16 UNL     1      18.823  71.909  52.032  1.00  0.00     0.044 C 
BRANCH  35  36
HETATM   36  C17 UNL     1      19.446  72.979  51.223  1.00  0.00     0.104 C 
BRANCH  36  37
HETATM   37  C18 UNL     1      18.444  73.829  50.550  1.00  0.00     0.231 C 
HETATM   38  N7  UNL     1      18.463  74.152  49.187  1.00  0.00    -0.062 NA
HETATM   39  O5  UNL     1      17.502  74.297  51.264  1.00  0.00    -0.277 OA
ENDBRANCH  36  37
ENDBRANCH  35  36
ENDBRANCH  12  35
TORSDOF 10
ENDMDL
MODEL 2
REMARK VINA RESULT: -8.896834488      1.515      1.581
REMARK  10 active torsions:
REMARK  status: ('A' for Active; 'I' for Inactive)
REMARK    1  A    between atoms: C2_2  and  C3_3 
REMARK    2  A    between atoms: C3_3  and  N1_6 
REMARK    3  A    between atoms: N1_6  and  N2_8 
REMARK       I    between atoms: N2_8  and  C6_10 
REMARK    4  A    between atoms: C6_10  and  C7_12 
REMARK    5  A    between atoms: C7_12  and  C8_13 
REMARK    6  A    between atoms: C8_13  and  N3_14 
REMARK       I    between atoms: N3_14  and  C9_16 
REMARK       I    between atoms: C9_16  and  N4_18 
REMARK    7  A    between atoms: N4_18  and  C10_20 
REMARK    8  A    between atoms: C15_31  and  C16_32 
REMARK    9  A    between atoms: C16_32  and  C17_33 
REMARK   10  A    between atoms: C17_33  and  C18_34 
ROOT
HETATM    1  C10 UNL     1      17.839  72.507  56.966  1.00  0.00     0.111 A 
HETATM    2  C11 UNL     1      17.691  71.448  56.228  1.00  0.00     0.061 A 
HETATM    3  N5  UNL     1      17.521  70.171  56.905  1.00  0.00    -0.309 N 
ATOM      4  H5  UNL     1      18.002  69.984  57.786  1.00  0.00     0.170 HD
HETATM    5  C12 UNL     1      16.680  69.193  56.325  1.00  0.00     0.327 C 
HETATM    6  O3  UNL     1      16.527  68.084  56.929  1.00  0.00    -0.247 OA
HETATM    7  N6  UNL     1      16.036  69.484  55.093  1.00  0.00    -0.278 N 
ATOM      8  H6  UNL     1      15.422  68.793  54.662  1.00  0.00     0.173 HD
HETATM    9  C13 UNL     1      16.254  70.760  54.452  1.00  0.00     0.239 C 
HETATM   10  O4  UNL     1      15.436  71.305  53.740  1.00  0.00    -0.272 OA
HETATM   11  C14 UNL     1      17.603  71.366  54.747  1.00  0.00     0.159 A 
HETATM   12  C15 UNL     1      17.816  72.648  54.081  1.00  0.00    -0.057 A 
HETATM   13  C19 UNL     1      17.995  73.742  54.756  1.00  0.00     0.061 A 
HETATM   14  C20 UNL     1      18.015  73.789  56.182  1.00  0.00     0.200 A 
HETATM   15  O6  UNL     1      18.174  74.865  56.787  1.00  0.00    -0.286 OA
ENDROOT
BRANCH   1  16
HETATM   16  N4  UNL     1      17.846  72.639  58.348  1.00  0.00    -0.304 N 
HETATM   17  C9  UNL     1      18.695  72.711  59.438  1.00  0.00     0.320 C 
HETATM   18  N3  UNL     1      18.060  72.934  60.746  1.00  0.00    -0.342 N 
HETATM   19  O2  UNL     1      19.923  72.626  59.554  1.00  0.00    -0.247 OA
ATOM     20  H3  UNL     1      17.044  73.008  60.794  1.00  0.00     0.164 HD
ATOM     21  H4  UNL     1      16.883  72.706  58.677  1.00  0.00     0.171 HD
BRANCH  18  22
HETATM   22  C8  UNL     1      18.807  73.051  61.937  1.00  0.00     0.134 C 
BRANCH  22  23
HETATM   23  C7  UNL     1      19.048  74.439  62.449  1.00  0.00     0.124 C 
BRANCH  23  24
HETATM   24  C6  UNL     1      17.978  75.381  62.041  1.00  0.00     0.237 C 
HETATM   25  N2  UNL     1      18.235  76.330  61.040  1.00  0.00    -0.270 N 
ATOM     26  H2  UNL     1      19.165  76.347  60.622  1.00  0.00     0.190 HD
HETATM   27  O1  UNL     1      16.857  75.323  62.587  1.00  0.00    -0.272 OA
BRANCH  25  28
HETATM   28  N1  UNL     1      17.295  77.252  60.583  1.00  0.00    -0.299 N 
ATOM     29  H1  UNL     1      16.687  77.725  61.252  1.00  0.00     0.187 HD
BRANCH  28  30
HETATM   30  C3  UNL     1      17.176  77.541  59.200  1.00  0.00     0.043 C 
HETATM   31  C4  UNL     1      16.143  77.063  58.546  1.00  0.00    -0.000 C 
HETATM   32  C5  UNL     1      15.128  76.257  59.230  1.00  0.00     0.038 C 
BRANCH  30  33
HETATM   33  C2  UNL     1      18.156  78.331  58.501  1.00  0.00     0.020 C 
HETATM   34  C1  UNL     1      18.094  78.610  57.226  1.00  0.00     0.013 C 
ENDBRANCH  30  33
ENDBRANCH  28  30
ENDBRANCH  25  28
ENDBRANCH  23  24
ENDBRANCH  22  23
ENDBRANCH  18  22
ENDBRANCH   1  16
BRANCH  12  35
HETATM   35  C16 UNL     1      17.908  72.613  52.596  1.00  0.00     0.044 C 
BRANCH  35  36
HETATM   36  C17 UNL     1      18.829  71.613  52.012  1.00  0.00     0.104 C 
BRANCH  36  37
HETATM   37  C18 UNL     1      20.190  72.151  51.815  1.00  0.00     0.231 C 
HETATM   38  N7  UNL     1      20.562  73.480  52.056  1.00  0.00    -0.062 NA
HETATM   39  O5  UNL     1      21.080  71.345  51.396  1.00  0.00    -0.277 OA
ENDBRANCH  36  37
ENDBRANCH  35  36
ENDBRANCH  12  35
TORSDOF 10
ENDMDL
MODEL 3
REMARK VINA RESULT: -8.834471925      2.768      4.018
REMARK  10 active torsions:
REMARK  status: ('A' for Active; 'I' for Inactive)
REMARK    1  A    between atoms: C2_2  and  C3_3 
REMARK    2  A    between atoms: C3_3  and  N1_6 
REMARK    3  A    between atoms: N1_6  and  N2_8 
REMARK       I    between atoms: N2_8  and  C6_10 
REMARK    4  A    between atoms: C6_10  and  C7_12 
REMARK    5  A    between atoms: C7_12  and  C8_13 
REMARK    6  A    between atoms: C8_13  and  N3_14 
REMARK       I    between atoms: N3_14  and  C9_16 
REMARK       I    between atoms: C9_16  and  N4_18 
REMARK    7  A    between atoms: N4_18  and  C10_20 
REMARK    8  A    between atoms: C15_31  and  C16_32 
REMARK    9  A    between atoms: C16_32  and  C17_33 
REMARK   10  A    between atoms: C17_33  and  C18_34 
ROOT
HETATM    1  C10 UNL     1      16.378  73.212  57.367  1.00  0.00     0.111 A 
HETATM    2  C11 UNL     1      16.847  73.929  56.390  1.00  0.00     0.061 A 
HETATM    3  N5  UNL     1      17.978  74.800  56.674  1.00  0.00    -0.309 N 
ATOM      4  H5  UNL     1      18.067  75.251  57.585  1.00  0.00     0.170 HD
HETATM    5  C12 UNL     1      18.951  75.010  55.670  1.00  0.00     0.327 C 
HETATM    6  O3  UNL     1      19.943  75.762  55.930  1.00  0.00    -0.247 OA
HETATM    7  N6  UNL     1      18.787  74.374  54.411  1.00  0.00    -0.278 N 
ATOM      8  H6  UNL     1      19.482  74.509  53.675  1.00  0.00     0.173 HD
HETATM    9  C13 UNL     1      17.636  73.535  54.174  1.00  0.00     0.239 C 
HETATM   10  O4  UNL     1      17.635  72.591  53.409  1.00  0.00    -0.272 OA
HETATM   11  C14 UNL     1      16.418  73.935  54.967  1.00  0.00     0.159 A 
HETATM   12  C15 UNL     1      15.257  73.088  54.707  1.00  0.00    -0.057 A 
HETATM   13  C19 UNL     1      14.722  72.364  55.642  1.00  0.00     0.061 A 
HETATM   14  C20 UNL     1      15.200  72.341  56.986  1.00  0.00     0.200 A 
HETATM   15  O6  UNL     1      14.664  71.617  57.846  1.00  0.00    -0.286 OA
ENDROOT
BRANCH   1  16
HETATM   16  N4  UNL     1      16.798  73.115  58.686  1.00  0.00    -0.304 N 
HETATM   17  C9  UNL     1      17.926  73.181  59.485  1.00  0.00     0.320 C 
HETATM   18  N3  UNL     1      17.708  73.053  60.934  1.00  0.00    -0.342 N 
HETATM   19  O2  UNL     1      19.127  73.330  59.233  1.00  0.00    -0.247 OA
ATOM     20  H3  UNL     1      16.759  72.908  61.278  1.00  0.00     0.164 HD
ATOM     21  H4  UNL     1      15.988  72.930  59.277  1.00  0.00     0.171 HD
BRANCH  18  22
HETATM   22  C8  UNL     1      18.765  73.124  61.865  1.00  0.00     0.134 C 
BRANCH  22  23
HETATM   23  C7  UNL     1      19.037  74.465  62.476  1.00  0.00     0.124 C 
BRANCH  23  24
HETATM   24  C6  UNL     1      18.031  75.478  62.077  1.00  0.00     0.237 C 
HETATM   25  N2  UNL     1      18.322  76.371  61.034  1.00  0.00    -0.270 N 
ATOM     26  H2  UNL     1      19.233  76.299  60.581  1.00  0.00     0.190 HD
HETATM   27  O1  UNL     1      16.932  75.529  62.666  1.00  0.00    -0.272 OA
BRANCH  25  28
HETATM   28  N1  UNL     1      17.442  77.352  60.581  1.00  0.00    -0.299 N 
ATOM     29  H1  UNL     1      16.921  77.912  61.257  1.00  0.00     0.187 HD
BRANCH  28  30
HETATM   30  C3  UNL     1      17.263  77.581  59.194  1.00  0.00     0.043 C 
HETATM   31  C4  UNL     1      16.217  77.057  58.601  1.00  0.00    -0.000 C 
HETATM   32  C5  UNL     1      15.245  76.260  59.357  1.00  0.00     0.038 C 
BRANCH  30  33
HETATM   33  C2  UNL     1      18.199  78.360  58.425  1.00  0.00     0.020 C 
HETATM   34  C1  UNL     1      18.076  78.595  57.146  1.00  0.00     0.013 C 
ENDBRANCH  30  33
ENDBRANCH  28  30
ENDBRANCH  25  28
ENDBRANCH  23  24
ENDBRANCH  22  23
ENDBRANCH  18  22
ENDBRANCH   1  16
BRANCH  12  35
HETATM   35  C16 UNL     1      14.670  73.174  53.342  1.00  0.00     0.044 C 
BRANCH  35  36
HETATM   36  C17 UNL     1      13.368  73.865  53.223  1.00  0.00     0.104 C 
BRANCH  36  37
HETATM   37  C18 UNL     1      12.263  72.931  52.926  1.00  0.00     0.231 C 
HETATM   38  N7  UNL     1      11.823  72.605  51.637  1.00  0.00    -0.062 NA
HETATM   39  O5  UNL     1      11.675  72.391  53.916  1.00  0.00    -0.277 OA
ENDBRANCH  36  37
ENDBRANCH  35  36
ENDBRANCH  12  35
TORSDOF 10
ENDMDL
MODEL 4
REMARK VINA RESULT: -8.798529331      2.087      2.276
REMARK  10 active torsions:
REMARK  status: ('A' for Active; 'I' for Inactive)
REMARK    1  A    between atoms: C2_2  and  C3_3 
REMARK    2  A    between atoms: C3_3  and  N1_6 
REMARK    3  A    between atoms: N1_6  and  N2_8 
REMARK       I    between atoms: N2_8  and  C6_10 
REMARK    4  A    between atoms: C6_10  and  C7_12 
REMARK    5  A    between atoms: C7_12  and  C8_13 
REMARK    6  A    between atoms: C8_13  and  N3_14 
REMARK       I    between atoms: N3_14  and  C9_16 
REMARK       I    between atoms: C9_16  and  N4_18 
REMARK    7  A    between atoms: N4_18  and  C10_20 
REMARK    8  A    between atoms: C15_31  and  C16_32 
REMARK    9  A    between atoms: C16_32  and  C17_33 
REMARK   10  A    between atoms: C17_33  and  C18_34 
ROOT
HETATM    1  C10 UNL     1      19.840  72.812  55.274  1.00  0.00     0.111 A 
HETATM    2  C11 UNL     1      20.223  71.998  54.336  1.00  0.00     0.061 A 
HETATM    3  N5  UNL     1      20.926  70.789  54.737  1.00  0.00    -0.309 N 
ATOM      4  H5  UNL     1      21.552  70.797  55.543  1.00  0.00     0.170 HD
HETATM    5  C12 UNL     1      20.729  69.602  53.994  1.00  0.00     0.327 C 
HETATM    6  O3  UNL     1      21.338  68.546  54.358  1.00  0.00    -0.247 OA
HETATM    7  N6  UNL     1      19.859  69.630  52.872  1.00  0.00    -0.278 N 
ATOM      8  H6  UNL     1      19.700  68.782  52.327  1.00  0.00     0.173 HD
HETATM    9  C13 UNL     1      19.200  70.862  52.505  1.00  0.00     0.239 C 
HETATM   10  O4  UNL     1      18.121  70.909  51.950  1.00  0.00    -0.272 OA
HETATM   11  C14 UNL     1      19.976  72.100  52.875  1.00  0.00     0.159 A 
HETATM   12  C15 UNL     1      19.306  73.338  52.484  1.00  0.00    -0.057 A 
HETATM   13  C19 UNL     1      18.918  74.207  53.366  1.00  0.00     0.061 A 
HETATM   14  C20 UNL     1      19.122  74.045  54.769  1.00  0.00     0.200 A 
HETATM   15  O6  UNL     1      18.719  74.899  55.580  1.00  0.00    -0.286 OA
ENDROOT
BRANCH   1  16
HETATM   16  N4  UNL     1      19.978  72.716  56.652  1.00  0.00    -0.304 N 
HETATM   17  C9  UNL     1      19.246  72.632  57.823  1.00  0.00     0.320 C 
HETATM   18  N3  UNL     1      20.018  72.472  59.065  1.00  0.00    -0.342 N 
HETATM   19  O2  UNL     1      18.033  72.663  58.061  1.00  0.00    -0.247 OA
ATOM     20  H3  UNL     1      21.036  72.447  59.012  1.00  0.00     0.164 HD
ATOM     21  H4  UNL     1      20.971  72.702  56.883  1.00  0.00     0.171 HD
BRANCH  18  22
HETATM   22  C8  UNL     1      19.400  72.352  60.328  1.00  0.00     0.134 C 
BRANCH  22  23
HETATM   23  C7  UNL     1      19.666  73.447  61.316  1.00  0.00     0.124 C 
BRANCH  23  24
HETATM   24  C6  UNL     1      18.493  74.334  61.498  1.00  0.00     0.237 C 
HETATM   25  N2  UNL     1      17.650  74.603  60.408  1.00  0.00    -0.270 N 
ATOM     26  H2  UNL     1      17.878  74.176  59.510  1.00  0.00     0.190 HD
HETATM   27  O1  UNL     1      18.260  74.836  62.618  1.00  0.00    -0.272 OA
BRANCH  25  28
HETATM   28  N1  UNL     1      16.521  75.416  60.479  1.00  0.00    -0.299 N 
ATOM     29  H1  UNL     1      15.644  75.032  60.832  1.00  0.00     0.187 HD
BRANCH  28  30
HETATM   30  C3  UNL     1      16.578  76.772  60.069  1.00  0.00     0.043 C 
HETATM   31  C4  UNL     1      15.829  77.154  59.062  1.00  0.00    -0.000 C 
HETATM   32  C5  UNL     1      14.943  76.204  58.381  1.00  0.00     0.038 C 
BRANCH  30  33
HETATM   33  C2  UNL     1      17.436  77.728  60.719  1.00  0.00     0.020 C 
HETATM   34  C1  UNL     1      18.512  78.231  60.174  1.00  0.00     0.013 C 
ENDBRANCH  30  33
ENDBRANCH  28  30
ENDBRANCH  25  28
ENDBRANCH  23  24
ENDBRANCH  22  23
ENDBRANCH  18  22
ENDBRANCH   1  16
BRANCH  12  35
HETATM   35  C16 UNL     1      19.176  73.585  51.022  1.00  0.00     0.044 C 
BRANCH  35  36
HETATM   36  C17 UNL     1      18.858  74.969  50.610  1.00  0.00     0.104 C 
BRANCH  36  37
HETATM   37  C18 UNL     1      18.858  75.132  49.143  1.00  0.00     0.231 C 
HETATM   38  N7  UNL     1      19.624  76.077  48.448  1.00  0.00    -0.062 NA
HETATM   39  O5  UNL     1      18.107  74.357  48.470  1.00  0.00    -0.277 OA
ENDBRANCH  36  37
ENDBRANCH  35  36
ENDBRANCH  12  35
TORSDOF 10
ENDMDL
MODEL 5
REMARK VINA RESULT: -8.781454086      1.418      1.643
REMARK  10 active torsions:
REMARK  status: ('A' for Active; 'I' for Inactive)
REMARK    1  A    between atoms: C2_2  and  C3_3 
REMARK    2  A    between atoms: C3_3  and  N1_6 
REMARK    3  A    between atoms: N1_6  and  N2_8 
REMARK       I    between atoms: N2_8  and  C6_10 
REMARK    4  A    between atoms: C6_10  and  C7_12 
REMARK    5  A    between atoms: C7_12  and  C8_13 
REMARK    6  A    between atoms: C8_13  and  N3_14 
REMARK       I    between atoms: N3_14  and  C9_16 
REMARK       I    between atoms: C9_16  and  N4_18 
REMARK    7  A    between atoms: N4_18  and  C10_20 
REMARK    8  A    between atoms: C15_31  and  C16_32 
REMARK    9  A    between atoms: C16_32  and  C17_33 
REMARK   10  A    between atoms: C17_33  and  C18_34 
ROOT
HETATM    1  C10 UNL     1      19.555  72.729  55.400  1.00  0.00     0.111 A 
HETATM    2  C11 UNL     1      18.940  71.938  54.572  1.00  0.00     0.061 A 
HETATM    3  N5  UNL     1      18.384  70.703  55.105  1.00  0.00    -0.309 N 
ATOM      4  H5  UNL     1      18.858  70.206  55.860  1.00  0.00     0.170 HD
HETATM    5  C12 UNL     1      17.179  70.202  54.561  1.00  0.00     0.327 C 
HETATM    6  O3  UNL     1      16.694  69.128  55.040  1.00  0.00    -0.247 OA
HETATM    7  N6  UNL     1      16.554  70.914  53.503  1.00  0.00    -0.278 N 
ATOM      8  H6  UNL     1      15.682  70.571  53.101  1.00  0.00     0.173 HD
HETATM    9  C13 UNL     1      17.158  72.125  52.997  1.00  0.00     0.239 C 
HETATM   10  O4  UNL     1      16.526  73.040  52.509  1.00  0.00    -0.272 OA
HETATM   11  C14 UNL     1      18.659  72.158  53.130  1.00  0.00     0.159 A 
HETATM   12  C15 UNL     1      19.258  73.380  52.601  1.00  0.00    -0.057 A 
HETATM   13  C19 UNL     1      19.907  74.204  53.366  1.00  0.00     0.061 A 
HETATM   14  C20 UNL     1      20.106  73.986  54.762  1.00  0.00     0.200 A 
HETATM   15  O6  UNL     1      20.722  74.812  55.459  1.00  0.00    -0.286 OA
ENDROOT
BRANCH   1  16
HETATM   16  N4  UNL     1      19.768  72.602  56.765  1.00  0.00    -0.304 N 
HETATM   17  C9  UNL     1      19.119  72.658  57.986  1.00  0.00     0.320 C 
HETATM   18  N3  UNL     1      19.931  72.346  59.172  1.00  0.00    -0.342 N 
HETATM   19  O2  UNL     1      17.955  72.924  58.308  1.00  0.00    -0.247 OA
ATOM     20  H3  UNL     1      20.918  72.124  59.048  1.00  0.00     0.164 HD
ATOM     21  H4  UNL     1      20.753  72.394  56.927  1.00  0.00     0.171 HD
BRANCH  18  22
HETATM   22  C8  UNL     1      19.392  72.343  60.476  1.00  0.00     0.134 C 
BRANCH  22  23
HETATM   23  C7  UNL     1      19.731  73.514  61.348  1.00  0.00     0.124 C 
BRANCH  23  24
HETATM   24  C6  UNL     1      18.571  74.412  61.557  1.00  0.00     0.237 C 
HETATM   25  N2  UNL     1      17.684  74.658  60.496  1.00  0.00    -0.270 N 
ATOM     26  H2  UNL     1      17.873  74.208  59.600  1.00  0.00     0.190 HD
HETATM   27  O1  UNL     1      18.387  74.943  62.672  1.00  0.00    -0.272 OA
BRANCH  25  28
HETATM   28  N1  UNL     1      16.563  75.479  60.594  1.00  0.00    -0.299 N 
ATOM     29  H1  UNL     1      15.703  75.111  61.000  1.00  0.00     0.187 HD
BRANCH  28  30
HETATM   30  C3  UNL     1      16.604  76.820  60.135  1.00  0.00     0.043 C 
HETATM   31  C4  UNL     1      15.888  77.147  59.086  1.00  0.00    -0.000 C 
HETATM   32  C5  UNL     1      15.053  76.151  58.406  1.00  0.00     0.038 C 
BRANCH  30  33
HETATM   33  C2  UNL     1      17.413  77.820  60.782  1.00  0.00     0.020 C 
HETATM   34  C1  UNL     1      18.566  78.234  60.327  1.00  0.00     0.013 C 
ENDBRANCH  30  33
ENDBRANCH  28  30
ENDBRANCH  25  28
ENDBRANCH  23  24
ENDBRANCH  22  23
ENDBRANCH  18  22
ENDBRANCH   1  16
BRANCH  12  35
HETATM   35  C16 UNL     1      19.161  73.580  51.129  1.00  0.00     0.044 C 
BRANCH  35  36
HETATM   36  C17 UNL     1      19.038  74.976  50.657  1.00  0.00     0.104 C 
BRANCH  36  37
HETATM   37  C18 UNL     1      18.902  75.061  49.189  1.00  0.00     0.231 C 
HETATM   38  N7  UNL     1      19.542  76.014  48.386  1.00  0.00    -0.062 NA
HETATM   39  O5  UNL     1      18.150  74.207  48.622  1.00  0.00    -0.277 OA
ENDBRANCH  36  37
ENDBRANCH  35  36
ENDBRANCH  12  35
TORSDOF 10
ENDMDL
