MODEL 1
REMARK VINA RESULT: -8.601024115      0.000      0.000
REMARK  10 active torsions:
REMARK  status: ('A' for Active; 'I' for Inactive)
REMARK    1  A    between atoms: N1_1  and  C1_5 
REMARK    2  A    between atoms: C1_5  and  C2_6 
REMARK    3  A    between atoms: C2_6  and  N2_7 
REMARK    4  A    between atoms: C2_6  and  C20_39 
REMARK       I    between atoms: N2_7  and  C3_9 
REMARK    5  A    between atoms: C3_9  and  C4_11 
REMARK    6  A    between atoms: C7_14  and  N3_15 
REMARK       I    between atoms: N3_15  and  C8_17 
REMARK    7  A    between atoms: C8_17  and  C9_19 
REMARK    8  A    between atoms: C13_24  and  N4_25 
REMARK       I    between atoms: N4_25  and  C14_27 
REMARK       I    between atoms: C14_27  and  N5_29 
REMARK    9  A    between atoms: N5_29  and  C15_31 
REMARK   10  A    between atoms: C15_31  and  C16_32 
ROOT
HETATM    1  C4  UNL     1      11.582  76.683  56.675  1.00  0.00     0.034 A 
HETATM    2  C5  UNL     1      12.084  76.632  55.400  1.00  0.00     0.019 A 
HETATM    3  C6  UNL     1      13.406  76.254  55.139  1.00  0.00     0.033 A 
HETATM    4  C7  UNL     1      14.269  75.915  56.152  1.00  0.00     0.062 A 
HETATM    5  C13 UNL     1      13.781  75.956  57.482  1.00  0.00     0.064 A 
HETATM    6  C19 UNL     1      12.483  76.331  57.686  1.00  0.00     0.049 A 
ENDROOT
BRANCH   1   7
HETATM    7  C3  UNL     1      10.209  77.078  56.934  1.00  0.00     0.252 C 
HETATM    8  N2  UNL     1       9.408  76.526  57.948  1.00  0.00    -0.342 N 
ATOM      9  H2  UNL     1       9.810  75.802  58.543  1.00  0.00     0.163 HD
HETATM   10  O1  UNL     1       9.705  77.969  56.206  1.00  0.00    -0.268 OA
BRANCH   8  11
HETATM   11  C2  UNL     1       8.038  76.937  58.188  1.00  0.00     0.199 C 
BRANCH  11  12
HETATM   12  C1  UNL     1       7.049  75.942  57.625  1.00  0.00     0.264 C 
BRANCH  12  13
HETATM   13  N1  UNL     1       7.462  74.637  58.036  1.00  0.00    -0.077 N 
ATOM     14  H13 UNL     1       8.445  74.600  58.307  1.00  0.00     0.274 HD
ATOM     15  H12 UNL     1       7.064  74.360  58.932  1.00  0.00     0.274 HD
ATOM     16  H11 UNL     1       7.235  73.987  57.284  1.00  0.00     0.274 HD
ENDBRANCH  12  13
ENDBRANCH  11  12
BRANCH  11  17
HETATM   17  C20 UNL     1       7.755  77.129  59.623  1.00  0.00     0.255 C 
HETATM   18  N7  UNL     1       6.449  76.817  60.090  1.00  0.00    -0.060 NA
HETATM   19  O6  UNL     1       8.585  77.551  60.468  1.00  0.00    -0.275 OA
ENDBRANCH  11  17
ENDBRANCH   8  11
ENDBRANCH   1   7
BRANCH   5  20
HETATM   20  N4  UNL     1      14.658  75.537  58.506  1.00  0.00    -0.307 N 
HETATM   21  C14 UNL     1      15.576  76.378  59.204  1.00  0.00     0.320 C 
HETATM   22  O4  UNL     1      15.735  77.595  58.996  1.00  0.00    -0.247 OA
HETATM   23  N5  UNL     1      16.366  75.722  60.226  1.00  0.00    -0.340 N 
ATOM     24  H5  UNL     1      16.243  74.727  60.413  1.00  0.00     0.164 HD
ATOM     25  H4  UNL     1      14.633  74.552  58.769  1.00  0.00     0.170 HD
BRANCH  23  26
HETATM   26  C15 UNL     1      17.318  76.485  60.967  1.00  0.00     0.159 C 
BRANCH  26  27
HETATM   27  C16 UNL     1      18.033  75.632  61.952  1.00  0.00     0.174 C 
HETATM   28  C17 UNL     1      18.365  74.250  61.361  1.00  0.00     0.083 C 
HETATM   29  C18 UNL     1      18.358  73.434  62.598  1.00  0.00     0.089 C 
HETATM   30  N6  UNL     1      17.661  74.026  63.493  1.00  0.00    -0.281 N 
HETATM   31  O5  UNL     1      17.153  75.212  63.017  1.00  0.00    -0.274 OA
ATOM     32  H6  UNL     1      17.502  73.666  64.434  1.00  0.00     0.193 HD
ENDBRANCH  26  27
ENDBRANCH  23  26
ENDBRANCH   5  20
BRANCH   4  33
HETATM   33  N3  UNL     1      15.621  75.603  55.889  1.00  0.00    -0.319 N 
HETATM   34  C8  UNL     1      16.699  76.462  55.646  1.00  0.00     0.280 C 
HETATM   35  O2  UNL     1      16.608  77.704  55.624  1.00  0.00    -0.265 OA
ATOM     36  H3  UNL     1      15.843  74.608  55.873  1.00  0.00     0.169 HD
BRANCH  34  37
HETATM   37  C9  UNL     1      18.022  75.822  55.404  1.00  0.00     0.142 A 
HETATM   38  C10 UNL     1      19.224  76.353  55.838  1.00  0.00     0.045 A 
HETATM   39  C11 UNL     1      20.222  75.494  55.434  1.00  0.00     0.027 A 
HETATM   40  C12 UNL     1      19.565  74.467  54.763  1.00  0.00     0.143 A 
HETATM   41  O3  UNL     1      18.291  74.721  54.783  1.00  0.00    -0.317 OA
ENDBRANCH  34  37
ENDBRANCH   4  33
TORSDOF 10
ENDMDL
MODEL 2
REMARK VINA RESULT: -8.474444929      2.759      3.100
REMARK  10 active torsions:
REMARK  status: ('A' for Active; 'I' for Inactive)
REMARK    1  A    between atoms: N1_1  and  C1_5 
REMARK    2  A    between atoms: C1_5  and  C2_6 
REMARK    3  A    between atoms: C2_6  and  N2_7 
REMARK    4  A    between atoms: C2_6  and  C20_39 
REMARK       I    between atoms: N2_7  and  C3_9 
REMARK    5  A    between atoms: C3_9  and  C4_11 
REMARK    6  A    between atoms: C7_14  and  N3_15 
REMARK       I    between atoms: N3_15  and  C8_17 
REMARK    7  A    between atoms: C8_17  and  C9_19 
REMARK    8  A    between atoms: C13_24  and  N4_25 
REMARK       I    between atoms: N4_25  and  C14_27 
REMARK       I    between atoms: C14_27  and  N5_29 
REMARK    9  A    between atoms: N5_29  and  C15_31 
REMARK   10  A    between atoms: C15_31  and  C16_32 
ROOT
HETATM    1  C4  UNL     1      10.796  75.733  56.669  1.00  0.00     0.034 A 
HETATM    2  C5  UNL     1      10.661  74.990  55.525  1.00  0.00     0.019 A 
HETATM    3  C6  UNL     1      11.658  74.107  55.092  1.00  0.00     0.033 A 
HETATM    4  C7  UNL     1      12.826  73.943  55.797  1.00  0.00     0.062 A 
HETATM    5  C13 UNL     1      12.997  74.697  56.985  1.00  0.00     0.064 A 
HETATM    6  C19 UNL     1      11.995  75.545  57.365  1.00  0.00     0.049 A 
ENDROOT
BRANCH   1   7
HETATM    7  C3  UNL     1       9.756  76.647  57.107  1.00  0.00     0.252 C 
HETATM    8  N2  UNL     1       8.610  76.254  57.818  1.00  0.00    -0.342 N 
ATOM      9  H2  UNL     1       8.495  75.266  58.044  1.00  0.00     0.163 HD
HETATM   10  O1  UNL     1       9.889  77.865  56.832  1.00  0.00    -0.268 OA
BRANCH   8  11
HETATM   11  C2  UNL     1       7.584  77.185  58.244  1.00  0.00     0.199 C 
BRANCH  11  12
HETATM   12  C1  UNL     1       6.212  76.761  57.771  1.00  0.00     0.264 C 
BRANCH  12  13
HETATM   13  N1  UNL     1       6.176  75.333  57.762  1.00  0.00    -0.077 N 
ATOM     14  H13 UNL     1       7.102  74.914  57.681  1.00  0.00     0.274 HD
ATOM     15  H12 UNL     1       5.928  74.938  58.669  1.00  0.00     0.274 HD
ATOM     16  H11 UNL     1       5.543  75.042  57.017  1.00  0.00     0.274 HD
ENDBRANCH  12  13
ENDBRANCH  11  12
BRANCH  11  17
HETATM   17  C20 UNL     1       7.551  77.348  59.710  1.00  0.00     0.255 C 
HETATM   18  N7  UNL     1       6.287  77.279  60.359  1.00  0.00    -0.060 NA
HETATM   19  O6  UNL     1       8.561  77.546  60.433  1.00  0.00    -0.275 OA
ENDBRANCH  11  17
ENDBRANCH   8  11
ENDBRANCH   1   7
BRANCH   5  20
HETATM   20  N4  UNL     1      14.170  74.466  57.734  1.00  0.00    -0.307 N 
HETATM   21  C14 UNL     1      15.164  75.445  58.039  1.00  0.00     0.320 C 
HETATM   22  O4  UNL     1      15.132  76.635  57.675  1.00  0.00    -0.247 OA
HETATM   23  N5  UNL     1      16.277  74.973  58.836  1.00  0.00    -0.340 N 
ATOM     24  H5  UNL     1      16.314  74.002  59.147  1.00  0.00     0.164 HD
ATOM     25  H4  UNL     1      14.321  73.521  58.087  1.00  0.00     0.170 HD
BRANCH  23  26
HETATM   26  C15 UNL     1      17.323  75.883  59.179  1.00  0.00     0.159 C 
BRANCH  26  27
HETATM   27  C16 UNL     1      17.737  75.706  60.596  1.00  0.00     0.174 C 
HETATM   28  C17 UNL     1      18.221  74.271  60.865  1.00  0.00     0.083 C 
HETATM   29  C18 UNL     1      17.872  74.146  62.299  1.00  0.00     0.089 C 
HETATM   30  N6  UNL     1      16.953  74.989  62.586  1.00  0.00    -0.281 N 
HETATM   31  O5  UNL     1      16.596  75.725  61.480  1.00  0.00    -0.274 OA
ATOM     32  H6  UNL     1      16.539  75.101  63.513  1.00  0.00     0.193 HD
ENDBRANCH  26  27
ENDBRANCH  23  26
ENDBRANCH   5  20
BRANCH   4  33
HETATM   33  N3  UNL     1      13.857  73.105  55.319  1.00  0.00    -0.319 N 
HETATM   34  C8  UNL     1      13.765  71.868  54.670  1.00  0.00     0.280 C 
HETATM   35  O2  UNL     1      12.690  71.295  54.410  1.00  0.00    -0.265 OA
ATOM     36  H3  UNL     1      14.804  73.451  55.468  1.00  0.00     0.169 HD
BRANCH  34  37
HETATM   37  C9  UNL     1      15.050  71.223  54.278  1.00  0.00     0.142 A 
HETATM   38  C10 UNL     1      15.775  70.385  55.107  1.00  0.00     0.045 A 
HETATM   39  C11 UNL     1      16.893  69.984  54.410  1.00  0.00     0.027 A 
HETATM   40  C12 UNL     1      16.790  70.609  53.170  1.00  0.00     0.143 A 
HETATM   41  O3  UNL     1      15.697  71.312  53.162  1.00  0.00    -0.317 OA
ENDBRANCH  34  37
ENDBRANCH   4  33
TORSDOF 10
ENDMDL
MODEL 3
REMARK VINA RESULT: -8.462366423      1.629      1.895
REMARK  10 active torsions:
REMARK  status: ('A' for Active; 'I' for Inactive)
REMARK    1  A    between atoms: N1_1  and  C1_5 
REMARK    2  A    between atoms: C1_5  and  C2_6 
REMARK    3  A    between atoms: C2_6  and  N2_7 
REMARK    4  A    between atoms: C2_6  and  C20_39 
REMARK       I    between atoms: N2_7  and  C3_9 
REMARK    5  A    between atoms: C3_9  and  C4_11 
REMARK    6  A    between atoms: C7_14  and  N3_15 
REMARK       I    between atoms: N3_15  and  C8_17 
REMARK    7  A    between atoms: C8_17  and  C9_19 
REMARK    8  A    between atoms: C13_24  and  N4_25 
REMARK       I    between atoms: N4_25  and  C14_27 
REMARK       I    between atoms: C14_27  and  N5_29 
REMARK    9  A    between atoms: N5_29  and  C15_31 
REMARK   10  A    between atoms: C15_31  and  C16_32 
ROOT
HETATM    1  C4  UNL     1      10.968  76.315  56.804  1.00  0.00     0.034 A 
HETATM    2  C5  UNL     1      11.249  75.854  55.543  1.00  0.00     0.019 A 
HETATM    3  C6  UNL     1      12.475  75.257  55.229  1.00  0.00     0.033 A 
HETATM    4  C7  UNL     1      13.462  75.103  56.174  1.00  0.00     0.062 A 
HETATM    5  C13 UNL     1      13.202  75.568  57.487  1.00  0.00     0.064 A 
HETATM    6  C19 UNL     1      11.990  76.144  57.744  1.00  0.00     0.049 A 
ENDROOT
BRANCH   1   7
HETATM    7  C3  UNL     1       9.692  76.934  57.117  1.00  0.00     0.252 C 
HETATM    8  N2  UNL     1       8.736  76.375  57.981  1.00  0.00    -0.342 N 
ATOM      9  H2  UNL     1       8.944  75.478  58.420  1.00  0.00     0.163 HD
HETATM   10  O1  UNL     1       9.427  78.039  56.582  1.00  0.00    -0.268 OA
BRANCH   8  11
HETATM   11  C2  UNL     1       7.468  77.013  58.279  1.00  0.00     0.199 C 
BRANCH  11  12
HETATM   12  C1  UNL     1       6.298  76.121  57.929  1.00  0.00     0.264 C 
BRANCH  12  13
HETATM   13  N1  UNL     1       5.336  76.917  57.235  1.00  0.00    -0.077 N 
ATOM     14  H13 UNL     1       5.652  77.873  57.077  1.00  0.00     0.274 HD
ATOM     15  H12 UNL     1       5.230  76.646  56.258  1.00  0.00     0.274 HD
ATOM     16  H11 UNL     1       4.460  76.871  57.755  1.00  0.00     0.274 HD
ENDBRANCH  12  13
ENDBRANCH  11  12
BRANCH  11  17
HETATM   17  C20 UNL     1       7.359  77.405  59.697  1.00  0.00     0.255 C 
HETATM   18  N7  UNL     1       6.073  77.355  60.304  1.00  0.00    -0.060 NA
HETATM   19  O6  UNL     1       8.321  77.782  60.413  1.00  0.00    -0.275 OA
ENDBRANCH  11  17
ENDBRANCH   8  11
ENDBRANCH   1   7
BRANCH   5  20
HETATM   20  N4  UNL     1      14.196  75.341  58.462  1.00  0.00    -0.307 N 
HETATM   21  C14 UNL     1      15.158  76.300  58.904  1.00  0.00     0.320 C 
HETATM   22  O4  UNL     1      15.253  77.466  58.480  1.00  0.00    -0.247 OA
HETATM   23  N5  UNL     1      16.073  75.836  59.926  1.00  0.00    -0.340 N 
ATOM     24  H5  UNL     1      16.003  74.886  60.289  1.00  0.00     0.164 HD
ATOM     25  H4  UNL     1      14.232  74.414  58.886  1.00  0.00     0.170 HD
BRANCH  23  26
HETATM   26  C15 UNL     1      17.074  76.727  60.420  1.00  0.00     0.159 C 
BRANCH  26  27
HETATM   27  C16 UNL     1      17.846  76.100  61.524  1.00  0.00     0.174 C 
HETATM   28  C17 UNL     1      18.389  74.719  61.117  1.00  0.00     0.083 C 
HETATM   29  C18 UNL     1      18.428  74.057  62.443  1.00  0.00     0.089 C 
HETATM   30  N6  UNL     1      17.613  74.646  63.234  1.00  0.00    -0.281 N 
HETATM   31  O5  UNL     1      16.977  75.688  62.601  1.00  0.00    -0.274 OA
ATOM     32  H6  UNL     1      17.456  74.378  64.207  1.00  0.00     0.193 HD
ENDBRANCH  26  27
ENDBRANCH  23  26
ENDBRANCH   5  20
BRANCH   4  33
HETATM   33  N3  UNL     1      14.722  74.565  55.835  1.00  0.00    -0.319 N 
HETATM   34  C8  UNL     1      15.276  73.324  56.171  1.00  0.00     0.280 C 
HETATM   35  O2  UNL     1      14.697  72.467  56.866  1.00  0.00    -0.265 OA
ATOM     36  H3  UNL     1      15.313  75.166  55.262  1.00  0.00     0.169 HD
BRANCH  34  37
HETATM   37  C9  UNL     1      16.643  73.039  55.651  1.00  0.00     0.142 A 
HETATM   38  C10 UNL     1      17.564  72.240  56.304  1.00  0.00     0.045 A 
HETATM   39  C11 UNL     1      18.703  72.208  55.530  1.00  0.00     0.027 A 
HETATM   40  C12 UNL     1      18.412  73.005  54.426  1.00  0.00     0.143 A 
HETATM   41  O3  UNL     1      17.200  73.455  54.561  1.00  0.00    -0.317 OA
ENDBRANCH  34  37
ENDBRANCH   4  33
TORSDOF 10
ENDMDL
MODEL 4
REMARK VINA RESULT: -8.433608493      3.072      8.076
REMARK  10 active torsions:
REMARK  status: ('A' for Active; 'I' for Inactive)
REMARK    1  A    between atoms: N1_1  and  C1_5 
REMARK    2  A    between atoms: C1_5  and  C2_6 
REMARK    3  A    between atoms: C2_6  and  N2_7 
REMARK    4  A    between atoms: C2_6  and  C20_39 
REMARK       I    between atoms: N2_7  and  C3_9 
REMARK    5  A    between atoms: C3_9  and  C4_11 
REMARK    6  A    between atoms: C7_14  and  N3_15 
REMARK       I    between atoms: N3_15  and  C8_17 
REMARK    7  A    between atoms: C8_17  and  C9_19 
REMARK    8  A    between atoms: C13_24  and  N4_25 
REMARK       I    between atoms: N4_25  and  C14_27 
REMARK       I    between atoms: C14_27  and  N5_29 
REMARK    9  A    between atoms: N5_29  and  C15_31 
REMARK   10  A    between atoms: C15_31  and  C16_32 
ROOT
HETATM    1  C4  UNL     1      17.205  77.365  58.962  1.00  0.00     0.034 A 
HETATM    2  C5  UNL     1      17.954  78.166  58.139  1.00  0.00     0.019 A 
HETATM    3  C6  UNL     1      17.413  78.764  56.995  1.00  0.00     0.033 A 
HETATM    4  C7  UNL     1      16.099  78.576  56.639  1.00  0.00     0.062 A 
HETATM    5  C13 UNL     1      15.297  77.753  57.470  1.00  0.00     0.064 A 
HETATM    6  C19 UNL     1      15.871  77.192  58.576  1.00  0.00     0.049 A 
ENDROOT
BRANCH   1   7
HETATM    7  C3  UNL     1      17.777  76.748  60.146  1.00  0.00     0.252 C 
HETATM    8  N2  UNL     1      17.893  75.361  60.333  1.00  0.00    -0.342 N 
ATOM      9  H2  UNL     1      17.557  74.742  59.596  1.00  0.00     0.163 HD
HETATM   10  O1  UNL     1      18.194  77.503  61.059  1.00  0.00    -0.268 OA
BRANCH   8  11
HETATM   11  C2  UNL     1      18.469  74.768  61.526  1.00  0.00     0.199 C 
BRANCH  11  12
HETATM   12  C1  UNL     1      17.505  74.804  62.689  1.00  0.00     0.264 C 
BRANCH  12  13
HETATM   13  N1  UNL     1      16.262  74.257  62.244  1.00  0.00    -0.077 N 
ATOM     14  H13 UNL     1      16.109  74.384  61.244  1.00  0.00     0.274 HD
ATOM     15  H12 UNL     1      16.253  73.237  62.253  1.00  0.00     0.274 HD
ATOM     16  H11 UNL     1      15.520  74.664  62.813  1.00  0.00     0.274 HD
ENDBRANCH  12  13
ENDBRANCH  11  12
BRANCH  11  17
HETATM   17  C20 UNL     1      18.896  73.373  61.306  1.00  0.00     0.255 C 
HETATM   18  N7  UNL     1      19.361  73.017  60.010  1.00  0.00    -0.060 NA
HETATM   19  O6  UNL     1      18.878  72.471  62.181  1.00  0.00    -0.275 OA
ENDBRANCH  11  17
ENDBRANCH   8  11
ENDBRANCH   1   7
BRANCH   5  20
HETATM   20  N4  UNL     1      13.933  77.626  57.131  1.00  0.00    -0.307 N 
HETATM   21  C14 UNL     1      13.182  76.413  57.166  1.00  0.00     0.320 C 
HETATM   22  O4  UNL     1      13.632  75.299  57.493  1.00  0.00    -0.247 OA
HETATM   23  N5  UNL     1      11.790  76.533  56.785  1.00  0.00    -0.340 N 
ATOM     24  H5  UNL     1      11.404  77.440  56.521  1.00  0.00     0.164 HD
ATOM     25  H4  UNL     1      13.444  78.471  56.836  1.00  0.00     0.170 HD
BRANCH  23  26
HETATM   26  C15 UNL     1      10.965  75.367  56.782  1.00  0.00     0.159 C 
BRANCH  26  27
HETATM   27  C16 UNL     1       9.749  75.574  57.611  1.00  0.00     0.174 C 
HETATM   28  C17 UNL     1       9.188  76.997  57.440  1.00  0.00     0.083 C 
HETATM   29  C18 UNL     1       8.553  77.184  58.766  1.00  0.00     0.089 C 
HETATM   30  N6  UNL     1       9.095  76.389  59.611  1.00  0.00    -0.281 N 
HETATM   31  O5  UNL     1      10.077  75.632  59.015  1.00  0.00    -0.274 OA
ATOM     32  H6  UNL     1       8.833  76.325  60.595  1.00  0.00     0.193 HD
ENDBRANCH  26  27
ENDBRANCH  23  26
ENDBRANCH   5  20
BRANCH   4  33
HETATM   33  N3  UNL     1      15.578  79.124  55.447  1.00  0.00    -0.319 N 
HETATM   34  C8  UNL     1      14.570  80.081  55.277  1.00  0.00     0.280 C 
HETATM   35  O2  UNL     1      13.951  80.615  56.216  1.00  0.00    -0.265 OA
ATOM     36  H3  UNL     1      15.996  78.772  54.586  1.00  0.00     0.169 HD
BRANCH  34  37
HETATM   37  C9  UNL     1      14.244  80.465  53.875  1.00  0.00     0.142 A 
HETATM   38  C10 UNL     1      15.166  80.988  52.986  1.00  0.00     0.045 A 
HETATM   39  C11 UNL     1      14.507  81.219  51.798  1.00  0.00     0.027 A 
HETATM   40  C12 UNL     1      13.195  80.818  52.030  1.00  0.00     0.143 A 
HETATM   41  O3  UNL     1      13.112  80.391  53.254  1.00  0.00    -0.317 OA
ENDBRANCH  34  37
ENDBRANCH   4  33
TORSDOF 10
ENDMDL
MODEL 5
REMARK VINA RESULT: -8.367356399      3.041      8.233
REMARK  10 active torsions:
REMARK  status: ('A' for Active; 'I' for Inactive)
REMARK    1  A    between atoms: N1_1  and  C1_5 
REMARK    2  A    between atoms: C1_5  and  C2_6 
REMARK    3  A    between atoms: C2_6  and  N2_7 
REMARK    4  A    between atoms: C2_6  and  C20_39 
REMARK       I    between atoms: N2_7  and  C3_9 
REMARK    5  A    between atoms: C3_9  and  C4_11 
REMARK    6  A    between atoms: C7_14  and  N3_15 
REMARK       I    between atoms: N3_15  and  C8_17 
REMARK    7  A    between atoms: C8_17  and  C9_19 
REMARK    8  A    between atoms: C13_24  and  N4_25 
REMARK       I    between atoms: N4_25  and  C14_27 
REMARK       I    between atoms: C14_27  and  N5_29 
REMARK    9  A    between atoms: N5_29  and  C15_31 
REMARK   10  A    between atoms: C15_31  and  C16_32 
ROOT
HETATM    1  C4  UNL     1      16.600  75.875  58.784  1.00  0.00     0.034 A 
HETATM    2  C5  UNL     1      17.285  77.059  58.694  1.00  0.00     0.019 A 
HETATM    3  C6  UNL     1      16.750  78.176  58.042  1.00  0.00     0.033 A 
HETATM    4  C7  UNL     1      15.507  78.139  57.456  1.00  0.00     0.062 A 
HETATM    5  C13 UNL     1      14.773  76.930  57.532  1.00  0.00     0.064 A 
HETATM    6  C19 UNL     1      15.338  75.867  58.180  1.00  0.00     0.049 A 
ENDROOT
BRANCH   1   7
HETATM    7  C3  UNL     1      17.165  74.721  59.463  1.00  0.00     0.252 C 
HETATM    8  N2  UNL     1      17.665  74.747  60.775  1.00  0.00    -0.342 N 
ATOM      9  H2  UNL     1      17.632  75.626  61.290  1.00  0.00     0.163 HD
HETATM   10  O1  UNL     1      17.210  73.634  58.836  1.00  0.00    -0.268 OA
BRANCH   8  11
HETATM   11  C2  UNL     1      18.226  73.581  61.432  1.00  0.00     0.199 C 
BRANCH  11  12
HETATM   12  C1  UNL     1      19.693  73.412  61.112  1.00  0.00     0.264 C 
BRANCH  12  13
HETATM   13  N1  UNL     1      19.819  72.313  60.207  1.00  0.00    -0.077 N 
ATOM     14  H13 UNL     1      20.711  71.828  60.295  1.00  0.00     0.274 HD
ATOM     15  H12 UNL     1      19.214  71.529  60.449  1.00  0.00     0.274 HD
ATOM     16  H11 UNL     1      19.652  72.665  59.264  1.00  0.00     0.274 HD
ENDBRANCH  12  13
ENDBRANCH  11  12
BRANCH  11  17
HETATM   17  C20 UNL     1      18.061  73.632  62.897  1.00  0.00     0.255 C 
HETATM   18  N7  UNL     1      18.162  74.900  63.533  1.00  0.00    -0.060 NA
HETATM   19  O6  UNL     1      17.838  72.634  63.629  1.00  0.00    -0.275 OA
ENDBRANCH  11  17
ENDBRANCH   8  11
ENDBRANCH   1   7
BRANCH   5  20
HETATM   20  N4  UNL     1      13.471  76.928  56.988  1.00  0.00    -0.307 N 
HETATM   21  C14 UNL     1      12.501  75.896  57.166  1.00  0.00     0.320 C 
HETATM   22  O4  UNL     1      12.678  74.851  57.819  1.00  0.00    -0.247 OA
HETATM   23  N5  UNL     1      11.225  76.124  56.519  1.00  0.00    -0.340 N 
ATOM     24  H5  UNL     1      11.062  76.978  55.986  1.00  0.00     0.164 HD
ATOM     25  H4  UNL     1      13.200  77.731  56.421  1.00  0.00     0.170 HD
BRANCH  23  26
HETATM   26  C15 UNL     1      10.199  75.137  56.636  1.00  0.00     0.159 C 
BRANCH  26  27
HETATM   27  C16 UNL     1       9.177  75.550  57.633  1.00  0.00     0.174 C 
HETATM   28  C17 UNL     1       8.867  77.053  57.530  1.00  0.00     0.083 C 
HETATM   29  C18 UNL     1       8.479  77.332  58.933  1.00  0.00     0.089 C 
HETATM   30  N6  UNL     1       8.984  76.438  59.698  1.00  0.00    -0.281 N 
HETATM   31  O5  UNL     1       9.713  75.524  58.973  1.00  0.00    -0.274 OA
ATOM     32  H6  UNL     1       8.864  76.408  60.711  1.00  0.00     0.193 HD
ENDBRANCH  26  27
ENDBRANCH  23  26
ENDBRANCH   5  20
BRANCH   4  33
HETATM   33  N3  UNL     1      15.003  79.246  56.739  1.00  0.00    -0.319 N 
HETATM   34  C8  UNL     1      15.227  79.617  55.408  1.00  0.00     0.280 C 
HETATM   35  O2  UNL     1      15.953  78.981  54.620  1.00  0.00    -0.265 OA
ATOM     36  H3  UNL     1      14.388  79.864  57.267  1.00  0.00     0.169 HD
BRANCH  34  37
HETATM   37  C9  UNL     1      14.539  80.851  54.934  1.00  0.00     0.142 A 
HETATM   38  C10 UNL     1      13.638  81.570  55.697  1.00  0.00     0.045 A 
HETATM   39  C11 UNL     1      13.213  82.637  54.935  1.00  0.00     0.027 A 
HETATM   40  C12 UNL     1      13.889  82.508  53.725  1.00  0.00     0.143 A 
HETATM   41  O3  UNL     1      14.642  81.451  53.793  1.00  0.00    -0.317 OA
ENDBRANCH  34  37
ENDBRANCH   4  33
TORSDOF 10
ENDMDL
