MODEL 1
REMARK VINA RESULT: -8.079003235      0.000      0.000
REMARK  9 active torsions:
REMARK  status: ('A' for Active; 'I' for Inactive)
REMARK    1  A    between atoms: C2_2  and  C3_4 
REMARK    2  A    between atoms: C7_11  and  C8_12 
REMARK    3  A    between atoms: C9_15  and  C10_16 
REMARK       I    between atoms: C10_16  and  N4_18 
REMARK    4  A    between atoms: N4_18  and  C11_19 
REMARK    5  A    between atoms: N4_18  and  C13_25 
REMARK    6  A    between atoms: C11_19  and  C12_20 
REMARK    7  A    between atoms: C12_20  and  O4_21 
REMARK    8  A    between atoms: O4_21  and  N5_22 
REMARK    9  A    between atoms: C13_25  and  C14_26 
ROOT
HETATM    1  C10 UNL     1      17.652  74.250  57.918  1.00  0.00     0.259 C 
HETATM    2  O3  UNL     1      18.717  73.741  58.275  1.00  0.00    -0.267 OA
HETATM    3  N4  UNL     1      16.673  73.349  57.345  1.00  0.00    -0.323 N 
ENDROOT
BRANCH   3   4
HETATM    4  C11 UNL     1      15.388  73.859  56.909  1.00  0.00     0.160 C 
BRANCH   4   5
HETATM    5  C12 UNL     1      14.179  73.072  57.140  1.00  0.00     0.220 C 
BRANCH   5   6
HETATM    6  O4  UNL     1      13.258  73.211  56.058  1.00  0.00    -0.286 OA
BRANCH   6   7
HETATM    7  N5  UNL     1      12.589  72.079  55.857  1.00  0.00    -0.311 N 
ATOM      8  H52 UNL     1      11.625  71.929  56.154  1.00  0.00     0.184 HD
ATOM      9  H51 UNL     1      13.171  71.396  55.372  1.00  0.00     0.184 HD
ENDBRANCH   6   7
ENDBRANCH   5   6
ENDBRANCH   4   5
ENDBRANCH   3   4
BRANCH   3  10
HETATM   10  C13 UNL     1      16.996  72.000  57.088  1.00  0.00     0.099 C 
BRANCH  10  11
HETATM   11  C14 UNL     1      17.803  71.415  56.049  1.00  0.00     0.077 C 
HETATM   12  C15 UNL     1      19.118  72.020  55.666  1.00  0.00     0.039 C 
HETATM   13  C16 UNL     1      19.156  71.933  54.119  1.00  0.00     0.023 C 
HETATM   14  C17 UNL     1      17.718  72.426  53.870  1.00  0.00     0.129 C 
HETATM   15  N6  UNL     1      17.012  71.551  54.787  1.00  0.00    -0.319 N 
HETATM   16  C18 UNL     1      15.792  70.849  54.706  1.00  0.00     0.326 C 
HETATM   17  O5  UNL     1      14.815  71.310  54.022  1.00  0.00    -0.247 OA
HETATM   18  N7  UNL     1      15.635  69.619  55.382  1.00  0.00    -0.279 N 
HETATM   19  C19 UNL     1      16.761  69.146  56.136  1.00  0.00     0.228 C 
ATOM     20  H7  UNL     1      14.763  69.092  55.337  1.00  0.00     0.173 HD
HETATM   21  O6  UNL     1      16.704  68.085  56.810  1.00  0.00    -0.273 OA
HETATM   22  C20 UNL     1      18.036  69.903  56.142  1.00  0.00     0.140 C 
ENDBRANCH  10  11
ENDBRANCH   3  10
BRANCH   1  23
HETATM   23  C9  UNL     1      17.471  75.685  58.091  1.00  0.00     0.067 C 
HETATM   24  C3  UNL     1      17.591  76.261  59.419  1.00  0.00     0.048 C 
HETATM   25  C4  UNL     1      17.699  77.597  59.514  1.00  0.00     0.021 C 
HETATM   26  C5  UNL     1      17.708  78.268  60.855  1.00  0.00     0.069 C 
HETATM   27  N1  UNL     1      17.943  78.434  58.384  1.00  0.00    -0.347 N 
HETATM   28  C6  UNL     1      18.067  77.810  57.133  1.00  0.00     0.133 C 
ATOM     29  H1  UNL     1      18.023  79.446  58.481  1.00  0.00     0.167 HD
HETATM   30  N2  UNL     1      18.337  78.698  56.020  1.00  0.00    -0.082 NA
HETATM   31  C7  UNL     1      17.946  76.499  56.977  1.00  0.00     0.087 C 
BRANCH  24  32
HETATM   32  C2  UNL     1      17.499  75.518  60.697  1.00  0.00     0.158 C 
HETATM   33  C1  UNL     1      18.595  74.907  61.450  1.00  0.00     0.097 C 
HETATM   34  O1  UNL     1      16.349  75.374  61.244  1.00  0.00    -0.293 OA
ENDBRANCH  24  32
BRANCH  31  35
HETATM   35  C8  UNL     1      18.142  76.068  55.606  1.00  0.00     0.269 C 
HETATM   36  N3  UNL     1      19.366  75.697  55.070  1.00  0.00    -0.057 NA
HETATM   37  O2  UNL     1      17.163  76.015  54.816  1.00  0.00    -0.271 OA
ENDBRANCH  31  35
ENDBRANCH   1  23
TORSDOF 9
ENDMDL
MODEL 2
REMARK VINA RESULT: -8.016155900      1.808      2.203
REMARK  9 active torsions:
REMARK  status: ('A' for Active; 'I' for Inactive)
REMARK    1  A    between atoms: C2_2  and  C3_4 
REMARK    2  A    between atoms: C7_11  and  C8_12 
REMARK    3  A    between atoms: C9_15  and  C10_16 
REMARK       I    between atoms: C10_16  and  N4_18 
REMARK    4  A    between atoms: N4_18  and  C11_19 
REMARK    5  A    between atoms: N4_18  and  C13_25 
REMARK    6  A    between atoms: C11_19  and  C12_20 
REMARK    7  A    between atoms: C12_20  and  O4_21 
REMARK    8  A    between atoms: O4_21  and  N5_22 
REMARK    9  A    between atoms: C13_25  and  C14_26 
ROOT
HETATM    1  C10 UNL     1      18.427  73.984  56.314  1.00  0.00     0.259 C 
HETATM    2  O3  UNL     1      19.647  73.875  56.167  1.00  0.00    -0.267 OA
HETATM    3  N4  UNL     1      17.605  73.120  55.493  1.00  0.00    -0.323 N 
ENDROOT
BRANCH   3   4
HETATM    4  C11 UNL     1      16.160  73.172  55.606  1.00  0.00     0.160 C 
BRANCH   4   5
HETATM    5  C12 UNL     1      15.332  73.027  54.412  1.00  0.00     0.220 C 
BRANCH   5   6
HETATM    6  O4  UNL     1      14.386  71.969  54.565  1.00  0.00    -0.286 OA
BRANCH   6   7
HETATM    7  N5  UNL     1      14.092  71.781  55.849  1.00  0.00    -0.311 N 
ATOM      8  H52 UNL     1      13.229  72.103  56.287  1.00  0.00     0.184 HD
ATOM      9  H51 UNL     1      14.842  71.277  56.322  1.00  0.00     0.184 HD
ENDBRANCH   6   7
ENDBRANCH   5   6
ENDBRANCH   4   5
ENDBRANCH   3   4
BRANCH   3  10
HETATM   10  C13 UNL     1      18.182  72.313  54.490  1.00  0.00     0.099 C 
BRANCH  10  11
HETATM   11  C14 UNL     1      18.880  71.057  54.589  1.00  0.00     0.077 C 
HETATM   12  C15 UNL     1      20.372  71.016  54.720  1.00  0.00     0.039 C 
HETATM   13  C16 UNL     1      20.815  69.846  53.806  1.00  0.00     0.023 C 
HETATM   14  C17 UNL     1      19.927  70.205  52.600  1.00  0.00     0.129 C 
HETATM   15  N6  UNL     1      18.658  70.359  53.285  1.00  0.00    -0.319 N 
HETATM   16  C18 UNL     1      17.336  69.987  52.964  1.00  0.00     0.326 C 
HETATM   17  O5  UNL     1      16.944  69.950  51.747  1.00  0.00    -0.247 OA
HETATM   18  N7  UNL     1      16.425  69.649  53.988  1.00  0.00    -0.279 N 
HETATM   19  C19 UNL     1      16.915  69.708  55.336  1.00  0.00     0.228 C 
ATOM     20  H7  UNL     1      15.465  69.376  53.780  1.00  0.00     0.173 HD
HETATM   21  O6  UNL     1      16.168  69.469  56.319  1.00  0.00    -0.273 OA
HETATM   22  C20 UNL     1      18.331  70.054  55.609  1.00  0.00     0.140 C 
ENDBRANCH  10  11
ENDBRANCH   3  10
BRANCH   1  23
HETATM   23  C9  UNL     1      17.923  74.958  57.273  1.00  0.00     0.067 C 
HETATM   24  C3  UNL     1      17.967  74.645  58.692  1.00  0.00     0.048 C 
HETATM   25  C4  UNL     1      17.763  75.650  59.560  1.00  0.00     0.021 C 
HETATM   26  C5  UNL     1      17.678  75.380  61.032  1.00  0.00     0.069 C 
HETATM   27  N1  UNL     1      17.749  77.021  59.164  1.00  0.00    -0.347 N 
HETATM   28  C6  UNL     1      17.957  77.303  57.805  1.00  0.00     0.133 C 
ATOM     29  H1  UNL     1      17.594  77.767  59.842  1.00  0.00     0.167 HD
HETATM   30  N2  UNL     1      17.958  78.710  57.456  1.00  0.00    -0.082 NA
HETATM   31  C7  UNL     1      18.140  76.352  56.900  1.00  0.00     0.087 C 
BRANCH  24  32
HETATM   32  C2  UNL     1      18.112  73.293  59.276  1.00  0.00     0.158 C 
HETATM   33  C1  UNL     1      19.347  72.647  59.724  1.00  0.00     0.097 C 
HETATM   34  O1  UNL     1      17.064  72.571  59.430  1.00  0.00    -0.293 OA
ENDBRANCH  24  32
BRANCH  31  35
HETATM   35  C8  UNL     1      18.366  76.870  55.565  1.00  0.00     0.269 C 
HETATM   36  N3  UNL     1      17.363  77.098  54.635  1.00  0.00    -0.057 NA
HETATM   37  O2  UNL     1      19.535  77.141  55.184  1.00  0.00    -0.271 OA
ENDBRANCH  31  35
ENDBRANCH   1  23
TORSDOF 9
ENDMDL
MODEL 3
REMARK VINA RESULT: -7.792629016      2.047      7.007
REMARK  9 active torsions:
REMARK  status: ('A' for Active; 'I' for Inactive)
REMARK    1  A    between atoms: C2_2  and  C3_4 
REMARK    2  A    between atoms: C7_11  and  C8_12 
REMARK    3  A    between atoms: C9_15  and  C10_16 
REMARK       I    between atoms: C10_16  and  N4_18 
REMARK    4  A    between atoms: N4_18  and  C11_19 
REMARK    5  A    between atoms: N4_18  and  C13_25 
REMARK    6  A    between atoms: C11_19  and  C12_20 
REMARK    7  A    between atoms: C12_20  and  O4_21 
REMARK    8  A    between atoms: O4_21  and  N5_22 
REMARK    9  A    between atoms: C13_25  and  C14_26 
ROOT
HETATM    1  C10 UNL     1      17.819  73.683  55.823  1.00  0.00     0.259 C 
HETATM    2  O3  UNL     1      17.411  74.568  55.066  1.00  0.00    -0.267 OA
HETATM    3  N4  UNL     1      17.986  74.057  57.212  1.00  0.00    -0.323 N 
ENDROOT
BRANCH   3   4
HETATM    4  C11 UNL     1      18.450  73.078  58.175  1.00  0.00     0.160 C 
BRANCH   4   5
HETATM    5  C12 UNL     1      18.746  73.491  59.545  1.00  0.00     0.220 C 
BRANCH   5   6
HETATM    6  O4  UNL     1      17.677  73.149  60.429  1.00  0.00    -0.286 OA
BRANCH   6   7
HETATM    7  N5  UNL     1      16.661  72.615  59.756  1.00  0.00    -0.311 N 
ATOM      8  H52 UNL     1      16.726  71.746  59.226  1.00  0.00     0.184 HD
ATOM      9  H51 UNL     1      15.824  73.190  59.848  1.00  0.00     0.184 HD
ENDBRANCH   6   7
ENDBRANCH   5   6
ENDBRANCH   4   5
ENDBRANCH   3   4
BRANCH   3  10
HETATM   10  C13 UNL     1      17.825  75.397  57.624  1.00  0.00     0.099 C 
BRANCH  10  11
HETATM   11  C14 UNL     1      16.639  76.121  58.002  1.00  0.00     0.077 C 
HETATM   12  C15 UNL     1      15.277  75.556  57.738  1.00  0.00     0.039 C 
HETATM   13  C16 UNL     1      14.437  76.765  57.253  1.00  0.00     0.023 C 
HETATM   14  C17 UNL     1      15.485  77.343  56.283  1.00  0.00     0.129 C 
HETATM   15  N6  UNL     1      16.633  77.364  57.170  1.00  0.00    -0.319 N 
HETATM   16  C18 UNL     1      17.677  78.290  57.375  1.00  0.00     0.326 C 
HETATM   17  O5  UNL     1      18.107  79.016  56.415  1.00  0.00    -0.247 OA
HETATM   18  N7  UNL     1      18.261  78.427  58.654  1.00  0.00    -0.279 N 
HETATM   19  C19 UNL     1      17.743  77.589  59.697  1.00  0.00     0.228 C 
ATOM     20  H7  UNL     1      19.016  79.091  58.827  1.00  0.00     0.173 HD
HETATM   21  O6  UNL     1      18.228  77.605  60.857  1.00  0.00    -0.273 OA
HETATM   22  C20 UNL     1      16.608  76.671  59.432  1.00  0.00     0.140 C 
ENDBRANCH  10  11
ENDBRANCH   3  10
BRANCH   1  23
HETATM   23  C9  UNL     1      18.100  72.365  55.270  1.00  0.00     0.067 C 
HETATM   24  C3  UNL     1      19.480  71.965  55.054  1.00  0.00     0.048 C 
HETATM   25  C4  UNL     1      19.724  70.666  54.813  1.00  0.00     0.021 C 
HETATM   26  C5  UNL     1      21.107  70.201  54.466  1.00  0.00     0.069 C 
HETATM   27  N1  UNL     1      18.741  69.648  54.998  1.00  0.00    -0.347 N 
HETATM   28  C6  UNL     1      17.473  70.050  55.449  1.00  0.00     0.133 C 
ATOM     29  H1  UNL     1      18.950  68.668  54.811  1.00  0.00     0.167 HD
HETATM   30  N2  UNL     1      16.516  68.979  55.645  1.00  0.00    -0.082 NA
HETATM   31  C7  UNL     1      17.169  71.319  55.680  1.00  0.00     0.087 C 
BRANCH  24  32
HETATM   32  C2  UNL     1      20.643  72.878  54.970  1.00  0.00     0.158 C 
HETATM   33  C1  UNL     1      21.060  73.681  53.819  1.00  0.00     0.097 C 
HETATM   34  O1  UNL     1      21.395  73.014  55.998  1.00  0.00    -0.293 OA
ENDBRANCH  24  32
BRANCH  31  35
HETATM   35  C8  UNL     1      15.816  71.501  56.168  1.00  0.00     0.269 C 
HETATM   36  N3  UNL     1      14.732  71.820  55.364  1.00  0.00    -0.057 NA
HETATM   37  O2  UNL     1      15.565  71.373  57.395  1.00  0.00    -0.271 OA
ENDBRANCH  31  35
ENDBRANCH   1  23
TORSDOF 9
ENDMDL
MODEL 4
REMARK VINA RESULT: -7.775367766      2.313      4.512
REMARK  9 active torsions:
REMARK  status: ('A' for Active; 'I' for Inactive)
REMARK    1  A    between atoms: C2_2  and  C3_4 
REMARK    2  A    between atoms: C7_11  and  C8_12 
REMARK    3  A    between atoms: C9_15  and  C10_16 
REMARK       I    between atoms: C10_16  and  N4_18 
REMARK    4  A    between atoms: N4_18  and  C11_19 
REMARK    5  A    between atoms: N4_18  and  C13_25 
REMARK    6  A    between atoms: C11_19  and  C12_20 
REMARK    7  A    between atoms: C12_20  and  O4_21 
REMARK    8  A    between atoms: O4_21  and  N5_22 
REMARK    9  A    between atoms: C13_25  and  C14_26 
ROOT
HETATM    1  C10 UNL     1      18.099  73.955  56.194  1.00  0.00     0.259 C 
HETATM    2  O3  UNL     1      16.970  73.495  56.006  1.00  0.00    -0.267 OA
HETATM    3  N4  UNL     1      19.154  73.419  55.359  1.00  0.00    -0.323 N 
ENDROOT
BRANCH   3   4
HETATM    4  C11 UNL     1      20.511  73.910  55.501  1.00  0.00     0.160 C 
BRANCH   4   5
HETATM    5  C12 UNL     1      21.166  74.572  54.376  1.00  0.00     0.220 C 
BRANCH   5   6
HETATM    6  O4  UNL     1      22.274  75.359  54.814  1.00  0.00    -0.286 OA
BRANCH   6   7
HETATM    7  N5  UNL     1      21.855  76.450  55.450  1.00  0.00    -0.311 N 
ATOM      8  H52 UNL     1      21.151  76.442  56.188  1.00  0.00     0.184 HD
ATOM      9  H51 UNL     1      22.333  77.280  55.098  1.00  0.00     0.184 HD
ENDBRANCH   6   7
ENDBRANCH   5   6
ENDBRANCH   4   5
ENDBRANCH   3   4
BRANCH   3  10
HETATM   10  C13 UNL     1      18.908  72.336  54.489  1.00  0.00     0.099 C 
BRANCH  10  11
HETATM   11  C14 UNL     1      19.269  70.946  54.603  1.00  0.00     0.077 C 
HETATM   12  C15 UNL     1      20.705  70.530  54.678  1.00  0.00     0.039 C 
HETATM   13  C16 UNL     1      20.796  69.265  53.787  1.00  0.00     0.023 C 
HETATM   14  C17 UNL     1      19.974  69.811  52.605  1.00  0.00     0.129 C 
HETATM   15  N6  UNL     1      18.817  70.298  53.333  1.00  0.00    -0.319 N 
HETATM   16  C18 UNL     1      17.431  70.269  53.075  1.00  0.00     0.326 C 
HETATM   17  O5  UNL     1      16.987  70.305  51.877  1.00  0.00    -0.247 OA
HETATM   18  N7  UNL     1      16.512  70.197  54.145  1.00  0.00    -0.279 N 
HETATM   19  C19 UNL     1      17.062  70.159  55.470  1.00  0.00     0.228 C 
ATOM     20  H7  UNL     1      15.505  70.172  53.983  1.00  0.00     0.173 HD
HETATM   21  O6  UNL     1      16.324  70.140  56.489  1.00  0.00    -0.273 OA
HETATM   22  C20 UNL     1      18.530  70.140  55.677  1.00  0.00     0.140 C 
ENDBRANCH  10  11
ENDBRANCH   3  10
BRANCH   1  23
HETATM   23  C9  UNL     1      18.278  74.970  57.223  1.00  0.00     0.067 C 
HETATM   24  C3  UNL     1      18.002  76.361  56.905  1.00  0.00     0.048 C 
HETATM   25  C4  UNL     1      17.902  77.228  57.926  1.00  0.00     0.021 C 
HETATM   26  C5  UNL     1      17.736  78.696  57.666  1.00  0.00     0.069 C 
HETATM   27  N1  UNL     1      17.815  76.810  59.288  1.00  0.00    -0.347 N 
HETATM   28  C6  UNL     1      17.839  75.430  59.543  1.00  0.00     0.133 C 
ATOM     29  H1  UNL     1      17.738  77.488  60.046  1.00  0.00     0.167 HD
HETATM   30  N2  UNL     1      17.724  75.055  60.938  1.00  0.00    -0.082 NA
HETATM   31  C7  UNL     1      17.959  74.530  58.577  1.00  0.00     0.087 C 
BRANCH  24  32
HETATM   32  C2  UNL     1      17.922  76.937  55.543  1.00  0.00     0.158 C 
HETATM   33  C1  UNL     1      16.721  77.132  54.730  1.00  0.00     0.097 C 
HETATM   34  O1  UNL     1      19.002  77.329  54.975  1.00  0.00    -0.293 OA
ENDBRANCH  24  32
BRANCH  31  35
HETATM   35  C8  UNL     1      17.930  73.164  59.064  1.00  0.00     0.269 C 
HETATM   36  N3  UNL     1      19.058  72.433  59.407  1.00  0.00    -0.057 NA
HETATM   37  O2  UNL     1      16.831  72.565  59.196  1.00  0.00    -0.271 OA
ENDBRANCH  31  35
ENDBRANCH   1  23
TORSDOF 9
ENDMDL
MODEL 5
REMARK VINA RESULT: -7.768160788      2.290      6.872
REMARK  9 active torsions:
REMARK  status: ('A' for Active; 'I' for Inactive)
REMARK    1  A    between atoms: C2_2  and  C3_4 
REMARK    2  A    between atoms: C7_11  and  C8_12 
REMARK    3  A    between atoms: C9_15  and  C10_16 
REMARK       I    between atoms: C10_16  and  N4_18 
REMARK    4  A    between atoms: N4_18  and  C11_19 
REMARK    5  A    between atoms: N4_18  and  C13_25 
REMARK    6  A    between atoms: C11_19  and  C12_20 
REMARK    7  A    between atoms: C12_20  and  O4_21 
REMARK    8  A    between atoms: O4_21  and  N5_22 
REMARK    9  A    between atoms: C13_25  and  C14_26 
ROOT
HETATM    1  C10 UNL     1      18.109  73.583  56.351  1.00  0.00     0.259 C 
HETATM    2  O3  UNL     1      17.817  74.313  55.401  1.00  0.00    -0.267 OA
HETATM    3  N4  UNL     1      18.109  74.205  57.658  1.00  0.00    -0.323 N 
ENDROOT
BRANCH   3   4
HETATM    4  C11 UNL     1      18.429  73.419  58.835  1.00  0.00     0.160 C 
BRANCH   4   5
HETATM    5  C12 UNL     1      17.369  73.047  59.769  1.00  0.00     0.220 C 
BRANCH   5   6
HETATM    6  O4  UNL     1      17.486  73.770  60.995  1.00  0.00    -0.286 OA
BRANCH   6   7
HETATM    7  N5  UNL     1      16.611  73.323  61.892  1.00  0.00    -0.311 N 
ATOM      8  H52 UNL     1      15.767  73.829  62.162  1.00  0.00     0.184 HD
ATOM      9  H51 UNL     1      16.901  72.419  62.262  1.00  0.00     0.184 HD
ENDBRANCH   6   7
ENDBRANCH   5   6
ENDBRANCH   4   5
ENDBRANCH   3   4
BRANCH   3  10
HETATM   10  C13 UNL     1      17.924  75.597  57.797  1.00  0.00     0.099 C 
BRANCH  10  11
HETATM   11  C14 UNL     1      16.744  76.354  58.126  1.00  0.00     0.077 C 
HETATM   12  C15 UNL     1      15.380  75.759  57.964  1.00  0.00     0.039 C 
HETATM   13  C16 UNL     1      14.519  76.904  57.373  1.00  0.00     0.023 C 
HETATM   14  C17 UNL     1      15.536  77.377  56.318  1.00  0.00     0.129 C 
HETATM   15  N6  UNL     1      16.707  77.498  57.164  1.00  0.00    -0.319 N 
HETATM   16  C18 UNL     1      17.750  78.445  57.239  1.00  0.00     0.326 C 
HETATM   17  O5  UNL     1      18.150  79.063  56.194  1.00  0.00    -0.247 OA
HETATM   18  N7  UNL     1      18.369  78.723  58.478  1.00  0.00    -0.279 N 
HETATM   19  C19 UNL     1      17.884  78.001  59.620  1.00  0.00     0.228 C 
ATOM     20  H7  UNL     1      19.123  79.404  58.557  1.00  0.00     0.173 HD
HETATM   21  O6  UNL     1      18.400  78.145  60.758  1.00  0.00    -0.273 OA
HETATM   22  C20 UNL     1      16.748  77.056  59.489  1.00  0.00     0.140 C 
ENDBRANCH  10  11
ENDBRANCH   3  10
BRANCH   1  23
HETATM   23  C9  UNL     1      18.431  72.187  56.086  1.00  0.00     0.067 C 
HETATM   24  C3  UNL     1      17.352  71.233  55.893  1.00  0.00     0.048 C 
HETATM   25  C4  UNL     1      17.663  70.032  55.380  1.00  0.00     0.021 C 
HETATM   26  C5  UNL     1      16.622  68.959  55.263  1.00  0.00     0.069 C 
HETATM   27  N1  UNL     1      18.936  69.746  54.802  1.00  0.00    -0.347 N 
HETATM   28  C6  UNL     1      19.885  70.781  54.784  1.00  0.00     0.133 C 
ATOM     29  H1  UNL     1      19.149  68.826  54.417  1.00  0.00     0.167 HD
HETATM   30  N2  UNL     1      21.153  70.449  54.166  1.00  0.00    -0.082 NA
HETATM   31  C7  UNL     1      19.641  71.978  55.297  1.00  0.00     0.087 C 
BRANCH  24  32
HETATM   32  C2  UNL     1      15.944  71.424  56.310  1.00  0.00     0.158 C 
HETATM   33  C1  UNL     1      14.820  71.850  55.474  1.00  0.00     0.097 C 
HETATM   34  O1  UNL     1      15.626  71.197  57.530  1.00  0.00    -0.293 OA
ENDBRANCH  24  32
BRANCH  31  35
HETATM   35  C8  UNL     1      20.749  72.901  55.143  1.00  0.00     0.269 C 
HETATM   36  N3  UNL     1      20.940  73.714  54.036  1.00  0.00    -0.057 NA
HETATM   37  O2  UNL     1      21.618  72.999  56.048  1.00  0.00    -0.271 OA
ENDBRANCH  31  35
ENDBRANCH   1  23
TORSDOF 9
ENDMDL
