MODEL 1
REMARK VINA RESULT: -9.177182723      0.000      0.000
REMARK  6 active torsions:
REMARK  status: ('A' for Active; 'I' for Inactive)
REMARK    1  A    between atoms: C4_5  and  C5_6 
REMARK    2  A    between atoms: N2_8  and  C7_9 
REMARK    3  A    between atoms: C7_9  and  C8_10 
REMARK    4  A    between atoms: C12_16  and  C13_17 
REMARK    5  A    between atoms: C13_17  and  C14_18 
REMARK       I    between atoms: C14_18  and  N3_20 
REMARK    6  A    between atoms: N3_20  and  C15_22 
ROOT
HETATM    1  N1  UNL     1      14.331  77.800  57.501  1.00  0.00    -0.191 NA
HETATM    2  C1  UNL     1      15.048  77.084  58.057  1.00  0.00     0.099 C 
HETATM    3  C2  UNL     1      15.967  76.182  58.738  1.00  0.00     0.046 A 
HETATM    4  C3  UNL     1      16.247  74.934  58.214  1.00  0.00     0.033 A 
HETATM    5  C4  UNL     1      17.095  74.024  58.785  1.00  0.00    -0.015 A 
HETATM    6  C19 UNL     1      17.704  74.407  59.972  1.00  0.00    -0.017 A 
HETATM    7  C20 UNL     1      18.585  73.628  60.677  1.00  0.00     0.013 A 
HETATM    8  C21 UNL     1      19.194  74.030  61.868  1.00  0.00     0.001 A 
HETATM    9  C22 UNL     1      18.910  75.264  62.376  1.00  0.00     0.001 A 
HETATM   10  C23 UNL     1      18.031  76.090  61.711  1.00  0.00     0.012 A 
HETATM   11  C24 UNL     1      17.435  75.667  60.521  1.00  0.00    -0.024 A 
HETATM   12  C25 UNL     1      16.575  76.551  59.914  1.00  0.00     0.035 A 
ENDROOT
BRANCH   5  13
HETATM   13  C5  UNL     1      17.388  72.688  58.252  1.00  0.00     0.194 C 
HETATM   14  C6  UNL     1      18.114  72.609  56.973  1.00  0.00     0.311 C 
HETATM   15  N2  UNL     1      17.388  72.341  55.790  1.00  0.00     0.110 N 
HETATM   16  C12 UNL     1      15.979  72.429  55.820  1.00  0.00     0.330 C 
HETATM   17  C18 UNL     1      15.331  72.268  57.129  1.00  0.00     0.293 C 
HETATM   18  O2  UNL     1      14.097  72.364  57.223  1.00  0.00    -0.263 OA
HETATM   19  O3  UNL     1      16.114  72.018  58.203  1.00  0.00    -0.308 OA
BRANCH  15  20
HETATM   20  C7  UNL     1      17.824  73.224  54.676  1.00  0.00     0.320 C 
BRANCH  20  21
HETATM   21  C8  UNL     1      18.052  74.621  55.182  1.00  0.00     0.012 A 
HETATM   22  C9  UNL     1      19.120  75.093  55.896  1.00  0.00     0.018 A 
HETATM   23  C10 UNL     1      19.112  76.386  56.238  1.00  0.00     0.032 A 
HETATM   24  C11 UNL     1      18.033  77.135  55.845  1.00  0.00     0.075 A 
HETATM   25 CL1  UNL     1      17.744  78.856  56.146  1.00  0.00    -0.076 Cl
HETATM   26  S1  UNL     1      17.070  75.998  55.012  1.00  0.00    -0.081 SA
ENDBRANCH  20  21
ENDBRANCH  15  20
BRANCH  16  27
HETATM   27  C13 UNL     1      15.265  71.504  54.835  1.00  0.00     0.149 C 
BRANCH  27  28
HETATM   28  C14 UNL     1      14.332  72.170  53.942  1.00  0.00     0.220 C 
HETATM   29  O1  UNL     1      13.415  71.580  53.337  1.00  0.00    -0.274 OA
HETATM   30  N3  UNL     1      14.441  73.568  53.723  1.00  0.00    -0.356 N 
ATOM     31  H3  UNL     1      15.183  74.076  54.206  1.00  0.00     0.162 HD
BRANCH  30  32
HETATM   32  C15 UNL     1      13.557  74.313  52.851  1.00  0.00     0.084 A 
HETATM   33  C16 UNL     1      14.086  75.613  52.261  1.00  0.00     0.027 A 
HETATM   34  C17 UNL     1      13.063  75.659  53.377  1.00  0.00     0.027 A 
ENDBRANCH  30  32
ENDBRANCH  27  28
ENDBRANCH  16  27
ENDBRANCH   5  13
TORSDOF 6
ENDMDL
MODEL 2
REMARK VINA RESULT: -9.095409940      2.284      2.664
REMARK  6 active torsions:
REMARK  status: ('A' for Active; 'I' for Inactive)
REMARK    1  A    between atoms: C4_5  and  C5_6 
REMARK    2  A    between atoms: N2_8  and  C7_9 
REMARK    3  A    between atoms: C7_9  and  C8_10 
REMARK    4  A    between atoms: C12_16  and  C13_17 
REMARK    5  A    between atoms: C13_17  and  C14_18 
REMARK       I    between atoms: C14_18  and  N3_20 
REMARK    6  A    between atoms: N3_20  and  C15_22 
ROOT
HETATM    1  N1  UNL     1      15.100  78.367  58.065  1.00  0.00    -0.191 NA
HETATM    2  C1  UNL     1      15.761  77.486  58.412  1.00  0.00     0.099 C 
HETATM    3  C2  UNL     1      16.613  76.381  58.833  1.00  0.00     0.046 A 
HETATM    4  C3  UNL     1      17.067  75.452  57.917  1.00  0.00     0.033 A 
HETATM    5  C4  UNL     1      17.869  74.386  58.223  1.00  0.00    -0.015 A 
HETATM    6  C19 UNL     1      18.237  74.253  59.554  1.00  0.00    -0.017 A 
HETATM    7  C20 UNL     1      19.039  73.251  60.040  1.00  0.00     0.013 A 
HETATM    8  C21 UNL     1      19.404  73.134  61.383  1.00  0.00     0.001 A 
HETATM    9  C22 UNL     1      18.950  74.056  62.279  1.00  0.00     0.001 A 
HETATM   10  C23 UNL     1      18.140  75.084  61.848  1.00  0.00     0.012 A 
HETATM   11  C24 UNL     1      17.787  75.182  60.501  1.00  0.00    -0.024 A 
HETATM   12  C25 UNL     1      16.982  76.239  60.149  1.00  0.00     0.035 A 
ENDROOT
BRANCH   5  13
HETATM   13  C5  UNL     1      18.344  73.380  57.265  1.00  0.00     0.194 C 
HETATM   14  C6  UNL     1      18.286  73.721  55.834  1.00  0.00     0.311 C 
HETATM   15  N2  UNL     1      17.232  73.198  55.049  1.00  0.00     0.110 N 
HETATM   16  C12 UNL     1      16.130  72.602  55.699  1.00  0.00     0.330 C 
HETATM   17  C18 UNL     1      16.357  72.087  57.055  1.00  0.00     0.293 C 
HETATM   18  O2  UNL     1      15.417  71.578  57.688  1.00  0.00    -0.263 OA
HETATM   19  O3  UNL     1      17.601  72.187  57.577  1.00  0.00    -0.308 OA
BRANCH  15  20
HETATM   20  C7  UNL     1      16.661  74.237  54.152  1.00  0.00     0.320 C 
BRANCH  20  21
HETATM   21  C8  UNL     1      17.409  74.264  52.849  1.00  0.00     0.012 A 
HETATM   22  C9  UNL     1      18.293  73.337  52.368  1.00  0.00     0.018 A 
HETATM   23  C10 UNL     1      18.841  73.569  51.170  1.00  0.00     0.032 A 
HETATM   24  C11 UNL     1      18.472  74.718  50.520  1.00  0.00     0.075 A 
HETATM   25 CL1  UNL     1      19.022  75.290  48.936  1.00  0.00    -0.076 Cl
HETATM   26  S1  UNL     1      17.372  75.431  51.613  1.00  0.00    -0.081 SA
ENDBRANCH  20  21
ENDBRANCH  15  20
BRANCH  16  27
HETATM   27  C13 UNL     1      15.442  71.499  54.894  1.00  0.00     0.149 C 
BRANCH  27  28
HETATM   28  C14 UNL     1      14.048  71.759  54.573  1.00  0.00     0.220 C 
HETATM   29  O1  UNL     1      13.473  71.291  53.571  1.00  0.00    -0.274 OA
HETATM   30  N3  UNL     1      13.271  72.586  55.425  1.00  0.00    -0.356 N 
ATOM     31  H3  UNL     1      13.718  72.982  56.253  1.00  0.00     0.162 HD
BRANCH  30  32
HETATM   32  C15 UNL     1      11.877  72.899  55.183  1.00  0.00     0.084 A 
HETATM   33  C16 UNL     1      11.573  74.128  54.338  1.00  0.00     0.027 A 
HETATM   34  C17 UNL     1      11.346  74.174  55.835  1.00  0.00     0.027 A 
ENDBRANCH  30  32
ENDBRANCH  27  28
ENDBRANCH  16  27
ENDBRANCH   5  13
TORSDOF 6
ENDMDL
MODEL 3
REMARK VINA RESULT: -9.065737299      3.200      3.869
REMARK  6 active torsions:
REMARK  status: ('A' for Active; 'I' for Inactive)
REMARK    1  A    between atoms: C4_5  and  C5_6 
REMARK    2  A    between atoms: N2_8  and  C7_9 
REMARK    3  A    between atoms: C7_9  and  C8_10 
REMARK    4  A    between atoms: C12_16  and  C13_17 
REMARK    5  A    between atoms: C13_17  and  C14_18 
REMARK       I    between atoms: C14_18  and  N3_20 
REMARK    6  A    between atoms: N3_20  and  C15_22 
ROOT
HETATM    1  N1  UNL     1      18.297  77.766  54.482  1.00  0.00    -0.191 NA
HETATM    2  C1  UNL     1      18.205  77.258  55.515  1.00  0.00     0.099 C 
HETATM    3  C2  UNL     1      18.113  76.610  56.817  1.00  0.00     0.046 A 
HETATM    4  C3  UNL     1      18.290  75.244  56.938  1.00  0.00     0.033 A 
HETATM    5  C4  UNL     1      18.221  74.553  58.117  1.00  0.00    -0.015 A 
HETATM    6  C19 UNL     1      17.955  75.300  59.256  1.00  0.00    -0.017 A 
HETATM    7  C20 UNL     1      17.857  74.777  60.520  1.00  0.00     0.013 A 
HETATM    8  C21 UNL     1      17.593  75.544  61.657  1.00  0.00     0.001 A 
HETATM    9  C22 UNL     1      17.419  76.890  61.527  1.00  0.00     0.001 A 
HETATM   10  C23 UNL     1      17.506  77.471  60.281  1.00  0.00     0.012 A 
HETATM   11  C24 UNL     1      17.771  76.685  59.157  1.00  0.00    -0.024 A 
HETATM   12  C25 UNL     1      17.849  77.340  57.951  1.00  0.00     0.035 A 
ENDROOT
BRANCH   5  13
HETATM   13  C5  UNL     1      18.388  73.102  58.260  1.00  0.00     0.194 C 
HETATM   14  C6  UNL     1      19.086  72.386  57.178  1.00  0.00     0.311 C 
HETATM   15  N2  UNL     1      18.321  71.670  56.229  1.00  0.00     0.110 N 
HETATM   16  C12 UNL     1      16.926  71.881  56.177  1.00  0.00     0.330 C 
HETATM   17  C18 UNL     1      16.286  72.392  57.396  1.00  0.00     0.293 C 
HETATM   18  O2  UNL     1      15.066  72.625  57.403  1.00  0.00    -0.263 OA
HETATM   19  O3  UNL     1      17.060  72.595  58.488  1.00  0.00    -0.308 OA
BRANCH  15  20
HETATM   20  C7  UNL     1      18.818  71.906  54.847  1.00  0.00     0.320 C 
BRANCH  20  21
HETATM   21  C8  UNL     1      20.007  71.031  54.568  1.00  0.00     0.012 A 
HETATM   22  C9  UNL     1      20.079  69.666  54.628  1.00  0.00     0.018 A 
HETATM   23  C10 UNL     1      21.252  69.095  54.331  1.00  0.00     0.032 A 
HETATM   24  C11 UNL     1      22.289  69.925  53.990  1.00  0.00     0.075 A 
HETATM   25 CL1  UNL     1      23.942  69.467  53.550  1.00  0.00    -0.076 Cl
HETATM   26  S1  UNL     1      21.581  71.475  54.099  1.00  0.00    -0.081 SA
ENDBRANCH  20  21
ENDBRANCH  15  20
BRANCH  16  27
HETATM   27  C13 UNL     1      16.120  70.672  55.703  1.00  0.00     0.149 C 
BRANCH  27  28
HETATM   28  C14 UNL     1      15.219  70.939  54.594  1.00  0.00     0.220 C 
HETATM   29  O1  UNL     1      15.478  70.646  53.409  1.00  0.00    -0.274 OA
HETATM   30  N3  UNL     1      13.969  71.566  54.835  1.00  0.00    -0.356 N 
ATOM     31  H3  UNL     1      13.732  71.817  55.795  1.00  0.00     0.162 HD
BRANCH  30  32
HETATM   32  C15 UNL     1      13.011  71.870  53.791  1.00  0.00     0.084 A 
HETATM   33  C16 UNL     1      13.092  73.247  53.147  1.00  0.00     0.027 A 
HETATM   34  C17 UNL     1      11.971  72.940  54.118  1.00  0.00     0.027 A 
ENDBRANCH  30  32
ENDBRANCH  27  28
ENDBRANCH  16  27
ENDBRANCH   5  13
TORSDOF 6
ENDMDL
MODEL 4
REMARK VINA RESULT: -9.061080952      3.595      5.488
REMARK  6 active torsions:
REMARK  status: ('A' for Active; 'I' for Inactive)
REMARK    1  A    between atoms: C4_5  and  C5_6 
REMARK    2  A    between atoms: N2_8  and  C7_9 
REMARK    3  A    between atoms: C7_9  and  C8_10 
REMARK    4  A    between atoms: C12_16  and  C13_17 
REMARK    5  A    between atoms: C13_17  and  C14_18 
REMARK       I    between atoms: C14_18  and  N3_20 
REMARK    6  A    between atoms: N3_20  and  C15_22 
ROOT
HETATM    1  N1  UNL     1      19.499  71.399  55.965  1.00  0.00    -0.191 NA
HETATM    2  C1  UNL     1      19.246  72.112  56.838  1.00  0.00     0.099 C 
HETATM    3  C2  UNL     1      18.901  73.010  57.933  1.00  0.00     0.046 A 
HETATM    4  C3  UNL     1      18.255  74.207  57.686  1.00  0.00     0.033 A 
HETATM    5  C4  UNL     1      17.894  75.109  58.650  1.00  0.00    -0.015 A 
HETATM    6  C19 UNL     1      18.211  74.772  59.959  1.00  0.00    -0.017 A 
HETATM    7  C20 UNL     1      17.920  75.550  61.051  1.00  0.00     0.013 A 
HETATM    8  C21 UNL     1      18.241  75.195  62.363  1.00  0.00     0.001 A 
HETATM    9  C22 UNL     1      18.878  74.012  62.595  1.00  0.00     0.001 A 
HETATM   10  C23 UNL     1      19.196  73.190  61.536  1.00  0.00     0.012 A 
HETATM   11  C24 UNL     1      18.865  73.565  60.232  1.00  0.00    -0.024 A 
HETATM   12  C25 UNL     1      19.210  72.687  59.232  1.00  0.00     0.035 A 
ENDROOT
BRANCH   5  13
HETATM   13  C5  UNL     1      17.225  76.391  58.404  1.00  0.00     0.194 C 
HETATM   14  C6  UNL     1      15.903  76.357  57.756  1.00  0.00     0.311 C 
HETATM   15  N2  UNL     1      15.810  76.647  56.376  1.00  0.00     0.110 N 
HETATM   16  C12 UNL     1      16.994  76.691  55.607  1.00  0.00     0.330 C 
HETATM   17  C18 UNL     1      18.245  76.957  56.328  1.00  0.00     0.293 C 
HETATM   18  O2  UNL     1      19.322  76.979  55.710  1.00  0.00    -0.263 OA
HETATM   19  O3  UNL     1      18.181  77.173  57.662  1.00  0.00    -0.308 OA
BRANCH  15  20
HETATM   20  C7  UNL     1      14.911  75.688  55.681  1.00  0.00     0.320 C 
BRANCH  20  21
HETATM   21  C8  UNL     1      13.498  75.864  56.160  1.00  0.00     0.012 A 
HETATM   22  C9  UNL     1      12.701  76.970  56.042  1.00  0.00     0.018 A 
HETATM   23  C10 UNL     1      11.463  76.897  56.544  1.00  0.00     0.032 A 
HETATM   24  C11 UNL     1      11.093  75.718  57.138  1.00  0.00     0.075 A 
HETATM   25 CL1  UNL     1       9.535  75.325  57.884  1.00  0.00    -0.076 Cl
HETATM   26  S1  UNL     1      12.494  74.756  56.971  1.00  0.00    -0.081 SA
ENDBRANCH  20  21
ENDBRANCH  15  20
BRANCH  16  27
HETATM   27  C13 UNL     1      16.938  77.642  54.411  1.00  0.00     0.149 C 
BRANCH  27  28
HETATM   28  C14 UNL     1      16.373  78.950  54.701  1.00  0.00     0.220 C 
HETATM   29  O1  UNL     1      17.014  79.873  55.242  1.00  0.00    -0.274 OA
HETATM   30  N3  UNL     1      15.023  79.226  54.362  1.00  0.00    -0.356 N 
ATOM     31  H3  UNL     1      14.476  78.488  53.917  1.00  0.00     0.162 HD
BRANCH  30  32
HETATM   32  C15 UNL     1      14.379  80.499  54.613  1.00  0.00     0.084 A 
HETATM   33  C16 UNL     1      13.679  80.677  55.953  1.00  0.00     0.027 A 
HETATM   34  C17 UNL     1      12.854  80.481  54.698  1.00  0.00     0.027 A 
ENDBRANCH  30  32
ENDBRANCH  27  28
ENDBRANCH  16  27
ENDBRANCH   5  13
TORSDOF 6
ENDMDL
MODEL 5
REMARK VINA RESULT: -8.952775522      3.668      5.590
REMARK  6 active torsions:
REMARK  status: ('A' for Active; 'I' for Inactive)
REMARK    1  A    between atoms: C4_5  and  C5_6 
REMARK    2  A    between atoms: N2_8  and  C7_9 
REMARK    3  A    between atoms: C7_9  and  C8_10 
REMARK    4  A    between atoms: C12_16  and  C13_17 
REMARK    5  A    between atoms: C13_17  and  C14_18 
REMARK       I    between atoms: C14_18  and  N3_20 
REMARK    6  A    between atoms: N3_20  and  C15_22 
ROOT
HETATM    1  N1  UNL     1      18.078  72.457  55.497  1.00  0.00    -0.191 NA
HETATM    2  C1  UNL     1      18.036  73.023  56.503  1.00  0.00     0.099 C 
HETATM    3  C2  UNL     1      17.959  73.733  57.773  1.00  0.00     0.046 A 
HETATM    4  C3  UNL     1      17.133  74.832  57.918  1.00  0.00     0.033 A 
HETATM    5  C4  UNL     1      16.998  75.557  59.071  1.00  0.00    -0.015 A 
HETATM    6  C19 UNL     1      17.755  75.137  60.156  1.00  0.00    -0.017 A 
HETATM    7  C20 UNL     1      17.742  75.739  61.389  1.00  0.00     0.013 A 
HETATM    8  C21 UNL     1      18.506  75.301  62.472  1.00  0.00     0.001 A 
HETATM    9  C22 UNL     1      19.318  74.216  62.319  1.00  0.00     0.001 A 
HETATM   10  C23 UNL     1      19.373  73.572  61.102  1.00  0.00     0.012 A 
HETATM   11  C24 UNL     1      18.599  74.027  60.032  1.00  0.00    -0.024 A 
HETATM   12  C25 UNL     1      18.705  73.327  58.854  1.00  0.00     0.035 A 
ENDROOT
BRANCH   5  13
HETATM   13  C5  UNL     1      16.140  76.736  59.235  1.00  0.00     0.194 C 
HETATM   14  C6  UNL     1      14.833  76.728  58.556  1.00  0.00     0.311 C 
HETATM   15  N2  UNL     1      14.687  77.447  57.347  1.00  0.00     0.110 N 
HETATM   16  C12 UNL     1      15.844  77.918  56.689  1.00  0.00     0.330 C 
HETATM   17  C18 UNL     1      17.045  78.106  57.511  1.00  0.00     0.293 C 
HETATM   18  O2  UNL     1      18.102  78.490  56.983  1.00  0.00    -0.263 OA
HETATM   19  O3  UNL     1      16.959  77.851  58.837  1.00  0.00    -0.308 OA
BRANCH  15  20
HETATM   20  C7  UNL     1      13.938  76.656  56.335  1.00  0.00     0.320 C 
BRANCH  20  21
HETATM   21  C8  UNL     1      12.458  76.826  56.537  1.00  0.00     0.012 A 
HETATM   22  C9  UNL     1      11.652  77.818  56.049  1.00  0.00     0.018 A 
HETATM   23  C10 UNL     1      10.351  77.764  56.356  1.00  0.00     0.032 A 
HETATM   24  C11 UNL     1       9.930  76.717  57.135  1.00  0.00     0.075 A 
HETATM   25 CL1  UNL     1       8.285  76.381  57.698  1.00  0.00    -0.076 Cl
HETATM   26  S1  UNL     1      11.374  75.849  57.410  1.00  0.00    -0.081 SA
ENDBRANCH  20  21
ENDBRANCH  15  20
BRANCH  16  27
HETATM   27  C13 UNL     1      15.634  79.194  55.876  1.00  0.00     0.149 C 
BRANCH  27  28
HETATM   28  C14 UNL     1      15.812  79.038  54.441  1.00  0.00     0.220 C 
HETATM   29  O1  UNL     1      15.454  79.890  53.605  1.00  0.00    -0.274 OA
HETATM   30  N3  UNL     1      16.425  77.863  53.930  1.00  0.00    -0.356 N 
ATOM     31  H3  UNL     1      16.728  77.150  54.594  1.00  0.00     0.162 HD
BRANCH  30  32
HETATM   32  C15 UNL     1      16.642  77.624  52.518  1.00  0.00     0.084 A 
HETATM   33  C16 UNL     1      15.713  76.637  51.825  1.00  0.00     0.027 A 
HETATM   34  C17 UNL     1      17.138  76.230  52.137  1.00  0.00     0.027 A 
ENDBRANCH  30  32
ENDBRANCH  27  28
ENDBRANCH  16  27
ENDBRANCH   5  13
TORSDOF 6
ENDMDL
