MODEL 1
REMARK VINA RESULT: -8.530397757      0.000      0.000
REMARK  11 active torsions:
REMARK  status: ('A' for Active; 'I' for Inactive)
REMARK    1  A    between atoms: C2_2  and  C3_3 
REMARK    2  A    between atoms: C3_3  and  N1_5 
REMARK    3  A    between atoms: C3_3  and  C11_17 
REMARK       I    between atoms: N1_5  and  C5_7 
REMARK       I    between atoms: C5_7  and  N2_9 
REMARK    4  A    between atoms: N2_9  and  C6_11 
REMARK    5  A    between atoms: C6_11  and  C7_12 
REMARK    6  A    between atoms: C13_21  and  C14_22 
REMARK       I    between atoms: C14_22  and  N4_24 
REMARK    7  A    between atoms: N4_24  and  N5_26 
REMARK       I    between atoms: N5_26  and  C15_28 
REMARK       I    between atoms: C15_28  and  N6_30 
REMARK    8  A    between atoms: N6_30  and  C16_32 
REMARK    9  A    between atoms: C16_32  and  C17_33 
REMARK   10  A    between atoms: C16_32  and  C18_36 
REMARK   11  A    between atoms: C17_33  and  O5_34 
ROOT
HETATM    1  C11 UNL     1      14.848  79.751  55.062  1.00  0.00    -0.013 A 
HETATM    2  C12 UNL     1      15.792  79.467  54.119  1.00  0.00     0.098 A 
HETATM    3  N3  UNL     1      16.853  78.877  54.747  1.00  0.00    -0.361 N 
ATOM      4  H3  UNL     1      17.700  78.563  54.273  1.00  0.00     0.165 HD
HETATM    5  C13 UNL     1      16.642  78.769  56.036  1.00  0.00     0.102 A 
HETATM    6  C20 UNL     1      15.386  79.308  56.272  1.00  0.00     0.046 A 
ENDROOT
BRANCH   5   7
HETATM    7  C14 UNL     1      17.516  78.251  57.102  1.00  0.00     0.286 C 
HETATM    8  O3  UNL     1      18.650  77.865  56.802  1.00  0.00    -0.264 OA
HETATM    9  N4  UNL     1      17.071  78.197  58.441  1.00  0.00    -0.261 N 
ATOM     10  H4  UNL     1      16.118  78.514  58.617  1.00  0.00     0.190 HD
BRANCH   9  11
HETATM   11  N5  UNL     1      17.782  77.762  59.532  1.00  0.00    -0.249 N 
HETATM   12  C15 UNL     1      17.442  76.492  60.119  1.00  0.00     0.335 C 
HETATM   13  O4  UNL     1      16.493  75.845  59.536  1.00  0.00    -0.246 OA
HETATM   14  N6  UNL     1      18.056  75.956  61.231  1.00  0.00    -0.329 N 
ATOM     15  H6  UNL     1      18.775  76.562  61.625  1.00  0.00     0.165 HD
ATOM     16  H5  UNL     1      18.537  78.328  59.919  1.00  0.00     0.192 HD
BRANCH  14  17
HETATM   17  C16 UNL     1      17.901  74.751  61.937  1.00  0.00     0.170 C 
BRANCH  17  18
HETATM   18  C17 UNL     1      18.429  74.815  63.377  1.00  0.00     0.196 C 
BRANCH  18  19
HETATM   19  O5  UNL     1      17.435  74.523  64.302  1.00  0.00    -0.398 OA
ATOM     20  H5  UNL     1      17.381  75.186  64.981  1.00  0.00     0.209 HD
ENDBRANCH  18  19
ENDBRANCH  17  18
BRANCH  17  21
HETATM   21  C18 UNL     1      18.487  73.570  61.301  1.00  0.00     0.118 A 
HETATM   22  C19 UNL     1      18.557  73.000  60.054  1.00  0.00     0.151 A 
HETATM   23  N7  UNL     1      19.296  71.987  60.530  1.00  0.00    -0.270 N 
HETATM   24  O6  UNL     1      19.224  72.529  61.699  1.00  0.00    -0.239 OA
ATOM     25  H7  UNL     1      19.727  71.150  60.138  1.00  0.00     0.194 HD
ENDBRANCH  17  21
ENDBRANCH  14  17
ENDBRANCH   9  11
ENDBRANCH   5   7
BRANCH   1  26
HETATM   26  C3  UNL     1      13.524  80.426  54.967  1.00  0.00     0.059 C 
HETATM   27  C4  UNL     1      13.285  80.606  53.463  1.00  0.00     0.044 C 
BRANCH  26  28
HETATM   28  C2  UNL     1      13.716  81.832  55.593  1.00  0.00     0.031 C 
HETATM   29  C1  UNL     1      13.611  82.846  54.516  1.00  0.00     0.008 C 
ENDBRANCH  26  28
BRANCH  26  30
HETATM   30  N1  UNL     1      12.436  79.824  55.637  1.00  0.00    -0.330 N 
HETATM   31  C5  UNL     1      11.926  78.503  55.539  1.00  0.00     0.317 C 
HETATM   32  O1  UNL     1      12.436  77.680  54.754  1.00  0.00    -0.247 OA
HETATM   33  N2  UNL     1      10.827  78.053  56.309  1.00  0.00    -0.341 N 
ATOM     34  H2  UNL     1      10.389  78.729  56.935  1.00  0.00     0.164 HD
ATOM     35  H1  UNL     1      11.941  80.431  56.291  1.00  0.00     0.165 HD
BRANCH  33  36
HETATM   36  C6  UNL     1      10.282  76.744  56.286  1.00  0.00     0.156 C 
BRANCH  36  37
HETATM   37  C7  UNL     1       9.100  76.457  57.144  1.00  0.00     0.139 C 
HETATM   38  C8  UNL     1       9.657  75.990  58.491  1.00  0.00     0.035 C 
HETATM   39  C9  UNL     1       8.857  76.815  59.469  1.00  0.00     0.029 C 
HETATM   40  C10 UNL     1       7.627  77.153  58.652  1.00  0.00     0.168 C 
HETATM   41  O2  UNL     1       8.239  77.469  57.427  1.00  0.00    -0.384 OA
ENDBRANCH  36  37
ENDBRANCH  33  36
ENDBRANCH  26  30
ENDBRANCH   1  26
TORSDOF 11
ENDMDL
MODEL 2
REMARK VINA RESULT: -8.390697289      3.448     10.377
REMARK  11 active torsions:
REMARK  status: ('A' for Active; 'I' for Inactive)
REMARK    1  A    between atoms: C2_2  and  C3_3 
REMARK    2  A    between atoms: C3_3  and  N1_5 
REMARK    3  A    between atoms: C3_3  and  C11_17 
REMARK       I    between atoms: N1_5  and  C5_7 
REMARK       I    between atoms: C5_7  and  N2_9 
REMARK    4  A    between atoms: N2_9  and  C6_11 
REMARK    5  A    between atoms: C6_11  and  C7_12 
REMARK    6  A    between atoms: C13_21  and  C14_22 
REMARK       I    between atoms: C14_22  and  N4_24 
REMARK    7  A    between atoms: N4_24  and  N5_26 
REMARK       I    between atoms: N5_26  and  C15_28 
REMARK       I    between atoms: C15_28  and  N6_30 
REMARK    8  A    between atoms: N6_30  and  C16_32 
REMARK    9  A    between atoms: C16_32  and  C17_33 
REMARK   10  A    between atoms: C16_32  and  C18_36 
REMARK   11  A    between atoms: C17_33  and  O5_34 
ROOT
HETATM    1  C11 UNL     1      16.934  78.165  57.199  1.00  0.00    -0.013 A 
HETATM    2  C12 UNL     1      18.069  78.552  56.549  1.00  0.00     0.098 A 
HETATM    3  N3  UNL     1      17.706  79.342  55.495  1.00  0.00    -0.361 N 
ATOM      4  H3  UNL     1      18.363  79.767  54.841  1.00  0.00     0.165 HD
HETATM    5  C13 UNL     1      16.404  79.483  55.434  1.00  0.00     0.102 A 
HETATM    6  C20 UNL     1      15.883  78.756  56.494  1.00  0.00     0.046 A 
ENDROOT
BRANCH   5   7
HETATM    7  C14 UNL     1      15.571  80.195  54.451  1.00  0.00     0.286 C 
HETATM    8  O3  UNL     1      15.072  79.553  53.521  1.00  0.00    -0.264 OA
HETATM    9  N4  UNL     1      15.344  81.585  54.565  1.00  0.00    -0.261 N 
ATOM     10  H4  UNL     1      15.800  82.057  55.345  1.00  0.00     0.190 HD
BRANCH   9  11
HETATM   11  N5  UNL     1      14.576  82.368  53.741  1.00  0.00    -0.249 N 
HETATM   12  C15 UNL     1      13.311  82.856  54.230  1.00  0.00     0.335 C 
HETATM   13  O4  UNL     1      13.020  82.529  55.441  1.00  0.00    -0.246 OA
HETATM   14  N6  UNL     1      12.433  83.624  53.495  1.00  0.00    -0.329 N 
ATOM     15  H6  UNL     1      12.754  83.803  52.543  1.00  0.00     0.165 HD
ATOM     16  H5  UNL     1      14.893  82.600  52.800  1.00  0.00     0.192 HD
BRANCH  14  17
HETATM   17  C16 UNL     1      11.191  84.213  53.779  1.00  0.00     0.170 C 
BRANCH  17  18
HETATM   18  C17 UNL     1      10.051  83.195  53.924  1.00  0.00     0.196 C 
BRANCH  18  19
HETATM   19  O5  UNL     1      10.003  82.656  55.204  1.00  0.00    -0.398 OA
ATOM     20  H5  UNL     1      10.806  82.199  55.423  1.00  0.00     0.209 HD
ENDBRANCH  18  19
ENDBRANCH  17  18
BRANCH  17  21
HETATM   21  C18 UNL     1      10.750  85.240  52.832  1.00  0.00     0.118 A 
HETATM   22  C19 UNL     1      11.306  86.150  51.968  1.00  0.00     0.151 A 
HETATM   23  N7  UNL     1      10.091  86.578  51.596  1.00  0.00    -0.270 N 
HETATM   24  O6  UNL     1       9.576  85.720  52.411  1.00  0.00    -0.239 OA
ATOM     25  H7  UNL     1       9.730  87.278  50.948  1.00  0.00     0.194 HD
ENDBRANCH  17  21
ENDBRANCH  14  17
ENDBRANCH   9  11
ENDBRANCH   5   7
BRANCH   1  26
HETATM   26  C3  UNL     1      16.717  77.275  58.373  1.00  0.00     0.059 C 
HETATM   27  C4  UNL     1      15.244  76.858  58.278  1.00  0.00     0.044 C 
BRANCH  26  28
HETATM   28  C2  UNL     1      16.881  78.174  59.626  1.00  0.00     0.031 C 
HETATM   29  C1  UNL     1      18.292  78.102  60.076  1.00  0.00     0.008 C 
ENDBRANCH  26  28
BRANCH  26  30
HETATM   30  N1  UNL     1      17.597  76.181  58.534  1.00  0.00    -0.330 N 
HETATM   31  C5  UNL     1      17.496  75.050  59.385  1.00  0.00     0.317 C 
HETATM   32  O1  UNL     1      16.529  74.921  60.161  1.00  0.00    -0.247 OA
HETATM   33  N2  UNL     1      18.470  74.024  59.404  1.00  0.00    -0.341 N 
ATOM     34  H2  UNL     1      19.277  74.136  58.790  1.00  0.00     0.164 HD
ATOM     35  H1  UNL     1      18.433  76.209  57.950  1.00  0.00     0.165 HD
BRANCH  33  36
HETATM   36  C6  UNL     1      18.422  72.854  60.204  1.00  0.00     0.156 C 
BRANCH  36  37
HETATM   37  C7  UNL     1      18.618  72.994  61.672  1.00  0.00     0.139 C 
HETATM   38  C8  UNL     1      19.552  74.194  61.863  1.00  0.00     0.035 C 
HETATM   39  C9  UNL     1      18.842  74.982  62.936  1.00  0.00     0.029 C 
HETATM   40  C10 UNL     1      17.999  73.910  63.598  1.00  0.00     0.168 C 
HETATM   41  O2  UNL     1      17.535  73.237  62.455  1.00  0.00    -0.384 OA
ENDBRANCH  36  37
ENDBRANCH  33  36
ENDBRANCH  26  30
ENDBRANCH   1  26
TORSDOF 11
ENDMDL
MODEL 3
REMARK VINA RESULT: -8.325844796      3.687      9.618
REMARK  11 active torsions:
REMARK  status: ('A' for Active; 'I' for Inactive)
REMARK    1  A    between atoms: C2_2  and  C3_3 
REMARK    2  A    between atoms: C3_3  and  N1_5 
REMARK    3  A    between atoms: C3_3  and  C11_17 
REMARK       I    between atoms: N1_5  and  C5_7 
REMARK       I    between atoms: C5_7  and  N2_9 
REMARK    4  A    between atoms: N2_9  and  C6_11 
REMARK    5  A    between atoms: C6_11  and  C7_12 
REMARK    6  A    between atoms: C13_21  and  C14_22 
REMARK       I    between atoms: C14_22  and  N4_24 
REMARK    7  A    between atoms: N4_24  and  N5_26 
REMARK       I    between atoms: N5_26  and  C15_28 
REMARK       I    between atoms: C15_28  and  N6_30 
REMARK    8  A    between atoms: N6_30  and  C16_32 
REMARK    9  A    between atoms: C16_32  and  C17_33 
REMARK   10  A    between atoms: C16_32  and  C18_36 
REMARK   11  A    between atoms: C17_33  and  O5_34 
ROOT
HETATM    1  C11 UNL     1      16.936  72.784  55.706  1.00  0.00    -0.013 A 
HETATM    2  C12 UNL     1      17.260  73.548  54.624  1.00  0.00     0.098 A 
HETATM    3  N3  UNL     1      16.406  74.615  54.587  1.00  0.00    -0.361 N 
ATOM      4  H3  UNL     1      16.428  75.346  53.877  1.00  0.00     0.165 HD
HETATM    5  C13 UNL     1      15.554  74.576  55.584  1.00  0.00     0.102 A 
HETATM    6  C20 UNL     1      15.860  73.435  56.312  1.00  0.00     0.046 A 
ENDROOT
BRANCH   5   7
HETATM    7  C14 UNL     1      14.437  75.475  55.914  1.00  0.00     0.286 C 
HETATM    8  O3  UNL     1      14.029  76.255  55.048  1.00  0.00    -0.264 OA
HETATM    9  N4  UNL     1      13.840  75.449  57.194  1.00  0.00    -0.261 N 
ATOM     10  H4  UNL     1      14.238  74.795  57.868  1.00  0.00     0.190 HD
BRANCH   9  11
HETATM   11  N5  UNL     1      12.784  76.210  57.629  1.00  0.00    -0.249 N 
HETATM   12  C15 UNL     1      11.476  75.607  57.691  1.00  0.00     0.335 C 
HETATM   13  O4  UNL     1      11.419  74.367  57.350  1.00  0.00    -0.246 OA
HETATM   14  N6  UNL     1      10.330  76.267  58.080  1.00  0.00    -0.329 N 
ATOM     15  H6  UNL     1      10.488  77.249  58.305  1.00  0.00     0.165 HD
ATOM     16  H5  UNL     1      12.921  77.182  57.904  1.00  0.00     0.192 HD
BRANCH  14  17
HETATM   17  C16 UNL     1       8.991  75.873  58.232  1.00  0.00     0.170 C 
BRANCH  17  18
HETATM   18  C17 UNL     1       8.235  75.749  56.902  1.00  0.00     0.196 C 
BRANCH  18  19
HETATM   19  O5  UNL     1       8.522  74.553  56.257  1.00  0.00    -0.398 OA
ATOM     20  H5  UNL     1       8.835  74.698  55.371  1.00  0.00     0.209 HD
ENDBRANCH  18  19
ENDBRANCH  17  18
BRANCH  17  21
HETATM   21  C18 UNL     1       8.186  76.711  59.123  1.00  0.00     0.118 A 
HETATM   22  C19 UNL     1       6.899  76.769  59.599  1.00  0.00     0.151 A 
HETATM   23  N7  UNL     1       7.186  77.864  60.317  1.00  0.00    -0.270 N 
HETATM   24  O6  UNL     1       8.394  77.803  59.865  1.00  0.00    -0.239 OA
ATOM     25  H7  UNL     1       6.673  78.479  60.949  1.00  0.00     0.194 HD
ENDBRANCH  17  21
ENDBRANCH  14  17
ENDBRANCH   9  11
ENDBRANCH   5   7
BRANCH   1  26
HETATM   26  C3  UNL     1      17.487  71.496  56.211  1.00  0.00     0.059 C 
HETATM   27  C4  UNL     1      18.622  71.150  55.239  1.00  0.00     0.044 C 
BRANCH  26  28
HETATM   28  C2  UNL     1      16.360  70.447  56.025  1.00  0.00     0.031 C 
HETATM   29  C1  UNL     1      16.951  69.093  56.153  1.00  0.00     0.008 C 
ENDBRANCH  26  28
BRANCH  26  30
HETATM   30  N1  UNL     1      17.878  71.442  57.568  1.00  0.00    -0.330 N 
HETATM   31  C5  UNL     1      18.796  72.254  58.283  1.00  0.00     0.317 C 
HETATM   32  O1  UNL     1      19.419  73.169  57.709  1.00  0.00    -0.247 OA
HETATM   33  N2  UNL     1      19.057  72.074  59.662  1.00  0.00    -0.341 N 
ATOM     34  H2  UNL     1      18.570  71.310  60.132  1.00  0.00     0.164 HD
ATOM     35  H1  UNL     1      17.433  70.706  58.118  1.00  0.00     0.165 HD
BRANCH  33  36
HETATM   36  C6  UNL     1      19.936  72.862  60.447  1.00  0.00     0.156 C 
BRANCH  36  37
HETATM   37  C7  UNL     1      19.375  73.590  61.618  1.00  0.00     0.139 C 
HETATM   38  C8  UNL     1      18.416  74.638  61.046  1.00  0.00     0.035 C 
HETATM   39  C9  UNL     1      17.187  74.443  61.900  1.00  0.00     0.029 C 
HETATM   40  C10 UNL     1      17.774  73.801  63.141  1.00  0.00     0.168 C 
HETATM   41  O2  UNL     1      18.660  72.893  62.538  1.00  0.00    -0.384 OA
ENDBRANCH  36  37
ENDBRANCH  33  36
ENDBRANCH  26  30
ENDBRANCH   1  26
TORSDOF 11
ENDMDL
MODEL 4
REMARK VINA RESULT: -8.162600150      4.560     10.092
REMARK  11 active torsions:
REMARK  status: ('A' for Active; 'I' for Inactive)
REMARK    1  A    between atoms: C2_2  and  C3_3 
REMARK    2  A    between atoms: C3_3  and  N1_5 
REMARK    3  A    between atoms: C3_3  and  C11_17 
REMARK       I    between atoms: N1_5  and  C5_7 
REMARK       I    between atoms: C5_7  and  N2_9 
REMARK    4  A    between atoms: N2_9  and  C6_11 
REMARK    5  A    between atoms: C6_11  and  C7_12 
REMARK    6  A    between atoms: C13_21  and  C14_22 
REMARK       I    between atoms: C14_22  and  N4_24 
REMARK    7  A    between atoms: N4_24  and  N5_26 
REMARK       I    between atoms: N5_26  and  C15_28 
REMARK       I    between atoms: C15_28  and  N6_30 
REMARK    8  A    between atoms: N6_30  and  C16_32 
REMARK    9  A    between atoms: C16_32  and  C17_33 
REMARK   10  A    between atoms: C16_32  and  C18_36 
REMARK   11  A    between atoms: C17_33  and  O5_34 
ROOT
HETATM    1  C11 UNL     1      16.225  71.630  54.757  1.00  0.00    -0.013 A 
HETATM    2  C12 UNL     1      16.243  72.544  53.745  1.00  0.00     0.098 A 
HETATM    3  N3  UNL     1      14.980  73.044  53.602  1.00  0.00    -0.361 N 
ATOM      4  H3  UNL     1      14.713  73.747  52.913  1.00  0.00     0.165 HD
HETATM    5  C13 UNL     1      14.154  72.503  54.465  1.00  0.00     0.102 A 
HETATM    6  C20 UNL     1      14.905  71.607  55.212  1.00  0.00     0.046 A 
ENDROOT
BRANCH   5   7
HETATM    7  C14 UNL     1      12.706  72.696  54.644  1.00  0.00     0.286 C 
HETATM    8  O3  UNL     1      11.933  71.874  54.143  1.00  0.00    -0.264 OA
HETATM    9  N4  UNL     1      12.207  73.798  55.373  1.00  0.00    -0.261 N 
ATOM     10  H4  UNL     1      12.899  74.449  55.743  1.00  0.00     0.190 HD
BRANCH   9  11
HETATM   11  N5  UNL     1      10.892  74.088  55.637  1.00  0.00    -0.249 N 
HETATM   12  C15 UNL     1      10.589  75.135  56.579  1.00  0.00     0.335 C 
HETATM   13  O4  UNL     1      11.607  75.741  57.083  1.00  0.00    -0.246 OA
HETATM   14  N6  UNL     1       9.315  75.503  56.954  1.00  0.00    -0.329 N 
ATOM     15  H6  UNL     1       8.587  74.942  56.512  1.00  0.00     0.165 HD
ATOM     16  H5  UNL     1      10.143  73.573  55.174  1.00  0.00     0.192 HD
BRANCH  14  17
HETATM   17  C16 UNL     1       8.806  76.488  57.816  1.00  0.00     0.170 C 
BRANCH  17  18
HETATM   18  C17 UNL     1       9.290  76.342  59.266  1.00  0.00     0.196 C 
BRANCH  18  19
HETATM   19  O5  UNL     1       8.730  77.305  60.095  1.00  0.00    -0.398 OA
ATOM     20  H5  UNL     1       9.082  78.169  59.917  1.00  0.00     0.209 HD
ENDBRANCH  18  19
ENDBRANCH  17  18
BRANCH  17  21
HETATM   21  C18 UNL     1       7.347  76.606  57.846  1.00  0.00     0.118 A 
HETATM   22  C19 UNL     1       6.328  76.993  57.011  1.00  0.00     0.151 A 
HETATM   23  N7  UNL     1       5.416  76.731  57.959  1.00  0.00    -0.270 N 
HETATM   24  O6  UNL     1       6.380  76.370  58.738  1.00  0.00    -0.239 OA
ATOM     25  H7  UNL     1       4.401  76.791  58.033  1.00  0.00     0.194 HD
ENDBRANCH  17  21
ENDBRANCH  14  17
ENDBRANCH   9  11
ENDBRANCH   5   7
BRANCH   1  26
HETATM   26  C3  UNL     1      17.287  70.749  55.318  1.00  0.00     0.059 C 
HETATM   27  C4  UNL     1      18.457  70.876  54.334  1.00  0.00     0.044 C 
BRANCH  26  28
HETATM   28  C2  UNL     1      16.735  69.303  55.221  1.00  0.00     0.031 C 
HETATM   29  C1  UNL     1      16.942  68.631  56.527  1.00  0.00     0.008 C 
ENDBRANCH  26  28
BRANCH  26  30
HETATM   30  N1  UNL     1      17.663  70.956  56.664  1.00  0.00    -0.330 N 
HETATM   31  C5  UNL     1      18.107  72.137  57.312  1.00  0.00     0.317 C 
HETATM   32  O1  UNL     1      18.238  73.203  56.677  1.00  0.00    -0.247 OA
HETATM   33  N2  UNL     1      18.426  72.174  58.690  1.00  0.00    -0.341 N 
ATOM     34  H2  UNL     1      18.346  71.300  59.210  1.00  0.00     0.164 HD
ATOM     35  H1  UNL     1      17.607  70.130  57.260  1.00  0.00     0.165 HD
BRANCH  33  36
HETATM   36  C6  UNL     1      18.847  73.321  59.411  1.00  0.00     0.156 C 
BRANCH  36  37
HETATM   37  C7  UNL     1      18.153  73.646  60.687  1.00  0.00     0.139 C 
HETATM   38  C8  UNL     1      19.228  73.607  61.777  1.00  0.00     0.035 C 
HETATM   39  C9  UNL     1      18.970  74.894  62.522  1.00  0.00     0.029 C 
HETATM   40  C10 UNL     1      17.519  75.164  62.178  1.00  0.00     0.168 C 
HETATM   41  O2  UNL     1      17.542  74.853  60.807  1.00  0.00    -0.384 OA
ENDBRANCH  36  37
ENDBRANCH  33  36
ENDBRANCH  26  30
ENDBRANCH   1  26
TORSDOF 11
ENDMDL
MODEL 5
REMARK VINA RESULT: -8.146349231      4.119      9.942
REMARK  11 active torsions:
REMARK  status: ('A' for Active; 'I' for Inactive)
REMARK    1  A    between atoms: C2_2  and  C3_3 
REMARK    2  A    between atoms: C3_3  and  N1_5 
REMARK    3  A    between atoms: C3_3  and  C11_17 
REMARK       I    between atoms: N1_5  and  C5_7 
REMARK       I    between atoms: C5_7  and  N2_9 
REMARK    4  A    between atoms: N2_9  and  C6_11 
REMARK    5  A    between atoms: C6_11  and  C7_12 
REMARK    6  A    between atoms: C13_21  and  C14_22 
REMARK       I    between atoms: C14_22  and  N4_24 
REMARK    7  A    between atoms: N4_24  and  N5_26 
REMARK       I    between atoms: N5_26  and  C15_28 
REMARK       I    between atoms: C15_28  and  N6_30 
REMARK    8  A    between atoms: N6_30  and  C16_32 
REMARK    9  A    between atoms: C16_32  and  C17_33 
REMARK   10  A    between atoms: C16_32  and  C18_36 
REMARK   11  A    between atoms: C17_33  and  O5_34 
ROOT
HETATM    1  C11 UNL     1      16.000  72.535  56.557  1.00  0.00    -0.013 A 
HETATM    2  C12 UNL     1      15.049  71.901  57.300  1.00  0.00     0.098 A 
HETATM    3  N3  UNL     1      13.901  72.640  57.242  1.00  0.00    -0.361 N 
ATOM      4  H3  UNL     1      13.031  72.391  57.711  1.00  0.00     0.165 HD
HETATM    5  C13 UNL     1      14.064  73.712  56.504  1.00  0.00     0.102 A 
HETATM    6  C20 UNL     1      15.376  73.679  56.054  1.00  0.00     0.046 A 
ENDROOT
BRANCH   5   7
HETATM    7  C14 UNL     1      13.130  74.810  56.204  1.00  0.00     0.286 C 
HETATM    8  O3  UNL     1      13.053  75.220  55.042  1.00  0.00    -0.264 OA
HETATM    9  N4  UNL     1      12.338  75.385  57.222  1.00  0.00    -0.261 N 
ATOM     10  H4  UNL     1      12.465  75.012  58.163  1.00  0.00     0.190 HD
BRANCH   9  11
HETATM   11  N5  UNL     1      11.415  76.391  57.082  1.00  0.00    -0.249 N 
HETATM   12  C15 UNL     1      10.181  76.307  57.822  1.00  0.00     0.335 C 
HETATM   13  O4  UNL     1      10.063  75.281  58.591  1.00  0.00    -0.246 OA
HETATM   14  N6  UNL     1       9.162  77.232  57.748  1.00  0.00    -0.329 N 
ATOM     15  H6  UNL     1       9.352  77.989  57.091  1.00  0.00     0.165 HD
ATOM     16  H5  UNL     1      11.598  77.183  56.467  1.00  0.00     0.192 HD
BRANCH  14  17
HETATM   17  C16 UNL     1       7.917  77.353  58.386  1.00  0.00     0.170 C 
BRANCH  17  18
HETATM   18  C17 UNL     1       7.992  77.185  59.910  1.00  0.00     0.196 C 
BRANCH  18  19
HETATM   19  O5  UNL     1       6.733  77.019  60.472  1.00  0.00    -0.398 OA
ATOM     20  H5  UNL     1       6.786  76.736  61.377  1.00  0.00     0.209 HD
ENDBRANCH  18  19
ENDBRANCH  17  18
BRANCH  17  21
HETATM   21  C18 UNL     1       6.867  76.460  57.893  1.00  0.00     0.118 A 
HETATM   22  C19 UNL     1       6.748  75.365  57.072  1.00  0.00     0.151 A 
HETATM   23  N7  UNL     1       5.425  75.317  57.285  1.00  0.00    -0.270 N 
HETATM   24  O6  UNL     1       5.546  76.347  58.054  1.00  0.00    -0.239 OA
ATOM     25  H7  UNL     1       4.656  74.723  56.974  1.00  0.00     0.194 HD
ENDBRANCH  17  21
ENDBRANCH  14  17
ENDBRANCH   9  11
ENDBRANCH   5   7
BRANCH   1  26
HETATM   26  C3  UNL     1      17.433  72.220  56.300  1.00  0.00     0.059 C 
HETATM   27  C4  UNL     1      17.970  73.440  55.542  1.00  0.00     0.044 C 
BRANCH  26  28
HETATM   28  C2  UNL     1      17.436  71.012  55.328  1.00  0.00     0.031 C 
HETATM   29  C1  UNL     1      17.764  69.788  56.097  1.00  0.00     0.008 C 
ENDBRANCH  26  28
BRANCH  26  30
HETATM   30  N1  UNL     1      18.229  71.856  57.409  1.00  0.00    -0.330 N 
HETATM   31  C5  UNL     1      18.686  72.644  58.498  1.00  0.00     0.317 C 
HETATM   32  O1  UNL     1      18.411  73.858  58.566  1.00  0.00    -0.247 OA
HETATM   33  N2  UNL     1      19.468  72.108  59.548  1.00  0.00    -0.341 N 
ATOM     34  H2  UNL     1      19.718  71.120  59.486  1.00  0.00     0.164 HD
ATOM     35  H1  UNL     1      18.522  70.879  57.430  1.00  0.00     0.165 HD
BRANCH  33  36
HETATM   36  C6  UNL     1      19.934  72.824  60.680  1.00  0.00     0.156 C 
BRANCH  36  37
HETATM   37  C7  UNL     1      18.957  73.165  61.750  1.00  0.00     0.139 C 
HETATM   38  C8  UNL     1      19.368  74.544  62.275  1.00  0.00     0.035 C 
HETATM   39  C9  UNL     1      18.054  75.285  62.285  1.00  0.00     0.029 C 
HETATM   40  C10 UNL     1      17.058  74.145  62.354  1.00  0.00     0.168 C 
HETATM   41  O2  UNL     1      17.643  73.268  61.424  1.00  0.00    -0.384 OA
ENDBRANCH  36  37
ENDBRANCH  33  36
ENDBRANCH  26  30
ENDBRANCH   1  26
TORSDOF 11
ENDMDL
