MODEL 1
REMARK VINA RESULT: -8.038717162      0.000      0.000
REMARK  16 active torsions:
REMARK  status: ('A' for Active; 'I' for Inactive)
REMARK       I    between atoms: N1_2  and  C2_3 
REMARK    1  A    between atoms: N1_2  and  C18_21 
REMARK    2  A    between atoms: C2_3  and  C3_5 
REMARK    3  A    between atoms: C3_5  and  C4_6 
REMARK    4  A    between atoms: C4_6  and  C5_7 
REMARK    5  A    between atoms: C5_7  and  C6_8 
REMARK    6  A    between atoms: C6_8  and  O2_9 
REMARK    7  A    between atoms: O2_9  and  C7_10 
REMARK    8  A    between atoms: C7_10  and  C8_11 
REMARK    9  A    between atoms: C18_21  and  C19_22 
REMARK   10  A    between atoms: C18_21  and  C23_30 
REMARK   11  A    between atoms: C19_22  and  C20_23 
REMARK   12  A    between atoms: C20_23  and  C21_24 
REMARK   13  A    between atoms: C21_24  and  N2_25 
REMARK       I    between atoms: C23_30  and  N5_32 
REMARK   14  A    between atoms: N5_32  and  C24_34 
REMARK   15  A    between atoms: C24_34  and  C25_35 
REMARK   16  A    between atoms: C25_35  and  N6_36 
ROOT
HETATM    1  C1  UNL     1      37.012 -11.618   4.689  1.00  0.00     0.153 C 
HETATM    2  N1  UNL     1      35.668 -11.478   4.112  1.00  0.00    -0.343 N 
HETATM    3  C2  UNL     1      34.847 -12.610   4.140  1.00  0.00     0.220 C 
HETATM    4  O1  UNL     1      33.683 -12.630   3.685  1.00  0.00    -0.273 OA
ENDROOT
BRANCH   2   5
HETATM    5  C18 UNL     1      35.319 -10.174   3.571  1.00  0.00     0.178 C 
BRANCH   5   6
HETATM    6  C19 UNL     1      36.139  -9.051   4.051  1.00  0.00     0.037 C 
BRANCH   6   7
HETATM    7  C20 UNL     1      35.830  -7.692   3.541  1.00  0.00     0.022 C 
BRANCH   7   8
HETATM    8  C21 UNL     1      36.847  -7.032   2.680  1.00  0.00     0.122 C 
BRANCH   8   9
HETATM    9  N2  UNL     1      36.488  -6.858   1.308  1.00  0.00    -0.367 N 
HETATM   10  C22 UNL     1      36.531  -5.678   0.754  1.00  0.00     0.196 C 
HETATM   11  N3  UNL     1      36.166  -5.563  -0.600  1.00  0.00    -0.067 NA
HETATM   12  N4  UNL     1      36.939  -4.533   1.502  1.00  0.00    -0.067 NA
ATOM     13  H2  UNL     1      36.195  -7.664   0.755  1.00  0.00     0.161 HD
ENDBRANCH   8   9
ENDBRANCH   7   8
ENDBRANCH   6   7
ENDBRANCH   5   6
BRANCH   5  14
HETATM   14  C23 UNL     1      35.404 -10.356   2.073  1.00  0.00     0.240 C 
HETATM   15  O3  UNL     1      36.533 -10.213   1.550  1.00  0.00    -0.271 OA
HETATM   16  N5  UNL     1      34.289 -10.667   1.280  1.00  0.00    -0.358 N 
ATOM     17  H5  UNL     1      33.374 -10.777   1.717  1.00  0.00     0.162 HD
BRANCH  16  18
HETATM   18  C24 UNL     1      34.420 -10.831  -0.140  1.00  0.00     0.142 C 
BRANCH  18  19
HETATM   19  C25 UNL     1      34.115  -9.580  -0.905  1.00  0.00     0.141 C 
BRANCH  19  20
HETATM   20  N6  UNL     1      32.866  -9.793  -1.633  1.00  0.00    -0.365 N 
HETATM   21  C26 UNL     1      32.276  -8.817  -2.182  1.00  0.00     0.197 C 
HETATM   22  N7  UNL     1      32.809  -7.517  -2.102  1.00  0.00    -0.067 NA
HETATM   23  N8  UNL     1      31.062  -9.072  -2.871  1.00  0.00    -0.067 NA
ATOM     24  H6  UNL     1      32.469 -10.730  -1.701  1.00  0.00     0.161 HD
ENDBRANCH  19  20
ENDBRANCH  18  19
ENDBRANCH  16  18
ENDBRANCH   5  14
ENDBRANCH   2   5
BRANCH   3  25
HETATM   25  C3  UNL     1      35.322 -13.914   4.735  1.00  0.00     0.103 C 
BRANCH  25  26
HETATM   26  C4  UNL     1      34.376 -14.372   5.779  1.00  0.00     0.011 C 
BRANCH  26  27
HETATM   27  C5  UNL     1      34.500 -15.797   6.180  1.00  0.00     0.027 C 
BRANCH  27  28
HETATM   28  C6  UNL     1      35.855 -16.397   5.942  1.00  0.00     0.167 C 
BRANCH  28  29
HETATM   29  O2  UNL     1      36.640 -16.350   7.052  1.00  0.00    -0.391 OA
BRANCH  29  30
HETATM   30  C7  UNL     1      37.788 -15.610   6.981  1.00  0.00     0.172 C 
BRANCH  30  31
HETATM   31  C8  UNL     1      38.066 -14.993   8.341  1.00  0.00     0.014 C 
HETATM   32  C9  UNL     1      38.381 -16.062   9.358  1.00  0.00     0.007 C 
HETATM   33  C10 UNL     1      39.853 -16.391   9.341  1.00  0.00     0.001 C 
HETATM   34  C11 UNL     1      40.694 -15.196   9.662  1.00  0.00     0.005 C 
HETATM   35  C12 UNL     1      39.828 -13.976   9.663  1.00  0.00    -0.010 C 
HETATM   36  C13 UNL     1      40.656 -12.695   9.848  1.00  0.00     0.005 C 
HETATM   37  C17 UNL     1      39.085 -13.907   8.329  1.00  0.00    -0.004 C 
HETATM   38  C14 UNL     1      39.651 -11.644  10.305  1.00  0.00     0.000 C 
HETATM   39  C15 UNL     1      38.321 -11.927   9.683  1.00  0.00     0.000 C 
HETATM   40  C16 UNL     1      38.441 -12.520   8.298  1.00  0.00     0.005 C 
ENDBRANCH  30  31
ENDBRANCH  29  30
ENDBRANCH  28  29
ENDBRANCH  27  28
ENDBRANCH  26  27
ENDBRANCH  25  26
ENDBRANCH   3  25
TORSDOF 16
ENDMDL
MODEL 2
REMARK VINA RESULT: -7.970559096      1.072      1.247
REMARK  16 active torsions:
REMARK  status: ('A' for Active; 'I' for Inactive)
REMARK       I    between atoms: N1_2  and  C2_3 
REMARK    1  A    between atoms: N1_2  and  C18_21 
REMARK    2  A    between atoms: C2_3  and  C3_5 
REMARK    3  A    between atoms: C3_5  and  C4_6 
REMARK    4  A    between atoms: C4_6  and  C5_7 
REMARK    5  A    between atoms: C5_7  and  C6_8 
REMARK    6  A    between atoms: C6_8  and  O2_9 
REMARK    7  A    between atoms: O2_9  and  C7_10 
REMARK    8  A    between atoms: C7_10  and  C8_11 
REMARK    9  A    between atoms: C18_21  and  C19_22 
REMARK   10  A    between atoms: C18_21  and  C23_30 
REMARK   11  A    between atoms: C19_22  and  C20_23 
REMARK   12  A    between atoms: C20_23  and  C21_24 
REMARK   13  A    between atoms: C21_24  and  N2_25 
REMARK       I    between atoms: C23_30  and  N5_32 
REMARK   14  A    between atoms: N5_32  and  C24_34 
REMARK   15  A    between atoms: C24_34  and  C25_35 
REMARK   16  A    between atoms: C25_35  and  N6_36 
ROOT
HETATM    1  C1  UNL     1      36.849 -11.293   4.742  1.00  0.00     0.153 C 
HETATM    2  N1  UNL     1      35.559 -11.136   4.056  1.00  0.00    -0.343 N 
HETATM    3  C2  UNL     1      34.668 -12.212   4.128  1.00  0.00     0.220 C 
HETATM    4  O1  UNL     1      33.540 -12.210   3.591  1.00  0.00    -0.273 OA
ENDROOT
BRANCH   2   5
HETATM    5  C18 UNL     1      35.331  -9.873   3.371  1.00  0.00     0.178 C 
BRANCH   5   6
HETATM    6  C19 UNL     1      36.247  -8.782   3.737  1.00  0.00     0.037 C 
BRANCH   6   7
HETATM    7  C20 UNL     1      35.971  -7.427   3.195  1.00  0.00     0.022 C 
BRANCH   7   8
HETATM    8  C21 UNL     1      36.992  -6.823   2.299  1.00  0.00     0.122 C 
BRANCH   8   9
HETATM    9  N2  UNL     1      36.532  -6.420   1.008  1.00  0.00    -0.367 N 
HETATM   10  C22 UNL     1      36.676  -5.187   0.606  1.00  0.00     0.196 C 
HETATM   11  N3  UNL     1      36.203  -4.845  -0.675  1.00  0.00    -0.067 NA
HETATM   12  N4  UNL     1      37.297  -4.212   1.442  1.00  0.00    -0.067 NA
ATOM     13  H2  UNL     1      36.087  -7.102   0.394  1.00  0.00     0.161 HD
ENDBRANCH   8   9
ENDBRANCH   7   8
ENDBRANCH   6   7
ENDBRANCH   5   6
BRANCH   5  14
HETATM   14  C23 UNL     1      35.404 -10.225   1.904  1.00  0.00     0.240 C 
HETATM   15  O3  UNL     1      36.540 -10.215   1.376  1.00  0.00    -0.271 OA
HETATM   16  N5  UNL     1      34.271 -10.549   1.141  1.00  0.00    -0.358 N 
ATOM     17  H5  UNL     1      33.351 -10.550   1.581  1.00  0.00     0.162 HD
BRANCH  16  18
HETATM   18  C24 UNL     1      34.392 -10.878  -0.251  1.00  0.00     0.142 C 
BRANCH  18  19
HETATM   19  C25 UNL     1      34.182  -9.700  -1.152  1.00  0.00     0.141 C 
BRANCH  19  20
HETATM   20  N6  UNL     1      32.891  -9.867  -1.815  1.00  0.00    -0.365 N 
HETATM   21  C26 UNL     1      32.247  -8.853  -2.217  1.00  0.00     0.197 C 
HETATM   22  N7  UNL     1      32.761  -7.557  -2.035  1.00  0.00    -0.067 NA
HETATM   23  N8  UNL     1      30.994  -9.065  -2.847  1.00  0.00    -0.067 NA
ATOM     24  H6  UNL     1      32.507 -10.801  -1.954  1.00  0.00     0.161 HD
ENDBRANCH  19  20
ENDBRANCH  18  19
ENDBRANCH  16  18
ENDBRANCH   5  14
ENDBRANCH   2   5
BRANCH   3  25
HETATM   25  C3  UNL     1      35.018 -13.475   4.876  1.00  0.00     0.103 C 
BRANCH  25  26
HETATM   26  C4  UNL     1      35.376 -14.551   3.922  1.00  0.00     0.011 C 
BRANCH  26  27
HETATM   27  C5  UNL     1      36.174 -15.671   4.484  1.00  0.00     0.027 C 
BRANCH  27  28
HETATM   28  C6  UNL     1      37.634 -15.632   4.141  1.00  0.00     0.167 C 
BRANCH  28  29
HETATM   29  O2  UNL     1      38.255 -14.539   4.661  1.00  0.00    -0.391 OA
BRANCH  29  30
HETATM   30  C7  UNL     1      39.149 -14.747   5.676  1.00  0.00     0.172 C 
BRANCH  30  31
HETATM   31  C8  UNL     1      38.647 -14.052   6.930  1.00  0.00     0.014 C 
HETATM   32  C9  UNL     1      37.641 -14.916   7.652  1.00  0.00     0.007 C 
HETATM   33  C10 UNL     1      38.339 -15.859   8.600  1.00  0.00     0.001 C 
HETATM   34  C11 UNL     1      39.133 -15.124   9.634  1.00  0.00     0.005 C 
HETATM   35  C12 UNL     1      39.191 -13.675   9.264  1.00  0.00    -0.010 C 
HETATM   36  C13 UNL     1      40.110 -12.887  10.210  1.00  0.00     0.005 C 
HETATM   37  C17 UNL     1      39.722 -13.559   7.835  1.00  0.00    -0.004 C 
HETATM   38  C14 UNL     1      39.699 -11.431  10.029  1.00  0.00     0.000 C 
HETATM   39  C15 UNL     1      39.247 -11.215   8.620  1.00  0.00     0.000 C 
HETATM   40  C16 UNL     1      40.003 -12.070   7.630  1.00  0.00     0.005 C 
ENDBRANCH  30  31
ENDBRANCH  29  30
ENDBRANCH  28  29
ENDBRANCH  27  28
ENDBRANCH  26  27
ENDBRANCH  25  26
ENDBRANCH   3  25
TORSDOF 16
ENDMDL
MODEL 3
REMARK VINA RESULT: -7.860194699      1.336      2.210
REMARK  16 active torsions:
REMARK  status: ('A' for Active; 'I' for Inactive)
REMARK       I    between atoms: N1_2  and  C2_3 
REMARK    1  A    between atoms: N1_2  and  C18_21 
REMARK    2  A    between atoms: C2_3  and  C3_5 
REMARK    3  A    between atoms: C3_5  and  C4_6 
REMARK    4  A    between atoms: C4_6  and  C5_7 
REMARK    5  A    between atoms: C5_7  and  C6_8 
REMARK    6  A    between atoms: C6_8  and  O2_9 
REMARK    7  A    between atoms: O2_9  and  C7_10 
REMARK    8  A    between atoms: C7_10  and  C8_11 
REMARK    9  A    between atoms: C18_21  and  C19_22 
REMARK   10  A    between atoms: C18_21  and  C23_30 
REMARK   11  A    between atoms: C19_22  and  C20_23 
REMARK   12  A    between atoms: C20_23  and  C21_24 
REMARK   13  A    between atoms: C21_24  and  N2_25 
REMARK       I    between atoms: C23_30  and  N5_32 
REMARK   14  A    between atoms: N5_32  and  C24_34 
REMARK   15  A    between atoms: C24_34  and  C25_35 
REMARK   16  A    between atoms: C25_35  and  N6_36 
ROOT
HETATM    1  C1  UNL     1      36.146  -9.492   5.330  1.00  0.00     0.153 C 
HETATM    2  N1  UNL     1      35.346  -9.855   4.152  1.00  0.00    -0.343 N 
HETATM    3  C2  UNL     1      34.730 -11.111   4.168  1.00  0.00     0.220 C 
HETATM    4  O1  UNL     1      34.022 -11.543   3.233  1.00  0.00    -0.273 OA
ENDROOT
BRANCH   2   5
HETATM    5  C18 UNL     1      35.268  -8.870   3.085  1.00  0.00     0.178 C 
BRANCH   5   6
HETATM    6  C19 UNL     1      36.259  -7.785   3.153  1.00  0.00     0.037 C 
BRANCH   6   7
HETATM    7  C20 UNL     1      36.541  -7.017   1.914  1.00  0.00     0.022 C 
BRANCH   7   8
HETATM    8  C21 UNL     1      36.847  -5.569   2.057  1.00  0.00     0.122 C 
BRANCH   8   9
HETATM    9  N2  UNL     1      36.096  -4.685   1.222  1.00  0.00    -0.367 N 
HETATM   10  C22 UNL     1      36.609  -4.218   0.117  1.00  0.00     0.196 C 
HETATM   11  N3  UNL     1      35.826  -3.350  -0.665  1.00  0.00    -0.067 NA
HETATM   12  N4  UNL     1      37.929  -4.579  -0.287  1.00  0.00    -0.067 NA
ATOM     13  H2  UNL     1      35.150  -4.416   1.492  1.00  0.00     0.161 HD
ENDBRANCH   8   9
ENDBRANCH   7   8
ENDBRANCH   6   7
ENDBRANCH   5   6
BRANCH   5  14
HETATM   14  C23 UNL     1      35.386  -9.684   1.817  1.00  0.00     0.240 C 
HETATM   15  O3  UNL     1      36.497 -10.215   1.587  1.00  0.00    -0.271 OA
HETATM   16  N5  UNL     1      34.321  -9.852   0.918  1.00  0.00    -0.358 N 
ATOM     17  H5  UNL     1      33.422  -9.412   1.114  1.00  0.00     0.162 HD
BRANCH  16  18
HETATM   18  C24 UNL     1      34.482 -10.636  -0.273  1.00  0.00     0.142 C 
BRANCH  18  19
HETATM   19  C25 UNL     1      34.075  -9.904  -1.516  1.00  0.00     0.141 C 
BRANCH  19  20
HETATM   20  N6  UNL     1      34.108  -8.473  -1.224  1.00  0.00    -0.365 N 
HETATM   21  C26 UNL     1      33.208  -7.711  -1.685  1.00  0.00     0.197 C 
HETATM   22  N7  UNL     1      32.167  -8.225  -2.479  1.00  0.00    -0.067 NA
HETATM   23  N8  UNL     1      33.286  -6.327  -1.382  1.00  0.00    -0.067 NA
ATOM     24  H6  UNL     1      34.856  -8.087  -0.649  1.00  0.00     0.161 HD
ENDBRANCH  19  20
ENDBRANCH  18  19
ENDBRANCH  16  18
ENDBRANCH   5  14
ENDBRANCH   2   5
BRANCH   3  25
HETATM   25  C3  UNL     1      34.881 -12.048   5.341  1.00  0.00     0.103 C 
BRANCH  25  26
HETATM   26  C4  UNL     1      33.965 -13.203   5.193  1.00  0.00     0.011 C 
BRANCH  26  27
HETATM   27  C5  UNL     1      34.553 -14.533   5.492  1.00  0.00     0.027 C 
BRANCH  27  28
HETATM   28  C6  UNL     1      35.668 -14.944   4.574  1.00  0.00     0.167 C 
BRANCH  28  29
HETATM   29  O2  UNL     1      36.844 -15.108   5.236  1.00  0.00    -0.391 OA
BRANCH  29  30
HETATM   30  C7  UNL     1      36.833 -14.932   6.593  1.00  0.00     0.172 C 
BRANCH  30  31
HETATM   31  C8  UNL     1      38.170 -14.358   7.030  1.00  0.00     0.014 C 
HETATM   32  C9  UNL     1      38.845 -13.646   5.884  1.00  0.00     0.007 C 
HETATM   33  C10 UNL     1      38.390 -12.210   5.812  1.00  0.00     0.001 C 
HETATM   34  C11 UNL     1      38.710 -11.460   7.066  1.00  0.00     0.005 C 
HETATM   35  C12 UNL     1      39.169 -12.429   8.110  1.00  0.00    -0.010 C 
HETATM   36  C13 UNL     1      39.381 -11.740   9.466  1.00  0.00     0.005 C 
HETATM   37  C17 UNL     1      38.109 -13.520   8.259  1.00  0.00    -0.004 C 
HETATM   38  C14 UNL     1      40.275 -12.693  10.251  1.00  0.00     0.000 C 
HETATM   39  C15 UNL     1      39.971 -14.101   9.851  1.00  0.00     0.000 C 
HETATM   40  C16 UNL     1      38.514 -14.306   9.508  1.00  0.00     0.005 C 
ENDBRANCH  30  31
ENDBRANCH  29  30
ENDBRANCH  28  29
ENDBRANCH  27  28
ENDBRANCH  26  27
ENDBRANCH  25  26
ENDBRANCH   3  25
TORSDOF 16
ENDMDL
MODEL 4
REMARK VINA RESULT: -7.737723935      1.477      1.997
REMARK  16 active torsions:
REMARK  status: ('A' for Active; 'I' for Inactive)
REMARK       I    between atoms: N1_2  and  C2_3 
REMARK    1  A    between atoms: N1_2  and  C18_21 
REMARK    2  A    between atoms: C2_3  and  C3_5 
REMARK    3  A    between atoms: C3_5  and  C4_6 
REMARK    4  A    between atoms: C4_6  and  C5_7 
REMARK    5  A    between atoms: C5_7  and  C6_8 
REMARK    6  A    between atoms: C6_8  and  O2_9 
REMARK    7  A    between atoms: O2_9  and  C7_10 
REMARK    8  A    between atoms: C7_10  and  C8_11 
REMARK    9  A    between atoms: C18_21  and  C19_22 
REMARK   10  A    between atoms: C18_21  and  C23_30 
REMARK   11  A    between atoms: C19_22  and  C20_23 
REMARK   12  A    between atoms: C20_23  and  C21_24 
REMARK   13  A    between atoms: C21_24  and  N2_25 
REMARK       I    between atoms: C23_30  and  N5_32 
REMARK   14  A    between atoms: N5_32  and  C24_34 
REMARK   15  A    between atoms: C24_34  and  C25_35 
REMARK   16  A    between atoms: C25_35  and  N6_36 
ROOT
HETATM    1  C1  UNL     1      36.691 -11.350   4.573  1.00  0.00     0.153 C 
HETATM    2  N1  UNL     1      35.475 -11.071   3.795  1.00  0.00    -0.343 N 
HETATM    3  C2  UNL     1      34.585 -12.134   3.608  1.00  0.00     0.220 C 
HETATM    4  O1  UNL     1      33.517 -12.034   2.970  1.00  0.00    -0.273 OA
ENDROOT
BRANCH   2   5
HETATM    5  C18 UNL     1      35.313  -9.714   3.298  1.00  0.00     0.178 C 
BRANCH   5   6
HETATM    6  C19 UNL     1      36.293  -8.737   3.798  1.00  0.00     0.037 C 
BRANCH   6   7
HETATM    7  C20 UNL     1      36.130  -7.317   3.396  1.00  0.00     0.022 C 
BRANCH   7   8
HETATM    8  C21 UNL     1      37.069  -6.778   2.378  1.00  0.00     0.122 C 
BRANCH   8   9
HETATM    9  N2  UNL     1      36.498  -6.456   1.108  1.00  0.00    -0.367 N 
HETATM   10  C22 UNL     1      36.770  -5.321   0.525  1.00  0.00     0.196 C 
HETATM   11  N3  UNL     1      36.179  -5.056  -0.724  1.00  0.00    -0.067 NA
HETATM   12  N4  UNL     1      37.645  -4.375   1.138  1.00  0.00    -0.067 NA
ATOM     13  H2  UNL     1      35.872  -7.120   0.652  1.00  0.00     0.161 HD
ENDBRANCH   8   9
ENDBRANCH   7   8
ENDBRANCH   6   7
ENDBRANCH   5   6
BRANCH   5  14
HETATM   14  C23 UNL     1      35.353  -9.860   1.795  1.00  0.00     0.240 C 
HETATM   15  O3  UNL     1      36.446 -10.207   1.290  1.00  0.00    -0.271 OA
HETATM   16  N5  UNL     1      34.238  -9.621   0.976  1.00  0.00    -0.358 N 
ATOM     17  H5  UNL     1      33.355  -9.336   1.399  1.00  0.00     0.162 HD
BRANCH  16  18
HETATM   18  C24 UNL     1      34.326  -9.775  -0.448  1.00  0.00     0.142 C 
BRANCH  18  19
HETATM   19  C25 UNL     1      33.687 -11.037  -0.942  1.00  0.00     0.141 C 
BRANCH  19  20
HETATM   20  N6  UNL     1      34.157 -12.136  -0.103  1.00  0.00    -0.365 N 
HETATM   21  C26 UNL     1      33.691 -13.302  -0.265  1.00  0.00     0.197 C 
HETATM   22  N7  UNL     1      32.720 -13.558  -1.249  1.00  0.00    -0.067 NA
HETATM   23  N8  UNL     1      34.172 -14.336   0.580  1.00  0.00    -0.067 NA
ATOM     24  H6  UNL     1      34.862 -11.965   0.614  1.00  0.00     0.161 HD
ENDBRANCH  19  20
ENDBRANCH  18  19
ENDBRANCH  16  18
ENDBRANCH   5  14
ENDBRANCH   2   5
BRANCH   3  25
HETATM   25  C3  UNL     1      34.863 -13.503   4.180  1.00  0.00     0.103 C 
BRANCH  25  26
HETATM   26  C4  UNL     1      33.906 -13.804   5.271  1.00  0.00     0.011 C 
BRANCH  26  27
HETATM   27  C5  UNL     1      34.017 -15.159   5.868  1.00  0.00     0.027 C 
BRANCH  27  28
HETATM   28  C6  UNL     1      35.288 -15.885   5.539  1.00  0.00     0.167 C 
BRANCH  28  29
HETATM   29  O2  UNL     1      36.190 -15.828   6.556  1.00  0.00    -0.391 OA
BRANCH  29  30
HETATM   30  C7  UNL     1      37.335 -15.110   6.342  1.00  0.00     0.172 C 
BRANCH  30  31
HETATM   31  C8  UNL     1      38.038 -14.890   7.671  1.00  0.00     0.014 C 
HETATM   32  C9  UNL     1      38.783 -16.133   8.093  1.00  0.00     0.007 C 
HETATM   33  C10 UNL     1      40.170 -16.145   7.500  1.00  0.00     0.001 C 
HETATM   34  C11 UNL     1      40.974 -14.961   7.939  1.00  0.00     0.005 C 
HETATM   35  C12 UNL     1      40.074 -13.994   8.641  1.00  0.00    -0.010 C 
HETATM   36  C13 UNL     1      40.808 -12.692   8.993  1.00  0.00     0.005 C 
HETATM   37  C17 UNL     1      38.894 -13.673   7.722  1.00  0.00    -0.004 C 
HETATM   38  C14 UNL     1      39.958 -12.048  10.082  1.00  0.00     0.000 C 
HETATM   39  C15 UNL     1      38.520 -12.385   9.853  1.00  0.00     0.000 C 
HETATM   40  C16 UNL     1      38.176 -12.497   8.385  1.00  0.00     0.005 C 
ENDBRANCH  30  31
ENDBRANCH  29  30
ENDBRANCH  28  29
ENDBRANCH  27  28
ENDBRANCH  26  27
ENDBRANCH  25  26
ENDBRANCH   3  25
TORSDOF 16
ENDMDL
MODEL 5
REMARK VINA RESULT: -7.722731500      1.281      3.696
REMARK  16 active torsions:
REMARK  status: ('A' for Active; 'I' for Inactive)
REMARK       I    between atoms: N1_2  and  C2_3 
REMARK    1  A    between atoms: N1_2  and  C18_21 
REMARK    2  A    between atoms: C2_3  and  C3_5 
REMARK    3  A    between atoms: C3_5  and  C4_6 
REMARK    4  A    between atoms: C4_6  and  C5_7 
REMARK    5  A    between atoms: C5_7  and  C6_8 
REMARK    6  A    between atoms: C6_8  and  O2_9 
REMARK    7  A    between atoms: O2_9  and  C7_10 
REMARK    8  A    between atoms: C7_10  and  C8_11 
REMARK    9  A    between atoms: C18_21  and  C19_22 
REMARK   10  A    between atoms: C18_21  and  C23_30 
REMARK   11  A    between atoms: C19_22  and  C20_23 
REMARK   12  A    between atoms: C20_23  and  C21_24 
REMARK   13  A    between atoms: C21_24  and  N2_25 
REMARK       I    between atoms: C23_30  and  N5_32 
REMARK   14  A    between atoms: N5_32  and  C24_34 
REMARK   15  A    between atoms: C24_34  and  C25_35 
REMARK   16  A    between atoms: C25_35  and  N6_36 
ROOT
HETATM    1  C1  UNL     1      33.876 -12.411   3.605  1.00  0.00     0.153 C 
HETATM    2  N1  UNL     1      35.166 -11.744   3.378  1.00  0.00    -0.343 N 
HETATM    3  C2  UNL     1      36.133 -11.878   4.380  1.00  0.00     0.220 C 
HETATM    4  O1  UNL     1      37.270 -11.364   4.314  1.00  0.00    -0.273 OA
ENDROOT
BRANCH   2   5
HETATM    5  C18 UNL     1      35.315 -11.012   2.130  1.00  0.00     0.178 C 
BRANCH   5   6
HETATM    6  C19 UNL     1      34.296 -11.295   1.107  1.00  0.00     0.037 C 
BRANCH   6   7
HETATM    7  C20 UNL     1      34.611 -10.960  -0.305  1.00  0.00     0.022 C 
BRANCH   7   8
HETATM    8  C21 UNL     1      34.010  -9.723  -0.869  1.00  0.00     0.122 C 
BRANCH   8   9
HETATM    9  N2  UNL     1      32.797  -9.895  -1.605  1.00  0.00    -0.367 N 
HETATM   10  C22 UNL     1      32.217  -8.877  -2.178  1.00  0.00     0.196 C 
HETATM   11  N3  UNL     1      31.024  -9.104  -2.889  1.00  0.00    -0.067 NA
HETATM   12  N4  UNL     1      32.778  -7.568  -2.087  1.00  0.00    -0.067 NA
ATOM     13  H2  UNL     1      32.381 -10.823  -1.684  1.00  0.00     0.161 HD
ENDBRANCH   8   9
ENDBRANCH   7   8
ENDBRANCH   6   7
ENDBRANCH   5   6
BRANCH   5  14
HETATM   14  C23 UNL     1      35.330  -9.560   2.548  1.00  0.00     0.240 C 
HETATM   15  O3  UNL     1      34.223  -9.035   2.809  1.00  0.00    -0.271 OA
HETATM   16  N5  UNL     1      36.511  -8.809   2.646  1.00  0.00    -0.358 N 
ATOM     17  H5  UNL     1      37.407  -9.246   2.427  1.00  0.00     0.162 HD
BRANCH  16  18
HETATM   18  C24 UNL     1      36.474  -7.432   3.049  1.00  0.00     0.142 C 
BRANCH  18  19
HETATM   19  C25 UNL     1      37.206  -6.525   2.106  1.00  0.00     0.141 C 
BRANCH  19  20
HETATM   20  N6  UNL     1      36.399  -6.391   0.896  1.00  0.00    -0.365 N 
HETATM   21  C26 UNL     1      36.405  -5.304   0.247  1.00  0.00     0.197 C 
HETATM   22  N7  UNL     1      37.186  -4.215   0.675  1.00  0.00    -0.067 NA
HETATM   23  N8  UNL     1      35.599  -5.217  -0.918  1.00  0.00    -0.067 NA
ATOM     24  H6  UNL     1      35.829  -7.173   0.574  1.00  0.00     0.161 HD
ENDBRANCH  19  20
ENDBRANCH  18  19
ENDBRANCH  16  18
ENDBRANCH   5  14
ENDBRANCH   2   5
BRANCH   3  25
HETATM   25  C3  UNL     1      35.862 -12.671   5.635  1.00  0.00     0.103 C 
BRANCH  25  26
HETATM   26  C4  UNL     1      36.621 -13.944   5.609  1.00  0.00     0.011 C 
BRANCH  26  27
HETATM   27  C5  UNL     1      35.834 -15.168   5.904  1.00  0.00     0.027 C 
BRANCH  27  28
HETATM   28  C6  UNL     1      36.624 -16.285   6.523  1.00  0.00     0.167 C 
BRANCH  28  29
HETATM   29  O2  UNL     1      37.737 -15.834   7.161  1.00  0.00    -0.391 OA
BRANCH  29  30
HETATM   30  C7  UNL     1      37.931 -16.240   8.453  1.00  0.00     0.172 C 
BRANCH  30  31
HETATM   31  C8  UNL     1      38.800 -15.221   9.169  1.00  0.00     0.014 C 
HETATM   32  C9  UNL     1      40.126 -15.828   9.557  1.00  0.00     0.007 C 
HETATM   33  C10 UNL     1      41.117 -15.700   8.428  1.00  0.00     0.001 C 
HETATM   34  C11 UNL     1      41.362 -14.270   8.061  1.00  0.00     0.005 C 
HETATM   35  C12 UNL     1      40.362 -13.408   8.764  1.00  0.00    -0.010 C 
HETATM   36  C13 UNL     1      40.469 -11.941   8.321  1.00  0.00     0.005 C 
HETATM   37  C17 UNL     1      38.961 -13.929   8.444  1.00  0.00    -0.004 C 
HETATM   38  C14 UNL     1      39.774 -11.150   9.423  1.00  0.00     0.000 C 
HETATM   39  C15 UNL     1      38.664 -11.971   9.997  1.00  0.00     0.000 C 
HETATM   40  C16 UNL     1      38.003 -12.858   8.968  1.00  0.00     0.005 C 
ENDBRANCH  30  31
ENDBRANCH  29  30
ENDBRANCH  28  29
ENDBRANCH  27  28
ENDBRANCH  26  27
ENDBRANCH  25  26
ENDBRANCH   3  25
TORSDOF 16
ENDMDL
