MODEL 1
REMARK VINA RESULT: -6.297402750      0.000      0.000
REMARK  1 active torsions:
REMARK  status: ('A' for Active; 'I' for Inactive)
REMARK    1  A    between atoms: C8_8  and  O1_9 
ROOT
HETATM    1  C1  UNL     1      38.557  -4.554  14.723  1.00  0.00     0.022 C 
HETATM    2  C2  UNL     1      38.200  -3.317  15.528  1.00  0.00    -0.002 C 
HETATM    3  C3  UNL     1      39.146  -2.189  15.288  1.00  0.00     0.016 C 
HETATM    4  C4  UNL     1      38.859  -1.351  14.109  1.00  0.00     0.009 C 
HETATM    5  C5  UNL     1      37.531  -1.543  13.473  1.00  0.00     0.020 C 
HETATM    6  C6  UNL     1      36.498  -1.749  14.548  1.00  0.00    -0.000 C 
HETATM    7  C7  UNL     1      35.106  -1.814  13.979  1.00  0.00     0.038 C 
HETATM    8  C8  UNL     1      35.072  -1.789  12.488  1.00  0.00     0.131 C 
HETATM    9  C9  UNL     1      35.897  -0.709  11.874  1.00  0.00     0.030 C 
HETATM   10  C10 UNL     1      36.095  -0.873  10.397  1.00  0.00     0.023 C 
HETATM   11  C11 UNL     1      35.440   0.653  12.279  1.00  0.00     0.182 C 
HETATM   12  O2  UNL     1      36.344   0.599  13.361  1.00  0.00    -0.384 OA
HETATM   13  C12 UNL     1      37.110  -0.332  12.667  1.00  0.00     0.138 C 
HETATM   14  C13 UNL     1      36.761  -2.966  15.361  1.00  0.00     0.004 C 
HETATM   15  C14 UNL     1      36.152  -2.808  16.722  1.00  0.00     0.011 C 
HETATM   16  C15 UNL     1      37.175  -3.194  17.740  1.00  0.00     0.053 C 
HETATM   17  C16 UNL     1      38.310  -3.708  16.955  1.00  0.00    -0.012 C 
HETATM   18  N1  UNL     1      39.271  -4.400  17.416  1.00  0.00    -0.405 N 
ATOM     19  H11 UNL     1      39.347  -4.669  18.397  1.00  0.00     0.155 HD
ATOM     20  H12 UNL     1      40.058  -4.756  16.872  1.00  0.00     0.155 HD
ENDROOT
BRANCH   8  21
HETATM   21  O1  UNL     1      35.360  -3.058  11.980  1.00  0.00    -0.395 OA
ATOM     22  H1  UNL     1      34.906  -3.190  11.156  1.00  0.00     0.210 HD
ENDBRANCH   8  21
TORSDOF 1
ENDMDL
MODEL 2
REMARK VINA RESULT: -5.838448028      2.961      4.725
REMARK  1 active torsions:
REMARK  status: ('A' for Active; 'I' for Inactive)
REMARK    1  A    between atoms: C8_8  and  O1_9 
ROOT
HETATM    1  C1  UNL     1      37.629  -2.622  16.082  1.00  0.00     0.022 C 
HETATM    2  C2  UNL     1      37.892  -2.711  14.589  1.00  0.00    -0.002 C 
HETATM    3  C3  UNL     1      38.885  -3.771  14.247  1.00  0.00     0.016 C 
HETATM    4  C4  UNL     1      38.343  -5.136  14.107  1.00  0.00     0.009 C 
HETATM    5  C5  UNL     1      36.864  -5.252  14.038  1.00  0.00     0.020 C 
HETATM    6  C6  UNL     1      36.320  -4.113  13.218  1.00  0.00    -0.000 C 
HETATM    7  C7  UNL     1      34.838  -4.245  12.993  1.00  0.00     0.038 C 
HETATM    8  C8  UNL     1      34.226  -5.390  13.728  1.00  0.00     0.131 C 
HETATM    9  C9  UNL     1      34.953  -6.682  13.567  1.00  0.00     0.030 C 
HETATM   10  C10 UNL     1      34.512  -7.741  14.532  1.00  0.00     0.023 C 
HETATM   11  C11 UNL     1      34.995  -7.134  12.145  1.00  0.00     0.182 C 
HETATM   12  O2  UNL     1      36.218  -6.446  11.997  1.00  0.00    -0.384 OA
HETATM   13  C12 UNL     1      36.430  -6.539  13.369  1.00  0.00     0.138 C 
HETATM   14  C13 UNL     1      36.615  -2.787  13.824  1.00  0.00     0.004 C 
HETATM   15  C14 UNL     1      36.640  -1.736  12.756  1.00  0.00     0.011 C 
HETATM   16  C15 UNL     1      37.874  -0.912  12.939  1.00  0.00     0.053 C 
HETATM   17  C16 UNL     1      38.469  -1.402  14.193  1.00  0.00    -0.012 C 
HETATM   18  N1  UNL     1      39.362  -0.801  14.870  1.00  0.00    -0.405 N 
ATOM     19  H11 UNL     1      39.759   0.098  14.598  1.00  0.00     0.155 HD
ATOM     20  H12 UNL     1      39.775  -1.141  15.739  1.00  0.00     0.155 HD
ENDROOT
BRANCH   8  21
HETATM   21  O1  UNL     1      34.011  -5.042  15.064  1.00  0.00    -0.395 OA
ATOM     22  H1  UNL     1      34.609  -4.350  15.322  1.00  0.00     0.210 HD
ENDBRANCH   8  21
TORSDOF 1
ENDMDL
MODEL 3
REMARK VINA RESULT: -5.817323864      3.078      4.939
REMARK  1 active torsions:
REMARK  status: ('A' for Active; 'I' for Inactive)
REMARK    1  A    between atoms: C8_8  and  O1_9 
ROOT
HETATM    1  C1  UNL     1      36.334  -1.395  11.773  1.00  0.00     0.022 C 
HETATM    2  C2  UNL     1      36.697  -1.690  13.217  1.00  0.00    -0.002 C 
HETATM    3  C3  UNL     1      35.528  -1.567  14.136  1.00  0.00     0.016 C 
HETATM    4  C4  UNL     1      34.665  -2.759  14.240  1.00  0.00     0.009 C 
HETATM    5  C5  UNL     1      35.205  -4.014  13.657  1.00  0.00     0.020 C 
HETATM    6  C6  UNL     1      36.680  -4.095  13.947  1.00  0.00    -0.000 C 
HETATM    7  C7  UNL     1      37.264  -5.408  13.503  1.00  0.00     0.038 C 
HETATM    8  C8  UNL     1      36.294  -6.272  12.769  1.00  0.00     0.131 C 
HETATM    9  C9  UNL     1      34.975  -6.427  13.448  1.00  0.00     0.030 C 
HETATM   10  C10 UNL     1      33.921  -7.039  12.575  1.00  0.00     0.023 C 
HETATM   11  C11 UNL     1      35.101  -7.067  14.790  1.00  0.00     0.182 C 
HETATM   12  O2  UNL     1      35.223  -5.780  15.356  1.00  0.00    -0.384 OA
HETATM   13  C12 UNL     1      34.557  -5.241  14.261  1.00  0.00     0.138 C 
HETATM   14  C13 UNL     1      37.442  -2.977  13.330  1.00  0.00     0.004 C 
HETATM   15  C14 UNL     1      38.699  -2.730  14.108  1.00  0.00     0.011 C 
HETATM   16  C15 UNL     1      38.809  -1.262  14.366  1.00  0.00     0.053 C 
HETATM   17  C16 UNL     1      37.695  -0.664  13.610  1.00  0.00    -0.012 C 
HETATM   18  N1  UNL     1      37.580   0.567  13.317  1.00  0.00    -0.405 N 
ATOM     19  H11 UNL     1      38.265   1.273  13.587  1.00  0.00     0.155 HD
ATOM     20  H12 UNL     1      36.808   0.982  12.794  1.00  0.00     0.155 HD
ENDROOT
BRANCH   8  21
HETATM   21  O1  UNL     1      36.184  -5.851  11.442  1.00  0.00    -0.395 OA
ATOM     22  H1  UNL     1      37.006  -5.989  10.986  1.00  0.00     0.210 HD
ENDBRANCH   8  21
TORSDOF 1
ENDMDL
MODEL 4
REMARK VINA RESULT: -5.662610301      2.892      5.371
REMARK  1 active torsions:
REMARK  status: ('A' for Active; 'I' for Inactive)
REMARK    1  A    between atoms: C8_8  and  O1_9 
ROOT
HETATM    1  C1  UNL     1      35.852  -0.360  14.006  1.00  0.00     0.022 C 
HETATM    2  C2  UNL     1      36.486  -1.238  12.942  1.00  0.00    -0.002 C 
HETATM    3  C3  UNL     1      37.959  -1.029  12.835  1.00  0.00     0.016 C 
HETATM    4  C4  UNL     1      38.787  -1.797  13.784  1.00  0.00     0.009 C 
HETATM    5  C5  UNL     1      38.098  -2.882  14.528  1.00  0.00     0.020 C 
HETATM    6  C6  UNL     1      37.133  -3.575  13.604  1.00  0.00    -0.000 C 
HETATM    7  C7  UNL     1      36.500  -4.774  14.256  1.00  0.00     0.038 C 
HETATM    8  C8  UNL     1      36.867  -4.932  15.693  1.00  0.00     0.131 C 
HETATM    9  C9  UNL     1      38.329  -4.831  15.967  1.00  0.00     0.030 C 
HETATM   10  C10 UNL     1      38.657  -4.693  17.423  1.00  0.00     0.023 C 
HETATM   11  C11 UNL     1      39.112  -5.890  15.265  1.00  0.00     0.182 C 
HETATM   12  O2  UNL     1      39.271  -5.006  14.177  1.00  0.00    -0.384 OA
HETATM   13  C12 UNL     1      39.071  -3.927  15.032  1.00  0.00     0.138 C 
HETATM   14  C13 UNL     1      36.071  -2.661  13.105  1.00  0.00     0.004 C 
HETATM   15  C14 UNL     1      35.554  -3.156  11.788  1.00  0.00     0.011 C 
HETATM   16  C15 UNL     1      35.518  -2.005  10.836  1.00  0.00     0.053 C 
HETATM   17  C16 UNL     1      35.873  -0.832  11.653  1.00  0.00    -0.012 C 
HETATM   18  N1  UNL     1      35.689   0.381  11.321  1.00  0.00    -0.405 N 
ATOM     19  H11 UNL     1      35.268   0.660  10.434  1.00  0.00     0.155 HD
ATOM     20  H12 UNL     1      35.936   1.194  11.886  1.00  0.00     0.155 HD
ENDROOT
BRANCH   8  21
HETATM   21  O1  UNL     1      36.098  -4.074  16.482  1.00  0.00    -0.395 OA
ATOM     22  H1  UNL     1      36.467  -3.199  16.468  1.00  0.00     0.210 HD
ENDBRANCH   8  21
TORSDOF 1
ENDMDL
MODEL 5
REMARK VINA RESULT: -5.555285273      1.269      2.928
REMARK  1 active torsions:
REMARK  status: ('A' for Active; 'I' for Inactive)
REMARK    1  A    between atoms: C8_8  and  O1_9 
ROOT
HETATM    1  C1  UNL     1      37.578  -3.066  17.193  1.00  0.00     0.022 C 
HETATM    2  C2  UNL     1      37.285  -3.920  15.972  1.00  0.00    -0.002 C 
HETATM    3  C3  UNL     1      35.826  -4.019  15.682  1.00  0.00     0.016 C 
HETATM    4  C4  UNL     1      35.252  -2.915  14.892  1.00  0.00     0.009 C 
HETATM    5  C5  UNL     1      36.223  -1.997  14.243  1.00  0.00     0.020 C 
HETATM    6  C6  UNL     1      37.386  -2.801  13.724  1.00  0.00    -0.000 C 
HETATM    7  C7  UNL     1      38.343  -1.950  12.934  1.00  0.00     0.038 C 
HETATM    8  C8  UNL     1      37.999  -0.499  12.949  1.00  0.00     0.131 C 
HETATM    9  C9  UNL     1      36.571  -0.203  12.636  1.00  0.00     0.030 C 
HETATM   10  C10 UNL     1      36.171   1.209  12.942  1.00  0.00     0.023 C 
HETATM   11  C11 UNL     1      36.184  -0.663  11.270  1.00  0.00     0.182 C 
HETATM   12  O2  UNL     1      35.789  -1.896  11.832  1.00  0.00    -0.384 OA
HETATM   13  C12 UNL     1      35.612  -1.272  13.063  1.00  0.00     0.138 C 
HETATM   14  C13 UNL     1      38.121  -3.499  14.811  1.00  0.00     0.004 C 
HETATM   15  C14 UNL     1      38.809  -4.712  14.260  1.00  0.00     0.011 C 
HETATM   16  C15 UNL     1      38.512  -5.868  15.158  1.00  0.00     0.053 C 
HETATM   17  C16 UNL     1      37.780  -5.282  16.294  1.00  0.00    -0.012 C 
HETATM   18  N1  UNL     1      37.583  -5.848  17.415  1.00  0.00    -0.405 N 
ATOM     19  H11 UNL     1      37.923  -6.784  17.636  1.00  0.00     0.155 HD
ATOM     20  H12 UNL     1      37.076  -5.442  18.202  1.00  0.00     0.155 HD
ENDROOT
BRANCH   8  21
HETATM   21  O1  UNL     1      38.434   0.086  14.141  1.00  0.00    -0.395 OA
ATOM     22  H1  UNL     1      37.759   0.656  14.490  1.00  0.00     0.210 HD
ENDBRANCH   8  21
TORSDOF 1
ENDMDL
