MODEL 1
REMARK VINA RESULT: -5.407765953      0.000      0.000
REMARK  5 active torsions:
REMARK  status: ('A' for Active; 'I' for Inactive)
REMARK    1  A    between atoms: C7_7  and  O1_8 
REMARK    2  A    between atoms: O1_8  and  C8_9 
REMARK    3  A    between atoms: C8_9  and  N2_16 
REMARK    4  A    between atoms: N1_10  and  C9_12 
REMARK    5  A    between atoms: N2_16  and  N3_18 
ROOT
HETATM    1  C8  UNL     1      38.310  -2.382  14.105  1.00  0.00     0.234 C 
HETATM    2  N1  UNL     1      37.784  -3.509  14.362  1.00  0.00    -0.347 N 
ATOM      3  H1  UNL     1      37.043  -3.873  13.764  1.00  0.00     0.163 HD
ENDROOT
BRANCH   1   4
HETATM    4  O1  UNL     1      37.755  -1.793  12.980  1.00  0.00    -0.315 OA
BRANCH   4   5
HETATM    5  C7  UNL     1      36.426  -1.778  12.700  1.00  0.00     0.137 C 
HETATM    6  C6  UNL     1      35.813  -0.647  13.546  1.00  0.00     0.023 C 
HETATM    7  C5  UNL     1      34.455  -1.056  13.972  1.00  0.00     0.008 C 
HETATM    8  C15 UNL     1      35.892   0.556  12.682  1.00  0.00     0.020 C 
HETATM    9  C4  UNL     1      33.693   0.092  14.556  1.00  0.00     0.005 C 
HETATM   10  C3  UNL     1      33.549   1.237  13.595  1.00  0.00     0.034 C 
HETATM   11  C2  UNL     1      34.804   1.528  12.849  1.00  0.00    -0.085 C 
HETATM   12  C1  UNL     1      34.934   2.730  12.312  1.00  0.00     0.014 C 
HETATM   13  C14 UNL     1      35.985   0.094  11.244  1.00  0.00     0.012 C 
HETATM   14  C13 UNL     1      35.944  -1.389  11.354  1.00  0.00     0.034 C 
ENDBRANCH   4   5
ENDBRANCH   1   4
BRANCH   1  15
HETATM   15  N2  UNL     1      39.346  -1.774  14.861  1.00  0.00    -0.272 N 
ATOM     16  H2  UNL     1      40.026  -2.331  15.378  1.00  0.00     0.190 HD
BRANCH  15  17
HETATM   17  N3  UNL     1      39.394  -0.372  14.867  1.00  0.00    -0.342 N 
ATOM     18  H32 UNL     1      39.024   0.155  15.657  1.00  0.00     0.176 HD
ATOM     19  H31 UNL     1      39.811   0.082  14.054  1.00  0.00     0.176 HD
ENDBRANCH  15  17
ENDBRANCH   1  15
BRANCH   2  20
HETATM   20  C9  UNL     1      38.229  -4.272  15.494  1.00  0.00     0.022 C 
HETATM   21  C10 UNL     1      39.656  -4.759  15.342  1.00  0.00     0.037 C 
HETATM   22  C11 UNL     1      37.297  -5.483  15.622  1.00  0.00     0.037 C 
HETATM   23  C12 UNL     1      38.131  -3.486  16.786  1.00  0.00     0.037 C 
ENDBRANCH   2  20
TORSDOF 5
ENDMDL
MODEL 2
REMARK VINA RESULT: -5.060610444      1.738      2.444
REMARK  5 active torsions:
REMARK  status: ('A' for Active; 'I' for Inactive)
REMARK    1  A    between atoms: C7_7  and  O1_8 
REMARK    2  A    between atoms: O1_8  and  C8_9 
REMARK    3  A    between atoms: C8_9  and  N2_16 
REMARK    4  A    between atoms: N1_10  and  C9_12 
REMARK    5  A    between atoms: N2_16  and  N3_18 
ROOT
HETATM    1  C8  UNL     1      38.513  -3.858  15.956  1.00  0.00     0.234 C 
HETATM    2  N1  UNL     1      38.365  -5.091  15.688  1.00  0.00    -0.347 N 
ATOM      3  H1  UNL     1      37.617  -5.389  15.062  1.00  0.00     0.163 HD
ENDROOT
BRANCH   1   4
HETATM    4  O1  UNL     1      37.574  -3.068  15.313  1.00  0.00    -0.315 OA
BRANCH   4   5
HETATM    5  C7  UNL     1      37.512  -2.894  13.967  1.00  0.00     0.137 C 
HETATM    6  C6  UNL     1      36.185  -2.169  13.680  1.00  0.00     0.023 C 
HETATM    7  C5  UNL     1      35.643  -2.662  12.393  1.00  0.00     0.008 C 
HETATM    8  C15 UNL     1      36.522  -0.726  13.736  1.00  0.00     0.020 C 
HETATM    9  C4  UNL     1      34.510  -1.811  11.911  1.00  0.00     0.005 C 
HETATM   10  C3  UNL     1      34.906  -0.375  11.724  1.00  0.00     0.034 C 
HETATM   11  C2  UNL     1      35.755   0.140  12.832  1.00  0.00    -0.085 C 
HETATM   12  C1  UNL     1      35.812   1.450  13.002  1.00  0.00     0.014 C 
HETATM   13  C14 UNL     1      38.008  -0.584  13.484  1.00  0.00     0.012 C 
HETATM   14  C13 UNL     1      38.461  -1.986  13.280  1.00  0.00     0.034 C 
ENDBRANCH   4   5
ENDBRANCH   1   4
BRANCH   1  15
HETATM   15  N2  UNL     1      39.515  -3.324  16.809  1.00  0.00    -0.272 N 
ATOM     16  H2  UNL     1      39.639  -3.664  17.762  1.00  0.00     0.190 HD
BRANCH  15  17
HETATM   17  N3  UNL     1      40.326  -2.308  16.284  1.00  0.00    -0.342 N 
ATOM     18  H32 UNL     1      40.178  -1.966  15.334  1.00  0.00     0.176 HD
ATOM     19  H31 UNL     1      41.058  -1.937  16.890  1.00  0.00     0.176 HD
ENDBRANCH  15  17
ENDBRANCH   1  15
BRANCH   2  20
HETATM   20  C9  UNL     1      39.247  -6.066  16.263  1.00  0.00     0.022 C 
HETATM   21  C10 UNL     1      40.691  -5.856  15.857  1.00  0.00     0.037 C 
HETATM   22  C11 UNL     1      38.784  -7.444  15.774  1.00  0.00     0.037 C 
HETATM   23  C12 UNL     1      39.177  -6.075  17.777  1.00  0.00     0.037 C 
ENDBRANCH   2  20
TORSDOF 5
ENDMDL
MODEL 3
REMARK VINA RESULT: -5.000357413      1.904      2.956
REMARK  5 active torsions:
REMARK  status: ('A' for Active; 'I' for Inactive)
REMARK    1  A    between atoms: C7_7  and  O1_8 
REMARK    2  A    between atoms: O1_8  and  C8_9 
REMARK    3  A    between atoms: C8_9  and  N2_16 
REMARK    4  A    between atoms: N1_10  and  C9_12 
REMARK    5  A    between atoms: N2_16  and  N3_18 
ROOT
HETATM    1  C8  UNL     1      39.330  -3.960  14.935  1.00  0.00     0.234 C 
HETATM    2  N1  UNL     1      38.827  -5.115  15.092  1.00  0.00    -0.347 N 
ATOM      3  H1  UNL     1      38.012  -5.394  14.545  1.00  0.00     0.163 HD
ENDROOT
BRANCH   1   4
HETATM    4  O1  UNL     1      38.647  -3.218  13.985  1.00  0.00    -0.315 OA
BRANCH   4   5
HETATM    5  C7  UNL     1      37.900  -2.117  14.265  1.00  0.00     0.137 C 
HETATM    6  C6  UNL     1      37.183  -1.731  12.959  1.00  0.00     0.023 C 
HETATM    7  C5  UNL     1      37.082  -0.256  12.892  1.00  0.00     0.008 C 
HETATM    8  C15 UNL     1      35.899  -2.473  12.999  1.00  0.00     0.020 C 
HETATM    9  C4  UNL     1      36.157   0.184  11.799  1.00  0.00     0.005 C 
HETATM   10  C3  UNL     1      34.770  -0.366  11.963  1.00  0.00     0.034 C 
HETATM   11  C2  UNL     1      34.759  -1.800  12.365  1.00  0.00    -0.085 C 
HETATM   12  C1  UNL     1      33.656  -2.493  12.134  1.00  0.00     0.014 C 
HETATM   13  C14 UNL     1      35.594  -2.800  14.445  1.00  0.00     0.012 C 
HETATM   14  C13 UNL     1      36.741  -2.208  15.184  1.00  0.00     0.034 C 
ENDBRANCH   4   5
ENDBRANCH   1   4
BRANCH   1  15
HETATM   15  N2  UNL     1      40.460  -3.461  15.635  1.00  0.00    -0.272 N 
ATOM     16  H2  UNL     1      41.374  -3.908  15.560  1.00  0.00     0.190 HD
BRANCH  15  17
HETATM   17  N3  UNL     1      40.266  -2.325  16.435  1.00  0.00    -0.342 N 
ATOM     18  H32 UNL     1      39.381  -2.179  16.920  1.00  0.00     0.176 HD
ATOM     19  H31 UNL     1      41.042  -1.667  16.504  1.00  0.00     0.176 HD
ENDBRANCH  15  17
ENDBRANCH   1  15
BRANCH   2  20
HETATM   20  C9  UNL     1      39.401  -6.031  16.036  1.00  0.00     0.022 C 
HETATM   21  C10 UNL     1      40.909  -6.118  15.920  1.00  0.00     0.037 C 
HETATM   22  C11 UNL     1      38.795  -7.413  15.758  1.00  0.00     0.037 C 
HETATM   23  C12 UNL     1      39.056  -5.665  17.466  1.00  0.00     0.037 C 
ENDBRANCH   2  20
TORSDOF 5
ENDMDL
MODEL 4
REMARK VINA RESULT: -4.971374541      2.804      4.325
REMARK  5 active torsions:
REMARK  status: ('A' for Active; 'I' for Inactive)
REMARK    1  A    between atoms: C7_7  and  O1_8 
REMARK    2  A    between atoms: O1_8  and  C8_9 
REMARK    3  A    between atoms: C8_9  and  N2_16 
REMARK    4  A    between atoms: N1_10  and  C9_12 
REMARK    5  A    between atoms: N2_16  and  N3_18 
ROOT
HETATM    1  C8  UNL     1      39.560  -5.672  15.653  1.00  0.00     0.234 C 
HETATM    2  N1  UNL     1      38.514  -6.392  15.600  1.00  0.00    -0.347 N 
ATOM      3  H1  UNL     1      37.785  -6.179  14.920  1.00  0.00     0.163 HD
ENDROOT
BRANCH   1   4
HETATM    4  O1  UNL     1      39.537  -4.649  14.719  1.00  0.00    -0.315 OA
BRANCH   4   5
HETATM    5  C7  UNL     1      39.379  -3.335  15.026  1.00  0.00     0.137 C 
HETATM    6  C6  UNL     1      38.419  -2.753  13.973  1.00  0.00     0.023 C 
HETATM    7  C5  UNL     1      38.822  -1.358  13.683  1.00  0.00     0.008 C 
HETATM    8  C15 UNL     1      37.066  -2.934  14.553  1.00  0.00     0.020 C 
HETATM    9  C4  UNL     1      37.779  -0.637  12.886  1.00  0.00     0.005 C 
HETATM   10  C3  UNL     1      36.449  -0.597  13.581  1.00  0.00     0.034 C 
HETATM   11  C2  UNL     1      36.085  -1.896  14.211  1.00  0.00    -0.085 C 
HETATM   12  C1  UNL     1      34.807  -2.115  14.471  1.00  0.00     0.014 C 
HETATM   13  C14 UNL     1      37.214  -3.060  16.054  1.00  0.00     0.012 C 
HETATM   14  C13 UNL     1      38.681  -2.932  16.269  1.00  0.00     0.034 C 
ENDBRANCH   4   5
ENDBRANCH   1   4
BRANCH   1  15
HETATM   15  N2  UNL     1      40.640  -5.870  16.553  1.00  0.00    -0.272 N 
ATOM     16  H2  UNL     1      40.483  -6.025  17.549  1.00  0.00     0.190 HD
BRANCH  15  17
HETATM   17  N3  UNL     1      41.935  -5.841  16.013  1.00  0.00    -0.342 N 
ATOM     18  H32 UNL     1      42.332  -6.673  15.578  1.00  0.00     0.176 HD
ATOM     19  H31 UNL     1      42.446  -4.961  16.078  1.00  0.00     0.176 HD
ENDBRANCH  15  17
ENDBRANCH   1  15
BRANCH   2  20
HETATM   20  C9  UNL     1      38.356  -7.503  16.494  1.00  0.00     0.022 C 
HETATM   21  C10 UNL     1      39.366  -8.604  16.238  1.00  0.00     0.037 C 
HETATM   22  C11 UNL     1      36.943  -8.060  16.284  1.00  0.00     0.037 C 
HETATM   23  C12 UNL     1      38.468  -7.087  17.947  1.00  0.00     0.037 C 
ENDBRANCH   2  20
TORSDOF 5
ENDMDL
MODEL 5
REMARK VINA RESULT: -4.951255395      3.277      6.446
REMARK  5 active torsions:
REMARK  status: ('A' for Active; 'I' for Inactive)
REMARK    1  A    between atoms: C7_7  and  O1_8 
REMARK    2  A    between atoms: O1_8  and  C8_9 
REMARK    3  A    between atoms: C8_9  and  N2_16 
REMARK    4  A    between atoms: N1_10  and  C9_12 
REMARK    5  A    between atoms: N2_16  and  N3_18 
ROOT
HETATM    1  C8  UNL     1      35.461   2.731  12.889  1.00  0.00     0.234 C 
HETATM    2  N1  UNL     1      36.265   3.253  13.722  1.00  0.00    -0.347 N 
ATOM      3  H1  UNL     1      36.827   2.657  14.329  1.00  0.00     0.163 HD
ENDROOT
BRANCH   1   4
HETATM    4  O1  UNL     1      35.479   1.346  12.945  1.00  0.00    -0.315 OA
BRANCH   4   5
HETATM    5  C7  UNL     1      36.458   0.571  12.409  1.00  0.00     0.137 C 
HETATM    6  C6  UNL     1      36.826  -0.471  13.480  1.00  0.00     0.023 C 
HETATM    7  C5  UNL     1      38.279  -0.746  13.394  1.00  0.00     0.008 C 
HETATM    8  C15 UNL     1      35.928  -1.621  13.214  1.00  0.00     0.020 C 
HETATM    9  C4  UNL     1      38.662  -1.944  14.207  1.00  0.00     0.005 C 
HETATM   10  C3  UNL     1      37.932  -3.186  13.781  1.00  0.00     0.034 C 
HETATM   11  C2  UNL     1      36.488  -2.945  13.512  1.00  0.00    -0.085 C 
HETATM   12  C1  UNL     1      35.676  -3.988  13.547  1.00  0.00     0.014 C 
HETATM   13  C14 UNL     1      35.480  -1.540  11.771  1.00  0.00     0.012 C 
HETATM   14  C13 UNL     1      36.168  -0.322  11.263  1.00  0.00     0.034 C 
ENDBRANCH   4   5
ENDBRANCH   1   4
BRANCH   1  15
HETATM   15  N2  UNL     1      34.630   3.454  11.994  1.00  0.00    -0.272 N 
ATOM     16  H2  UNL     1      34.889   4.382  11.658  1.00  0.00     0.190 HD
BRANCH  15  17
HETATM   17  N3  UNL     1      33.436   2.838  11.590  1.00  0.00    -0.342 N 
ATOM     18  H32 UNL     1      33.010   2.111  12.164  1.00  0.00     0.176 HD
ATOM     19  H31 UNL     1      33.027   3.150  10.710  1.00  0.00     0.176 HD
ENDBRANCH  15  17
ENDBRANCH   1  15
BRANCH   2  20
HETATM   20  C9  UNL     1      36.385   4.681  13.811  1.00  0.00     0.022 C 
HETATM   21  C10 UNL     1      37.364   5.246  12.802  1.00  0.00     0.037 C 
HETATM   22  C11 UNL     1      36.878   5.009  15.227  1.00  0.00     0.037 C 
HETATM   23  C12 UNL     1      35.053   5.378  13.623  1.00  0.00     0.037 C 
ENDBRANCH   2  20
TORSDOF 5
ENDMDL
