MODEL 1
REMARK VINA RESULT: -5.319801639      0.000      0.000
REMARK  1 active torsions:
REMARK  status: ('A' for Active; 'I' for Inactive)
REMARK    1  A    between atoms: C8_8  and  O1_9 
ROOT
HETATM    1  C1  UNL     1      38.882  -3.200  16.317  1.00  0.00     0.016 C 
HETATM    2  C2  UNL     1      38.175  -2.206  15.421  1.00  0.00     0.027 C 
HETATM    3  C3  UNL     1      39.090  -1.789  14.295  1.00  0.00     0.010 C 
HETATM    4  C4  UNL     1      38.313  -0.725  13.508  1.00  0.00     0.006 C 
HETATM    5  C5  UNL     1      37.195  -1.474  12.813  1.00  0.00    -0.002 C 
HETATM    6  C6  UNL     1      36.515  -0.501  11.877  1.00  0.00     0.008 C 
HETATM    7  C7  UNL     1      35.012  -0.685  11.888  1.00  0.00     0.034 C 
HETATM    8  C8  UNL     1      34.739  -2.164  11.817  1.00  0.00     0.147 C 
HETATM    9  C9  UNL     1      35.118  -2.760  13.156  1.00  0.00     0.090 C 
HETATM   10  S1  UNL     1      35.438  -4.530  12.996  1.00  0.00    -0.144 SA
HETATM   11  C10 UNL     1      33.870  -5.327  13.317  1.00  0.00     0.086 C 
HETATM   12  C11 UNL     1      32.808  -4.279  13.407  1.00  0.00     0.086 C 
HETATM   13  S2  UNL     1      33.602  -2.810  14.160  1.00  0.00    -0.144 SA
HETATM   14  C12 UNL     1      36.220  -2.004  13.830  1.00  0.00     0.067 C 
HETATM   15  C13 UNL     1      36.900  -2.726  14.900  1.00  0.00    -0.009 C 
HETATM   16  N1  UNL     1      36.411  -3.780  15.382  1.00  0.00    -0.405 N 
ATOM     17  H11 UNL     1      35.527  -4.142  15.021  1.00  0.00     0.155 HD
ATOM     18  H12 UNL     1      36.886  -4.285  16.131  1.00  0.00     0.155 HD
ENDROOT
BRANCH   8  19
HETATM   19  O1  UNL     1      35.434  -2.765  10.770  1.00  0.00    -0.393 OA
ATOM     20  H1  UNL     1      34.860  -3.288  10.223  1.00  0.00     0.210 HD
ENDBRANCH   8  19
TORSDOF 1
ENDMDL
MODEL 2
REMARK VINA RESULT: -5.076232219      2.470      4.246
REMARK  1 active torsions:
REMARK  status: ('A' for Active; 'I' for Inactive)
REMARK    1  A    between atoms: C8_8  and  O1_9 
ROOT
HETATM    1  C1  UNL     1      32.978  -2.648  15.437  1.00  0.00     0.016 C 
HETATM    2  C2  UNL     1      34.000  -2.171  14.428  1.00  0.00     0.027 C 
HETATM    3  C3  UNL     1      34.070  -0.664  14.442  1.00  0.00     0.010 C 
HETATM    4  C4  UNL     1      35.061  -0.289  13.331  1.00  0.00     0.006 C 
HETATM    5  C5  UNL     1      36.419  -0.724  13.839  1.00  0.00    -0.002 C 
HETATM    6  C6  UNL     1      37.453  -0.208  12.864  1.00  0.00     0.008 C 
HETATM    7  C7  UNL     1      38.546  -1.227  12.628  1.00  0.00     0.034 C 
HETATM    8  C8  UNL     1      38.943  -1.781  13.971  1.00  0.00     0.147 C 
HETATM    9  C9  UNL     1      37.812  -2.667  14.448  1.00  0.00     0.090 C 
HETATM   10  S1  UNL     1      37.873  -2.862  16.243  1.00  0.00    -0.144 SA
HETATM   11  C10 UNL     1      38.864  -4.323  16.528  1.00  0.00     0.086 C 
HETATM   12  C11 UNL     1      39.461  -4.760  15.229  1.00  0.00     0.086 C 
HETATM   13  S2  UNL     1      38.221  -4.365  13.939  1.00  0.00    -0.144 SA
HETATM   14  C12 UNL     1      36.480  -2.225  13.933  1.00  0.00     0.067 C 
HETATM   15  C13 UNL     1      35.329  -2.765  14.651  1.00  0.00    -0.009 C 
HETATM   16  N1  UNL     1      35.459  -3.726  15.451  1.00  0.00    -0.405 N 
ATOM     17  H11 UNL     1      36.380  -4.137  15.606  1.00  0.00     0.155 HD
ATOM     18  H12 UNL     1      34.655  -4.104  15.953  1.00  0.00     0.155 HD
ENDROOT
BRANCH   8  19
HETATM   19  O1  UNL     1      39.222  -0.765  14.882  1.00  0.00    -0.393 OA
ATOM     20  H1  UNL     1      39.545  -1.112  15.705  1.00  0.00     0.210 HD
ENDBRANCH   8  19
TORSDOF 1
ENDMDL
MODEL 3
REMARK VINA RESULT: -5.070276359      0.995      1.004
REMARK  1 active torsions:
REMARK  status: ('A' for Active; 'I' for Inactive)
REMARK    1  A    between atoms: C8_8  and  O1_9 
ROOT
HETATM    1  C1  UNL     1      39.217  -2.754  15.590  1.00  0.00     0.016 C 
HETATM    2  C2  UNL     1      38.294  -1.822  14.836  1.00  0.00     0.027 C 
HETATM    3  C3  UNL     1      38.810  -1.615  13.432  1.00  0.00     0.010 C 
HETATM    4  C4  UNL     1      37.857  -0.595  12.792  1.00  0.00     0.006 C 
HETATM    5  C5  UNL     1      36.550  -1.333  12.596  1.00  0.00    -0.002 C 
HETATM    6  C6  UNL     1      35.637  -0.430  11.798  1.00  0.00     0.008 C 
HETATM    7  C7  UNL     1      34.214  -0.495  12.308  1.00  0.00     0.034 C 
HETATM    8  C8  UNL     1      33.881  -1.946  12.532  1.00  0.00     0.147 C 
HETATM    9  C9  UNL     1      34.652  -2.405  13.752  1.00  0.00     0.090 C 
HETATM   10  S1  UNL     1      34.841  -4.202  13.744  1.00  0.00    -0.144 SA
HETATM   11  C10 UNL     1      33.435  -4.831  14.650  1.00  0.00     0.086 C 
HETATM   12  C11 UNL     1      32.495  -3.701  14.926  1.00  0.00     0.086 C 
HETATM   13  S2  UNL     1      33.541  -2.218  15.180  1.00  0.00    -0.144 SA
HETATM   14  C12 UNL     1      35.937  -1.662  13.932  1.00  0.00     0.067 C 
HETATM   15  C13 UNL     1      36.902  -2.302  14.821  1.00  0.00    -0.009 C 
HETATM   16  N1  UNL     1      36.559  -3.250  15.573  1.00  0.00    -0.405 N 
ATOM     17  H11 UNL     1      35.594  -3.582  15.563  1.00  0.00     0.155 HD
ATOM     18  H12 UNL     1      37.232  -3.696  16.195  1.00  0.00     0.155 HD
ENDROOT
BRANCH   8  19
HETATM   19  O1  UNL     1      34.179  -2.720  11.413  1.00  0.00    -0.393 OA
ATOM     20  H1  UNL     1      33.392  -3.002  10.962  1.00  0.00     0.210 HD
ENDBRANCH   8  19
TORSDOF 1
ENDMDL
MODEL 4
REMARK VINA RESULT: -5.062524276      2.180      3.939
REMARK  1 active torsions:
REMARK  status: ('A' for Active; 'I' for Inactive)
REMARK    1  A    between atoms: C8_8  and  O1_9 
ROOT
HETATM    1  C1  UNL     1      35.799  -0.395  11.550  1.00  0.00     0.016 C 
HETATM    2  C2  UNL     1      36.929  -1.072  12.295  1.00  0.00     0.027 C 
HETATM    3  C3  UNL     1      37.429  -0.171  13.398  1.00  0.00     0.010 C 
HETATM    4  C4  UNL     1      38.619  -0.911  14.024  1.00  0.00     0.006 C 
HETATM    5  C5  UNL     1      38.019  -2.091  14.759  1.00  0.00    -0.002 C 
HETATM    6  C6  UNL     1      39.130  -2.744  15.548  1.00  0.00     0.008 C 
HETATM    7  C7  UNL     1      39.026  -4.254  15.501  1.00  0.00     0.034 C 
HETATM    8  C8  UNL     1      37.583  -4.613  15.735  1.00  0.00     0.147 C 
HETATM    9  C9  UNL     1      36.812  -4.226  14.490  1.00  0.00     0.090 C 
HETATM   10  S1  UNL     1      35.059  -4.012  14.870  1.00  0.00    -0.144 SA
HETATM   11  C10 UNL     1      34.313  -5.611  14.585  1.00  0.00     0.086 C 
HETATM   12  C11 UNL     1      35.397  -6.610  14.332  1.00  0.00     0.086 C 
HETATM   13  S2  UNL     1      36.722  -5.710  13.442  1.00  0.00    -0.144 SA
HETATM   14  C12 UNL     1      37.422  -3.062  13.776  1.00  0.00     0.067 C 
HETATM   15  C13 UNL     1      36.542  -2.391  12.824  1.00  0.00    -0.009 C 
HETATM   16  N1  UNL     1      35.465  -2.923  12.451  1.00  0.00    -0.405 N 
ATOM     17  H11 UNL     1      35.197  -3.837  12.818  1.00  0.00     0.155 HD
ATOM     18  H12 UNL     1      34.851  -2.454  11.786  1.00  0.00     0.155 HD
ENDROOT
BRANCH   8  19
HETATM   19  O1  UNL     1      37.075  -3.987  16.871  1.00  0.00    -0.393 OA
ATOM     20  H1  UNL     1      36.190  -4.272  17.062  1.00  0.00     0.210 HD
ENDBRANCH   8  19
TORSDOF 1
ENDMDL
MODEL 5
REMARK VINA RESULT: -4.826881170      2.094      3.669
REMARK  1 active torsions:
REMARK  status: ('A' for Active; 'I' for Inactive)
REMARK    1  A    between atoms: C8_8  and  O1_9 
ROOT
HETATM    1  C1  UNL     1      35.284   0.464  11.750  1.00  0.00     0.016 C 
HETATM    2  C2  UNL     1      36.360  -0.532  12.122  1.00  0.00     0.027 C 
HETATM    3  C3  UNL     1      37.316   0.091  13.110  1.00  0.00     0.010 C 
HETATM    4  C4  UNL     1      38.405  -0.965  13.348  1.00  0.00     0.006 C 
HETATM    5  C5  UNL     1      37.732  -2.068  14.137  1.00  0.00    -0.002 C 
HETATM    6  C6  UNL     1      38.807  -3.043  14.558  1.00  0.00     0.008 C 
HETATM    7  C7  UNL     1      38.330  -4.475  14.441  1.00  0.00     0.034 C 
HETATM    8  C8  UNL     1      36.944  -4.537  15.025  1.00  0.00     0.147 C 
HETATM    9  C9  UNL     1      36.013  -3.836  14.057  1.00  0.00     0.090 C 
HETATM   10  S1  UNL     1      34.510  -3.294  14.901  1.00  0.00    -0.144 SA
HETATM   11  C10 UNL     1      33.351  -4.643  14.720  1.00  0.00     0.086 C 
HETATM   12  C11 UNL     1      34.065  -5.814  14.123  1.00  0.00     0.086 C 
HETATM   13  S2  UNL     1      35.313  -5.120  12.975  1.00  0.00    -0.144 SA
HETATM   14  C12 UNL     1      36.697  -2.753  13.285  1.00  0.00     0.067 C 
HETATM   15  C13 UNL     1      35.804  -1.791  12.647  1.00  0.00    -0.009 C 
HETATM   16  N1  UNL     1      34.573  -2.024  12.538  1.00  0.00    -0.405 N 
ATOM     17  H11 UNL     1      34.187  -2.895  12.902  1.00  0.00     0.155 HD
ATOM     18  H12 UNL     1      33.949  -1.352  12.092  1.00  0.00     0.155 HD
ENDROOT
BRANCH   8  19
HETATM   19  O1  UNL     1      36.895  -3.963  16.294  1.00  0.00    -0.393 OA
ATOM     20  H1  UNL     1      36.019  -3.998  16.660  1.00  0.00     0.210 HD
ENDBRANCH   8  19
TORSDOF 1
ENDMDL
