MODEL 1
REMARK VINA RESULT: -6.035490742      0.000      0.000
REMARK  1 active torsions:
REMARK  status: ('A' for Active; 'I' for Inactive)
REMARK    1  A    between atoms: C14_18  and  O2_19 
ROOT
HETATM    1  O1  UNL     1      41.653  -5.322  15.481  1.00  0.00    -0.270 OA
HETATM    2  C1  UNL     1      40.450  -5.657  15.726  1.00  0.00     0.258 C 
HETATM    3  N1  UNL     1      40.048  -6.977  16.057  1.00  0.00    -0.318 N 
ATOM      4  H1  UNL     1      40.627  -7.714  16.458  1.00  0.00     0.169 HD
HETATM    5  C2  UNL     1      38.674  -7.061  15.715  1.00  0.00     0.087 C 
HETATM    6  S1  UNL     1      37.817  -8.452  15.571  1.00  0.00    -0.065 SA
HETATM    7  C3  UNL     1      38.156  -5.684  15.515  1.00  0.00     0.091 C 
HETATM    8  C4  UNL     1      37.390  -5.650  14.236  1.00  0.00     0.015 C 
HETATM    9  C5  UNL     1      36.226  -4.677  14.246  1.00  0.00     0.001 C 
HETATM   10  C6  UNL     1      36.036  -4.018  12.885  1.00  0.00     0.000 C 
HETATM   11  C7  UNL     1      35.256  -2.759  12.968  1.00  0.00     0.000 C 
HETATM   12  C8  UNL     1      36.038  -1.607  13.597  1.00  0.00     0.000 C 
HETATM   13  C9  UNL     1      37.074  -1.038  12.723  1.00  0.00     0.000 C 
HETATM   14  C10 UNL     1      38.509  -1.345  13.109  1.00  0.00     0.000 C 
HETATM   15  C11 UNL     1      38.816  -1.190  14.539  1.00  0.00     0.000 C 
HETATM   16  C12 UNL     1      39.018  -2.368  15.379  1.00  0.00     0.004 C 
HETATM   17  C13 UNL     1      39.462  -3.643  14.751  1.00  0.00     0.049 C 
HETATM   18  C14 UNL     1      39.252  -4.760  15.717  1.00  0.00     0.148 C 
ENDROOT
BRANCH  18  19
HETATM   19  O2  UNL     1      39.206  -4.219  17.026  1.00  0.00    -0.379 OA
ATOM     20  H2  UNL     1      38.351  -3.807  17.083  1.00  0.00     0.211 HD
ENDBRANCH  18  19
TORSDOF 1
ENDMDL
MODEL 2
REMARK VINA RESULT: -5.898506387      1.412      1.723
REMARK  1 active torsions:
REMARK  status: ('A' for Active; 'I' for Inactive)
REMARK    1  A    between atoms: C14_18  and  O2_19 
ROOT
HETATM    1  O1  UNL     1      40.099  -5.631  14.834  1.00  0.00    -0.270 OA
HETATM    2  C1  UNL     1      38.830  -5.726  14.860  1.00  0.00     0.258 C 
HETATM    3  N1  UNL     1      38.129  -6.960  14.897  1.00  0.00    -0.318 N 
ATOM      4  H1  UNL     1      38.481  -7.857  15.231  1.00  0.00     0.169 HD
HETATM    5  C2  UNL     1      36.839  -6.689  14.374  1.00  0.00     0.087 C 
HETATM    6  S1  UNL     1      35.761  -7.821  13.877  1.00  0.00    -0.065 SA
HETATM    7  C3  UNL     1      36.640  -5.218  14.357  1.00  0.00     0.091 C 
HETATM    8  C4  UNL     1      36.112  -4.829  13.018  1.00  0.00     0.015 C 
HETATM    9  C5  UNL     1      35.175  -3.636  13.053  1.00  0.00     0.001 C 
HETATM   10  C6  UNL     1      35.340  -2.759  11.817  1.00  0.00     0.000 C 
HETATM   11  C7  UNL     1      34.818  -1.385  12.023  1.00  0.00     0.000 C 
HETATM   12  C8  UNL     1      35.699  -0.538  12.942  1.00  0.00     0.000 C 
HETATM   13  C9  UNL     1      36.953  -0.088  12.322  1.00  0.00     0.000 C 
HETATM   14  C10 UNL     1      38.218  -0.757  12.825  1.00  0.00     0.000 C 
HETATM   15  C11 UNL     1      38.315  -0.885  14.287  1.00  0.00     0.000 C 
HETATM   16  C12 UNL     1      38.144  -2.188  14.924  1.00  0.00     0.004 C 
HETATM   17  C13 UNL     1      38.425  -3.424  14.141  1.00  0.00     0.049 C 
HETATM   18  C14 UNL     1      37.848  -4.597  14.859  1.00  0.00     0.148 C 
ENDROOT
BRANCH  18  19
HETATM   19  O2  UNL     1      37.698  -4.257  16.226  1.00  0.00    -0.379 OA
ATOM     20  H2  UNL     1      36.762  -4.142  16.340  1.00  0.00     0.211 HD
ENDBRANCH  18  19
TORSDOF 1
ENDMDL
MODEL 3
REMARK VINA RESULT: -5.844374203      2.887      4.279
REMARK  1 active torsions:
REMARK  status: ('A' for Active; 'I' for Inactive)
REMARK    1  A    between atoms: C14_18  and  O2_19 
ROOT
HETATM    1  O1  UNL     1      33.551  -6.196  13.094  1.00  0.00    -0.270 OA
HETATM    2  C1  UNL     1      34.816  -6.305  13.184  1.00  0.00     0.258 C 
HETATM    3  N1  UNL     1      35.477  -7.454  13.694  1.00  0.00    -0.318 N 
ATOM      4  H1  UNL     1      35.113  -8.405  13.734  1.00  0.00     0.169 HD
HETATM    5  C2  UNL     1      36.747  -7.005  14.137  1.00  0.00     0.087 C 
HETATM    6  S1  UNL     1      37.761  -7.845  15.115  1.00  0.00    -0.065 SA
HETATM    7  C3  UNL     1      36.994  -5.657  13.565  1.00  0.00     0.091 C 
HETATM    8  C4  UNL     1      37.466  -4.761  14.658  1.00  0.00     0.015 C 
HETATM    9  C5  UNL     1      38.442  -3.695  14.195  1.00  0.00     0.001 C 
HETATM   10  C6  UNL     1      38.245  -2.388  14.955  1.00  0.00     0.000 C 
HETATM   11  C7  UNL     1      38.822  -1.223  14.238  1.00  0.00     0.000 C 
HETATM   12  C8  UNL     1      38.017  -0.817  13.004  1.00  0.00     0.000 C 
HETATM   13  C9  UNL     1      36.748  -0.141  13.312  1.00  0.00     0.000 C 
HETATM   14  C10 UNL     1      35.488  -0.945  13.050  1.00  0.00     0.000 C 
HETATM   15  C11 UNL     1      35.462  -1.658  11.764  1.00  0.00     0.000 C 
HETATM   16  C12 UNL     1      35.621  -3.110  11.725  1.00  0.00     0.004 C 
HETATM   17  C13 UNL     1      35.260  -3.915  12.925  1.00  0.00     0.049 C 
HETATM   18  C14 UNL     1      35.834  -5.284  12.783  1.00  0.00     0.148 C 
ENDROOT
BRANCH  18  19
HETATM   19  O2  UNL     1      36.063  -5.534  11.408  1.00  0.00    -0.379 OA
ATOM     20  H2  UNL     1      36.618  -6.305  11.396  1.00  0.00     0.211 HD
ENDBRANCH  18  19
TORSDOF 1
ENDMDL
MODEL 4
REMARK VINA RESULT: -5.811639648      2.035      2.401
REMARK  1 active torsions:
REMARK  status: ('A' for Active; 'I' for Inactive)
REMARK    1  A    between atoms: C14_18  and  O2_19 
ROOT
HETATM    1  O1  UNL     1      40.324  -5.155  14.826  1.00  0.00    -0.270 OA
HETATM    2  C1  UNL     1      39.627  -4.638  15.756  1.00  0.00     0.258 C 
HETATM    3  N1  UNL     1      39.451  -5.228  17.036  1.00  0.00    -0.318 N 
ATOM      4  H1  UNL     1      40.067  -5.900  17.492  1.00  0.00     0.169 HD
HETATM    5  C2  UNL     1      38.242  -4.691  17.548  1.00  0.00     0.087 C 
HETATM    6  S1  UNL     1      37.405  -5.291  18.824  1.00  0.00    -0.065 SA
HETATM    7  C3  UNL     1      37.875  -3.505  16.734  1.00  0.00     0.091 C 
HETATM    8  C4  UNL     1      36.436  -3.618  16.360  1.00  0.00     0.015 C 
HETATM    9  C5  UNL     1      35.728  -2.280  16.243  1.00  0.00     0.001 C 
HETATM   10  C6  UNL     1      34.694  -2.291  15.124  1.00  0.00     0.000 C 
HETATM   11  C7  UNL     1      34.333  -0.924  14.672  1.00  0.00     0.000 C 
HETATM   12  C8  UNL     1      35.440  -0.247  13.864  1.00  0.00     0.000 C 
HETATM   13  C9  UNL     1      35.597  -0.776  12.501  1.00  0.00     0.000 C 
HETATM   14  C10 UNL     1      36.840  -1.610  12.254  1.00  0.00     0.000 C 
HETATM   15  C11 UNL     1      38.085  -1.046  12.798  1.00  0.00     0.000 C 
HETATM   16  C12 UNL     1      38.707  -1.641  13.978  1.00  0.00     0.004 C 
HETATM   17  C13 UNL     1      38.444  -3.073  14.297  1.00  0.00     0.049 C 
HETATM   18  C14 UNL     1      38.874  -3.346  15.699  1.00  0.00     0.148 C 
ENDROOT
BRANCH  18  19
HETATM   19  O2  UNL     1      39.824  -2.366  16.075  1.00  0.00    -0.379 OA
ATOM     20  H2  UNL     1      39.305  -1.596  16.276  1.00  0.00     0.211 HD
ENDBRANCH  18  19
TORSDOF 1
ENDMDL
MODEL 5
REMARK VINA RESULT: -5.359840855      4.939      6.715
REMARK  1 active torsions:
REMARK  status: ('A' for Active; 'I' for Inactive)
REMARK    1  A    between atoms: C14_18  and  O2_19 
ROOT
HETATM    1  O1  UNL     1      35.703   2.596  12.927  1.00  0.00    -0.270 OA
HETATM    2  C1  UNL     1      35.059   1.591  12.487  1.00  0.00     0.258 C 
HETATM    3  N1  UNL     1      33.700   1.638  12.078  1.00  0.00    -0.318 N 
ATOM      4  H1  UNL     1      33.181   2.458  11.765  1.00  0.00     0.169 HD
HETATM    5  C2  UNL     1      33.214   0.310  12.192  1.00  0.00     0.087 C 
HETATM    6  S1  UNL     1      31.633  -0.124  12.177  1.00  0.00    -0.065 SA
HETATM    7  C3  UNL     1      34.376  -0.605  12.325  1.00  0.00     0.091 C 
HETATM    8  C4  UNL     1      34.118  -1.531  13.464  1.00  0.00     0.015 C 
HETATM    9  C5  UNL     1      34.725  -2.910  13.279  1.00  0.00     0.001 C 
HETATM   10  C6  UNL     1      35.222  -3.484  14.601  1.00  0.00     0.000 C 
HETATM   11  C7  UNL     1      36.215  -4.570  14.410  1.00  0.00     0.000 C 
HETATM   12  C8  UNL     1      37.575  -4.065  13.931  1.00  0.00     0.000 C 
HETATM   13  C9  UNL     1      38.359  -3.379  14.968  1.00  0.00     0.000 C 
HETATM   14  C10 UNL     1      38.490  -1.876  14.815  1.00  0.00     0.000 C 
HETATM   15  C11 UNL     1      38.809  -1.414  13.456  1.00  0.00     0.000 C 
HETATM   16  C12 UNL     1      37.787  -0.759  12.643  1.00  0.00     0.004 C 
HETATM   17  C13 UNL     1      36.653  -0.068  13.317  1.00  0.00     0.049 C 
HETATM   18  C14 UNL     1      35.581   0.199  12.314  1.00  0.00     0.148 C 
ENDROOT
BRANCH  18  19
HETATM   19  O2  UNL     1      36.164   0.197  11.024  1.00  0.00    -0.379 OA
ATOM     20  H2  UNL     1      35.424   0.176  10.428  1.00  0.00     0.211 HD
ENDBRANCH  18  19
TORSDOF 1
ENDMDL
