MODEL 1
REMARK VINA RESULT: -5.524951537      0.000      0.000
REMARK  1 active torsions:
REMARK  status: ('A' for Active; 'I' for Inactive)
REMARK    1  A    between atoms: N1_1  and  C1_5 
ROOT
HETATM    1  C1  UNL     1       5.829 -11.481   3.679  1.00  0.00     0.188 C 
HETATM    2  C2  UNL     1       6.635 -10.748   4.727  1.00  0.00     0.033 C 
HETATM    3  C3  UNL     1       7.594 -11.764   5.296  1.00  0.00     0.007 C 
HETATM    4  C4  UNL     1       7.754 -12.770   4.210  1.00  0.00    -0.004 C 
HETATM    5  C5  UNL     1       8.964 -12.481   3.325  1.00  0.00    -0.010 C 
HETATM    6  C6  UNL     1       9.560 -13.808   2.971  1.00  0.00     0.005 C 
HETATM    7  C7  UNL     1       8.732 -14.684   2.132  1.00  0.00     0.001 C 
HETATM    8  C8  UNL     1       7.452 -14.183   1.623  1.00  0.00     0.005 C 
HETATM    9  C9  UNL     1       7.120 -12.755   1.939  1.00  0.00    -0.008 C 
HETATM   10  C10 UNL     1       8.352 -11.898   2.073  1.00  0.00     0.010 C 
HETATM   11  C11 UNL     1       6.552 -12.723   3.332  1.00  0.00     0.024 C 
ENDROOT
BRANCH   1  12
HETATM   12  N1  UNL     1       5.536 -10.611   2.579  1.00  0.00    -0.075 N 
ATOM     13  H13 UNL     1       5.460  -9.638   2.875  1.00  0.00     0.274 HD
ATOM     14  H12 UNL     1       6.331 -10.515   1.948  1.00  0.00     0.274 HD
ATOM     15  H11 UNL     1       4.698 -10.928   2.091  1.00  0.00     0.274 HD
ENDBRANCH   1  12
TORSDOF 1
ENDMDL
MODEL 2
REMARK VINA RESULT: -5.270697056      2.968      4.268
REMARK  1 active torsions:
REMARK  status: ('A' for Active; 'I' for Inactive)
REMARK    1  A    between atoms: N1_1  and  C1_5 
ROOT
HETATM    1  C1  UNL     1      10.289 -11.028   7.218  1.00  0.00     0.188 C 
HETATM    2  C2  UNL     1       9.185 -10.771   8.221  1.00  0.00     0.033 C 
HETATM    3  C3  UNL     1       8.033 -10.201   7.430  1.00  0.00     0.007 C 
HETATM    4  C4  UNL     1       8.243 -10.717   6.048  1.00  0.00    -0.004 C 
HETATM    5  C5  UNL     1       7.470 -12.006   5.785  1.00  0.00    -0.010 C 
HETATM    6  C6  UNL     1       6.986 -11.932   4.371  1.00  0.00     0.005 C 
HETATM    7  C7  UNL     1       8.023 -11.946   3.332  1.00  0.00     0.001 C 
HETATM    8  C8  UNL     1       9.424 -12.126   3.725  1.00  0.00     0.005 C 
HETATM    9  C9  UNL     1       9.684 -12.369   5.182  1.00  0.00    -0.008 C 
HETATM   10  C10 UNL     1       8.535 -13.075   5.856  1.00  0.00     0.010 C 
HETATM   11  C11 UNL     1       9.688 -11.031   5.867  1.00  0.00     0.024 C 
ENDROOT
BRANCH   1  12
HETATM   12  N1  UNL     1      11.015 -12.210   7.572  1.00  0.00    -0.075 N 
ATOM     13  H13 UNL     1      10.415 -13.035   7.587  1.00  0.00     0.274 HD
ATOM     14  H12 UNL     1      11.653 -12.501   6.832  1.00  0.00     0.274 HD
ATOM     15  H11 UNL     1      11.498 -12.075   8.460  1.00  0.00     0.274 HD
ENDBRANCH   1  12
TORSDOF 1
ENDMDL
MODEL 3
REMARK VINA RESULT: -4.757320222      1.637      3.679
REMARK  1 active torsions:
REMARK  status: ('A' for Active; 'I' for Inactive)
REMARK    1  A    between atoms: N1_1  and  C1_5 
ROOT
HETATM    1  C1  UNL     1       7.442 -12.314   2.698  1.00  0.00     0.188 C 
HETATM    2  C2  UNL     1       8.584 -13.228   2.310  1.00  0.00     0.033 C 
HETATM    3  C3  UNL     1       9.828 -12.605   2.894  1.00  0.00     0.007 C 
HETATM    4  C4  UNL     1       9.333 -11.799   4.044  1.00  0.00    -0.004 C 
HETATM    5  C5  UNL     1       9.392 -12.568   5.361  1.00  0.00    -0.010 C 
HETATM    6  C6  UNL     1       9.783 -11.580   6.415  1.00  0.00     0.005 C 
HETATM    7  C7  UNL     1       8.812 -10.514   6.693  1.00  0.00     0.001 C 
HETATM    8  C8  UNL     1       7.514 -10.537   6.014  1.00  0.00     0.005 C 
HETATM    9  C9  UNL     1       7.242 -11.718   5.131  1.00  0.00    -0.008 C 
HETATM   10  C10 UNL     1       7.953 -12.960   5.604  1.00  0.00     0.010 C 
HETATM   11  C11 UNL     1       7.903 -11.452   3.807  1.00  0.00     0.024 C 
ENDROOT
BRANCH   1  12
HETATM   12  N1  UNL     1       6.263 -13.081   2.964  1.00  0.00    -0.075 N 
ATOM     13  H13 UNL     1       6.319 -13.568   3.859  1.00  0.00     0.274 HD
ATOM     14  H12 UNL     1       5.459 -12.487   3.166  1.00  0.00     0.274 HD
ATOM     15  H11 UNL     1       6.077 -13.722   2.193  1.00  0.00     0.274 HD
ENDBRANCH   1  12
TORSDOF 1
ENDMDL
MODEL 4
REMARK VINA RESULT: -4.722923942      2.776      4.820
REMARK  1 active torsions:
REMARK  status: ('A' for Active; 'I' for Inactive)
REMARK    1  A    between atoms: N1_1  and  C1_5 
ROOT
HETATM    1  C1  UNL     1       8.518 -12.789   4.681  1.00  0.00     0.188 C 
HETATM    2  C2  UNL     1       7.560 -11.780   4.087  1.00  0.00     0.033 C 
HETATM    3  C3  UNL     1       6.747 -11.252   5.243  1.00  0.00     0.007 C 
HETATM    4  C4  UNL     1       7.620 -11.457   6.432  1.00  0.00    -0.004 C 
HETATM    5  C5  UNL     1       8.448 -10.218   6.764  1.00  0.00    -0.010 C 
HETATM    6  C6  UNL     1       8.512 -10.136   8.257  1.00  0.00     0.005 C 
HETATM    7  C7  UNL     1       9.241 -11.216   8.933  1.00  0.00     0.001 C 
HETATM    8  C8  UNL     1       9.926 -12.229   8.125  1.00  0.00     0.005 C 
HETATM    9  C9  UNL     1       9.898 -12.030   6.638  1.00  0.00    -0.008 C 
HETATM   10  C10 UNL     1       9.827 -10.572   6.259  1.00  0.00     0.010 C 
HETATM   11  C11 UNL     1       8.580 -12.557   6.139  1.00  0.00     0.024 C 
ENDROOT
BRANCH   1  12
HETATM   12  N1  UNL     1       9.774 -12.743   3.995  1.00  0.00    -0.075 N 
ATOM     13  H13 UNL     1       9.660 -12.836   2.985  1.00  0.00     0.274 HD
ATOM     14  H12 UNL     1      10.185 -11.810   4.014  1.00  0.00     0.274 HD
ATOM     15  H11 UNL     1      10.409 -13.447   4.373  1.00  0.00     0.274 HD
ENDBRANCH   1  12
TORSDOF 1
ENDMDL
MODEL 5
REMARK VINA RESULT: -4.541101665      1.441      2.535
REMARK  1 active torsions:
REMARK  status: ('A' for Active; 'I' for Inactive)
REMARK    1  A    between atoms: N1_1  and  C1_5 
ROOT
HETATM    1  C1  UNL     1       6.203 -10.960   4.489  1.00  0.00     0.188 C 
HETATM    2  C2  UNL     1       5.074 -11.786   3.913  1.00  0.00     0.033 C 
HETATM    3  C3  UNL     1       5.532 -12.210   2.539  1.00  0.00     0.007 C 
HETATM    4  C4  UNL     1       7.019 -12.182   2.620  1.00  0.00    -0.004 C 
HETATM    5  C5  UNL     1       7.607 -13.546   2.972  1.00  0.00    -0.010 C 
HETATM    6  C6  UNL     1       8.873 -13.681   2.185  1.00  0.00     0.005 C 
HETATM    7  C7  UNL     1       9.953 -12.750   2.535  1.00  0.00     0.001 C 
HETATM    8  C8  UNL     1       9.769 -11.837   3.667  1.00  0.00     0.005 C 
HETATM    9  C9  UNL     1       8.496 -11.986   4.447  1.00  0.00    -0.008 C 
HETATM   10  C10 UNL     1       7.980 -13.402   4.430  1.00  0.00     0.010 C 
HETATM   11  C11 UNL     1       7.423 -11.241   3.702  1.00  0.00     0.024 C 
ENDROOT
BRANCH   1  12
HETATM   12  N1  UNL     1       6.314 -11.186   5.899  1.00  0.00    -0.075 N 
ATOM     13  H13 UNL     1       5.846 -10.458   6.439  1.00  0.00     0.274 HD
ATOM     14  H12 UNL     1       5.753 -11.982   6.202  1.00  0.00     0.274 HD
ATOM     15  H11 UNL     1       7.294 -11.287   6.164  1.00  0.00     0.274 HD
ENDBRANCH   1  12
TORSDOF 1
ENDMDL
