MODEL 1
REMARK VINA RESULT: -4.744410093      0.000      0.000
REMARK  2 active torsions:
REMARK  status: ('A' for Active; 'I' for Inactive)
REMARK    1  A    between atoms: C2_2  and  C3_3 
REMARK    2  A    between atoms: C11_11  and  N1_12 
ROOT
HETATM    1  C3  UNL     1       7.081 -12.579   3.827  1.00  0.00     0.047 C 
HETATM    2  C4  UNL     1       7.398 -12.828   2.361  1.00  0.00    -0.004 C 
HETATM    3  C5  UNL     1       7.865 -14.256   2.224  1.00  0.00     0.010 C 
HETATM    4  C6  UNL     1       9.097 -14.475   3.092  1.00  0.00    -0.011 C 
HETATM    5  C7  UNL     1      10.178 -13.583   2.523  1.00  0.00     0.009 C 
HETATM    6  C8  UNL     1       9.732 -12.149   2.616  1.00  0.00    -0.011 C 
HETATM    7  C9  UNL     1       8.467 -11.924   1.846  1.00  0.00     0.010 C 
HETATM    8  C10 UNL     1       9.465 -11.812   4.071  1.00  0.00     0.044 C 
HETATM    9  C11 UNL     1       8.345 -12.644   4.596  1.00  0.00     0.131 C 
HETATM   10  C12 UNL     1       8.845 -14.104   4.515  1.00  0.00     0.044 C 
ENDROOT
BRANCH   9  11
HETATM   11  N1  UNL     1       8.208 -12.392   6.022  1.00  0.00    -0.070 N 
ATOM     12  H13 UNL     1       7.265 -12.067   6.234  1.00  0.00     0.275 HD
ATOM     13  H12 UNL     1       8.213 -13.272   6.538  1.00  0.00     0.275 HD
ATOM     14  H11 UNL     1       8.898 -11.751   6.413  1.00  0.00     0.275 HD
ENDBRANCH   9  11
BRANCH   1  15
HETATM   15  C2  UNL     1       6.249 -11.377   3.996  1.00  0.00    -0.029 C 
HETATM   16  C1  UNL     1       5.147 -11.036   3.418  1.00  0.00     0.007 C 
ENDBRANCH   1  15
TORSDOF 2
ENDMDL
MODEL 2
REMARK VINA RESULT: -4.710434302      3.955      5.429
REMARK  2 active torsions:
REMARK  status: ('A' for Active; 'I' for Inactive)
REMARK    1  A    between atoms: C2_2  and  C3_3 
REMARK    2  A    between atoms: C11_11  and  N1_12 
ROOT
HETATM    1  C3  UNL     1       9.682 -12.065   6.668  1.00  0.00     0.047 C 
HETATM    2  C4  UNL     1       9.859 -10.561   6.813  1.00  0.00    -0.004 C 
HETATM    3  C5  UNL     1      11.330 -10.284   7.002  1.00  0.00     0.010 C 
HETATM    4  C6  UNL     1      11.830 -11.013   8.242  1.00  0.00    -0.011 C 
HETATM    5  C7  UNL     1      11.095 -10.404   9.415  1.00  0.00     0.009 C 
HETATM    6  C8  UNL     1       9.618 -10.635   9.243  1.00  0.00    -0.011 C 
HETATM    7  C9  UNL     1       9.114 -10.007   7.980  1.00  0.00     0.010 C 
HETATM    8  C10 UNL     1       9.362 -12.128   9.163  1.00  0.00     0.044 C 
HETATM    9  C11 UNL     1      10.029 -12.702   7.959  1.00  0.00     0.131 C 
HETATM   10  C12 UNL     1      11.541 -12.475   8.180  1.00  0.00     0.044 C 
ENDROOT
BRANCH   9  11
HETATM   11  N1  UNL     1       9.876 -14.148   7.989  1.00  0.00    -0.070 N 
ATOM     12  H13 UNL     1       9.536 -14.485   7.089  1.00  0.00     0.275 HD
ATOM     13  H12 UNL     1      10.791 -14.599   8.013  1.00  0.00     0.275 HD
ATOM     14  H11 UNL     1       9.289 -14.503   8.743  1.00  0.00     0.275 HD
ENDBRANCH   9  11
BRANCH   1  15
HETATM   15  C2  UNL     1       8.373 -12.394   6.083  1.00  0.00    -0.029 C 
HETATM   16  C1  UNL     1       7.880 -12.110   4.924  1.00  0.00     0.007 C 
ENDBRANCH   1  15
TORSDOF 2
ENDMDL
MODEL 3
REMARK VINA RESULT: -4.619825770      3.325      4.365
REMARK  2 active torsions:
REMARK  status: ('A' for Active; 'I' for Inactive)
REMARK    1  A    between atoms: C2_2  and  C3_3 
REMARK    2  A    between atoms: C11_11  and  N1_12 
ROOT
HETATM    1  C3  UNL     1       7.844 -11.096   7.002  1.00  0.00     0.047 C 
HETATM    2  C4  UNL     1       8.765 -12.062   6.274  1.00  0.00    -0.004 C 
HETATM    3  C5  UNL     1       9.336 -13.016   7.295  1.00  0.00     0.010 C 
HETATM    4  C6  UNL     1      10.099 -12.230   8.354  1.00  0.00    -0.011 C 
HETATM    5  C7  UNL     1      11.260 -11.574   7.639  1.00  0.00     0.009 C 
HETATM    6  C8  UNL     1      10.725 -10.638   6.590  1.00  0.00    -0.011 C 
HETATM    7  C9  UNL     1       9.890 -11.370   5.584  1.00  0.00     0.010 C 
HETATM    8  C10 UNL     1       9.849  -9.598   7.263  1.00  0.00     0.044 C 
HETATM    9  C11 UNL     1       8.667 -10.250   7.897  1.00  0.00     0.131 C 
HETATM   10  C12 UNL     1       9.248 -11.181   8.985  1.00  0.00     0.044 C 
ENDROOT
BRANCH   9  11
HETATM   11  N1  UNL     1       7.927  -9.245   8.643  1.00  0.00    -0.070 N 
ATOM     12  H13 UNL     1       7.026  -9.620   8.941  1.00  0.00     0.275 HD
ATOM     13  H12 UNL     1       8.363  -9.088   9.552  1.00  0.00     0.275 HD
ATOM     14  H11 UNL     1       7.797  -8.358   8.157  1.00  0.00     0.275 HD
ENDBRANCH   9  11
BRANCH   1  15
HETATM   15  C2  UNL     1       6.943 -10.409   6.064  1.00  0.00    -0.029 C 
HETATM   16  C1  UNL     1       6.207 -10.880   5.114  1.00  0.00     0.007 C 
ENDBRANCH   1  15
TORSDOF 2
ENDMDL
MODEL 4
REMARK VINA RESULT: -4.607765188      5.277      6.798
REMARK  2 active torsions:
REMARK  status: ('A' for Active; 'I' for Inactive)
REMARK    1  A    between atoms: C2_2  and  C3_3 
REMARK    2  A    between atoms: C11_11  and  N1_12 
ROOT
HETATM    1  C3  UNL     1      10.868 -12.234   7.910  1.00  0.00     0.047 C 
HETATM    2  C4  UNL     1      11.420 -11.288   8.965  1.00  0.00    -0.004 C 
HETATM    3  C5  UNL     1      12.690 -11.894   9.512  1.00  0.00     0.010 C 
HETATM    4  C6  UNL     1      12.384 -13.260  10.112  1.00  0.00    -0.011 C 
HETATM    5  C7  UNL     1      11.455 -13.010  11.280  1.00  0.00     0.009 C 
HETATM    6  C8  UNL     1      10.189 -12.376  10.774  1.00  0.00    -0.011 C 
HETATM    7  C9  UNL     1      10.469 -11.071  10.093  1.00  0.00     0.010 C 
HETATM    8  C10 UNL     1       9.545 -13.307   9.763  1.00  0.00     0.044 C 
HETATM    9  C11 UNL     1      10.438 -13.482   8.581  1.00  0.00     0.131 C 
HETATM   10  C12 UNL     1      11.714 -14.159   9.129  1.00  0.00     0.044 C 
ENDROOT
BRANCH   9  11
HETATM   11  N1  UNL     1       9.853 -14.481   7.701  1.00  0.00    -0.070 N 
ATOM     12  H13 UNL     1       9.711 -15.356   8.206  1.00  0.00     0.275 HD
ATOM     13  H12 UNL     1       8.885 -14.239   7.489  1.00  0.00     0.275 HD
ATOM     14  H11 UNL     1      10.370 -14.651   6.840  1.00  0.00     0.275 HD
ENDBRANCH   9  11
BRANCH   1  15
HETATM   15  C2  UNL     1       9.886 -11.557   7.049  1.00  0.00    -0.029 C 
HETATM   16  C1  UNL     1       9.895 -11.347   5.776  1.00  0.00     0.007 C 
ENDBRANCH   1  15
TORSDOF 2
ENDMDL
MODEL 5
REMARK VINA RESULT: -4.449696261      1.511      3.254
REMARK  2 active torsions:
REMARK  status: ('A' for Active; 'I' for Inactive)
REMARK    1  A    between atoms: C2_2  and  C3_3 
REMARK    2  A    between atoms: C11_11  and  N1_12 
ROOT
HETATM    1  C3  UNL     1       7.704 -14.282   2.733  1.00  0.00     0.047 C 
HETATM    2  C4  UNL     1       9.084 -14.406   3.358  1.00  0.00    -0.004 C 
HETATM    3  C5  UNL     1       8.989 -13.937   4.789  1.00  0.00     0.010 C 
HETATM    4  C6  UNL     1       8.504 -12.494   4.821  1.00  0.00    -0.011 C 
HETATM    5  C7  UNL     1       9.577 -11.673   4.142  1.00  0.00     0.009 C 
HETATM    6  C8  UNL     1       9.722 -12.135   2.718  1.00  0.00    -0.011 C 
HETATM    7  C9  UNL     1      10.108 -13.581   2.653  1.00  0.00     0.010 C 
HETATM    8  C10 UNL     1       8.389 -11.970   2.011  1.00  0.00     0.044 C 
HETATM    9  C11 UNL     1       7.359 -12.844   2.643  1.00  0.00     0.131 C 
HETATM   10  C12 UNL     1       7.214 -12.327   4.091  1.00  0.00     0.044 C 
ENDROOT
BRANCH   9  11
HETATM   11  N1  UNL     1       6.071 -12.560   2.031  1.00  0.00    -0.070 N 
ATOM     12  H13 UNL     1       5.540 -13.422   1.911  1.00  0.00     0.275 HD
ATOM     13  H12 UNL     1       5.467 -12.070   2.692  1.00  0.00     0.275 HD
ATOM     14  H11 UNL     1       6.116 -12.049   1.150  1.00  0.00     0.275 HD
ENDBRANCH   9  11
BRANCH   1  15
HETATM   15  C2  UNL     1       7.603 -15.078   1.500  1.00  0.00    -0.029 C 
HETATM   16  C1  UNL     1       8.011 -16.276   1.243  1.00  0.00     0.007 C 
ENDBRANCH   1  15
TORSDOF 2
ENDMDL
