MODEL 1
REMARK VINA RESULT: -5.487360646      0.000      0.000
REMARK  2 active torsions:
REMARK  status: ('A' for Active; 'I' for Inactive)
REMARK    1  A    between atoms: O1_1  and  N1_3 
REMARK    2  A    between atoms: N1_3  and  C1_4 
ROOT
HETATM    1  C1  UNL     1       7.143 -12.602   2.540  1.00  0.00     0.057 C 
HETATM    2  C2  UNL     1       7.069 -14.090   2.198  1.00  0.00     0.029 C 
HETATM    3  C3  UNL     1       8.417 -14.672   1.919  1.00  0.00     0.007 C 
HETATM    4  C4  UNL     1       9.452 -13.989   2.757  1.00  0.00    -0.010 C 
HETATM    5  C5  UNL     1       9.023 -14.065   4.206  1.00  0.00     0.010 C 
HETATM    6  C6  UNL     1       8.655 -12.630   4.547  1.00  0.00    -0.012 C 
HETATM    7  C7  UNL     1       9.715 -11.863   3.785  1.00  0.00     0.010 C 
HETATM    8  C8  UNL     1       9.602 -12.538   2.412  1.00  0.00    -0.008 C 
HETATM    9  C9  UNL     1       8.315 -11.970   1.805  1.00  0.00     0.034 C 
HETATM   10  C10 UNL     1       7.281 -12.375   4.012  1.00  0.00     0.034 C 
ENDROOT
BRANCH   1  11
HETATM   11  N1  UNL     1       5.945 -12.008   2.033  1.00  0.00    -0.093 NA
BRANCH  11  12
HETATM   12  O1  UNL     1       5.672 -10.820   2.561  1.00  0.00    -0.295 OA
ATOM     13  H1  UNL     1       5.957 -10.089   2.025  1.00  0.00     0.238 HD
ENDBRANCH  11  12
ENDBRANCH   1  11
TORSDOF 2
ENDMDL
MODEL 2
REMARK VINA RESULT: -4.819865351      2.471      3.326
REMARK  2 active torsions:
REMARK  status: ('A' for Active; 'I' for Inactive)
REMARK    1  A    between atoms: O1_1  and  N1_3 
REMARK    2  A    between atoms: N1_3  and  C1_4 
ROOT
HETATM    1  C1  UNL     1       8.667 -12.800   4.911  1.00  0.00     0.057 C 
HETATM    2  C2  UNL     1       7.215 -12.382   4.676  1.00  0.00     0.029 C 
HETATM    3  C3  UNL     1       7.033 -11.689   3.364  1.00  0.00     0.007 C 
HETATM    4  C4  UNL     1       7.985 -12.248   2.354  1.00  0.00    -0.010 C 
HETATM    5  C5  UNL     1       7.803 -13.750   2.303  1.00  0.00     0.010 C 
HETATM    6  C6  UNL     1       9.080 -14.288   2.928  1.00  0.00    -0.012 C 
HETATM    7  C7  UNL     1      10.107 -13.317   2.386  1.00  0.00     0.010 C 
HETATM    8  C8  UNL     1       9.417 -11.985   2.710  1.00  0.00    -0.008 C 
HETATM    9  C9  UNL     1       9.597 -11.813   4.222  1.00  0.00     0.034 C 
HETATM   10  C10 UNL     1       8.935 -14.185   4.414  1.00  0.00     0.034 C 
ENDROOT
BRANCH   1  11
HETATM   11  N1  UNL     1       8.897 -12.699   6.319  1.00  0.00    -0.093 NA
BRANCH  11  12
HETATM   12  O1  UNL     1       9.274 -13.842   6.882  1.00  0.00    -0.295 OA
ATOM     13  H1  UNL     1       9.600 -13.742   7.768  1.00  0.00     0.238 HD
ENDBRANCH  11  12
ENDBRANCH   1  11
TORSDOF 2
ENDMDL
MODEL 3
REMARK VINA RESULT: -4.755131816      5.530      6.862
REMARK  2 active torsions:
REMARK  status: ('A' for Active; 'I' for Inactive)
REMARK    1  A    between atoms: O1_1  and  N1_3 
REMARK    2  A    between atoms: N1_3  and  C1_4 
ROOT
HETATM    1  C1  UNL     1      10.570 -13.051   8.672  1.00  0.00     0.057 C 
HETATM    2  C2  UNL     1       9.968 -12.473   9.952  1.00  0.00     0.029 C 
HETATM    3  C3  UNL     1      10.124 -10.988  10.029  1.00  0.00     0.007 C 
HETATM    4  C4  UNL     1      10.060 -10.396   8.656  1.00  0.00    -0.010 C 
HETATM    5  C5  UNL     1       8.783 -10.861   7.991  1.00  0.00     0.010 C 
HETATM    6  C6  UNL     1       9.266 -11.817   6.912  1.00  0.00    -0.012 C 
HETATM    7  C7  UNL     1      10.523 -11.119   6.440  1.00  0.00     0.010 C 
HETATM    8  C8  UNL     1      11.200 -10.839   7.789  1.00  0.00    -0.008 C 
HETATM    9  C9  UNL     1      11.751 -12.197   8.236  1.00  0.00     0.034 C 
HETATM   10  C10 UNL     1       9.562 -13.128   7.569  1.00  0.00     0.034 C 
ENDROOT
BRANCH   1  11
HETATM   11  N1  UNL     1      11.074 -14.346   9.007  1.00  0.00    -0.093 NA
BRANCH  11  12
HETATM   12  O1  UNL     1      12.053 -14.761   8.210  1.00  0.00    -0.295 OA
ATOM     13  H1  UNL     1      12.923 -14.576   8.544  1.00  0.00     0.238 HD
ENDBRANCH  11  12
ENDBRANCH   1  11
TORSDOF 2
ENDMDL
MODEL 4
REMARK VINA RESULT: -4.677116539      7.066      8.409
REMARK  2 active torsions:
REMARK  status: ('A' for Active; 'I' for Inactive)
REMARK    1  A    between atoms: O1_1  and  N1_3 
REMARK    2  A    between atoms: N1_3  and  C1_4 
ROOT
HETATM    1  C1  UNL     1      11.654 -13.583   9.782  1.00  0.00     0.057 C 
HETATM    2  C2  UNL     1      11.573 -12.537   8.671  1.00  0.00     0.029 C 
HETATM    3  C3  UNL     1      10.239 -11.865   8.624  1.00  0.00     0.007 C 
HETATM    4  C4  UNL     1       9.671 -11.760  10.004  1.00  0.00    -0.010 C 
HETATM    5  C5  UNL     1      10.689 -11.076  10.891  1.00  0.00     0.010 C 
HETATM    6  C6  UNL     1      11.166 -12.186  11.813  1.00  0.00    -0.012 C 
HETATM    7  C7  UNL     1       9.879 -12.946  12.053  1.00  0.00     0.010 C 
HETATM    8  C8  UNL     1       9.384 -13.101  10.609  1.00  0.00    -0.008 C 
HETATM    9  C9  UNL     1      10.278 -14.191  10.007  1.00  0.00     0.034 C 
HETATM   10  C10 UNL     1      12.169 -13.001  11.059  1.00  0.00     0.034 C 
ENDROOT
BRANCH   1  11
HETATM   11  N1  UNL     1      12.510 -14.623   9.301  1.00  0.00    -0.093 NA
BRANCH  11  12
HETATM   12  O1  UNL     1      12.240 -15.007   8.059  1.00  0.00    -0.295 OA
ATOM     13  H1  UNL     1      11.311 -15.035   7.861  1.00  0.00     0.238 HD
ENDBRANCH  11  12
ENDBRANCH   1  11
TORSDOF 2
ENDMDL
MODEL 5
REMARK VINA RESULT: -4.675973711      7.084      8.133
REMARK  2 active torsions:
REMARK  status: ('A' for Active; 'I' for Inactive)
REMARK    1  A    between atoms: O1_1  and  N1_3 
REMARK    2  A    between atoms: N1_3  and  C1_4 
ROOT
HETATM    1  C1  UNL     1      11.492 -13.469   9.580  1.00  0.00     0.057 C 
HETATM    2  C2  UNL     1      10.111 -14.057   9.867  1.00  0.00     0.029 C 
HETATM    3  C3  UNL     1       9.352 -13.251  10.872  1.00  0.00     0.007 C 
HETATM    4  C4  UNL     1       9.705 -11.803  10.737  1.00  0.00    -0.010 C 
HETATM    5  C5  UNL     1       9.483 -11.387   9.299  1.00  0.00     0.010 C 
HETATM    6  C6  UNL     1      10.890 -11.168   8.767  1.00  0.00    -0.012 C 
HETATM    7  C7  UNL     1      11.568 -10.544   9.968  1.00  0.00     0.010 C 
HETATM    8  C8  UNL     1      11.144 -11.533  11.062  1.00  0.00    -0.008 C 
HETATM    9  C9  UNL     1      12.015 -12.770  10.825  1.00  0.00     0.034 C 
HETATM   10  C10 UNL     1      11.461 -12.511   8.432  1.00  0.00     0.034 C 
ENDROOT
BRANCH   1  11
HETATM   11  N1  UNL     1      12.358 -14.575   9.310  1.00  0.00    -0.093 NA
BRANCH  11  12
HETATM   12  O1  UNL     1      12.292 -15.012   8.057  1.00  0.00    -0.295 OA
ATOM     13  H1  UNL     1      13.100 -14.898   7.569  1.00  0.00     0.238 HD
ENDBRANCH  11  12
ENDBRANCH   1  11
TORSDOF 2
ENDMDL
