MODEL 1
REMARK VINA RESULT: -7.564193363      0.000      0.000
REMARK  8 active torsions:
REMARK  status: ('A' for Active; 'I' for Inactive)
REMARK    1  A    between atoms: C2_4  and  N2_6 
REMARK    2  A    between atoms: N2_6  and  N3_8 
REMARK    3  A    between atoms: N3_8  and  C4_10 
REMARK    4  A    between atoms: C4_10  and  N4_12 
REMARK    5  A    between atoms: N4_12  and  N5_14 
REMARK       I    between atoms: N5_14  and  C5_16 
REMARK    6  A    between atoms: C5_16  and  C6_18 
REMARK       I    between atoms: C6_18  and  N6_20 
REMARK    7  A    between atoms: N6_20  and  C7_22 
REMARK    8  A    between atoms: C7_22  and  C8_23 
ROOT
HETATM    1  N4  UNL     1      42.439  -6.110  61.352  1.00  0.00    -0.272 N 
ATOM      2  H4  UNL     1      41.729  -5.754  61.991  1.00  0.00     0.189 HD
ENDROOT
BRANCH   1   3
HETATM    3  C4  UNL     1      43.034  -7.354  61.633  1.00  0.00     0.205 C 
HETATM    4  S1  UNL     1      44.474  -7.742  60.975  1.00  0.00    -0.038 SA
BRANCH   3   5
HETATM    5  N3  UNL     1      42.419  -8.294  62.482  1.00  0.00    -0.274 N 
ATOM      6  H3  UNL     1      42.357  -8.112  63.484  1.00  0.00     0.189 HD
BRANCH   5   7
HETATM    7  N2  UNL     1      41.896  -9.474  61.953  1.00  0.00    -0.287 N 
ATOM      8  H2  UNL     1      42.503 -10.073  61.392  1.00  0.00     0.188 HD
BRANCH   7   9
HETATM    9  C2  UNL     1      40.548  -9.872  62.169  1.00  0.00     0.087 C 
HETATM   10  N1  UNL     1      39.659  -9.516  61.327  1.00  0.00    -0.383 N 
HETATM   11  C1  UNL     1      39.982  -8.727  60.155  1.00  0.00     0.147 C 
ATOM     12  H1  UNL     1      38.690  -9.795  61.484  1.00  0.00     0.160 HD
HETATM   13  C3  UNL     1      40.239 -10.674  63.367  1.00  0.00     0.090 C 
ENDBRANCH   7   9
ENDBRANCH   5   7
ENDBRANCH   3   5
ENDBRANCH   1   3
BRANCH   1  14
HETATM   14  N5  UNL     1      42.781  -5.336  60.230  1.00  0.00    -0.260 N 
HETATM   15  C5  UNL     1      42.422  -3.985  60.037  1.00  0.00     0.327 C 
HETATM   16  O1  UNL     1      41.739  -3.404  60.916  1.00  0.00    -0.261 OA
ATOM     17  H5  UNL     1      43.331  -5.785  59.498  1.00  0.00     0.190 HD
BRANCH  15  18
HETATM   18  C6  UNL     1      42.846  -3.281  58.830  1.00  0.00     0.311 C 
HETATM   19  O2  UNL     1      42.859  -2.010  58.834  1.00  0.00    -0.262 OA
HETATM   20  N6  UNL     1      43.227  -4.021  57.691  1.00  0.00    -0.344 N 
ATOM     21  H6  UNL     1      43.216  -5.040  57.724  1.00  0.00     0.163 HD
BRANCH  20  22
HETATM   22  C7  UNL     1      43.630  -3.350  56.486  1.00  0.00     0.222 C 
BRANCH  22  23
HETATM   23  C8  UNL     1      45.078  -3.013  56.481  1.00  0.00     0.248 C 
HETATM   24  N7  UNL     1      45.510  -1.686  56.165  1.00  0.00    -0.061 NA
HETATM   25  O3  UNL     1      45.990  -3.835  56.743  1.00  0.00    -0.275 OA
ENDBRANCH  22  23
ENDBRANCH  20  22
ENDBRANCH  15  18
ENDBRANCH   1  14
TORSDOF 8
ENDMDL
MODEL 2
REMARK VINA RESULT: -7.428960670      0.365      1.272
REMARK  8 active torsions:
REMARK  status: ('A' for Active; 'I' for Inactive)
REMARK    1  A    between atoms: C2_4  and  N2_6 
REMARK    2  A    between atoms: N2_6  and  N3_8 
REMARK    3  A    between atoms: N3_8  and  C4_10 
REMARK    4  A    between atoms: C4_10  and  N4_12 
REMARK    5  A    between atoms: N4_12  and  N5_14 
REMARK       I    between atoms: N5_14  and  C5_16 
REMARK    6  A    between atoms: C5_16  and  C6_18 
REMARK       I    between atoms: C6_18  and  N6_20 
REMARK    7  A    between atoms: N6_20  and  C7_22 
REMARK    8  A    between atoms: C7_22  and  C8_23 
ROOT
HETATM    1  N4  UNL     1      42.548  -5.990  61.433  1.00  0.00    -0.272 N 
ATOM      2  H4  UNL     1      41.885  -5.599  62.102  1.00  0.00     0.189 HD
ENDROOT
BRANCH   1   3
HETATM    3  C4  UNL     1      43.092  -7.261  61.690  1.00  0.00     0.205 C 
HETATM    4  S1  UNL     1      44.455  -7.740  60.933  1.00  0.00    -0.038 SA
BRANCH   3   5
HETATM    5  N3  UNL     1      42.493  -8.154  62.600  1.00  0.00    -0.274 N 
ATOM      6  H3  UNL     1      42.406  -7.899  63.583  1.00  0.00     0.189 HD
BRANCH   5   7
HETATM    7  N2  UNL     1      42.019  -9.388  62.155  1.00  0.00    -0.287 N 
ATOM      8  H2  UNL     1      42.644 -10.195  62.182  1.00  0.00     0.188 HD
BRANCH   7   9
HETATM    9  C2  UNL     1      40.695  -9.562  61.666  1.00  0.00     0.087 C 
HETATM   10  N1  UNL     1      39.873 -10.261  62.346  1.00  0.00    -0.383 N 
HETATM   11  C1  UNL     1      40.246 -10.876  63.605  1.00  0.00     0.147 C 
ATOM     12  H1  UNL     1      38.925 -10.392  61.994  1.00  0.00     0.160 HD
HETATM   13  C3  UNL     1      40.334  -8.928  60.385  1.00  0.00     0.090 C 
ENDBRANCH   7   9
ENDBRANCH   5   7
ENDBRANCH   3   5
ENDBRANCH   1   3
BRANCH   1  14
HETATM   14  N5  UNL     1      42.878  -5.234  60.295  1.00  0.00    -0.260 N 
HETATM   15  C5  UNL     1      42.448  -3.913  60.048  1.00  0.00     0.327 C 
HETATM   16  O1  UNL     1      41.709  -3.344  60.887  1.00  0.00    -0.261 OA
ATOM     17  H5  UNL     1      43.473  -5.674  59.594  1.00  0.00     0.190 HD
BRANCH  15  18
HETATM   18  C6  UNL     1      42.866  -3.225  58.829  1.00  0.00     0.311 C 
HETATM   19  O2  UNL     1      42.876  -1.954  58.815  1.00  0.00    -0.262 OA
HETATM   20  N6  UNL     1      43.245  -3.980  57.700  1.00  0.00    -0.344 N 
ATOM     21  H6  UNL     1      43.237  -4.998  57.747  1.00  0.00     0.163 HD
BRANCH  20  22
HETATM   22  C7  UNL     1      43.643  -3.325  56.483  1.00  0.00     0.222 C 
BRANCH  22  23
HETATM   23  C8  UNL     1      45.090  -2.989  56.467  1.00  0.00     0.248 C 
HETATM   24  N7  UNL     1      45.520  -1.658  56.162  1.00  0.00    -0.061 NA
HETATM   25  O3  UNL     1      46.005  -3.814  56.708  1.00  0.00    -0.275 OA
ENDBRANCH  22  23
ENDBRANCH  20  22
ENDBRANCH  15  18
ENDBRANCH   1  14
TORSDOF 8
ENDMDL
MODEL 3
REMARK VINA RESULT: -7.375074424      1.210      1.759
REMARK  8 active torsions:
REMARK  status: ('A' for Active; 'I' for Inactive)
REMARK    1  A    between atoms: C2_4  and  N2_6 
REMARK    2  A    between atoms: N2_6  and  N3_8 
REMARK    3  A    between atoms: N3_8  and  C4_10 
REMARK    4  A    between atoms: C4_10  and  N4_12 
REMARK    5  A    between atoms: N4_12  and  N5_14 
REMARK       I    between atoms: N5_14  and  C5_16 
REMARK    6  A    between atoms: C5_16  and  C6_18 
REMARK       I    between atoms: C6_18  and  N6_20 
REMARK    7  A    between atoms: N6_20  and  C7_22 
REMARK    8  A    between atoms: C7_22  and  C8_23 
ROOT
HETATM    1  N4  UNL     1      42.372  -5.931  61.066  1.00  0.00    -0.272 N 
ATOM      2  H4  UNL     1      41.961  -5.483  61.885  1.00  0.00     0.189 HD
ENDROOT
BRANCH   1   3
HETATM    3  C4  UNL     1      42.519  -7.329  61.066  1.00  0.00     0.205 C 
HETATM    4  S1  UNL     1      43.135  -8.089  62.371  1.00  0.00    -0.038 SA
BRANCH   3   5
HETATM    5  N3  UNL     1      42.144  -8.115  59.960  1.00  0.00    -0.274 N 
ATOM      6  H3  UNL     1      42.508  -7.897  59.032  1.00  0.00     0.189 HD
BRANCH   5   7
HETATM    7  N2  UNL     1      41.275  -9.192  60.132  1.00  0.00    -0.287 N 
ATOM      8  H2  UNL     1      41.613 -10.134  59.933  1.00  0.00     0.188 HD
BRANCH   7   9
HETATM    9  C2  UNL     1      39.934  -9.023  60.575  1.00  0.00     0.087 C 
HETATM   10  N1  UNL     1      39.569  -9.581  61.662  1.00  0.00    -0.383 N 
HETATM   11  C1  UNL     1      40.481 -10.375  62.462  1.00  0.00     0.147 C 
ATOM     12  H1  UNL     1      38.606  -9.466  61.978  1.00  0.00     0.160 HD
HETATM   13  C3  UNL     1      39.021  -8.212  59.748  1.00  0.00     0.090 C 
ENDBRANCH   7   9
ENDBRANCH   5   7
ENDBRANCH   3   5
ENDBRANCH   1   3
BRANCH   1  14
HETATM   14  N5  UNL     1      42.765  -5.121  59.986  1.00  0.00    -0.260 N 
HETATM   15  C5  UNL     1      42.367  -3.782  59.790  1.00  0.00     0.327 C 
HETATM   16  O1  UNL     1      41.598  -3.246  60.623  1.00  0.00    -0.261 OA
ATOM     17  H5  UNL     1      43.386  -5.534  59.290  1.00  0.00     0.190 HD
BRANCH  15  18
HETATM   18  C6  UNL     1      42.852  -3.038  58.629  1.00  0.00     0.311 C 
HETATM   19  O2  UNL     1      42.923  -1.771  58.701  1.00  0.00    -0.262 OA
HETATM   20  N6  UNL     1      43.225  -3.736  57.463  1.00  0.00    -0.344 N 
ATOM     21  H6  UNL     1      43.166  -4.754  57.442  1.00  0.00     0.163 HD
BRANCH  20  22
HETATM   22  C7  UNL     1      43.687  -3.024  56.302  1.00  0.00     0.222 C 
BRANCH  22  23
HETATM   23  C8  UNL     1      45.146  -2.743  56.354  1.00  0.00     0.248 C 
HETATM   24  N7  UNL     1      46.073  -3.785  56.671  1.00  0.00    -0.061 NA
HETATM   25  O3  UNL     1      45.650  -1.615  56.132  1.00  0.00    -0.275 OA
ENDBRANCH  22  23
ENDBRANCH  20  22
ENDBRANCH  15  18
ENDBRANCH   1  14
TORSDOF 8
ENDMDL
MODEL 4
REMARK VINA RESULT: -7.349421545      2.245      3.593
REMARK  8 active torsions:
REMARK  status: ('A' for Active; 'I' for Inactive)
REMARK    1  A    between atoms: C2_4  and  N2_6 
REMARK    2  A    between atoms: N2_6  and  N3_8 
REMARK    3  A    between atoms: N3_8  and  C4_10 
REMARK    4  A    between atoms: C4_10  and  N4_12 
REMARK    5  A    between atoms: N4_12  and  N5_14 
REMARK       I    between atoms: N5_14  and  C5_16 
REMARK    6  A    between atoms: C5_16  and  C6_18 
REMARK       I    between atoms: C6_18  and  N6_20 
REMARK    7  A    between atoms: N6_20  and  C7_22 
REMARK    8  A    between atoms: C7_22  and  C8_23 
ROOT
HETATM    1  N4  UNL     1      42.267  -8.131  59.612  1.00  0.00    -0.272 N 
ATOM      2  H4  UNL     1      41.777  -8.944  59.239  1.00  0.00     0.189 HD
ENDROOT
BRANCH   1   3
HETATM    3  C4  UNL     1      42.571  -8.101  60.985  1.00  0.00     0.205 C 
HETATM    4  S1  UNL     1      41.798  -9.097  62.019  1.00  0.00    -0.038 SA
BRANCH   3   5
HETATM    5  N3  UNL     1      43.540  -7.225  61.511  1.00  0.00    -0.274 N 
ATOM      6  H3  UNL     1      44.516  -7.516  61.562  1.00  0.00     0.189 HD
BRANCH   5   7
HETATM    7  N2  UNL     1      43.165  -5.959  61.962  1.00  0.00    -0.287 N 
ATOM      8  H2  UNL     1      42.540  -5.889  62.766  1.00  0.00     0.188 HD
BRANCH   7   9
HETATM    9  C2  UNL     1      43.622  -4.765  61.341  1.00  0.00     0.087 C 
HETATM   10  N1  UNL     1      42.982  -3.681  61.544  1.00  0.00    -0.383 N 
HETATM   11  C1  UNL     1      41.810  -3.628  62.395  1.00  0.00     0.147 C 
ATOM     12  H1  UNL     1      43.305  -2.824  61.095  1.00  0.00     0.160 HD
HETATM   13  C3  UNL     1      44.817  -4.838  60.480  1.00  0.00     0.090 C 
ENDBRANCH   7   9
ENDBRANCH   5   7
ENDBRANCH   3   5
ENDBRANCH   1   3
BRANCH   1  14
HETATM   14  N5  UNL     1      42.609  -7.090  58.731  1.00  0.00    -0.260 N 
HETATM   15  C5  UNL     1      41.988  -5.824  58.692  1.00  0.00     0.327 C 
HETATM   16  O1  UNL     1      41.051  -5.580  59.490  1.00  0.00    -0.261 OA
ATOM     17  H5  UNL     1      43.364  -7.264  58.068  1.00  0.00     0.190 HD
BRANCH  15  18
HETATM   18  C6  UNL     1      42.439  -4.818  57.734  1.00  0.00     0.311 C 
HETATM   19  O2  UNL     1      41.789  -3.730  57.637  1.00  0.00    -0.262 OA
HETATM   20  N6  UNL     1      43.577  -5.074  56.942  1.00  0.00    -0.344 N 
ATOM     21  H6  UNL     1      44.082  -5.952  57.052  1.00  0.00     0.163 HD
BRANCH  20  22
HETATM   22  C7  UNL     1      44.029  -4.106  55.979  1.00  0.00     0.222 C 
BRANCH  22  23
HETATM   23  C8  UNL     1      45.256  -3.395  56.423  1.00  0.00     0.248 C 
HETATM   24  N7  UNL     1      45.360  -1.975  56.280  1.00  0.00    -0.061 NA
HETATM   25  O3  UNL     1      46.250  -3.965  56.935  1.00  0.00    -0.275 OA
ENDBRANCH  22  23
ENDBRANCH  20  22
ENDBRANCH  15  18
ENDBRANCH   1  14
TORSDOF 8
ENDMDL
MODEL 5
REMARK VINA RESULT: -7.255063714      1.016      1.129
REMARK  8 active torsions:
REMARK  status: ('A' for Active; 'I' for Inactive)
REMARK    1  A    between atoms: C2_4  and  N2_6 
REMARK    2  A    between atoms: N2_6  and  N3_8 
REMARK    3  A    between atoms: N3_8  and  C4_10 
REMARK    4  A    between atoms: C4_10  and  N4_12 
REMARK    5  A    between atoms: N4_12  and  N5_14 
REMARK       I    between atoms: N5_14  and  C5_16 
REMARK    6  A    between atoms: C5_16  and  C6_18 
REMARK       I    between atoms: C6_18  and  N6_20 
REMARK    7  A    between atoms: N6_20  and  C7_22 
REMARK    8  A    between atoms: C7_22  and  C8_23 
ROOT
HETATM    1  N4  UNL     1      42.167  -6.015  61.178  1.00  0.00    -0.272 N 
ATOM      2  H4  UNL     1      41.527  -5.584  61.845  1.00  0.00     0.189 HD
ENDROOT
BRANCH   1   3
HETATM    3  C4  UNL     1      42.601  -7.331  61.416  1.00  0.00     0.205 C 
HETATM    4  S1  UNL     1      43.267  -7.729  62.851  1.00  0.00    -0.038 SA
BRANCH   3   5
HETATM    5  N3  UNL     1      42.477  -8.340  60.443  1.00  0.00    -0.274 N 
ATOM      6  H3  UNL     1      43.307  -8.823  60.100  1.00  0.00     0.189 HD
BRANCH   5   7
HETATM    7  N2  UNL     1      41.218  -8.680  59.946  1.00  0.00    -0.287 N 
ATOM      8  H2  UNL     1      41.011  -8.499  58.964  1.00  0.00     0.188 HD
BRANCH   7   9
HETATM    9  C2  UNL     1      40.213  -9.269  60.762  1.00  0.00     0.087 C 
HETATM   10  N1  UNL     1      38.990  -8.989  60.532  1.00  0.00    -0.383 N 
HETATM   11  C1  UNL     1      38.595  -8.095  59.461  1.00  0.00     0.147 C 
ATOM     12  H1  UNL     1      38.268  -9.405  61.120  1.00  0.00     0.160 HD
HETATM   13  C3  UNL     1      40.635 -10.175  61.846  1.00  0.00     0.090 C 
ENDBRANCH   7   9
ENDBRANCH   5   7
ENDBRANCH   3   5
ENDBRANCH   1   3
BRANCH   1  14
HETATM   14  N5  UNL     1      42.576  -5.265  60.061  1.00  0.00    -0.260 N 
HETATM   15  C5  UNL     1      42.374  -3.878  59.898  1.00  0.00     0.327 C 
HETATM   16  O1  UNL     1      41.783  -3.238  60.800  1.00  0.00    -0.261 OA
ATOM     17  H5  UNL     1      43.055  -5.763  59.311  1.00  0.00     0.190 HD
BRANCH  15  18
HETATM   18  C6  UNL     1      42.855  -3.207  58.693  1.00  0.00     0.311 C 
HETATM   19  O2  UNL     1      42.919  -1.938  58.682  1.00  0.00    -0.262 OA
HETATM   20  N6  UNL     1      43.234  -3.976  57.573  1.00  0.00    -0.344 N 
ATOM     21  H6  UNL     1      43.181  -4.993  57.617  1.00  0.00     0.163 HD
BRANCH  20  22
HETATM   22  C7  UNL     1      43.692  -3.337  56.370  1.00  0.00     0.222 C 
BRANCH  22  23
HETATM   23  C8  UNL     1      45.136  -2.988  56.427  1.00  0.00     0.248 C 
HETATM   24  N7  UNL     1      45.571  -1.660  56.121  1.00  0.00    -0.061 NA
HETATM   25  O3  UNL     1      46.042  -3.800  56.736  1.00  0.00    -0.275 OA
ENDBRANCH  22  23
ENDBRANCH  20  22
ENDBRANCH  15  18
ENDBRANCH   1  14
TORSDOF 8
ENDMDL
