MODEL 1
REMARK VINA RESULT: -8.410061770      0.000      0.000
REMARK  5 active torsions:
REMARK  status: ('A' for Active; 'I' for Inactive)
REMARK    1  A    between atoms: C2_2  and  C4_4 
REMARK    2  A    between atoms: C4_4  and  C7_18 
REMARK       I    between atoms: N1_5  and  C5_7 
REMARK       I    between atoms: C5_7  and  N2_9 
REMARK    3  A    between atoms: N2_9  and  N3_11 
REMARK       I    between atoms: N3_11  and  C6_13 
REMARK    4  A    between atoms: C7_18  and  N6_19 
REMARK    5  A    between atoms: C7_18  and  C8_23 
REMARK       I    between atoms: C8_23  and  N7_25 
ROOT
HETATM    1  C4  UNL     1      43.309  -6.296  60.968  1.00  0.00     0.034 C 
HETATM    2  N1  UNL     1      43.803  -6.190  59.857  1.00  0.00    -0.312 N 
ATOM      3  H1  UNL     1      44.240  -7.085  59.636  1.00  0.00     0.170 HD
HETATM    4  C5  UNL     1      44.009  -5.375  58.799  1.00  0.00     0.339 C 
HETATM    5  O1  UNL     1      44.849  -4.410  58.732  1.00  0.00    -0.245 OA
HETATM    6  N2  UNL     1      43.246  -5.552  57.594  1.00  0.00    -0.249 N 
ATOM      7  H2  UNL     1      42.554  -6.301  57.570  1.00  0.00     0.192 HD
ENDROOT
BRANCH   1   8
HETATM    8  C2  UNL     1      42.574  -5.260  61.697  1.00  0.00     0.026 C 
HETATM    9  C1  UNL     1      43.455  -4.256  62.408  1.00  0.00     0.016 C 
HETATM   10  C3  UNL     1      41.526  -4.532  60.892  1.00  0.00     0.016 C 
ENDBRANCH   1   8
BRANCH   1  11
HETATM   11  C7  UNL     1      43.477  -7.629  61.666  1.00  0.00     0.320 C 
BRANCH  11  12
HETATM   12  N6  UNL     1      44.748  -8.204  61.316  1.00  0.00    -0.061 N 
ATOM     13  H63 UNL     1      45.254  -8.544  62.134  1.00  0.00     0.275 HD
ATOM     14  H62 UNL     1      44.645  -9.092  60.826  1.00  0.00     0.275 HD
ATOM     15  H61 UNL     1      45.295  -7.530  60.779  1.00  0.00     0.275 HD
ENDBRANCH  11  12
BRANCH  11  16
HETATM   16  C8  UNL     1      42.346  -8.525  61.394  1.00  0.00     0.260 C 
HETATM   17  O2  UNL     1      41.846  -8.527  60.242  1.00  0.00    -0.270 OA
HETATM   18  N7  UNL     1      41.806  -9.379  62.384  1.00  0.00    -0.301 N 
HETATM   19  C9  UNL     1      40.724 -10.049  62.240  1.00  0.00     0.203 C 
ATOM     20  H7  UNL     1      42.310  -9.466  63.266  1.00  0.00     0.171 HD
HETATM   21  N8  UNL     1      39.985  -9.966  61.037  1.00  0.00    -0.066 NA
HETATM   22  N9  UNL     1      40.261 -10.879  63.287  1.00  0.00    -0.066 NA
ENDBRANCH  11  16
ENDBRANCH   1  11
BRANCH   6  23
HETATM   23  N3  UNL     1      43.395  -4.759  56.456  1.00  0.00    -0.270 N 
HETATM   24  C6  UNL     1      43.524  -3.349  56.522  1.00  0.00     0.200 C 
HETATM   25  N4  UNL     1      42.861  -2.638  57.358  1.00  0.00    -0.372 N 
HETATM   26  N5  UNL     1      44.421  -2.703  55.628  1.00  0.00    -0.062 NA
ATOM     27  H42 UNL     1      42.217  -3.102  57.999  1.00  0.00     0.158 HD
ATOM     28  H41 UNL     1      42.953  -1.623  57.406  1.00  0.00     0.158 HD
ATOM     29  H3  UNL     1      43.413  -5.212  55.542  1.00  0.00     0.189 HD
ENDBRANCH   6  23
TORSDOF 5
ENDMDL
MODEL 2
REMARK VINA RESULT: -8.238495301      1.100      1.431
REMARK  5 active torsions:
REMARK  status: ('A' for Active; 'I' for Inactive)
REMARK    1  A    between atoms: C2_2  and  C4_4 
REMARK    2  A    between atoms: C4_4  and  C7_18 
REMARK       I    between atoms: N1_5  and  C5_7 
REMARK       I    between atoms: C5_7  and  N2_9 
REMARK    3  A    between atoms: N2_9  and  N3_11 
REMARK       I    between atoms: N3_11  and  C6_13 
REMARK    4  A    between atoms: C7_18  and  N6_19 
REMARK    5  A    between atoms: C7_18  and  C8_23 
REMARK       I    between atoms: C8_23  and  N7_25 
ROOT
HETATM    1  C4  UNL     1      43.092  -6.282  61.153  1.00  0.00     0.034 C 
HETATM    2  N1  UNL     1      43.629  -6.248  60.057  1.00  0.00    -0.312 N 
ATOM      3  H1  UNL     1      44.020  -7.174  59.886  1.00  0.00     0.170 HD
HETATM    4  C5  UNL     1      43.918  -5.488  58.977  1.00  0.00     0.339 C 
HETATM    5  O1  UNL     1      44.815  -4.576  58.905  1.00  0.00    -0.245 OA
HETATM    6  N2  UNL     1      43.188  -5.669  57.753  1.00  0.00    -0.249 N 
ATOM      7  H2  UNL     1      42.455  -6.378  57.732  1.00  0.00     0.192 HD
ENDROOT
BRANCH   1   8
HETATM    8  C2  UNL     1      42.393  -5.178  61.815  1.00  0.00     0.026 C 
HETATM    9  C1  UNL     1      43.286  -4.296  62.662  1.00  0.00     0.016 C 
HETATM   10  C3  UNL     1      41.549  -4.319  60.907  1.00  0.00     0.016 C 
ENDBRANCH   1   8
BRANCH   1  11
HETATM   11  C7  UNL     1      43.158  -7.594  61.905  1.00  0.00     0.320 C 
BRANCH  11  12
HETATM   12  N6  UNL     1      44.366  -8.292  61.559  1.00  0.00    -0.061 N 
ATOM     13  H63 UNL     1      44.217  -8.968  60.809  1.00  0.00     0.275 HD
ATOM     14  H62 UNL     1      45.035  -7.688  61.083  1.00  0.00     0.275 HD
ATOM     15  H61 UNL     1      44.765  -8.725  62.393  1.00  0.00     0.275 HD
ENDBRANCH  11  12
BRANCH  11  16
HETATM   16  C8  UNL     1      41.947  -8.397  61.693  1.00  0.00     0.260 C 
HETATM   17  O2  UNL     1      41.817  -9.468  62.334  1.00  0.00    -0.270 OA
HETATM   18  N7  UNL     1      40.929  -8.000  60.794  1.00  0.00    -0.301 N 
HETATM   19  C9  UNL     1      39.942  -8.744  60.456  1.00  0.00     0.203 C 
ATOM     20  H7  UNL     1      40.984  -7.065  60.391  1.00  0.00     0.171 HD
HETATM   21  N8  UNL     1      39.816 -10.049  60.984  1.00  0.00    -0.066 NA
HETATM   22  N9  UNL     1      38.971  -8.261  59.549  1.00  0.00    -0.066 NA
ENDBRANCH  11  16
ENDBRANCH   1  11
BRANCH   6  23
HETATM   23  N3  UNL     1      43.423  -4.932  56.592  1.00  0.00    -0.270 N 
HETATM   24  C6  UNL     1      43.124  -3.549  56.495  1.00  0.00     0.200 C 
HETATM   25  N4  UNL     1      42.080  -3.034  57.031  1.00  0.00    -0.372 N 
HETATM   26  N5  UNL     1      44.016  -2.707  55.777  1.00  0.00    -0.062 NA
ATOM     27  H42 UNL     1      41.440  -3.638  57.546  1.00  0.00     0.158 HD
ATOM     28  H41 UNL     1      41.864  -2.039  56.962  1.00  0.00     0.158 HD
ATOM     29  H3  UNL     1      43.824  -5.405  55.783  1.00  0.00     0.189 HD
ENDBRANCH   6  23
TORSDOF 5
ENDMDL
MODEL 3
REMARK VINA RESULT: -8.164915672      1.796      6.814
REMARK  5 active torsions:
REMARK  status: ('A' for Active; 'I' for Inactive)
REMARK    1  A    between atoms: C2_2  and  C4_4 
REMARK    2  A    between atoms: C4_4  and  C7_18 
REMARK       I    between atoms: N1_5  and  C5_7 
REMARK       I    between atoms: C5_7  and  N2_9 
REMARK    3  A    between atoms: N2_9  and  N3_11 
REMARK       I    between atoms: N3_11  and  C6_13 
REMARK    4  A    between atoms: C7_18  and  N6_19 
REMARK    5  A    between atoms: C7_18  and  C8_23 
REMARK       I    between atoms: C8_23  and  N7_25 
ROOT
HETATM    1  C4  UNL     1      42.015  -4.284  60.034  1.00  0.00     0.034 C 
HETATM    2  N1  UNL     1      41.544  -5.343  59.651  1.00  0.00    -0.312 N 
ATOM      3  H1  UNL     1      41.438  -5.276  58.639  1.00  0.00     0.170 HD
HETATM    4  C5  UNL     1      41.105  -6.568  60.016  1.00  0.00     0.339 C 
HETATM    5  O1  UNL     1      39.993  -6.840  60.591  1.00  0.00    -0.245 OA
HETATM    6  N2  UNL     1      41.916  -7.727  59.764  1.00  0.00    -0.249 N 
ATOM      7  H2  UNL     1      42.819  -7.592  59.310  1.00  0.00     0.192 HD
ENDROOT
BRANCH   1   8
HETATM    8  C2  UNL     1      42.341  -3.924  61.415  1.00  0.00     0.026 C 
HETATM    9  C1  UNL     1      43.187  -4.948  62.141  1.00  0.00     0.016 C 
HETATM   10  C3  UNL     1      42.943  -2.553  61.594  1.00  0.00     0.016 C 
ENDBRANCH   1   8
BRANCH   1  11
HETATM   11  C7  UNL     1      42.284  -3.234  58.976  1.00  0.00     0.320 C 
BRANCH  11  12
HETATM   12  N6  UNL     1      41.107  -3.042  58.172  1.00  0.00    -0.061 N 
ATOM     13  H63 UNL     1      41.284  -3.224  57.183  1.00  0.00     0.275 HD
ATOM     14  H62 UNL     1      40.410  -3.769  58.332  1.00  0.00     0.275 HD
ATOM     15  H61 UNL     1      40.731  -2.107  58.329  1.00  0.00     0.275 HD
ENDBRANCH  11  12
BRANCH  11  16
HETATM   16  C8  UNL     1      43.476  -3.563  58.184  1.00  0.00     0.260 C 
HETATM   17  O2  UNL     1      43.995  -4.697  58.323  1.00  0.00    -0.270 OA
HETATM   18  N7  UNL     1      44.051  -2.645  57.274  1.00  0.00    -0.301 N 
HETATM   19  C9  UNL     1      45.177  -2.825  56.691  1.00  0.00     0.203 C 
ATOM     20  H7  UNL     1      43.539  -1.787  57.071  1.00  0.00     0.171 HD
HETATM   21  N8  UNL     1      45.930  -3.997  56.935  1.00  0.00    -0.066 NA
HETATM   22  N9  UNL     1      45.674  -1.851  55.795  1.00  0.00    -0.066 NA
ENDBRANCH  11  16
ENDBRANCH   1  11
BRANCH   6  23
HETATM   23  N3  UNL     1      41.540  -9.028  60.105  1.00  0.00    -0.270 N 
HETATM   24  C6  UNL     1      41.430  -9.459  61.451  1.00  0.00     0.200 C 
HETATM   25  N4  UNL     1      42.250  -9.082  62.362  1.00  0.00    -0.372 N 
HETATM   26  N5  UNL     1      40.372 -10.342  61.800  1.00  0.00    -0.062 NA
ATOM     27  H42 UNL     1      43.009  -8.449  62.112  1.00  0.00     0.158 HD
ATOM     28  H41 UNL     1      42.170  -9.393  63.331  1.00  0.00     0.158 HD
ATOM     29  H3  UNL     1      41.338  -9.691  59.358  1.00  0.00     0.189 HD
ENDBRANCH   6  23
TORSDOF 5
ENDMDL
MODEL 4
REMARK VINA RESULT: -7.652331078      1.941      6.808
REMARK  5 active torsions:
REMARK  status: ('A' for Active; 'I' for Inactive)
REMARK    1  A    between atoms: C2_2  and  C4_4 
REMARK    2  A    between atoms: C4_4  and  C7_18 
REMARK       I    between atoms: N1_5  and  C5_7 
REMARK       I    between atoms: C5_7  and  N2_9 
REMARK    3  A    between atoms: N2_9  and  N3_11 
REMARK       I    between atoms: N3_11  and  C6_13 
REMARK    4  A    between atoms: C7_18  and  N6_19 
REMARK    5  A    between atoms: C7_18  and  C8_23 
REMARK       I    between atoms: C8_23  and  N7_25 
ROOT
HETATM    1  C4  UNL     1      42.223  -3.829  59.889  1.00  0.00     0.034 C 
HETATM    2  N1  UNL     1      41.697  -4.916  59.708  1.00  0.00    -0.312 N 
ATOM      3  H1  UNL     1      41.217  -4.871  58.809  1.00  0.00     0.170 HD
HETATM    4  C5  UNL     1      41.489  -6.154  60.209  1.00  0.00     0.339 C 
HETATM    5  O1  UNL     1      40.686  -6.468  61.156  1.00  0.00    -0.245 OA
HETATM    6  N2  UNL     1      42.204  -7.278  59.670  1.00  0.00    -0.249 N 
ATOM      7  H2  UNL     1      42.864  -7.108  58.911  1.00  0.00     0.192 HD
ENDROOT
BRANCH   1   8
HETATM    8  C2  UNL     1      43.023  -3.431  61.050  1.00  0.00     0.026 C 
HETATM    9  C1  UNL     1      42.257  -3.409  62.355  1.00  0.00     0.016 C 
HETATM   10  C3  UNL     1      44.310  -4.196  61.232  1.00  0.00     0.016 C 
ENDBRANCH   1   8
BRANCH   1  11
HETATM   11  C7  UNL     1      42.025  -2.786  58.810  1.00  0.00     0.320 C 
BRANCH  11  12
HETATM   12  N6  UNL     1      41.028  -3.236  57.876  1.00  0.00    -0.061 N 
ATOM     13  H63 UNL     1      40.711  -2.486  57.262  1.00  0.00     0.275 HD
ATOM     14  H62 UNL     1      41.418  -3.854  57.166  1.00  0.00     0.275 HD
ATOM     15  H61 UNL     1      40.255  -3.671  58.381  1.00  0.00     0.275 HD
ENDBRANCH  11  12
BRANCH  11  16
HETATM   16  C8  UNL     1      43.296  -2.430  58.167  1.00  0.00     0.260 C 
HETATM   17  O2  UNL     1      43.735  -1.262  58.312  1.00  0.00    -0.270 OA
HETATM   18  N7  UNL     1      44.036  -3.357  57.396  1.00  0.00    -0.301 N 
HETATM   19  C9  UNL     1      45.056  -3.046  56.686  1.00  0.00     0.203 C 
ATOM     20  H7  UNL     1      43.738  -4.332  57.405  1.00  0.00     0.171 HD
HETATM   21  N8  UNL     1      45.512  -1.708  56.636  1.00  0.00    -0.066 NA
HETATM   22  N9  UNL     1      45.733  -4.042  55.947  1.00  0.00    -0.066 NA
ENDBRANCH  11  16
ENDBRANCH   1  11
BRANCH   6  23
HETATM   23  N3  UNL     1      42.048  -8.588  60.124  1.00  0.00    -0.270 N 
HETATM   24  C6  UNL     1      42.207  -8.945  61.487  1.00  0.00     0.200 C 
HETATM   25  N4  UNL     1      43.109  -8.421  62.233  1.00  0.00    -0.372 N 
HETATM   26  N5  UNL     1      41.333  -9.918  62.043  1.00  0.00    -0.062 NA
ATOM     27  H42 UNL     1      43.735  -7.723  61.833  1.00  0.00     0.158 HD
ATOM     28  H41 UNL     1      43.223  -8.678  63.214  1.00  0.00     0.158 HD
ATOM     29  H3  UNL     1      41.811  -9.316  59.450  1.00  0.00     0.189 HD
ENDBRANCH   6  23
TORSDOF 5
ENDMDL
MODEL 5
REMARK VINA RESULT: -7.628279464      1.874      6.513
REMARK  5 active torsions:
REMARK  status: ('A' for Active; 'I' for Inactive)
REMARK    1  A    between atoms: C2_2  and  C4_4 
REMARK    2  A    between atoms: C4_4  and  C7_18 
REMARK       I    between atoms: N1_5  and  C5_7 
REMARK       I    between atoms: C5_7  and  N2_9 
REMARK    3  A    between atoms: N2_9  and  N3_11 
REMARK       I    between atoms: N3_11  and  C6_13 
REMARK    4  A    between atoms: C7_18  and  N6_19 
REMARK    5  A    between atoms: C7_18  and  C8_23 
REMARK       I    between atoms: C8_23  and  N7_25 
ROOT
HETATM    1  C4  UNL     1      42.341  -4.341  60.418  1.00  0.00     0.034 C 
HETATM    2  N1  UNL     1      41.691  -5.299  60.030  1.00  0.00    -0.312 N 
ATOM      3  H1  UNL     1      41.383  -5.088  59.081  1.00  0.00     0.170 HD
HETATM    4  C5  UNL     1      41.212  -6.525  60.340  1.00  0.00     0.339 C 
HETATM    5  O1  UNL     1      40.223  -6.783  61.112  1.00  0.00    -0.245 OA
HETATM    6  N2  UNL     1      41.825  -7.699  59.784  1.00  0.00    -0.249 N 
ATOM      7  H2  UNL     1      42.622  -7.575  59.159  1.00  0.00     0.192 HD
ENDROOT
BRANCH   1   8
HETATM    8  C2  UNL     1      42.985  -4.198  61.725  1.00  0.00     0.026 C 
HETATM    9  C1  UNL     1      44.392  -3.640  61.667  1.00  0.00     0.016 C 
HETATM   10  C3  UNL     1      42.183  -3.441  62.754  1.00  0.00     0.016 C 
ENDBRANCH   1   8
BRANCH   1  11
HETATM   11  C7  UNL     1      42.491  -3.183  59.454  1.00  0.00     0.320 C 
BRANCH  11  12
HETATM   12  N6  UNL     1      41.277  -2.413  59.427  1.00  0.00    -0.061 N 
ATOM     13  H63 UNL     1      41.361  -1.583  58.839  1.00  0.00     0.275 HD
ATOM     14  H62 UNL     1      40.535  -2.885  58.910  1.00  0.00     0.275 HD
ATOM     15  H61 UNL     1      40.994  -2.182  60.380  1.00  0.00     0.275 HD
ENDBRANCH  11  12
BRANCH  11  16
HETATM   16  C8  UNL     1      42.912  -3.641  58.125  1.00  0.00     0.260 C 
HETATM   17  O2  UNL     1      42.082  -4.257  57.411  1.00  0.00    -0.270 OA
HETATM   18  N7  UNL     1      44.216  -3.411  57.627  1.00  0.00    -0.301 N 
HETATM   19  C9  UNL     1      44.675  -3.932  56.551  1.00  0.00     0.203 C 
ATOM     20  H7  UNL     1      44.828  -2.791  58.158  1.00  0.00     0.171 HD
HETATM   21  N8  UNL     1      43.870  -4.798  55.776  1.00  0.00    -0.066 NA
HETATM   22  N9  UNL     1      45.994  -3.643  56.131  1.00  0.00    -0.066 NA
ENDBRANCH  11  16
ENDBRANCH   1  11
BRANCH   6  23
HETATM   23  N3  UNL     1      41.394  -9.000  60.048  1.00  0.00    -0.270 N 
HETATM   24  C6  UNL     1      41.292  -9.515  61.365  1.00  0.00     0.200 C 
HETATM   25  N4  UNL     1      42.148  -9.238  62.279  1.00  0.00    -0.372 N 
HETATM   26  N5  UNL     1      40.200 -10.368  61.681  1.00  0.00    -0.062 NA
ATOM     27  H42 UNL     1      42.931  -8.625  62.052  1.00  0.00     0.158 HD
ATOM     28  H41 UNL     1      42.074  -9.608  63.227  1.00  0.00     0.158 HD
ATOM     29  H3  UNL     1      41.144  -9.602  59.264  1.00  0.00     0.189 HD
ENDBRANCH   6  23
TORSDOF 5
ENDMDL
