MODEL 1
REMARK VINA RESULT: -5.905580657      0.000      0.000
REMARK  6 active torsions:
REMARK  status: ('A' for Active; 'I' for Inactive)
REMARK    1  A    between atoms: N1_2  and  N2_3 
REMARK       I    between atoms: N2_3  and  C2_5 
REMARK       I    between atoms: N4_7  and  C3_9 
REMARK       I    between atoms: C3_9  and  N5_11 
REMARK    2  A    between atoms: N5_11  and  C4_13 
REMARK    3  A    between atoms: C4_13  and  C5_14 
REMARK       I    between atoms: C5_14  and  N6_16 
REMARK    4  A    between atoms: N6_16  and  N7_18 
REMARK    5  A    between atoms: N7_18  and  C6_20 
REMARK    6  A    between atoms: C6_20  and  N8_22 
ROOT
HETATM    1  N2  UNL     1      40.212 -11.041  62.892  1.00  0.00    -0.278 N 
ATOM      2  H2  UNL     1      40.168 -11.978  62.493  1.00  0.00     0.185 HD
HETATM    3  C2  UNL     1      40.699  -9.939  62.147  1.00  0.00     0.208 C 
HETATM    4  N3  UNL     1      41.884  -9.308  62.602  1.00  0.00    -0.062 NA
HETATM    5  N4  UNL     1      40.049  -9.569  61.094  1.00  0.00    -0.282 N 
ATOM      6  H4  UNL     1      39.202 -10.044  60.786  1.00  0.00     0.173 HD
HETATM    7  C3  UNL     1      40.587  -8.458  60.391  1.00  0.00     0.323 C 
HETATM    8  O1  UNL     1      39.895  -7.422  60.338  1.00  0.00    -0.247 OA
HETATM    9  N5  UNL     1      41.870  -8.584  59.793  1.00  0.00    -0.334 N 
ATOM     10  H5  UNL     1      42.379  -9.464  59.879  1.00  0.00     0.164 HD
ENDROOT
BRANCH   9  11
HETATM   11  C4  UNL     1      42.462  -7.494  59.070  1.00  0.00     0.228 C 
BRANCH  11  12
HETATM   12  C5  UNL     1      43.176  -6.521  59.943  1.00  0.00     0.253 C 
HETATM   13  O2  UNL     1      43.586  -6.799  61.102  1.00  0.00    -0.270 OA
HETATM   14  N6  UNL     1      43.409  -5.214  59.455  1.00  0.00    -0.266 N 
ATOM     15  H6  UNL     1      43.081  -4.969  58.521  1.00  0.00     0.190 HD
BRANCH  14  16
HETATM   16  N7  UNL     1      44.070  -4.255  60.210  1.00  0.00    -0.274 N 
ATOM     17  H7  UNL     1      45.089  -4.220  60.182  1.00  0.00     0.189 HD
BRANCH  16  18
HETATM   18  C6  UNL     1      43.375  -3.326  61.017  1.00  0.00     0.188 C 
HETATM   19  S1  UNL     1      43.442  -1.746  60.645  1.00  0.00    -0.039 SA
BRANCH  18  20
HETATM   20  N8  UNL     1      42.628  -3.764  62.132  1.00  0.00    -0.366 N 
HETATM   21  C7  UNL     1      41.190  -3.856  62.023  1.00  0.00     0.151 C 
HETATM   22  C8  UNL     1      43.329  -4.116  63.355  1.00  0.00     0.151 C 
ENDBRANCH  18  20
ENDBRANCH  16  18
ENDBRANCH  14  16
ENDBRANCH  11  12
ENDBRANCH   9  11
BRANCH   1  23
HETATM   23  N1  UNL     1      39.792 -10.781  64.201  1.00  0.00    -0.144 NA
HETATM   24  C1  UNL     1      38.623 -11.524  64.584  1.00  0.00     0.159 C 
ENDBRANCH   1  23
TORSDOF 6
ENDMDL
MODEL 2
REMARK VINA RESULT: -5.740546153      2.951      6.981
REMARK  6 active torsions:
REMARK  status: ('A' for Active; 'I' for Inactive)
REMARK    1  A    between atoms: N1_2  and  N2_3 
REMARK       I    between atoms: N2_3  and  C2_5 
REMARK       I    between atoms: N4_7  and  C3_9 
REMARK       I    between atoms: C3_9  and  N5_11 
REMARK    2  A    between atoms: N5_11  and  C4_13 
REMARK    3  A    between atoms: C4_13  and  C5_14 
REMARK       I    between atoms: C5_14  and  N6_16 
REMARK    4  A    between atoms: N6_16  and  N7_18 
REMARK    5  A    between atoms: N7_18  and  C6_20 
REMARK    6  A    between atoms: C6_20  and  N8_22 
ROOT
HETATM    1  N2  UNL     1      44.695  -2.940  56.674  1.00  0.00    -0.278 N 
ATOM      2  H2  UNL     1      45.318  -2.149  56.513  1.00  0.00     0.185 HD
HETATM    3  C2  UNL     1      44.067  -3.149  57.926  1.00  0.00     0.208 C 
HETATM    4  N3  UNL     1      44.414  -4.316  58.652  1.00  0.00    -0.062 NA
HETATM    5  N4  UNL     1      43.220  -2.269  58.347  1.00  0.00    -0.282 N 
ATOM      6  H4  UNL     1      42.993  -1.435  57.806  1.00  0.00     0.173 HD
HETATM    7  C3  UNL     1      42.624  -2.535  59.608  1.00  0.00     0.323 C 
HETATM    8  O1  UNL     1      41.392  -2.722  59.633  1.00  0.00    -0.247 OA
HETATM    9  N5  UNL     1      43.453  -2.572  60.762  1.00  0.00    -0.334 N 
ATOM     10  H5  UNL     1      44.455  -2.408  60.664  1.00  0.00     0.164 HD
ENDROOT
BRANCH   9  11
HETATM   11  C4  UNL     1      42.904  -2.834  62.062  1.00  0.00     0.228 C 
BRANCH  11  12
HETATM   12  C5  UNL     1      42.900  -4.279  62.424  1.00  0.00     0.253 C 
HETATM   13  O2  UNL     1      43.252  -4.712  63.554  1.00  0.00    -0.270 OA
HETATM   14  N6  UNL     1      42.483  -5.222  61.456  1.00  0.00    -0.266 N 
ATOM     15  H6  UNL     1      42.197  -4.891  60.534  1.00  0.00     0.190 HD
BRANCH  14  16
HETATM   16  N7  UNL     1      42.450  -6.584  61.722  1.00  0.00    -0.274 N 
ATOM     17  H7  UNL     1      42.759  -6.916  62.636  1.00  0.00     0.189 HD
BRANCH  16  18
HETATM   18  C6  UNL     1      42.003  -7.523  60.767  1.00  0.00     0.188 C 
HETATM   19  S1  UNL     1      42.564  -7.437  59.245  1.00  0.00    -0.039 SA
BRANCH  18  20
HETATM   20  N8  UNL     1      41.080  -8.530  61.128  1.00  0.00    -0.366 N 
HETATM   21  C7  UNL     1      41.448  -9.488  62.146  1.00  0.00     0.151 C 
HETATM   22  C8  UNL     1      39.784  -8.566  60.472  1.00  0.00     0.151 C 
ENDBRANCH  18  20
ENDBRANCH  16  18
ENDBRANCH  14  16
ENDBRANCH  11  12
ENDBRANCH   9  11
BRANCH   1  23
HETATM   23  N1  UNL     1      44.419  -3.873  55.668  1.00  0.00    -0.144 NA
HETATM   24  C1  UNL     1      43.382  -4.804  56.021  1.00  0.00     0.159 C 
ENDBRANCH   1  23
TORSDOF 6
ENDMDL
MODEL 3
REMARK VINA RESULT: -5.573722185      1.387      2.066
REMARK  6 active torsions:
REMARK  status: ('A' for Active; 'I' for Inactive)
REMARK    1  A    between atoms: N1_2  and  N2_3 
REMARK       I    between atoms: N2_3  and  C2_5 
REMARK       I    between atoms: N4_7  and  C3_9 
REMARK       I    between atoms: C3_9  and  N5_11 
REMARK    2  A    between atoms: N5_11  and  C4_13 
REMARK    3  A    between atoms: C4_13  and  C5_14 
REMARK       I    between atoms: C5_14  and  N6_16 
REMARK    4  A    between atoms: N6_16  and  N7_18 
REMARK    5  A    between atoms: N7_18  and  C6_20 
REMARK    6  A    between atoms: C6_20  and  N8_22 
ROOT
HETATM    1  N2  UNL     1      39.926 -11.227  63.387  1.00  0.00    -0.278 N 
ATOM      2  H2  UNL     1      39.964 -12.206  63.105  1.00  0.00     0.185 HD
HETATM    3  C2  UNL     1      40.401 -10.192  62.545  1.00  0.00     0.208 C 
HETATM    4  N3  UNL     1      41.513  -9.435  62.992  1.00  0.00    -0.062 NA
HETATM    5  N4  UNL     1      39.807  -9.993  61.415  1.00  0.00    -0.282 N 
ATOM      6  H4  UNL     1      39.012 -10.556  61.115  1.00  0.00     0.173 HD
HETATM    7  C3  UNL     1      40.330  -8.942  60.615  1.00  0.00     0.323 C 
HETATM    8  O1  UNL     1      39.586  -7.967  60.391  1.00  0.00    -0.247 OA
HETATM    9  N5  UNL     1      41.656  -9.055  60.120  1.00  0.00    -0.334 N 
ATOM     10  H5  UNL     1      42.207  -9.883  60.346  1.00  0.00     0.164 HD
ENDROOT
BRANCH   9  11
HETATM   11  C4  UNL     1      42.235  -8.023  59.306  1.00  0.00     0.228 C 
BRANCH  11  12
HETATM   12  C5  UNL     1      42.595  -6.796  60.071  1.00  0.00     0.253 C 
HETATM   13  O2  UNL     1      43.689  -6.655  60.682  1.00  0.00    -0.270 OA
HETATM   14  N6  UNL     1      41.669  -5.729  60.120  1.00  0.00    -0.266 N 
ATOM     15  H6  UNL     1      40.776  -5.826  59.634  1.00  0.00     0.190 HD
BRANCH  14  16
HETATM   16  N7  UNL     1      41.936  -4.554  60.809  1.00  0.00    -0.274 N 
ATOM     17  H7  UNL     1      41.623  -4.467  61.776  1.00  0.00     0.189 HD
BRANCH  16  18
HETATM   18  C6  UNL     1      42.628  -3.477  60.213  1.00  0.00     0.188 C 
HETATM   19  S1  UNL     1      43.148  -2.254  61.147  1.00  0.00    -0.039 SA
BRANCH  18  20
HETATM   20  N8  UNL     1      42.868  -3.460  58.822  1.00  0.00    -0.366 N 
HETATM   21  C7  UNL     1      44.119  -3.979  58.318  1.00  0.00     0.151 C 
HETATM   22  C8  UNL     1      41.844  -2.930  57.937  1.00  0.00     0.151 C 
ENDBRANCH  18  20
ENDBRANCH  16  18
ENDBRANCH  14  16
ENDBRANCH  11  12
ENDBRANCH   9  11
BRANCH   1  23
HETATM   23  N1  UNL     1      39.400 -10.840  64.625  1.00  0.00    -0.144 NA
HETATM   24  C1  UNL     1      38.274 -11.631  65.039  1.00  0.00     0.159 C 
ENDBRANCH   1  23
TORSDOF 6
ENDMDL
MODEL 4
REMARK VINA RESULT: -5.447206750      1.283      1.525
REMARK  6 active torsions:
REMARK  status: ('A' for Active; 'I' for Inactive)
REMARK    1  A    between atoms: N1_2  and  N2_3 
REMARK       I    between atoms: N2_3  and  C2_5 
REMARK       I    between atoms: N4_7  and  C3_9 
REMARK       I    between atoms: C3_9  and  N5_11 
REMARK    2  A    between atoms: N5_11  and  C4_13 
REMARK    3  A    between atoms: C4_13  and  C5_14 
REMARK       I    between atoms: C5_14  and  N6_16 
REMARK    4  A    between atoms: N6_16  and  N7_18 
REMARK    5  A    between atoms: N7_18  and  C6_20 
REMARK    6  A    between atoms: C6_20  and  N8_22 
ROOT
HETATM    1  N2  UNL     1      39.934 -11.193  63.247  1.00  0.00    -0.278 N 
ATOM      2  H2  UNL     1      40.014 -12.165  62.950  1.00  0.00     0.185 HD
HETATM    3  C2  UNL     1      40.451 -10.132  62.465  1.00  0.00     0.208 C 
HETATM    4  N3  UNL     1      41.509  -9.363  63.012  1.00  0.00    -0.062 NA
HETATM    5  N4  UNL     1      39.942  -9.920  61.297  1.00  0.00    -0.282 N 
ATOM      6  H4  UNL     1      39.184 -10.492  60.925  1.00  0.00     0.173 HD
HETATM    7  C3  UNL     1      40.503  -8.842  60.561  1.00  0.00     0.323 C 
HETATM    8  O1  UNL     1      39.758  -7.877  60.299  1.00  0.00    -0.247 OA
HETATM    9  N5  UNL     1      41.866  -8.919  60.168  1.00  0.00    -0.334 N 
ATOM     10  H5  UNL     1      42.415  -9.742  60.419  1.00  0.00     0.164 HD
ENDROOT
BRANCH   9  11
HETATM   11  C4  UNL     1      42.484  -7.859  59.422  1.00  0.00     0.228 C 
BRANCH  11  12
HETATM   12  C5  UNL     1      42.398  -6.533  60.093  1.00  0.00     0.253 C 
HETATM   13  O2  UNL     1      43.078  -6.224  61.109  1.00  0.00    -0.270 OA
HETATM   14  N6  UNL     1      41.511  -5.562  59.572  1.00  0.00    -0.266 N 
ATOM     15  H6  UNL     1      40.950  -5.795  58.752  1.00  0.00     0.190 HD
BRANCH  14  16
HETATM   16  N7  UNL     1      41.380  -4.304  60.143  1.00  0.00    -0.274 N 
ATOM     17  H7  UNL     1      40.575  -4.113  60.739  1.00  0.00     0.189 HD
BRANCH  16  18
HETATM   18  C6  UNL     1      42.328  -3.279  59.923  1.00  0.00     0.188 C 
HETATM   19  S1  UNL     1      42.794  -2.942  58.403  1.00  0.00    -0.039 SA
BRANCH  18  20
HETATM   20  N8  UNL     1      42.863  -2.553  61.009  1.00  0.00    -0.366 N 
HETATM   21  C7  UNL     1      42.656  -3.043  62.353  1.00  0.00     0.151 C 
HETATM   22  C8  UNL     1      43.614  -1.338  60.741  1.00  0.00     0.151 C 
ENDBRANCH  18  20
ENDBRANCH  16  18
ENDBRANCH  14  16
ENDBRANCH  11  12
ENDBRANCH   9  11
BRANCH   1  23
HETATM   23  N1  UNL     1      39.307 -10.842  64.448  1.00  0.00    -0.144 NA
HETATM   24  C1  UNL     1      38.539 -11.912  65.024  1.00  0.00     0.159 C 
ENDBRANCH   1  23
TORSDOF 6
ENDMDL
MODEL 5
REMARK VINA RESULT: -5.364979043      1.343      1.537
REMARK  6 active torsions:
REMARK  status: ('A' for Active; 'I' for Inactive)
REMARK    1  A    between atoms: N1_2  and  N2_3 
REMARK       I    between atoms: N2_3  and  C2_5 
REMARK       I    between atoms: N4_7  and  C3_9 
REMARK       I    between atoms: C3_9  and  N5_11 
REMARK    2  A    between atoms: N5_11  and  C4_13 
REMARK    3  A    between atoms: C4_13  and  C5_14 
REMARK       I    between atoms: C5_14  and  N6_16 
REMARK    4  A    between atoms: N6_16  and  N7_18 
REMARK    5  A    between atoms: N7_18  and  C6_20 
REMARK    6  A    between atoms: C6_20  and  N8_22 
ROOT
HETATM    1  N2  UNL     1      40.279 -10.997  62.883  1.00  0.00    -0.278 N 
ATOM      2  H2  UNL     1      40.279 -11.941  62.499  1.00  0.00     0.185 HD
HETATM    3  C2  UNL     1      40.699  -9.883  62.116  1.00  0.00     0.208 C 
HETATM    4  N3  UNL     1      41.856  -9.185  62.544  1.00  0.00    -0.062 NA
HETATM    5  N4  UNL     1      40.016  -9.563  61.067  1.00  0.00    -0.282 N 
ATOM      6  H4  UNL     1      39.190 -10.086  60.779  1.00  0.00     0.173 HD
HETATM    7  C3  UNL     1      40.487  -8.437  60.340  1.00  0.00     0.323 C 
HETATM    8  O1  UNL     1      39.741  -7.439  60.281  1.00  0.00    -0.247 OA
HETATM    9  N5  UNL     1      41.765  -8.506  59.725  1.00  0.00    -0.334 N 
ATOM     10  H5  UNL     1      42.320  -9.358  59.816  1.00  0.00     0.164 HD
ENDROOT
BRANCH   9  11
HETATM   11  C4  UNL     1      42.290  -7.399  58.977  1.00  0.00     0.228 C 
BRANCH  11  12
HETATM   12  C5  UNL     1      43.033  -6.416  59.814  1.00  0.00     0.253 C 
HETATM   13  O2  UNL     1      44.015  -5.747  59.392  1.00  0.00    -0.270 OA
HETATM   14  N6  UNL     1      42.623  -6.215  61.153  1.00  0.00    -0.266 N 
ATOM     15  H6  UNL     1      41.832  -6.750  61.513  1.00  0.00     0.190 HD
BRANCH  14  16
HETATM   16  N7  UNL     1      43.264  -5.314  61.991  1.00  0.00    -0.274 N 
ATOM     17  H7  UNL     1      44.124  -5.601  62.459  1.00  0.00     0.189 HD
BRANCH  16  18
HETATM   18  C6  UNL     1      42.763  -4.013  62.216  1.00  0.00     0.188 C 
HETATM   19  S1  UNL     1      42.426  -3.544  63.734  1.00  0.00    -0.039 SA
BRANCH  18  20
HETATM   20  N8  UNL     1      42.558  -3.127  61.136  1.00  0.00    -0.366 N 
HETATM   21  C7  UNL     1      41.360  -3.257  60.337  1.00  0.00     0.151 C 
HETATM   22  C8  UNL     1      43.555  -2.105  60.865  1.00  0.00     0.151 C 
ENDBRANCH  18  20
ENDBRANCH  16  18
ENDBRANCH  14  16
ENDBRANCH  11  12
ENDBRANCH   9  11
BRANCH   1  23
HETATM   23  N1  UNL     1      39.865 -10.738  64.195  1.00  0.00    -0.144 NA
HETATM   24  C1  UNL     1      38.652 -11.420  64.555  1.00  0.00     0.159 C 
ENDBRANCH   1  23
TORSDOF 6
ENDMDL
