MODEL 1
REMARK VINA RESULT: -5.399351798      0.000      0.000
REMARK  5 active torsions:
REMARK  status: ('A' for Active; 'I' for Inactive)
REMARK    1  A    between atoms: S1_2  and  C2_3 
REMARK    2  A    between atoms: C2_3  and  C3_4 
REMARK    3  A    between atoms: C3_4  and  C4_5 
REMARK    4  A    between atoms: C4_5  and  N1_6 
REMARK    5  A    between atoms: C4_5  and  C10_16 
REMARK       I    between atoms: N1_6  and  C5_8 
REMARK       I    between atoms: C5_8  and  N2_10 
REMARK       I    between atoms: C10_16  and  N3_18 
ROOT
HETATM    1  C4  UNL     1       7.810  -3.110   6.260  1.00  0.00     0.179 C 
ENDROOT
BRANCH   1   2
HETATM    2  C3  UNL     1       7.976  -2.678   7.689  1.00  0.00     0.045 C 
BRANCH   2   3
HETATM    3  C2  UNL     1       7.198  -3.328   8.747  1.00  0.00     0.076 C 
BRANCH   3   4
HETATM    4  S1  UNL     1       5.634  -2.497   9.088  1.00  0.00    -0.173 SA
HETATM    5  C1  UNL     1       4.270  -3.146   8.125  1.00  0.00     0.089 C 
ENDBRANCH   3   4
ENDBRANCH   2   3
ENDBRANCH   1   2
BRANCH   1   6
HETATM    6  N1  UNL     1       9.111  -2.759   5.624  1.00  0.00    -0.330 N 
HETATM    7  C5  UNL     1      10.123  -3.705   5.395  1.00  0.00     0.319 C 
HETATM    8  O1  UNL     1       9.838  -4.902   5.777  1.00  0.00    -0.247 OA
HETATM    9  N2  UNL     1      11.375  -3.439   4.799  1.00  0.00    -0.330 N 
HETATM   10  C6  UNL     1      11.739  -2.122   4.361  1.00  0.00     0.153 C 
HETATM   11  C9  UNL     1      12.325  -4.517   4.621  1.00  0.00     0.153 C 
HETATM   12  C7  UNL     1      13.079  -1.791   5.030  1.00  0.00     0.187 C 
HETATM   13  O2  UNL     1      13.501  -2.812   5.868  1.00  0.00    -0.388 OA
HETATM   14  C8  UNL     1      13.655  -4.010   5.162  1.00  0.00     0.187 C 
ATOM     15  H1  UNL     1       9.273  -1.791   5.344  1.00  0.00     0.165 HD
ENDBRANCH   1   6
BRANCH   1  16
HETATM   16  C10 UNL     1       6.724  -2.391   5.584  1.00  0.00     0.242 C 
HETATM   17  O3  UNL     1       6.479  -1.159   5.839  1.00  0.00    -0.271 OA
HETATM   18  N3  UNL     1       5.857  -2.981   4.586  1.00  0.00    -0.349 N 
HETATM   19  C11 UNL     1       4.833  -2.188   4.004  1.00  0.00     0.136 C 
HETATM   20  C14 UNL     1       6.163  -4.341   4.245  1.00  0.00     0.136 C 
HETATM   21  C12 UNL     1       3.547  -2.964   3.928  1.00  0.00     0.093 C 
HETATM   22  S2  UNL     1       3.856  -4.308   2.717  1.00  0.00    -0.166 SA
HETATM   23  C13 UNL     1       5.492  -4.941   3.086  1.00  0.00     0.093 C 
ENDBRANCH   1  16
TORSDOF 5
ENDMDL
MODEL 2
REMARK VINA RESULT: -5.311407676      3.232      6.577
REMARK  5 active torsions:
REMARK  status: ('A' for Active; 'I' for Inactive)
REMARK    1  A    between atoms: S1_2  and  C2_3 
REMARK    2  A    between atoms: C2_3  and  C3_4 
REMARK    3  A    between atoms: C3_4  and  C4_5 
REMARK    4  A    between atoms: C4_5  and  N1_6 
REMARK    5  A    between atoms: C4_5  and  C10_16 
REMARK       I    between atoms: N1_6  and  C5_8 
REMARK       I    between atoms: C5_8  and  N2_10 
REMARK       I    between atoms: C10_16  and  N3_18 
ROOT
HETATM    1  C4  UNL     1      11.378  -3.289   4.470  1.00  0.00     0.179 C 
ENDROOT
BRANCH   1   2
HETATM    2  C3  UNL     1      12.233  -2.055   4.513  1.00  0.00     0.045 C 
BRANCH   2   3
HETATM    3  C2  UNL     1      12.496  -1.389   5.792  1.00  0.00     0.076 C 
BRANCH   3   4
HETATM    4  S1  UNL     1      14.244  -1.381   6.239  1.00  0.00    -0.173 SA
HETATM    5  C1  UNL     1      14.676  -0.049   7.355  1.00  0.00     0.089 C 
ENDBRANCH   3   4
ENDBRANCH   2   3
ENDBRANCH   1   2
BRANCH   1   6
HETATM    6  N1  UNL     1      10.366  -3.064   5.540  1.00  0.00    -0.330 N 
HETATM    7  C5  UNL     1       8.987  -3.017   5.282  1.00  0.00     0.319 C 
HETATM    8  O1  UNL     1       8.664  -3.185   4.046  1.00  0.00    -0.247 OA
HETATM    9  N2  UNL     1       7.979  -2.807   6.247  1.00  0.00    -0.330 N 
HETATM   10  C6  UNL     1       8.289  -2.612   7.634  1.00  0.00     0.153 C 
HETATM   11  C9  UNL     1       6.590  -2.786   5.838  1.00  0.00     0.153 C 
HETATM   12  C7  UNL     1       7.610  -1.304   8.057  1.00  0.00     0.187 C 
HETATM   13  O2  UNL     1       6.959  -0.696   6.994  1.00  0.00    -0.388 OA
HETATM   14  C8  UNL     1       5.978  -1.537   6.458  1.00  0.00     0.187 C 
ATOM     15  H1  UNL     1      10.689  -2.939   6.500  1.00  0.00     0.165 HD
ENDBRANCH   1   6
BRANCH   1  16
HETATM   16  C10 UNL     1      12.143  -4.506   4.765  1.00  0.00     0.242 C 
HETATM   17  O3  UNL     1      13.378  -4.453   5.102  1.00  0.00    -0.271 OA
HETATM   18  N3  UNL     1      11.591  -5.844   4.719  1.00  0.00    -0.349 N 
HETATM   19  C11 UNL     1      12.431  -6.949   5.020  1.00  0.00     0.136 C 
HETATM   20  C14 UNL     1      10.192  -5.911   4.407  1.00  0.00     0.136 C 
HETATM   21  C12 UNL     1      12.214  -8.058   4.027  1.00  0.00     0.093 C 
HETATM   22  S2  UNL     1      10.506  -8.660   4.329  1.00  0.00    -0.166 SA
HETATM   23  C13 UNL     1       9.500  -7.196   4.566  1.00  0.00     0.093 C 
ENDBRANCH   1  16
TORSDOF 5
ENDMDL
MODEL 3
REMARK VINA RESULT: -4.979554726      2.489      6.755
REMARK  5 active torsions:
REMARK  status: ('A' for Active; 'I' for Inactive)
REMARK    1  A    between atoms: S1_2  and  C2_3 
REMARK    2  A    between atoms: C2_3  and  C3_4 
REMARK    3  A    between atoms: C3_4  and  C4_5 
REMARK    4  A    between atoms: C4_5  and  N1_6 
REMARK    5  A    between atoms: C4_5  and  C10_16 
REMARK       I    between atoms: N1_6  and  C5_8 
REMARK       I    between atoms: C5_8  and  N2_10 
REMARK       I    between atoms: C10_16  and  N3_18 
ROOT
HETATM    1  C4  UNL     1       8.527  -3.357   5.388  1.00  0.00     0.179 C 
ENDROOT
BRANCH   1   2
HETATM    2  C3  UNL     1       8.258  -3.313   6.865  1.00  0.00     0.045 C 
BRANCH   2   3
HETATM    3  C2  UNL     1       8.295  -2.034   7.579  1.00  0.00     0.076 C 
BRANCH   3   4
HETATM    4  S1  UNL     1       6.685  -1.535   8.223  1.00  0.00    -0.173 SA
HETATM    5  C1  UNL     1       5.477  -2.856   8.191  1.00  0.00     0.089 C 
ENDBRANCH   3   4
ENDBRANCH   2   3
ENDBRANCH   1   2
BRANCH   1   6
HETATM    6  N1  UNL     1       7.272  -3.915   4.810  1.00  0.00    -0.330 N 
HETATM    7  C5  UNL     1       6.159  -3.117   4.501  1.00  0.00     0.319 C 
HETATM    8  O1  UNL     1       6.307  -1.863   4.758  1.00  0.00    -0.247 OA
HETATM    9  N2  UNL     1       4.943  -3.581   3.954  1.00  0.00    -0.330 N 
HETATM   10  C6  UNL     1       4.730  -4.968   3.656  1.00  0.00     0.153 C 
HETATM   11  C9  UNL     1       3.876  -2.641   3.683  1.00  0.00     0.153 C 
HETATM   12  C7  UNL     1       3.438  -5.378   4.373  1.00  0.00     0.187 C 
HETATM   13  O2  UNL     1       2.906  -4.333   5.111  1.00  0.00    -0.388 OA
HETATM   14  C8  UNL     1       2.614  -3.237   4.291  1.00  0.00     0.187 C 
ATOM     15  H1  UNL     1       7.220  -4.918   4.630  1.00  0.00     0.165 HD
ENDBRANCH   1   6
BRANCH   1  16
HETATM   16  C10 UNL     1       9.654  -4.235   5.054  1.00  0.00     0.242 C 
HETATM   17  O3  UNL     1       9.482  -5.485   4.826  1.00  0.00    -0.271 OA
HETATM   18  N3  UNL     1      11.026  -3.788   4.942  1.00  0.00    -0.349 N 
HETATM   19  C11 UNL     1      12.037  -4.733   4.618  1.00  0.00     0.136 C 
HETATM   20  C14 UNL     1      11.222  -2.380   5.131  1.00  0.00     0.136 C 
HETATM   21  C12 UNL     1      13.244  -4.530   5.492  1.00  0.00     0.093 C 
HETATM   22  S2  UNL     1      13.937  -2.903   5.002  1.00  0.00    -0.166 SA
HETATM   23  C13 UNL     1      12.533  -1.805   4.808  1.00  0.00     0.093 C 
ENDBRANCH   1  16
TORSDOF 5
ENDMDL
MODEL 4
REMARK VINA RESULT: -4.926794303      6.611      9.197
REMARK  5 active torsions:
REMARK  status: ('A' for Active; 'I' for Inactive)
REMARK    1  A    between atoms: S1_2  and  C2_3 
REMARK    2  A    between atoms: C2_3  and  C3_4 
REMARK    3  A    between atoms: C3_4  and  C4_5 
REMARK    4  A    between atoms: C4_5  and  N1_6 
REMARK    5  A    between atoms: C4_5  and  C10_16 
REMARK       I    between atoms: N1_6  and  C5_8 
REMARK       I    between atoms: C5_8  and  N2_10 
REMARK       I    between atoms: C10_16  and  N3_18 
ROOT
HETATM    1  C4  UNL     1      12.189  -9.740   2.788  1.00  0.00     0.179 C 
ENDROOT
BRANCH   1   2
HETATM    2  C3  UNL     1      13.118  -9.553   1.623  1.00  0.00     0.045 C 
BRANCH   2   3
HETATM    3  C2  UNL     1      12.886 -10.285   0.375  1.00  0.00     0.076 C 
BRANCH   3   4
HETATM    4  S1  UNL     1      11.402  -9.744  -0.497  1.00  0.00    -0.173 SA
HETATM    5  C1  UNL     1      11.751  -8.620  -1.847  1.00  0.00     0.089 C 
ENDBRANCH   3   4
ENDBRANCH   2   3
ENDBRANCH   1   2
BRANCH   1   6
HETATM    6  N1  UNL     1      12.422  -8.534   3.632  1.00  0.00    -0.330 N 
HETATM    7  C5  UNL     1      11.373  -7.792   4.199  1.00  0.00     0.319 C 
HETATM    8  O1  UNL     1      10.194  -8.235   3.932  1.00  0.00    -0.247 OA
HETATM    9  N2  UNL     1      11.525  -6.643   5.005  1.00  0.00    -0.330 N 
HETATM   10  C6  UNL     1      12.818  -6.110   5.325  1.00  0.00     0.153 C 
HETATM   11  C9  UNL     1      10.351  -5.976   5.527  1.00  0.00     0.153 C 
HETATM   12  C7  UNL     1      12.797  -4.631   4.919  1.00  0.00     0.187 C 
HETATM   13  O2  UNL     1      11.591  -4.275   4.337  1.00  0.00    -0.388 OA
HETATM   14  C8  UNL     1      10.525  -4.495   5.217  1.00  0.00     0.187 C 
ATOM     15  H1  UNL     1      13.382  -8.237   3.805  1.00  0.00     0.165 HD
ENDBRANCH   1   6
BRANCH   1  16
HETATM   16  C10 UNL     1      12.502 -10.948   3.560  1.00  0.00     0.242 C 
HETATM   17  O3  UNL     1      13.686 -11.173   3.995  1.00  0.00    -0.271 OA
HETATM   18  N3  UNL     1      11.531 -11.965   3.906  1.00  0.00    -0.349 N 
HETATM   19  C11 UNL     1      11.953 -13.097   4.654  1.00  0.00     0.136 C 
HETATM   20  C14 UNL     1      10.189 -11.691   3.481  1.00  0.00     0.136 C 
HETATM   21  C12 UNL     1      11.367 -14.355   4.076  1.00  0.00     0.093 C 
HETATM   22  S2  UNL     1       9.559 -14.235   4.369  1.00  0.00    -0.166 SA
HETATM   23  C13 UNL     1       9.106 -12.544   3.985  1.00  0.00     0.093 C 
ENDBRANCH   1  16
TORSDOF 5
ENDMDL
MODEL 5
REMARK VINA RESULT: -4.844081779      6.423      8.640
REMARK  5 active torsions:
REMARK  status: ('A' for Active; 'I' for Inactive)
REMARK    1  A    between atoms: S1_2  and  C2_3 
REMARK    2  A    between atoms: C2_3  and  C3_4 
REMARK    3  A    between atoms: C3_4  and  C4_5 
REMARK    4  A    between atoms: C4_5  and  N1_6 
REMARK    5  A    between atoms: C4_5  and  C10_16 
REMARK       I    between atoms: N1_6  and  C5_8 
REMARK       I    between atoms: C5_8  and  N2_10 
REMARK       I    between atoms: C10_16  and  N3_18 
ROOT
HETATM    1  C4  UNL     1      11.877  -9.508   3.091  1.00  0.00     0.179 C 
ENDROOT
BRANCH   1   2
HETATM    2  C3  UNL     1      13.196  -9.910   2.496  1.00  0.00     0.045 C 
BRANCH   2   3
HETATM    3  C2  UNL     1      13.272 -11.059   1.590  1.00  0.00     0.076 C 
BRANCH   3   4
HETATM    4  S1  UNL     1      14.386 -12.351   2.177  1.00  0.00    -0.173 SA
HETATM    5  C1  UNL     1      15.017 -12.039   3.824  1.00  0.00     0.089 C 
ENDBRANCH   3   4
ENDBRANCH   2   3
ENDBRANCH   1   2
BRANCH   1   6
HETATM    6  N1  UNL     1      12.203  -8.307   3.911  1.00  0.00    -0.330 N 
HETATM    7  C5  UNL     1      11.223  -7.412   4.367  1.00  0.00     0.319 C 
HETATM    8  O1  UNL     1      10.018  -7.710   4.022  1.00  0.00    -0.247 OA
HETATM    9  N2  UNL     1      11.464  -6.258   5.144  1.00  0.00    -0.330 N 
HETATM   10  C6  UNL     1      12.788  -5.883   5.550  1.00  0.00     0.153 C 
HETATM   11  C9  UNL     1      10.352  -5.423   5.548  1.00  0.00     0.153 C 
HETATM   12  C7  UNL     1      12.994  -4.433   5.094  1.00  0.00     0.187 C 
HETATM   13  O2  UNL     1      11.891  -3.950   4.406  1.00  0.00    -0.388 OA
HETATM   14  C8  UNL     1      10.743  -3.992   5.205  1.00  0.00     0.187 C 
ATOM     15  H1  UNL     1      13.179  -8.128   4.150  1.00  0.00     0.165 HD
ENDBRANCH   1   6
BRANCH   1  16
HETATM   16  C10 UNL     1      11.315 -10.553   3.954  1.00  0.00     0.242 C 
HETATM   17  O3  UNL     1      11.889 -10.898   5.046  1.00  0.00    -0.271 OA
HETATM   18  N3  UNL     1      10.087 -11.267   3.670  1.00  0.00    -0.349 N 
HETATM   19  C11 UNL     1       9.643 -12.265   4.578  1.00  0.00     0.136 C 
HETATM   20  C14 UNL     1       9.401 -10.844   2.483  1.00  0.00     0.136 C 
HETATM   21  C12 UNL     1       9.181 -13.486   3.830  1.00  0.00     0.093 C 
HETATM   22  S2  UNL     1       7.676 -12.964   2.919  1.00  0.00    -0.166 SA
HETATM   23  C13 UNL     1       8.042 -11.344   2.243  1.00  0.00     0.093 C 
ENDBRANCH   1  16
TORSDOF 5
ENDMDL
