MODEL 1
REMARK VINA RESULT: -7.397308808      0.000      0.000
REMARK  6 active torsions:
REMARK  status: ('A' for Active; 'I' for Inactive)
REMARK    1  A    between atoms: C2_3  and  C3_4 
REMARK    2  A    between atoms: C3_4  and  N2_5 
REMARK       I    between atoms: N2_5  and  C4_7 
REMARK    3  A    between atoms: C4_7  and  C5_9 
REMARK    4  A    between atoms: C5_9  and  O2_10 
REMARK    5  A    between atoms: O2_10  and  C6_11 
REMARK       I    between atoms: C6_11  and  N3_13 
REMARK    6  A    between atoms: C9_16  and  C10_17 
REMARK       I    between atoms: C10_17  and  N4_19 
ROOT
HETATM    1  N1  UNL     1      15.577  -1.087   7.061  1.00  0.00    -0.197 NA
HETATM    2  C1  UNL     1      14.589  -1.268   6.495  1.00  0.00     0.060 C 
HETATM    3  C2  UNL     1      13.349  -1.487   5.760  1.00  0.00     0.143 C 
ENDROOT
BRANCH   3   4
HETATM    4  C3  UNL     1      13.575  -2.249   4.485  1.00  0.00     0.136 C 
BRANCH   4   5
HETATM    5  N2  UNL     1      12.811  -3.464   4.462  1.00  0.00    -0.358 N 
HETATM    6  C4  UNL     1      13.201  -4.701   5.016  1.00  0.00     0.241 C 
HETATM    7  O1  UNL     1      14.332  -4.747   5.603  1.00  0.00    -0.271 OA
ATOM      8  H2  UNL     1      11.902  -3.430   4.001  1.00  0.00     0.162 HD
BRANCH   6   9
HETATM    9  C5  UNL     1      12.441  -5.955   4.995  1.00  0.00     0.283 C 
BRANCH   9  10
HETATM   10  O2  UNL     1      11.191  -5.926   5.591  1.00  0.00    -0.295 OA
BRANCH  10  11
HETATM   11  C6  UNL     1       9.993  -5.774   4.928  1.00  0.00     0.363 C 
HETATM   12  O3  UNL     1       9.577  -6.711   4.207  1.00  0.00    -0.238 OA
HETATM   13  N3  UNL     1       9.271  -4.576   5.075  1.00  0.00    -0.327 N 
HETATM   14  C7  UNL     1       9.651  -3.440   5.875  1.00  0.00     0.129 C 
HETATM   15  C17 UNL     1       8.005  -4.300   4.430  1.00  0.00     0.142 C 
HETATM   16  C8  UNL     1       8.264  -3.001   6.384  1.00  0.00     0.035 C 
HETATM   17  C9  UNL     1       7.451  -3.041   5.131  1.00  0.00     0.097 C 
BRANCH  17  18
HETATM   18  C10 UNL     1       6.013  -3.123   5.289  1.00  0.00     0.225 C 
HETATM   19  O4  UNL     1       5.414  -4.157   4.840  1.00  0.00    -0.273 OA
HETATM   20  N4  UNL     1       5.221  -2.155   5.900  1.00  0.00    -0.352 N 
HETATM   21  C11 UNL     1       3.770  -2.415   6.000  1.00  0.00     0.125 C 
HETATM   22  C16 UNL     1       5.838  -0.961   6.378  1.00  0.00     0.125 C 
HETATM   23  C12 UNL     1       3.416  -2.314   7.465  1.00  0.00     0.020 C 
HETATM   24  C13 UNL     1       3.305  -0.859   7.872  1.00  0.00     0.002 C 
HETATM   25  C14 UNL     1       4.582  -0.343   8.476  1.00  0.00     0.002 C 
HETATM   26  C15 UNL     1       5.811  -0.965   7.890  1.00  0.00     0.020 C 
ENDBRANCH  17  18
ENDBRANCH  10  11
ENDBRANCH   9  10
ENDBRANCH   6   9
ENDBRANCH   4   5
ENDBRANCH   3   4
TORSDOF 6
ENDMDL
MODEL 2
REMARK VINA RESULT: -7.259326709      4.048      7.618
REMARK  6 active torsions:
REMARK  status: ('A' for Active; 'I' for Inactive)
REMARK    1  A    between atoms: C2_3  and  C3_4 
REMARK    2  A    between atoms: C3_4  and  N2_5 
REMARK       I    between atoms: N2_5  and  C4_7 
REMARK    3  A    between atoms: C4_7  and  C5_9 
REMARK    4  A    between atoms: C5_9  and  O2_10 
REMARK    5  A    between atoms: O2_10  and  C6_11 
REMARK       I    between atoms: C6_11  and  N3_13 
REMARK    6  A    between atoms: C9_16  and  C10_17 
REMARK       I    between atoms: C10_17  and  N4_19 
ROOT
HETATM    1  N1  UNL     1      12.262   0.827   7.760  1.00  0.00    -0.197 NA
HETATM    2  C1  UNL     1      13.338   0.446   7.599  1.00  0.00     0.060 C 
HETATM    3  C2  UNL     1      14.691  -0.060   7.400  1.00  0.00     0.143 C 
ENDROOT
BRANCH   3   4
HETATM    4  C3  UNL     1      14.730  -1.200   6.422  1.00  0.00     0.136 C 
BRANCH   4   5
HETATM    5  N2  UNL     1      13.427  -1.466   5.880  1.00  0.00    -0.358 N 
HETATM    6  C4  UNL     1      13.126  -2.390   4.858  1.00  0.00     0.241 C 
HETATM    7  O1  UNL     1      14.096  -3.061   4.373  1.00  0.00    -0.271 OA
ATOM      8  H2  UNL     1      12.647  -0.938   6.270  1.00  0.00     0.162 HD
BRANCH   6   9
HETATM    9  C5  UNL     1      11.806  -2.670   4.283  1.00  0.00     0.283 C 
BRANCH   9  10
HETATM   10  O2  UNL     1      10.836  -3.119   5.164  1.00  0.00    -0.295 OA
BRANCH  10  11
HETATM   11  C6  UNL     1       9.985  -4.180   4.942  1.00  0.00     0.363 C 
HETATM   12  O3  UNL     1       8.787  -3.946   4.658  1.00  0.00    -0.238 OA
HETATM   13  N3  UNL     1      10.479  -5.493   5.041  1.00  0.00    -0.327 N 
HETATM   14  C7  UNL     1      11.832  -5.877   5.357  1.00  0.00     0.129 C 
HETATM   15  C17 UNL     1       9.685  -6.684   4.832  1.00  0.00     0.142 C 
HETATM   16  C8  UNL     1      11.974  -7.113   4.447  1.00  0.00     0.035 C 
HETATM   17  C9  UNL     1      10.699  -7.842   4.719  1.00  0.00     0.097 C 
BRANCH  17  18
HETATM   18  C10 UNL     1      10.276  -8.810   3.727  1.00  0.00     0.225 C 
HETATM   19  O4  UNL     1       9.312  -8.498   2.950  1.00  0.00    -0.273 OA
HETATM   20  N4  UNL     1      10.845 -10.068   3.547  1.00  0.00    -0.352 N 
HETATM   21  C11 UNL     1      10.307 -10.919   2.465  1.00  0.00     0.125 C 
HETATM   22  C16 UNL     1      11.895 -10.481   4.420  1.00  0.00     0.125 C 
HETATM   23  C12 UNL     1      11.476 -11.276   1.578  1.00  0.00     0.020 C 
HETATM   24  C13 UNL     1      12.287 -12.387   2.212  1.00  0.00     0.002 C 
HETATM   25  C14 UNL     1      13.456 -11.857   2.994  1.00  0.00     0.002 C 
HETATM   26  C15 UNL     1      13.190 -10.533   3.639  1.00  0.00     0.020 C 
ENDBRANCH  17  18
ENDBRANCH  10  11
ENDBRANCH   9  10
ENDBRANCH   6   9
ENDBRANCH   4   5
ENDBRANCH   3   4
TORSDOF 6
ENDMDL
MODEL 3
REMARK VINA RESULT: -7.243872611      1.787      2.280
REMARK  6 active torsions:
REMARK  status: ('A' for Active; 'I' for Inactive)
REMARK    1  A    between atoms: C2_3  and  C3_4 
REMARK    2  A    between atoms: C3_4  and  N2_5 
REMARK       I    between atoms: N2_5  and  C4_7 
REMARK    3  A    between atoms: C4_7  and  C5_9 
REMARK    4  A    between atoms: C5_9  and  O2_10 
REMARK    5  A    between atoms: O2_10  and  C6_11 
REMARK       I    between atoms: C6_11  and  N3_13 
REMARK    6  A    between atoms: C9_16  and  C10_17 
REMARK       I    between atoms: C10_17  and  N4_19 
ROOT
HETATM    1  N1  UNL     1      14.725  -0.094   7.288  1.00  0.00    -0.197 NA
HETATM    2  C1  UNL     1      14.672  -1.085   6.701  1.00  0.00     0.060 C 
HETATM    3  C2  UNL     1      14.581  -2.336   5.958  1.00  0.00     0.143 C 
ENDROOT
BRANCH   3   4
HETATM    4  C3  UNL     1      13.713  -2.208   4.739  1.00  0.00     0.136 C 
BRANCH   4   5
HETATM    5  N2  UNL     1      12.436  -2.832   4.942  1.00  0.00    -0.358 N 
HETATM    6  C4  UNL     1      12.152  -4.207   4.803  1.00  0.00     0.241 C 
HETATM    7  O1  UNL     1      13.117  -4.973   4.478  1.00  0.00    -0.271 OA
ATOM      8  H2  UNL     1      11.662  -2.225   5.210  1.00  0.00     0.162 HD
BRANCH   6   9
HETATM    9  C5  UNL     1      10.854  -4.863   4.996  1.00  0.00     0.283 C 
BRANCH   9  10
HETATM   10  O2  UNL     1       9.938  -4.192   5.789  1.00  0.00    -0.295 OA
BRANCH  10  11
HETATM   11  C6  UNL     1       8.812  -3.542   5.334  1.00  0.00     0.363 C 
HETATM   12  O3  UNL     1       8.558  -3.556   4.107  1.00  0.00    -0.238 OA
HETATM   13  N3  UNL     1       7.978  -2.881   6.254  1.00  0.00    -0.327 N 
HETATM   14  C7  UNL     1       8.170  -2.802   7.680  1.00  0.00     0.129 C 
HETATM   15  C17 UNL     1       6.772  -2.165   5.897  1.00  0.00     0.142 C 
HETATM   16  C8  UNL     1       6.703  -2.877   8.147  1.00  0.00     0.035 C 
HETATM   17  C9  UNL     1       6.039  -1.902   7.231  1.00  0.00     0.097 C 
BRANCH  17  18
HETATM   18  C10 UNL     1       4.604  -2.029   7.070  1.00  0.00     0.225 C 
HETATM   19  O4  UNL     1       4.163  -2.919   6.268  1.00  0.00    -0.273 OA
HETATM   20  N4  UNL     1       3.656  -1.252   7.728  1.00  0.00    -0.352 N 
HETATM   21  C11 UNL     1       2.230  -1.536   7.467  1.00  0.00     0.125 C 
HETATM   22  C16 UNL     1       4.101  -0.214   8.600  1.00  0.00     0.125 C 
HETATM   23  C12 UNL     1       1.594  -1.812   8.810  1.00  0.00     0.020 C 
HETATM   24  C13 UNL     1       1.325  -0.508   9.532  1.00  0.00     0.002 C 
HETATM   25  C14 UNL     1       2.430  -0.155  10.489  1.00  0.00     0.002 C 
HETATM   26  C15 UNL     1       3.782  -0.601  10.027  1.00  0.00     0.020 C 
ENDBRANCH  17  18
ENDBRANCH  10  11
ENDBRANCH   9  10
ENDBRANCH   6   9
ENDBRANCH   4   5
ENDBRANCH   3   4
TORSDOF 6
ENDMDL
MODEL 4
REMARK VINA RESULT: -7.018068572      1.796      2.276
REMARK  6 active torsions:
REMARK  status: ('A' for Active; 'I' for Inactive)
REMARK    1  A    between atoms: C2_3  and  C3_4 
REMARK    2  A    between atoms: C3_4  and  N2_5 
REMARK       I    between atoms: N2_5  and  C4_7 
REMARK    3  A    between atoms: C4_7  and  C5_9 
REMARK    4  A    between atoms: C5_9  and  O2_10 
REMARK    5  A    between atoms: O2_10  and  C6_11 
REMARK       I    between atoms: C6_11  and  N3_13 
REMARK    6  A    between atoms: C9_16  and  C10_17 
REMARK       I    between atoms: C10_17  and  N4_19 
ROOT
HETATM    1  N1  UNL     1      14.641  -0.106   7.198  1.00  0.00    -0.197 NA
HETATM    2  C1  UNL     1      14.604  -1.137   6.685  1.00  0.00     0.060 C 
HETATM    3  C2  UNL     1      14.534  -2.440   6.033  1.00  0.00     0.143 C 
ENDROOT
BRANCH   3   4
HETATM    4  C3  UNL     1      13.820  -2.373   4.713  1.00  0.00     0.136 C 
BRANCH   4   5
HETATM    5  N2  UNL     1      12.491  -2.907   4.812  1.00  0.00    -0.358 N 
HETATM    6  C4  UNL     1      12.136  -4.270   4.725  1.00  0.00     0.241 C 
HETATM    7  O1  UNL     1      13.079  -5.110   4.553  1.00  0.00    -0.271 OA
ATOM      8  H2  UNL     1      11.734  -2.241   4.958  1.00  0.00     0.162 HD
BRANCH   6   9
HETATM    9  C5  UNL     1      10.786  -4.836   4.814  1.00  0.00     0.283 C 
BRANCH   9  10
HETATM   10  O2  UNL     1       9.876  -4.138   5.591  1.00  0.00    -0.295 OA
BRANCH  10  11
HETATM   11  C6  UNL     1       8.596  -3.797   5.211  1.00  0.00     0.363 C 
HETATM   12  O3  UNL     1       8.164  -4.202   4.106  1.00  0.00    -0.238 OA
HETATM   13  N3  UNL     1       7.810  -3.007   6.069  1.00  0.00    -0.327 N 
HETATM   14  C7  UNL     1       8.201  -2.491   7.356  1.00  0.00     0.129 C 
HETATM   15  C17 UNL     1       6.456  -2.585   5.780  1.00  0.00     0.142 C 
HETATM   16  C8  UNL     1       6.859  -2.610   8.105  1.00  0.00     0.035 C 
HETATM   17  C9  UNL     1       5.901  -2.038   7.113  1.00  0.00     0.097 C 
BRANCH  17  18
HETATM   18  C10 UNL     1       4.504  -2.387   7.278  1.00  0.00     0.225 C 
HETATM   19  O4  UNL     1       4.221  -3.494   7.847  1.00  0.00    -0.273 OA
HETATM   20  N4  UNL     1       3.432  -1.603   6.863  1.00  0.00    -0.352 N 
HETATM   21  C11 UNL     1       2.068  -2.100   7.138  1.00  0.00     0.125 C 
HETATM   22  C16 UNL     1       3.698  -0.377   6.182  1.00  0.00     0.125 C 
HETATM   23  C12 UNL     1       1.367  -1.018   7.926  1.00  0.00     0.020 C 
HETATM   24  C13 UNL     1       0.907   0.085   6.996  1.00  0.00     0.002 C 
HETATM   25  C14 UNL     1       1.893   1.218   6.933  1.00  0.00     0.002 C 
HETATM   26  C15 UNL     1       3.316   0.777   7.082  1.00  0.00     0.020 C 
ENDBRANCH  17  18
ENDBRANCH  10  11
ENDBRANCH   9  10
ENDBRANCH   6   9
ENDBRANCH   4   5
ENDBRANCH   3   4
TORSDOF 6
ENDMDL
MODEL 5
REMARK VINA RESULT: -6.931341286      5.006      7.597
REMARK  6 active torsions:
REMARK  status: ('A' for Active; 'I' for Inactive)
REMARK    1  A    between atoms: C2_3  and  C3_4 
REMARK    2  A    between atoms: C3_4  and  N2_5 
REMARK       I    between atoms: N2_5  and  C4_7 
REMARK    3  A    between atoms: C4_7  and  C5_9 
REMARK    4  A    between atoms: C5_9  and  O2_10 
REMARK    5  A    between atoms: O2_10  and  C6_11 
REMARK       I    between atoms: C6_11  and  N3_13 
REMARK    6  A    between atoms: C9_16  and  C10_17 
REMARK       I    between atoms: C10_17  and  N4_19 
ROOT
HETATM    1  N1  UNL     1      12.094   0.517   7.599  1.00  0.00    -0.197 NA
HETATM    2  C1  UNL     1      13.240   0.406   7.546  1.00  0.00     0.060 C 
HETATM    3  C2  UNL     1      14.687   0.242   7.488  1.00  0.00     0.143 C 
ENDROOT
BRANCH   3   4
HETATM    4  C3  UNL     1      15.087  -0.978   6.708  1.00  0.00     0.136 C 
BRANCH   4   5
HETATM    5  N2  UNL     1      13.987  -1.487   5.939  1.00  0.00    -0.358 N 
HETATM    6  C4  UNL     1      13.885  -2.785   5.394  1.00  0.00     0.241 C 
HETATM    7  O1  UNL     1      14.852  -3.587   5.611  1.00  0.00    -0.271 OA
ATOM      8  H2  UNL     1      13.207  -0.853   5.770  1.00  0.00     0.162 HD
BRANCH   6   9
HETATM    9  C5  UNL     1      12.777  -3.322   4.598  1.00  0.00     0.283 C 
BRANCH   9  10
HETATM   10  O2  UNL     1      12.514  -4.674   4.744  1.00  0.00    -0.295 OA
BRANCH  10  11
HETATM   11  C6  UNL     1      11.267  -5.256   4.696  1.00  0.00     0.363 C 
HETATM   12  O3  UNL     1      10.253  -4.519   4.704  1.00  0.00    -0.238 OA
HETATM   13  N3  UNL     1      11.161  -6.658   4.640  1.00  0.00    -0.327 N 
HETATM   14  C7  UNL     1      12.252  -7.599   4.623  1.00  0.00     0.129 C 
HETATM   15  C17 UNL     1       9.909  -7.382   4.587  1.00  0.00     0.142 C 
HETATM   16  C8  UNL     1      11.668  -8.660   3.670  1.00  0.00     0.035 C 
HETATM   17  C9  UNL     1      10.286  -8.831   4.210  1.00  0.00     0.097 C 
BRANCH  17  18
HETATM   18  C10 UNL     1       9.303  -9.409   3.315  1.00  0.00     0.225 C 
HETATM   19  O4  UNL     1       8.672  -8.629   2.526  1.00  0.00    -0.273 OA
HETATM   20  N4  UNL     1       8.988 -10.762   3.244  1.00  0.00    -0.352 N 
HETATM   21  C11 UNL     1       7.978 -11.184   2.251  1.00  0.00     0.125 C 
HETATM   22  C16 UNL     1       9.634 -11.668   4.137  1.00  0.00     0.125 C 
HETATM   23  C12 UNL     1       8.637 -12.232   1.386  1.00  0.00     0.020 C 
HETATM   24  C13 UNL     1       8.657 -13.563   2.109  1.00  0.00     0.002 C 
HETATM   25  C14 UNL     1       9.958 -13.798   2.824  1.00  0.00     0.002 C 
HETATM   26  C15 UNL     1      10.583 -12.543   3.348  1.00  0.00     0.020 C 
ENDBRANCH  17  18
ENDBRANCH  10  11
ENDBRANCH   9  10
ENDBRANCH   6   9
ENDBRANCH   4   5
ENDBRANCH   3   4
TORSDOF 6
ENDMDL
