MODEL 1
REMARK VINA RESULT: -6.706322435      0.000      0.000
REMARK  5 active torsions:
REMARK  status: ('A' for Active; 'I' for Inactive)
REMARK    1  A    between atoms: C1_2  and  C2_4 
REMARK    2  A    between atoms: C2_4  and  C3_5 
REMARK    3  A    between atoms: C4_6  and  C5_7 
REMARK    4  A    between atoms: C5_7  and  N1_8 
REMARK    5  A    between atoms: C14_18  and  N2_19 
ROOT
HETATM    1  C3  UNL     1       7.036  -3.212   5.140  1.00  0.00     0.010 C 
HETATM    2  C4  UNL     1       8.428  -3.368   5.753  1.00  0.00     0.029 C 
HETATM    3  C10 UNL     1       8.709  -2.581   6.952  1.00  0.00     0.015 C 
HETATM    4  C11 UNL     1       7.469  -2.285   7.833  1.00  0.00    -0.012 C 
HETATM    5  C12 UNL     1       6.473  -3.356   7.502  1.00  0.00     0.012 C 
HETATM    6  C13 UNL     1       5.971  -2.888   6.152  1.00  0.00     0.014 C 
HETATM    7  C14 UNL     1       5.858  -1.406   6.320  1.00  0.00     0.084 C 
HETATM    8  C19 UNL     1       6.876  -0.980   7.317  1.00  0.00     0.030 C 
ENDROOT
BRANCH   2   9
HETATM    9  C5  UNL     1       9.395  -3.054   4.640  1.00  0.00     0.063 C 
BRANCH   9  10
HETATM   10  N1  UNL     1      10.608  -3.705   4.717  1.00  0.00    -0.389 N 
HETATM   11  C6  UNL     1      10.799  -5.077   4.780  1.00  0.00     0.148 C 
HETATM   12  C7  UNL     1      12.146  -5.302   5.536  1.00  0.00     0.187 C 
HETATM   13  O3  UNL     1      13.160  -4.761   4.790  1.00  0.00    -0.388 OA
HETATM   14  C8  UNL     1      12.956  -3.459   4.406  1.00  0.00     0.187 C 
HETATM   15  C9  UNL     1      11.737  -2.922   5.154  1.00  0.00     0.148 C 
ENDBRANCH   9  10
ENDBRANCH   2   9
BRANCH   1  16
HETATM   16  C2  UNL     1       6.709  -4.571   4.560  1.00  0.00     0.119 C 
BRANCH  16  17
HETATM   17  C1  UNL     1       5.819  -4.592   3.400  1.00  0.00     0.172 C 
HETATM   18  O1  UNL     1       5.989  -5.353   2.440  1.00  0.00    -0.648 OA
HETATM   19  O2  UNL     1       4.703  -3.734   3.301  1.00  0.00    -0.648 OA
ENDBRANCH  16  17
ENDBRANCH   1  16
BRANCH   7  20
HETATM   20  N2  UNL     1       4.564  -0.874   6.548  1.00  0.00    -0.404 N 
HETATM   21  C15 UNL     1       4.408   0.020   7.629  1.00  0.00     0.143 C 
HETATM   22  C16 UNL     1       3.037  -0.083   8.222  1.00  0.00     0.187 C 
HETATM   23  O4  UNL     1       2.097  -0.409   7.255  1.00  0.00    -0.388 OA
HETATM   24  C17 UNL     1       2.446   0.029   5.997  1.00  0.00     0.187 C 
HETATM   25  C18 UNL     1       3.683  -0.711   5.464  1.00  0.00     0.143 C 
ENDBRANCH   7  20
TORSDOF 5
ENDMDL
MODEL 2
REMARK VINA RESULT: -6.701776578      0.681      1.490
REMARK  5 active torsions:
REMARK  status: ('A' for Active; 'I' for Inactive)
REMARK    1  A    between atoms: C1_2  and  C2_4 
REMARK    2  A    between atoms: C2_4  and  C3_5 
REMARK    3  A    between atoms: C4_6  and  C5_7 
REMARK    4  A    between atoms: C5_7  and  N1_8 
REMARK    5  A    between atoms: C14_18  and  N2_19 
ROOT
HETATM    1  C3  UNL     1       7.202  -3.112   5.096  1.00  0.00     0.010 C 
HETATM    2  C4  UNL     1       8.586  -3.413   5.674  1.00  0.00     0.029 C 
HETATM    3  C10 UNL     1       8.926  -2.761   6.936  1.00  0.00     0.015 C 
HETATM    4  C11 UNL     1       7.715  -2.469   7.857  1.00  0.00    -0.012 C 
HETATM    5  C12 UNL     1       6.649  -3.438   7.443  1.00  0.00     0.012 C 
HETATM    6  C13 UNL     1       6.168  -2.816   6.149  1.00  0.00     0.014 C 
HETATM    7  C14 UNL     1       6.153  -1.352   6.454  1.00  0.00     0.084 C 
HETATM    8  C19 UNL     1       7.204  -1.086   7.472  1.00  0.00     0.030 C 
ENDROOT
BRANCH   2   9
HETATM    9  C5  UNL     1       9.563  -3.060   4.581  1.00  0.00     0.063 C 
BRANCH   9  10
HETATM   10  N1  UNL     1      10.869  -3.431   4.820  1.00  0.00    -0.389 N 
HETATM   11  C6  UNL     1      11.964  -2.583   4.875  1.00  0.00     0.148 C 
HETATM   12  C7  UNL     1      13.205  -3.434   4.462  1.00  0.00     0.187 C 
HETATM   13  O3  UNL     1      13.382  -4.426   5.391  1.00  0.00    -0.388 OA
HETATM   14  C8  UNL     1      12.262  -5.175   5.649  1.00  0.00     0.187 C 
HETATM   15  C9  UNL     1      11.196  -4.819   4.613  1.00  0.00     0.148 C 
ENDBRANCH   9  10
ENDBRANCH   2   9
BRANCH   1  16
HETATM   16  C2  UNL     1       6.783  -4.388   4.399  1.00  0.00     0.119 C 
BRANCH  16  17
HETATM   17  C1  UNL     1       5.362  -4.525   4.081  1.00  0.00     0.172 C 
HETATM   18  O1  UNL     1       4.686  -5.495   4.443  1.00  0.00    -0.648 OA
HETATM   19  O2  UNL     1       4.668  -3.551   3.332  1.00  0.00    -0.648 OA
ENDBRANCH  16  17
ENDBRANCH   1  16
BRANCH   7  20
HETATM   20  N2  UNL     1       4.898  -0.761   6.748  1.00  0.00    -0.404 N 
HETATM   21  C15 UNL     1       3.816  -1.074   5.898  1.00  0.00     0.143 C 
HETATM   22  C16 UNL     1       2.854   0.069   5.805  1.00  0.00     0.187 C 
HETATM   23  O4  UNL     1       2.814   0.789   6.990  1.00  0.00    -0.388 OA
HETATM   24  C17 UNL     1       3.115   0.022   8.094  1.00  0.00     0.187 C 
HETATM   25  C18 UNL     1       4.581  -0.440   8.080  1.00  0.00     0.143 C 
ENDBRANCH   7  20
TORSDOF 5
ENDMDL
MODEL 3
REMARK VINA RESULT: -6.370951064      0.875      1.300
REMARK  5 active torsions:
REMARK  status: ('A' for Active; 'I' for Inactive)
REMARK    1  A    between atoms: C1_2  and  C2_4 
REMARK    2  A    between atoms: C2_4  and  C3_5 
REMARK    3  A    between atoms: C4_6  and  C5_7 
REMARK    4  A    between atoms: C5_7  and  N1_8 
REMARK    5  A    between atoms: C14_18  and  N2_19 
ROOT
HETATM    1  C3  UNL     1       7.322  -3.411   4.855  1.00  0.00     0.010 C 
HETATM    2  C4  UNL     1       8.624  -3.408   5.658  1.00  0.00     0.029 C 
HETATM    3  C10 UNL     1       8.672  -2.535   6.828  1.00  0.00     0.015 C 
HETATM    4  C11 UNL     1       7.303  -2.301   7.514  1.00  0.00    -0.012 C 
HETATM    5  C12 UNL     1       6.451  -3.472   7.126  1.00  0.00     0.012 C 
HETATM    6  C13 UNL     1       6.105  -3.126   5.693  1.00  0.00     0.014 C 
HETATM    7  C14 UNL     1       5.852  -1.653   5.745  1.00  0.00     0.084 C 
HETATM    8  C19 UNL     1       6.685  -1.084   6.838  1.00  0.00     0.030 C 
ENDROOT
BRANCH   2   9
HETATM    9  C5  UNL     1       9.708  -3.073   4.666  1.00  0.00     0.063 C 
BRANCH   9  10
HETATM   10  N1  UNL     1      10.843  -3.851   4.751  1.00  0.00    -0.389 N 
HETATM   11  C6  UNL     1      10.889  -5.237   4.740  1.00  0.00     0.148 C 
HETATM   12  C7  UNL     1      12.169  -5.644   5.533  1.00  0.00     0.187 C 
HETATM   13  O3  UNL     1      13.267  -5.172   4.863  1.00  0.00    -0.388 OA
HETATM   14  C8  UNL     1      13.215  -3.837   4.550  1.00  0.00     0.187 C 
HETATM   15  C9  UNL     1      12.025  -3.217   5.280  1.00  0.00     0.148 C 
ENDBRANCH   9  10
ENDBRANCH   2   9
BRANCH   1  16
HETATM   16  C2  UNL     1       7.188  -4.823   4.330  1.00  0.00     0.119 C 
BRANCH  16  17
HETATM   17  C1  UNL     1       5.927  -5.161   3.674  1.00  0.00     0.172 C 
HETATM   18  O1  UNL     1       5.730  -4.978   2.466  1.00  0.00    -0.648 OA
HETATM   19  O2  UNL     1       4.843  -5.719   4.384  1.00  0.00    -0.648 OA
ENDBRANCH  16  17
ENDBRANCH   1  16
BRANCH   7  20
HETATM   20  N2  UNL     1       4.501  -1.225   5.762  1.00  0.00    -0.404 N 
HETATM   21  C15 UNL     1       3.554  -2.028   5.089  1.00  0.00     0.143 C 
HETATM   22  C16 UNL     1       2.437  -1.198   4.536  1.00  0.00     0.187 C 
HETATM   23  O4  UNL     1       2.188  -0.094   5.339  1.00  0.00    -0.388 OA
HETATM   24  C17 UNL     1       2.512  -0.307   6.661  1.00  0.00     0.187 C 
HETATM   25  C18 UNL     1       4.028  -0.473   6.852  1.00  0.00     0.143 C 
ENDBRANCH   7  20
TORSDOF 5
ENDMDL
MODEL 4
REMARK VINA RESULT: -6.362729686      0.916      1.312
REMARK  5 active torsions:
REMARK  status: ('A' for Active; 'I' for Inactive)
REMARK    1  A    between atoms: C1_2  and  C2_4 
REMARK    2  A    between atoms: C2_4  and  C3_5 
REMARK    3  A    between atoms: C4_6  and  C5_7 
REMARK    4  A    between atoms: C5_7  and  N1_8 
REMARK    5  A    between atoms: C14_18  and  N2_19 
ROOT
HETATM    1  C3  UNL     1       6.365  -3.038   5.563  1.00  0.00     0.010 C 
HETATM    2  C4  UNL     1       7.762  -3.301   6.127  1.00  0.00     0.029 C 
HETATM    3  C10 UNL     1       8.160  -2.514   7.291  1.00  0.00     0.015 C 
HETATM    4  C11 UNL     1       6.989  -2.086   8.211  1.00  0.00    -0.012 C 
HETATM    5  C12 UNL     1       5.889  -3.072   7.949  1.00  0.00     0.012 C 
HETATM    6  C13 UNL     1       5.375  -2.595   6.607  1.00  0.00     0.014 C 
HETATM    7  C14 UNL     1       5.401  -1.105   6.737  1.00  0.00     0.084 C 
HETATM    8  C19 UNL     1       6.492  -0.747   7.681  1.00  0.00     0.030 C 
ENDROOT
BRANCH   2   9
HETATM    9  C5  UNL     1       8.707  -3.103   4.969  1.00  0.00     0.063 C 
BRANCH   9  10
HETATM   10  N1  UNL     1       9.733  -4.020   4.886  1.00  0.00    -0.389 N 
HETATM   11  C6  UNL     1       9.597  -5.387   4.702  1.00  0.00     0.148 C 
HETATM   12  C7  UNL     1      10.849  -6.049   5.356  1.00  0.00     0.187 C 
HETATM   13  O3  UNL     1      11.966  -5.634   4.679  1.00  0.00    -0.388 OA
HETATM   14  C8  UNL     1      12.074  -4.273   4.535  1.00  0.00     0.187 C 
HETATM   15  C9  UNL     1      11.012  -3.611   5.411  1.00  0.00     0.148 C 
ENDBRANCH   9  10
ENDBRANCH   2   9
BRANCH   1  16
HETATM   16  C2  UNL     1       5.896  -4.376   5.036  1.00  0.00     0.119 C 
BRANCH  16  17
HETATM   17  C1  UNL     1       5.590  -4.446   3.608  1.00  0.00     0.172 C 
HETATM   18  O1  UNL     1       6.308  -5.043   2.798  1.00  0.00    -0.648 OA
HETATM   19  O2  UNL     1       4.446  -3.827   3.060  1.00  0.00    -0.648 OA
ENDBRANCH  16  17
ENDBRANCH   1  16
BRANCH   7  20
HETATM   20  N2  UNL     1       4.169  -0.454   7.000  1.00  0.00    -0.404 N 
HETATM   21  C15 UNL     1       3.166  -0.532   6.009  1.00  0.00     0.143 C 
HETATM   22  C16 UNL     1       2.309   0.696   6.010  1.00  0.00     0.187 C 
HETATM   23  O4  UNL     1       2.193   1.226   7.286  1.00  0.00    -0.388 OA
HETATM   24  C17 UNL     1       2.312   0.275   8.276  1.00  0.00     0.187 C 
HETATM   25  C18 UNL     1       3.732  -0.312   8.329  1.00  0.00     0.143 C 
ENDBRANCH   7  20
TORSDOF 5
ENDMDL
MODEL 5
REMARK VINA RESULT: -5.886989417      2.524      3.601
REMARK  5 active torsions:
REMARK  status: ('A' for Active; 'I' for Inactive)
REMARK    1  A    between atoms: C1_2  and  C2_4 
REMARK    2  A    between atoms: C2_4  and  C3_5 
REMARK    3  A    between atoms: C4_6  and  C5_7 
REMARK    4  A    between atoms: C5_7  and  N1_8 
REMARK    5  A    between atoms: C14_18  and  N2_19 
ROOT
HETATM    1  C3  UNL     1       7.391  -3.053   6.647  1.00  0.00     0.010 C 
HETATM    2  C4  UNL     1       8.326  -3.273   5.457  1.00  0.00     0.029 C 
HETATM    3  C10 UNL     1       7.723  -3.804   4.237  1.00  0.00     0.015 C 
HETATM    4  C11 UNL     1       6.236  -3.418   4.033  1.00  0.00    -0.012 C 
HETATM    5  C12 UNL     1       6.029  -2.169   4.836  1.00  0.00     0.012 C 
HETATM    6  C13 UNL     1       5.979  -2.725   6.244  1.00  0.00     0.014 C 
HETATM    7  C14 UNL     1       5.185  -3.983   6.090  1.00  0.00     0.084 C 
HETATM    8  C19 UNL     1       5.412  -4.502   4.715  1.00  0.00     0.030 C 
ENDROOT
BRANCH   2   9
HETATM    9  C5  UNL     1       9.427  -4.165   5.969  1.00  0.00     0.063 C 
BRANCH   9  10
HETATM   10  N1  UNL     1      10.687  -3.877   5.489  1.00  0.00    -0.389 N 
HETATM   11  C6  UNL     1      11.244  -2.615   5.354  1.00  0.00     0.148 C 
HETATM   12  C7  UNL     1      12.281  -2.710   4.192  1.00  0.00     0.187 C 
HETATM   13  O3  UNL     1      13.273  -3.579   4.563  1.00  0.00    -0.388 OA
HETATM   14  C8  UNL     1      12.828  -4.800   5.005  1.00  0.00     0.187 C 
HETATM   15  C9  UNL     1      11.333  -4.903   4.708  1.00  0.00     0.148 C 
ENDBRANCH   9  10
ENDBRANCH   2   9
BRANCH   1  16
HETATM   16  C2  UNL     1       7.948  -1.844   7.365  1.00  0.00     0.119 C 
BRANCH  16  17
HETATM   17  C1  UNL     1       6.980  -0.974   8.031  1.00  0.00     0.172 C 
HETATM   18  O1  UNL     1       6.348  -1.322   9.036  1.00  0.00    -0.648 OA
HETATM   19  O2  UNL     1       6.702   0.327   7.563  1.00  0.00    -0.648 OA
ENDBRANCH  16  17
ENDBRANCH   1  16
BRANCH   7  20
HETATM   20  N2  UNL     1       3.821  -3.943   6.478  1.00  0.00    -0.404 N 
HETATM   21  C15 UNL     1       3.491  -3.185   7.622  1.00  0.00     0.143 C 
HETATM   22  C16 UNL     1       2.318  -3.774   8.340  1.00  0.00     0.187 C 
HETATM   23  O4  UNL     1       1.444  -4.387   7.454  1.00  0.00    -0.388 OA
HETATM   24  C17 UNL     1       1.473  -3.827   6.196  1.00  0.00     0.187 C 
HETATM   25  C18 UNL     1       2.821  -4.074   5.499  1.00  0.00     0.143 C 
ENDBRANCH   7  20
TORSDOF 5
ENDMDL
