MODEL 1
REMARK VINA RESULT: -7.147795468      0.000      0.000
REMARK  2 active torsions:
REMARK  status: ('A' for Active; 'I' for Inactive)
REMARK    1  A    between atoms: C4_8  and  S1_9 
REMARK    2  A    between atoms: S1_9  and  C5_11 
ROOT
HETATM    1  N1  UNL     1       0.549  -9.179  36.124  1.00  0.00    -0.083 NA
HETATM    2  C1  UNL     1      -0.832  -9.185  36.450  1.00  0.00     0.123 A 
HETATM    3  C2  UNL     1      -1.651 -10.217  36.054  1.00  0.00     0.119 A 
HETATM    4  C3  UNL     1      -2.987 -10.171  36.434  1.00  0.00     0.250 A 
HETATM    5  O1  UNL     1      -3.755 -11.144  36.077  1.00  0.00    -0.268 OA
HETATM    6  N2  UNL     1      -3.444  -9.141  37.165  1.00  0.00    -0.302 N 
ATOM      7  H2  UNL     1      -4.427  -9.127  37.435  1.00  0.00     0.171 HD
HETATM    8  C4  UNL     1      -2.662  -8.143  37.547  1.00  0.00     0.185 A 
HETATM    9  N4  UNL     1      -1.369  -8.197  37.177  1.00  0.00    -0.323 N 
ATOM     10  H4  UNL     1      -0.758  -7.435  37.470  1.00  0.00     0.169 HD
ENDROOT
BRANCH   8  11
HETATM   11  S1  UNL     1      -3.186  -6.815  38.461  1.00  0.00     0.136 S 
HETATM   12  O2  UNL     1      -4.401  -5.971  37.638  1.00  0.00    -0.243 OA
BRANCH  11  13
HETATM   13  C5  UNL     1      -3.747  -7.104  40.079  1.00  0.00     0.108 A 
HETATM   14  C6  UNL     1      -3.389  -6.145  40.969  1.00  0.00     0.040 A 
HETATM   15  C7  UNL     1      -3.763  -6.204  42.355  1.00  0.00     0.004 A 
HETATM   16  C8  UNL     1      -4.472  -7.221  42.775  1.00  0.00     0.017 A 
HETATM   17  C9  UNL     1      -4.848  -8.247  41.797  1.00  0.00     0.089 A 
HETATM   18  N3  UNL     1      -4.491  -8.148  40.569  1.00  0.00    -0.358 N 
ATOM     19  H3  UNL     1      -4.776  -8.884  39.922  1.00  0.00     0.166 HD
ENDBRANCH  11  13
ENDBRANCH   8  11
TORSDOF 2
ENDMDL
MODEL 2
REMARK VINA RESULT: -7.107697462      1.711      2.330
REMARK  2 active torsions:
REMARK  status: ('A' for Active; 'I' for Inactive)
REMARK    1  A    between atoms: C4_8  and  S1_9 
REMARK    2  A    between atoms: S1_9  and  C5_11 
ROOT
HETATM    1  N1  UNL     1      -3.738 -11.007  36.170  1.00  0.00    -0.083 NA
HETATM    2  C1  UNL     1      -2.980  -9.926  36.689  1.00  0.00     0.123 A 
HETATM    3  C2  UNL     1      -1.607  -9.918  36.610  1.00  0.00     0.119 A 
HETATM    4  C3  UNL     1      -0.931  -8.813  37.114  1.00  0.00     0.250 A 
HETATM    5  O1  UNL     1       0.356  -8.796  37.028  1.00  0.00    -0.268 OA
HETATM    6  N2  UNL     1      -1.618  -7.795  37.658  1.00  0.00    -0.302 N 
ATOM      7  H2  UNL     1      -1.103  -6.992  38.020  1.00  0.00     0.171 HD
HETATM    8  C4  UNL     1      -2.939  -7.797  37.741  1.00  0.00     0.185 A 
HETATM    9  N4  UNL     1      -3.585  -8.869  37.248  1.00  0.00    -0.323 N 
ATOM     10  H4  UNL     1      -4.603  -8.878  37.303  1.00  0.00     0.169 HD
ENDROOT
BRANCH   8  11
HETATM   11  S1  UNL     1      -3.855  -6.545  38.425  1.00  0.00     0.136 S 
HETATM   12  O2  UNL     1      -5.340  -6.392  37.627  1.00  0.00    -0.243 OA
BRANCH  11  13
HETATM   13  C5  UNL     1      -4.174  -6.600  40.131  1.00  0.00     0.108 A 
HETATM   14  C6  UNL     1      -3.558  -7.621  40.777  1.00  0.00     0.040 A 
HETATM   15  C7  UNL     1      -3.695  -7.831  42.192  1.00  0.00     0.004 A 
HETATM   16  C8  UNL     1      -4.444  -7.008  42.882  1.00  0.00     0.017 A 
HETATM   17  C9  UNL     1      -5.102  -5.912  42.164  1.00  0.00     0.089 A 
HETATM   18  N3  UNL     1      -4.947  -5.765  40.899  1.00  0.00    -0.358 N 
ATOM     19  H3  UNL     1      -5.422  -4.988  40.441  1.00  0.00     0.166 HD
ENDBRANCH  11  13
ENDBRANCH   8  11
TORSDOF 2
ENDMDL
MODEL 3
REMARK VINA RESULT: -7.085479857      1.321      2.043
REMARK  2 active torsions:
REMARK  status: ('A' for Active; 'I' for Inactive)
REMARK    1  A    between atoms: C4_8  and  S1_9 
REMARK    2  A    between atoms: S1_9  and  C5_11 
ROOT
HETATM    1  N1  UNL     1      -3.770 -11.121  36.085  1.00  0.00    -0.083 NA
HETATM    2  C1  UNL     1      -2.847 -10.108  36.453  1.00  0.00     0.123 A 
HETATM    3  C2  UNL     1      -1.531 -10.167  36.057  1.00  0.00     0.119 A 
HETATM    4  C3  UNL     1      -0.690  -9.124  36.430  1.00  0.00     0.250 A 
HETATM    5  O1  UNL     1       0.541  -9.170  36.048  1.00  0.00    -0.268 OA
HETATM    6  N2  UNL     1      -1.170  -8.101  37.156  1.00  0.00    -0.302 N 
ATOM      7  H2  UNL     1      -0.537  -7.345  37.417  1.00  0.00     0.171 HD
HETATM    8  C4  UNL     1      -2.434  -8.039  37.543  1.00  0.00     0.185 A 
HETATM    9  N4  UNL     1      -3.241  -9.051  37.175  1.00  0.00    -0.323 N 
ATOM     10  H4  UNL     1      -4.218  -9.010  37.465  1.00  0.00     0.169 HD
ENDROOT
BRANCH   8  11
HETATM   11  S1  UNL     1      -3.089  -6.777  38.467  1.00  0.00     0.136 S 
HETATM   12  O2  UNL     1      -4.333  -6.004  37.618  1.00  0.00    -0.243 OA
BRANCH  11  13
HETATM   13  C5  UNL     1      -3.685  -7.148  40.056  1.00  0.00     0.108 A 
HETATM   14  C6  UNL     1      -3.300  -6.267  41.012  1.00  0.00     0.040 A 
HETATM   15  C7  UNL     1      -3.696  -6.401  42.386  1.00  0.00     0.004 A 
HETATM   16  C8  UNL     1      -4.454  -7.412  42.729  1.00  0.00     0.017 A 
HETATM   17  C9  UNL     1      -4.858  -8.353  41.680  1.00  0.00     0.089 A 
HETATM   18  N3  UNL     1      -4.480  -8.189  40.465  1.00  0.00    -0.358 N 
ATOM     19  H3  UNL     1      -4.786  -8.868  39.768  1.00  0.00     0.166 HD
ENDBRANCH  11  13
ENDBRANCH   8  11
TORSDOF 2
ENDMDL
MODEL 4
REMARK VINA RESULT: -7.072564948      2.291      6.390
REMARK  2 active torsions:
REMARK  status: ('A' for Active; 'I' for Inactive)
REMARK    1  A    between atoms: C4_8  and  S1_9 
REMARK    2  A    between atoms: S1_9  and  C5_11 
ROOT
HETATM    1  N1  UNL     1      -5.272  -5.875  43.504  1.00  0.00    -0.083 NA
HETATM    2  C1  UNL     1      -4.888  -5.380  42.231  1.00  0.00     0.123 A 
HETATM    3  C2  UNL     1      -4.495  -4.072  42.066  1.00  0.00     0.119 A 
HETATM    4  C3  UNL     1      -4.105  -3.664  40.795  1.00  0.00     0.250 A 
HETATM    5  O1  UNL     1      -3.722  -2.442  40.641  1.00  0.00    -0.268 OA
HETATM    6  N2  UNL     1      -4.120  -4.536  39.774  1.00  0.00    -0.302 N 
ATOM      7  H2  UNL     1      -3.828  -4.217  38.851  1.00  0.00     0.171 HD
HETATM    8  C4  UNL     1      -4.500  -5.795  39.925  1.00  0.00     0.185 A 
HETATM    9  N4  UNL     1      -4.872  -6.183  41.159  1.00  0.00    -0.323 N 
ATOM     10  H4  UNL     1      -5.163  -7.152  41.286  1.00  0.00     0.169 HD
ENDROOT
BRANCH   8  11
HETATM   11  S1  UNL     1      -4.546  -6.935  38.671  1.00  0.00     0.136 S 
HETATM   12  O2  UNL     1      -5.489  -6.366  37.386  1.00  0.00    -0.243 OA
BRANCH  11  13
HETATM   13  C5  UNL     1      -3.038  -7.493  38.014  1.00  0.00     0.108 A 
HETATM   14  C6  UNL     1      -3.103  -8.719  37.439  1.00  0.00     0.040 A 
HETATM   15  C7  UNL     1      -1.961  -9.348  36.836  1.00  0.00     0.004 A 
HETATM   16  C8  UNL     1      -0.815  -8.715  36.843  1.00  0.00     0.017 A 
HETATM   17  C9  UNL     1      -0.766  -7.391  37.471  1.00  0.00     0.089 A 
HETATM   18  N3  UNL     1      -1.814  -6.870  37.995  1.00  0.00    -0.358 N 
ATOM     19  H3  UNL     1      -1.735  -5.946  38.420  1.00  0.00     0.166 HD
ENDBRANCH  11  13
ENDBRANCH   8  11
TORSDOF 2
ENDMDL
MODEL 5
REMARK VINA RESULT: -7.056933470      0.952      1.149
REMARK  2 active torsions:
REMARK  status: ('A' for Active; 'I' for Inactive)
REMARK    1  A    between atoms: C4_8  and  S1_9 
REMARK    2  A    between atoms: S1_9  and  C5_11 
ROOT
HETATM    1  N1  UNL     1       0.382  -8.923  36.998  1.00  0.00    -0.083 NA
HETATM    2  C1  UNL     1      -1.035  -8.985  37.048  1.00  0.00     0.123 A 
HETATM    3  C2  UNL     1      -1.715 -10.082  36.573  1.00  0.00     0.119 A 
HETATM    4  C3  UNL     1      -3.102 -10.086  36.680  1.00  0.00     0.250 A 
HETATM    5  O1  UNL     1      -3.741 -11.120  36.249  1.00  0.00    -0.268 OA
HETATM    6  N2  UNL     1      -3.736  -9.040  37.234  1.00  0.00    -0.302 N 
ATOM      7  H2  UNL     1      -4.753  -9.064  37.306  1.00  0.00     0.171 HD
HETATM    8  C4  UNL     1      -3.088  -7.980  37.691  1.00  0.00     0.185 A 
HETATM    9  N4  UNL     1      -1.747  -7.986  37.585  1.00  0.00    -0.323 N 
ATOM     10  H4  UNL     1      -1.238  -7.175  37.938  1.00  0.00     0.169 HD
ENDROOT
BRANCH   8  11
HETATM   11  S1  UNL     1      -3.839  -6.630  38.389  1.00  0.00     0.136 S 
HETATM   12  O2  UNL     1      -5.300  -6.290  37.605  1.00  0.00    -0.243 OA
BRANCH  11  13
HETATM   13  C5  UNL     1      -4.151  -6.658  40.098  1.00  0.00     0.108 A 
HETATM   14  C6  UNL     1      -3.591  -7.710  40.746  1.00  0.00     0.040 A 
HETATM   15  C7  UNL     1      -3.732  -7.904  42.163  1.00  0.00     0.004 A 
HETATM   16  C8  UNL     1      -4.428  -7.036  42.852  1.00  0.00     0.017 A 
HETATM   17  C9  UNL     1      -5.026  -5.907  42.132  1.00  0.00     0.089 A 
HETATM   18  N3  UNL     1      -4.869  -5.776  40.866  1.00  0.00    -0.358 N 
ATOM     19  H3  UNL     1      -5.302  -4.975  40.406  1.00  0.00     0.166 HD
ENDBRANCH  11  13
ENDBRANCH   8  11
TORSDOF 2
ENDMDL
