MODEL 1
REMARK VINA RESULT: -7.271960997      0.000      0.000
REMARK  3 active torsions:
REMARK  status: ('A' for Active; 'I' for Inactive)
REMARK    1  A    between atoms: C5_5  and  C6_6 
REMARK    2  A    between atoms: C6_6  and  C7_7 
REMARK    3  A    between atoms: C8_8  and  O1_9 
ROOT
HETATM    1  C7  UNL     1      -3.730  -6.327  40.328  1.00  0.00     0.049 A 
HETATM    2  C8  UNL     1      -4.443  -5.590  39.410  1.00  0.00     0.154 A 
HETATM    3  N1  UNL     1      -4.524  -6.344  38.305  1.00  0.00    -0.321 N 
ATOM      4  H1  UNL     1      -4.999  -6.061  37.447  1.00  0.00     0.169 HD
HETATM    5  C9  UNL     1      -3.902  -7.515  38.476  1.00  0.00     0.138 A 
HETATM    6  N2  UNL     1      -3.693  -8.611  37.696  1.00  0.00    -0.329 N 
ATOM      7  H2  UNL     1      -4.060  -8.634  36.745  1.00  0.00     0.168 HD
HETATM    8  C10 UNL     1      -3.005  -9.662  38.174  1.00  0.00     0.093 A 
HETATM    9  C11 UNL     1      -2.775 -10.873  37.308  1.00  0.00     0.090 C 
HETATM   10  N3  UNL     1      -2.520  -9.638  39.425  1.00  0.00    -0.289 N 
ATOM     11  H3  UNL     1      -2.002 -10.449  39.765  1.00  0.00     0.188 HD
HETATM   12  N4  UNL     1      -2.687  -8.612  40.231  1.00  0.00    -0.295 N 
ATOM     13  H4  UNL     1      -2.310  -8.617  41.178  1.00  0.00     0.187 HD
HETATM   14  C12 UNL     1      -3.384  -7.540  39.751  1.00  0.00     0.106 A 
ENDROOT
BRANCH   1  15
HETATM   15  C6  UNL     1      -3.378  -5.932  41.689  1.00  0.00     0.047 C 
BRANCH  15  16
HETATM   16  C5  UNL     1      -4.237  -5.336  42.500  1.00  0.00     0.033 A 
HETATM   17  C4  UNL     1      -5.094  -5.956  43.373  1.00  0.00     0.031 A 
HETATM   18  C3  UNL     1      -5.834  -5.003  44.049  1.00  0.00     0.031 A 
HETATM   19  C2  UNL     1      -5.402  -3.790  43.563  1.00  0.00     0.023 A 
HETATM   20  C1  UNL     1      -5.878  -2.627  43.969  1.00  0.00     0.043 C 
HETATM   21  N5  UNL     1      -4.453  -4.026  42.644  1.00  0.00    -0.357 N 
ATOM     22  H5  UNL     1      -3.961  -3.300  42.123  1.00  0.00     0.166 HD
ENDBRANCH  15  16
ENDBRANCH   1  15
BRANCH   2  23
HETATM   23  O1  UNL     1      -4.968  -4.304  39.620  1.00  0.00    -0.345 OA
ATOM     24  H1  UNL     1      -5.682  -3.908  39.132  1.00  0.00     0.219 HD
ENDBRANCH   2  23
TORSDOF 3
ENDMDL
MODEL 2
REMARK VINA RESULT: -7.066405835      1.840      6.542
REMARK  3 active torsions:
REMARK  status: ('A' for Active; 'I' for Inactive)
REMARK    1  A    between atoms: C5_5  and  C6_6 
REMARK    2  A    between atoms: C6_6  and  C7_7 
REMARK    3  A    between atoms: C8_8  and  O1_9 
ROOT
HETATM    1  C7  UNL     1      -4.664  -6.433  40.235  1.00  0.00     0.049 A 
HETATM    2  C8  UNL     1      -4.833  -7.507  41.081  1.00  0.00     0.154 A 
HETATM    3  N1  UNL     1      -4.993  -6.995  42.310  1.00  0.00    -0.321 N 
ATOM      4  H1  UNL     1      -5.141  -7.552  43.152  1.00  0.00     0.169 HD
HETATM    5  C9  UNL     1      -4.933  -5.660  42.285  1.00  0.00     0.138 A 
HETATM    6  N2  UNL     1      -5.031  -4.680  43.224  1.00  0.00    -0.329 N 
ATOM      7  H2  UNL     1      -5.186  -4.927  44.202  1.00  0.00     0.168 HD
HETATM    8  C10 UNL     1      -4.924  -3.387  42.870  1.00  0.00     0.093 A 
HETATM    9  C11 UNL     1      -5.032  -2.305  43.912  1.00  0.00     0.090 C 
HETATM   10  N3  UNL     1      -4.721  -3.055  41.586  1.00  0.00    -0.289 N 
ATOM     11  H3  UNL     1      -4.643  -2.067  41.342  1.00  0.00     0.188 HD
HETATM   12  N4  UNL     1      -4.618  -3.952  40.629  1.00  0.00    -0.295 N 
ATOM     13  H4  UNL     1      -4.464  -3.675  39.659  1.00  0.00     0.187 HD
HETATM   14  C12 UNL     1      -4.725  -5.267  40.982  1.00  0.00     0.106 A 
ENDROOT
BRANCH   1  15
HETATM   15  C6  UNL     1      -4.454  -6.478  38.792  1.00  0.00     0.047 C 
BRANCH  15  16
HETATM   16  C5  UNL     1      -3.550  -7.263  38.229  1.00  0.00     0.033 A 
HETATM   17  C4  UNL     1      -2.205  -7.013  38.131  1.00  0.00     0.031 A 
HETATM   18  C3  UNL     1      -1.586  -8.063  37.477  1.00  0.00     0.031 A 
HETATM   19  C2  UNL     1      -2.592  -8.956  37.182  1.00  0.00     0.023 A 
HETATM   20  C1  UNL     1      -2.394 -10.099  36.551  1.00  0.00     0.043 C 
HETATM   21  N5  UNL     1      -3.745  -8.447  37.643  1.00  0.00    -0.357 N 
ATOM     22  H5  UNL     1      -4.652  -8.905  37.557  1.00  0.00     0.166 HD
ENDBRANCH  15  16
ENDBRANCH   1  15
BRANCH   2  23
HETATM   23  O1  UNL     1      -4.834  -8.859  40.700  1.00  0.00    -0.345 OA
ATOM     24  H1  UNL     1      -4.103  -9.328  40.313  1.00  0.00     0.219 HD
ENDBRANCH   2  23
TORSDOF 3
ENDMDL
MODEL 3
REMARK VINA RESULT: -7.054388403      1.142      1.359
REMARK  3 active torsions:
REMARK  status: ('A' for Active; 'I' for Inactive)
REMARK    1  A    between atoms: C5_5  and  C6_6 
REMARK    2  A    between atoms: C6_6  and  C7_7 
REMARK    3  A    between atoms: C8_8  and  O1_9 
ROOT
HETATM    1  C7  UNL     1      -4.030  -5.445  40.926  1.00  0.00     0.049 A 
HETATM    2  C8  UNL     1      -4.547  -4.860  39.792  1.00  0.00     0.154 A 
HETATM    3  N1  UNL     1      -4.654  -5.837  38.881  1.00  0.00    -0.321 N 
ATOM      4  H1  UNL     1      -5.010  -5.706  37.934  1.00  0.00     0.169 HD
HETATM    5  C9  UNL     1      -4.233  -7.005  39.377  1.00  0.00     0.138 A 
HETATM    6  N2  UNL     1      -4.133  -8.272  38.890  1.00  0.00    -0.329 N 
ATOM      7  H2  UNL     1      -4.422  -8.472  37.932  1.00  0.00     0.168 HD
HETATM    8  C10 UNL     1      -3.654  -9.261  39.665  1.00  0.00     0.093 A 
HETATM    9  C11 UNL     1      -3.543 -10.661  39.122  1.00  0.00     0.090 C 
HETATM   10  N3  UNL     1      -3.273  -9.005  40.925  1.00  0.00    -0.289 N 
ATOM     11  H3  UNL     1      -2.913  -9.772  41.494  1.00  0.00     0.188 HD
HETATM   12  N4  UNL     1      -3.345  -7.804  41.458  1.00  0.00    -0.295 N 
ATOM     13  H4  UNL     1      -3.049  -7.634  42.420  1.00  0.00     0.187 HD
HETATM   14  C12 UNL     1      -3.829  -6.794  40.677  1.00  0.00     0.106 A 
ENDROOT
BRANCH   1  15
HETATM   15  C6  UNL     1      -3.732  -4.789  42.195  1.00  0.00     0.047 C 
BRANCH  15  16
HETATM   16  C5  UNL     1      -4.651  -4.141  42.893  1.00  0.00     0.033 A 
HETATM   17  C4  UNL     1      -5.484  -4.684  43.839  1.00  0.00     0.031 A 
HETATM   18  C3  UNL     1      -6.306  -3.697  44.351  1.00  0.00     0.031 A 
HETATM   19  C2  UNL     1      -5.949  -2.542  43.690  1.00  0.00     0.023 A 
HETATM   20  C1  UNL     1      -6.517  -1.370  43.907  1.00  0.00     0.043 C 
HETATM   21  N5  UNL     1      -4.963  -2.845  42.832  1.00  0.00    -0.357 N 
ATOM     22  H5  UNL     1      -4.511  -2.172  42.213  1.00  0.00     0.166 HD
ENDBRANCH  15  16
ENDBRANCH   1  15
BRANCH   2  23
HETATM   23  O1  UNL     1      -4.885  -3.503  39.650  1.00  0.00    -0.345 OA
ATOM     24  H1  UNL     1      -5.721  -3.112  39.876  1.00  0.00     0.219 HD
ENDBRANCH   2  23
TORSDOF 3
ENDMDL
MODEL 4
REMARK VINA RESULT: -7.048103896      1.467      1.743
REMARK  3 active torsions:
REMARK  status: ('A' for Active; 'I' for Inactive)
REMARK    1  A    between atoms: C5_5  and  C6_6 
REMARK    2  A    between atoms: C6_6  and  C7_7 
REMARK    3  A    between atoms: C8_8  and  O1_9 
ROOT
HETATM    1  C7  UNL     1      -3.440  -7.427  40.059  1.00  0.00     0.049 A 
HETATM    2  C8  UNL     1      -4.574  -7.120  39.341  1.00  0.00     0.154 A 
HETATM    3  N1  UNL     1      -4.403  -7.654  38.123  1.00  0.00    -0.321 N 
ATOM      4  H1  UNL     1      -5.083  -7.592  37.365  1.00  0.00     0.169 HD
HETATM    5  C9  UNL     1      -3.225  -8.280  38.034  1.00  0.00     0.138 A 
HETATM    6  N2  UNL     1      -2.577  -8.967  37.054  1.00  0.00    -0.329 N 
ATOM      7  H2  UNL     1      -3.016  -9.083  36.140  1.00  0.00     0.168 HD
HETATM    8  C10 UNL     1      -1.362  -9.493  37.284  1.00  0.00     0.093 A 
HETATM    9  C11 UNL     1      -0.647 -10.252  36.196  1.00  0.00     0.090 C 
HETATM   10  N3  UNL     1      -0.779  -9.345  38.483  1.00  0.00    -0.289 N 
ATOM     11  H3  UNL     1       0.144  -9.754  38.634  1.00  0.00     0.188 HD
HETATM   12  N4  UNL     1      -1.350  -8.694  39.474  1.00  0.00    -0.295 N 
ATOM     13  H4  UNL     1      -0.888  -8.595  40.378  1.00  0.00     0.187 HD
HETATM   14  C12 UNL     1      -2.585  -8.156  39.247  1.00  0.00     0.106 A 
ENDROOT
BRANCH   1  15
HETATM   15  C6  UNL     1      -3.153  -7.064  41.443  1.00  0.00     0.047 C 
BRANCH  15  16
HETATM   16  C5  UNL     1      -3.815  -6.112  42.080  1.00  0.00     0.033 A 
HETATM   17  C4  UNL     1      -3.554  -4.766  42.025  1.00  0.00     0.031 A 
HETATM   18  C3  UNL     1      -4.456  -4.088  42.824  1.00  0.00     0.031 A 
HETATM   19  C2  UNL     1      -5.271  -5.058  43.364  1.00  0.00     0.023 A 
HETATM   20  C1  UNL     1      -6.268  -4.800  44.191  1.00  0.00     0.043 C 
HETATM   21  N5  UNL     1      -4.859  -6.248  42.900  1.00  0.00    -0.357 N 
ATOM     22  H5  UNL     1      -5.289  -7.141  43.142  1.00  0.00     0.166 HD
ENDBRANCH  15  16
ENDBRANCH   1  15
BRANCH   2  23
HETATM   23  O1  UNL     1      -5.676  -6.391  39.818  1.00  0.00    -0.345 OA
ATOM     24  H1  UNL     1      -6.078  -5.645  39.386  1.00  0.00     0.219 HD
ENDBRANCH   2  23
TORSDOF 3
ENDMDL
MODEL 5
REMARK VINA RESULT: -6.976532047      1.857      2.403
REMARK  3 active torsions:
REMARK  status: ('A' for Active; 'I' for Inactive)
REMARK    1  A    between atoms: C5_5  and  C6_6 
REMARK    2  A    between atoms: C6_6  and  C7_7 
REMARK    3  A    between atoms: C8_8  and  O1_9 
ROOT
HETATM    1  C7  UNL     1      -3.504  -6.939  38.987  1.00  0.00     0.049 A 
HETATM    2  C8  UNL     1      -2.317  -6.716  38.327  1.00  0.00     0.154 A 
HETATM    3  N1  UNL     1      -1.750  -7.919  38.158  1.00  0.00    -0.321 N 
ATOM      4  H1  UNL     1      -0.854  -8.075  37.695  1.00  0.00     0.169 HD
HETATM    5  C9  UNL     1      -2.514  -8.887  38.675  1.00  0.00     0.138 A 
HETATM    6  N2  UNL     1      -2.411 -10.241  38.770  1.00  0.00    -0.329 N 
ATOM      7  H2  UNL     1      -1.594 -10.716  38.385  1.00  0.00     0.168 HD
HETATM    8  C10 UNL     1      -3.380 -10.955  39.368  1.00  0.00     0.093 A 
HETATM    9  C11 UNL     1      -3.262 -12.453  39.473  1.00  0.00     0.090 C 
HETATM   10  N3  UNL     1      -4.458 -10.337  39.875  1.00  0.00    -0.289 N 
ATOM     11  H3  UNL     1      -5.180 -10.900  40.325  1.00  0.00     0.188 HD
HETATM   12  N4  UNL     1      -4.620  -9.032  39.816  1.00  0.00    -0.295 N 
ATOM     13  H4  UNL     1      -5.449  -8.584  40.209  1.00  0.00     0.187 HD
HETATM   14  C12 UNL     1      -3.639  -8.301  39.211  1.00  0.00     0.106 A 
ENDROOT
BRANCH   1  15
HETATM   15  C6  UNL     1      -4.482  -5.936  39.396  1.00  0.00     0.047 C 
BRANCH  15  16
HETATM   16  C5  UNL     1      -4.539  -5.461  40.630  1.00  0.00     0.033 A 
HETATM   17  C4  UNL     1      -3.904  -4.339  41.098  1.00  0.00     0.031 A 
HETATM   18  C3  UNL     1      -4.203  -4.163  42.437  1.00  0.00     0.031 A 
HETATM   19  C2  UNL     1      -5.037  -5.208  42.767  1.00  0.00     0.023 A 
HETATM   20  C1  UNL     1      -5.542  -5.389  43.974  1.00  0.00     0.043 C 
HETATM   21  N5  UNL     1      -5.214  -5.959  41.668  1.00  0.00    -0.357 N 
ATOM     22  H5  UNL     1      -5.789  -6.801  41.632  1.00  0.00     0.166 HD
ENDBRANCH  15  16
ENDBRANCH   1  15
BRANCH   2  23
HETATM   23  O1  UNL     1      -1.824  -5.464  37.923  1.00  0.00    -0.345 OA
ATOM     24  H1  UNL     1      -2.138  -4.619  38.226  1.00  0.00     0.219 HD
ENDBRANCH   2  23
TORSDOF 3
ENDMDL
