MODEL 1
REMARK VINA RESULT: -6.757866282      0.000      0.000
REMARK  4 active torsions:
REMARK  status: ('A' for Active; 'I' for Inactive)
REMARK    1  A    between atoms: N1_2  and  C2_4 
REMARK    2  A    between atoms: C7_11  and  C8_12 
REMARK    3  A    between atoms: C8_12  and  O1_13 
REMARK    4  A    between atoms: C8_12  and  O2_15 
ROOT
HETATM    1  C2  UNL     1      -5.221  -4.604  43.439  1.00  0.00     0.143 A 
HETATM    2  N2  UNL     1      -5.113  -5.953  43.362  1.00  0.00    -0.338 N 
ATOM      3  H2  UNL     1      -5.301  -6.513  44.195  1.00  0.00     0.167 HD
HETATM    4  C3  UNL     1      -4.768  -6.575  42.230  1.00  0.00     0.061 A 
HETATM    5  C4  UNL     1      -4.701  -7.954  42.214  1.00  0.00     0.032 A 
HETATM    6  C5  UNL     1      -4.376  -8.624  41.078  1.00  0.00     0.003 A 
HETATM    7  C6  UNL     1      -4.115  -7.894  39.965  1.00  0.00     0.014 A 
HETATM    8  C7  UNL     1      -4.159  -6.473  39.895  1.00  0.00     0.025 A 
HETATM    9  C10 UNL     1      -4.498  -5.830  41.054  1.00  0.00     0.073 A 
HETATM   10  N3  UNL     1      -4.598  -4.494  41.087  1.00  0.00    -0.334 N 
HETATM   11  C11 UNL     1      -4.429  -3.692  39.937  1.00  0.00     0.158 C 
HETATM   12  C12 UNL     1      -4.958  -3.915  42.291  1.00  0.00     0.163 A 
HETATM   13  N4  UNL     1      -5.039  -2.492  42.285  1.00  0.00    -0.078 NA
ENDROOT
BRANCH   8  14
HETATM   14  C8  UNL     1      -3.761  -5.813  38.676  1.00  0.00     0.293 C 
BRANCH  14  15
HETATM   15  O1  UNL     1      -4.722  -5.866  37.637  1.00  0.00    -0.367 OA
ATOM     16  H1  UNL     1      -4.494  -5.365  36.863  1.00  0.00     0.213 HD
ENDBRANCH  14  15
BRANCH  14  17
HETATM   17  O2  UNL     1      -3.006  -6.957  38.087  1.00  0.00    -0.362 OA
HETATM   18  C9  UNL     1      -1.706  -6.643  37.864  1.00  0.00     0.205 C 
ENDBRANCH  14  17
ENDBRANCH   8  14
BRANCH   1  19
HETATM   19  N1  UNL     1      -5.546  -4.028  44.514  1.00  0.00    -0.378 N 
HETATM   20  C1  UNL     1      -6.621  -4.167  45.404  1.00  0.00     0.147 C 
ATOM     21  H1  UNL     1      -4.883  -3.305  44.797  1.00  0.00     0.160 HD
ENDBRANCH   1  19
TORSDOF 4
ENDMDL
MODEL 2
REMARK VINA RESULT: -6.434842115      1.430      1.643
REMARK  4 active torsions:
REMARK  status: ('A' for Active; 'I' for Inactive)
REMARK    1  A    between atoms: N1_2  and  C2_4 
REMARK    2  A    between atoms: C7_11  and  C8_12 
REMARK    3  A    between atoms: C8_12  and  O1_13 
REMARK    4  A    between atoms: C8_12  and  O2_15 
ROOT
HETATM    1  C2  UNL     1      -4.321  -3.998  42.244  1.00  0.00     0.143 A 
HETATM    2  N2  UNL     1      -4.494  -5.243  42.752  1.00  0.00    -0.338 N 
ATOM      3  H2  UNL     1      -4.737  -5.345  43.738  1.00  0.00     0.167 HD
HETATM    4  C3  UNL     1      -4.356  -6.342  42.003  1.00  0.00     0.061 A 
HETATM    5  C4  UNL     1      -4.571  -7.579  42.578  1.00  0.00     0.032 A 
HETATM    6  C5  UNL     1      -4.462  -8.717  41.847  1.00  0.00     0.003 A 
HETATM    7  C6  UNL     1      -4.132  -8.599  40.536  1.00  0.00     0.014 A 
HETATM    8  C7  UNL     1      -3.892  -7.367  39.866  1.00  0.00     0.025 A 
HETATM    9  C10 UNL     1      -4.017  -6.239  40.630  1.00  0.00     0.073 A 
HETATM   10  N3  UNL     1      -3.842  -5.026  40.088  1.00  0.00    -0.334 N 
HETATM   11  C11 UNL     1      -3.589  -4.840  38.711  1.00  0.00     0.158 C 
HETATM   12  C12 UNL     1      -3.999  -3.931  40.919  1.00  0.00     0.163 A 
HETATM   13  N4  UNL     1      -3.790  -2.662  40.305  1.00  0.00    -0.078 NA
ENDROOT
BRANCH   8  14
HETATM   14  C8  UNL     1      -3.448  -7.383  38.493  1.00  0.00     0.293 C 
BRANCH  14  15
HETATM   15  O1  UNL     1      -3.879  -8.508  37.749  1.00  0.00    -0.367 OA
ATOM     16  H1  UNL     1      -3.954  -8.357  36.814  1.00  0.00     0.213 HD
ENDBRANCH  14  15
BRANCH  14  17
HETATM   17  O2  UNL     1      -2.116  -8.009  38.740  1.00  0.00    -0.362 OA
HETATM   18  C9  UNL     1      -1.315  -7.937  37.648  1.00  0.00     0.205 C 
ENDBRANCH  14  17
ENDBRANCH   8  14
BRANCH   1  19
HETATM   19  N1  UNL     1      -4.452  -2.968  42.961  1.00  0.00    -0.378 N 
HETATM   20  C1  UNL     1      -5.559  -2.282  43.481  1.00  0.00     0.147 C 
ATOM     21  H1  UNL     1      -3.560  -2.543  43.217  1.00  0.00     0.160 HD
ENDBRANCH   1  19
TORSDOF 4
ENDMDL
MODEL 3
REMARK VINA RESULT: -6.142566808      4.139      6.662
REMARK  4 active torsions:
REMARK  status: ('A' for Active; 'I' for Inactive)
REMARK    1  A    between atoms: N1_2  and  C2_4 
REMARK    2  A    between atoms: C7_11  and  C8_12 
REMARK    3  A    between atoms: C8_12  and  O1_13 
REMARK    4  A    between atoms: C8_12  and  O2_15 
ROOT
HETATM    1  C2  UNL     1      -5.130  -4.992  43.111  1.00  0.00     0.143 A 
HETATM    2  N2  UNL     1      -6.005  -5.402  44.063  1.00  0.00    -0.338 N 
ATOM      3  H2  UNL     1      -6.170  -6.402  44.184  1.00  0.00     0.167 HD
HETATM    4  C3  UNL     1      -6.658  -4.538  44.847  1.00  0.00     0.061 A 
HETATM    5  C4  UNL     1      -7.516  -5.025  45.814  1.00  0.00     0.032 A 
HETATM    6  C5  UNL     1      -8.182  -4.182  46.644  1.00  0.00     0.003 A 
HETATM    7  C6  UNL     1      -7.979  -2.850  46.490  1.00  0.00     0.014 A 
HETATM    8  C7  UNL     1      -7.116  -2.265  45.521  1.00  0.00     0.025 A 
HETATM    9  C10 UNL     1      -6.455  -3.142  44.705  1.00  0.00     0.073 A 
HETATM   10  N3  UNL     1      -5.595  -2.697  43.779  1.00  0.00    -0.334 N 
HETATM   11  C11 UNL     1      -5.276  -1.328  43.638  1.00  0.00     0.158 C 
HETATM   12  C12 UNL     1      -4.954  -3.643  43.001  1.00  0.00     0.163 A 
HETATM   13  N4  UNL     1      -4.059  -3.125  42.020  1.00  0.00    -0.078 NA
ENDROOT
BRANCH   8  14
HETATM   14  C8  UNL     1      -7.067  -0.829  45.393  1.00  0.00     0.293 C 
BRANCH  14  15
HETATM   15  O1  UNL     1      -7.119  -0.127  46.621  1.00  0.00    -0.367 OA
ATOM     16  H1  UNL     1      -6.283   0.214  46.916  1.00  0.00     0.213 HD
ENDBRANCH  14  15
BRANCH  14  17
HETATM   17  O2  UNL     1      -8.526  -0.616  45.165  1.00  0.00    -0.362 OA
HETATM   18  C9  UNL     1      -8.757   0.209  44.114  1.00  0.00     0.205 C 
ENDBRANCH  14  17
ENDBRANCH   8  14
BRANCH   1  19
HETATM   19  N1  UNL     1      -4.520  -5.816  42.376  1.00  0.00    -0.378 N 
HETATM   20  C1  UNL     1      -4.119  -7.151  42.538  1.00  0.00     0.147 C 
ATOM     21  H1  UNL     1      -4.264  -5.429  41.467  1.00  0.00     0.160 HD
ENDBRANCH   1  19
TORSDOF 4
ENDMDL
MODEL 4
REMARK VINA RESULT: -6.137564718      2.917      5.134
REMARK  4 active torsions:
REMARK  status: ('A' for Active; 'I' for Inactive)
REMARK    1  A    between atoms: N1_2  and  C2_4 
REMARK    2  A    between atoms: C7_11  and  C8_12 
REMARK    3  A    between atoms: C8_12  and  O1_13 
REMARK    4  A    between atoms: C8_12  and  O2_15 
ROOT
HETATM    1  C2  UNL     1      -4.143  -7.562  38.832  1.00  0.00     0.143 A 
HETATM    2  N2  UNL     1      -4.226  -8.141  40.056  1.00  0.00    -0.338 N 
ATOM      3  H2  UNL     1      -4.138  -9.155  40.129  1.00  0.00     0.167 HD
HETATM    4  C3  UNL     1      -4.419  -7.425  41.168  1.00  0.00     0.061 A 
HETATM    5  C4  UNL     1      -4.468  -8.076  42.385  1.00  0.00     0.032 A 
HETATM    6  C5  UNL     1      -4.641  -7.384  43.540  1.00  0.00     0.003 A 
HETATM    7  C6  UNL     1      -4.766  -6.035  43.458  1.00  0.00     0.014 A 
HETATM    8  C7  UNL     1      -4.729  -5.288  42.248  1.00  0.00     0.025 A 
HETATM    9  C10 UNL     1      -4.546  -6.014  41.103  1.00  0.00     0.073 A 
HETATM   10  N3  UNL     1      -4.465  -5.404  39.914  1.00  0.00    -0.334 N 
HETATM   11  C11 UNL     1      -4.496  -3.998  39.780  1.00  0.00     0.158 C 
HETATM   12  C12 UNL     1      -4.266  -6.203  38.803  1.00  0.00     0.163 A 
HETATM   13  N4  UNL     1      -4.200  -5.514  37.557  1.00  0.00    -0.078 NA
ENDROOT
BRANCH   8  14
HETATM   14  C8  UNL     1      -4.977  -3.867  42.287  1.00  0.00     0.293 C 
BRANCH  14  15
HETATM   15  O1  UNL     1      -3.900  -3.095  42.787  1.00  0.00    -0.367 OA
ATOM     16  H1  UNL     1      -3.133  -3.600  43.032  1.00  0.00     0.213 HD
ENDBRANCH  14  15
BRANCH  14  17
HETATM   17  O2  UNL     1      -5.662  -3.838  43.612  1.00  0.00    -0.362 OA
HETATM   18  C9  UNL     1      -6.078  -2.589  43.937  1.00  0.00     0.205 C 
ENDBRANCH  14  17
ENDBRANCH   8  14
BRANCH   1  19
HETATM   19  N1  UNL     1      -3.962  -8.248  37.788  1.00  0.00    -0.378 N 
HETATM   20  C1  UNL     1      -2.935  -9.096  37.349  1.00  0.00     0.147 C 
ATOM     21  H1  UNL     1      -4.729  -8.168  37.119  1.00  0.00     0.160 HD
ENDBRANCH   1  19
TORSDOF 4
ENDMDL
MODEL 5
REMARK VINA RESULT: -6.050179124      3.024      5.129
REMARK  4 active torsions:
REMARK  status: ('A' for Active; 'I' for Inactive)
REMARK    1  A    between atoms: N1_2  and  C2_4 
REMARK    2  A    between atoms: C7_11  and  C8_12 
REMARK    3  A    between atoms: C8_12  and  O1_13 
REMARK    4  A    between atoms: C8_12  and  O2_15 
ROOT
HETATM    1  C2  UNL     1      -3.716  -9.302  39.358  1.00  0.00     0.143 A 
HETATM    2  N2  UNL     1      -3.962  -9.223  40.689  1.00  0.00    -0.338 N 
ATOM      3  H2  UNL     1      -3.997 -10.083  41.237  1.00  0.00     0.167 HD
HETATM    4  C3  UNL     1      -4.160  -8.053  41.307  1.00  0.00     0.061 A 
HETATM    5  C4  UNL     1      -4.381  -8.043  42.670  1.00  0.00     0.032 A 
HETATM    6  C5  UNL     1      -4.565  -6.875  43.338  1.00  0.00     0.003 A 
HETATM    7  C6  UNL     1      -4.528  -5.723  42.623  1.00  0.00     0.014 A 
HETATM    8  C7  UNL     1      -4.308  -5.645  41.219  1.00  0.00     0.025 A 
HETATM    9  C10 UNL     1      -4.120  -6.838  40.577  1.00  0.00     0.073 A 
HETATM   10  N3  UNL     1      -3.874  -6.873  39.260  1.00  0.00    -0.334 N 
HETATM   11  C11 UNL     1      -3.733  -5.701  38.484  1.00  0.00     0.158 C 
HETATM   12  C12 UNL     1      -3.680  -8.115  38.684  1.00  0.00     0.163 A 
HETATM   13  N4  UNL     1      -3.436  -8.107  37.280  1.00  0.00    -0.078 NA
ENDROOT
BRANCH   8  14
HETATM   14  C8  UNL     1      -4.395  -4.364  40.560  1.00  0.00     0.293 C 
BRANCH  14  15
HETATM   15  O1  UNL     1      -3.377  -3.448  40.921  1.00  0.00    -0.367 OA
ATOM     16  H1  UNL     1      -2.525  -3.842  41.066  1.00  0.00     0.213 HD
ENDBRANCH  14  15
BRANCH  14  17
HETATM   17  O2  UNL     1      -5.353  -3.733  41.514  1.00  0.00    -0.362 OA
HETATM   18  C9  UNL     1      -4.825  -2.634  42.107  1.00  0.00     0.205 C 
ENDBRANCH  14  17
ENDBRANCH   8  14
BRANCH   1  19
HETATM   19  N1  UNL     1      -3.532 -10.411  38.785  1.00  0.00    -0.378 N 
HETATM   20  C1  UNL     1      -3.947 -11.723  39.055  1.00  0.00     0.147 C 
ATOM     21  H1  UNL     1      -2.958 -10.338  37.945  1.00  0.00     0.160 HD
ENDBRANCH   1  19
TORSDOF 4
ENDMDL
