MODEL 1
REMARK VINA RESULT: -6.891497372      0.000      0.000
REMARK  2 active torsions:
REMARK  status: ('A' for Active; 'I' for Inactive)
REMARK    1  A    between atoms: C2_2  and  N1_4 
REMARK    2  A    between atoms: C5_8  and  C6_9 
ROOT
HETATM    1  N1  UNL     1      -2.459  -9.007  39.161  1.00  0.00    -0.238 N 
HETATM    2  N2  UNL     1      -2.467  -8.380  40.395  1.00  0.00    -0.289 N 
ATOM      3  H2  UNL     1      -1.787  -8.671  41.097  1.00  0.00     0.187 HD
HETATM    4  C4  UNL     1      -3.407  -7.319  40.730  1.00  0.00     0.118 A 
HETATM    5  C5  UNL     1      -3.312  -6.772  41.888  1.00  0.00     0.066 C 
HETATM    6  C10 UNL     1      -4.363  -6.926  39.707  1.00  0.00     0.277 A 
HETATM    7  O1  UNL     1      -5.224  -6.017  39.878  1.00  0.00    -0.266 OA
HETATM    8  N4  UNL     1      -4.313  -7.611  38.442  1.00  0.00    -0.272 N 
ATOM      9  H4  UNL     1      -4.982  -7.339  37.722  1.00  0.00     0.174 HD
HETATM   10  C11 UNL     1      -3.393  -8.636  38.138  1.00  0.00     0.344 A 
HETATM   11  O2  UNL     1      -3.332  -9.246  37.043  1.00  0.00    -0.245 OA
ENDROOT
BRANCH   5  12
HETATM   12  C6  UNL     1      -4.118  -5.717  42.463  1.00  0.00     0.034 A 
HETATM   13  C7  UNL     1      -5.174  -5.799  43.341  1.00  0.00     0.031 A 
HETATM   14  C8  UNL     1      -5.632  -4.535  43.594  1.00  0.00     0.019 A 
HETATM   15  C9  UNL     1      -4.869  -3.665  42.881  1.00  0.00     0.088 A 
HETATM   16  N3  UNL     1      -3.971  -4.376  42.211  1.00  0.00    -0.366 N 
ATOM     17  H3  UNL     1      -3.265  -3.979  41.591  1.00  0.00     0.165 HD
ENDBRANCH   5  12
BRANCH   1  18
HETATM   18  C2  UNL     1      -1.480 -10.068  38.896  1.00  0.00     0.105 C 
HETATM   19  C1  UNL     1      -0.199  -9.823  39.660  1.00  0.00     0.034 C 
HETATM   20  C3  UNL     1      -2.084 -11.383  39.323  1.00  0.00     0.034 C 
ENDBRANCH   1  18
TORSDOF 2
ENDMDL
MODEL 2
REMARK VINA RESULT: -6.544917964      2.386      6.890
REMARK  2 active torsions:
REMARK  status: ('A' for Active; 'I' for Inactive)
REMARK    1  A    between atoms: C2_2  and  N1_4 
REMARK    2  A    between atoms: C5_8  and  C6_9 
ROOT
HETATM    1  N1  UNL     1      -5.916  -3.750  44.228  1.00  0.00    -0.238 N 
HETATM    2  N2  UNL     1      -5.603  -5.077  43.988  1.00  0.00    -0.289 N 
ATOM      3  H2  UNL     1      -5.888  -5.779  44.671  1.00  0.00     0.187 HD
HETATM    4  C4  UNL     1      -4.882  -5.511  42.799  1.00  0.00     0.118 A 
HETATM    5  C5  UNL     1      -4.671  -6.769  42.647  1.00  0.00     0.066 C 
HETATM    6  C10 UNL     1      -4.491  -4.486  41.844  1.00  0.00     0.277 A 
HETATM    7  O1  UNL     1      -3.867  -4.740  40.775  1.00  0.00    -0.266 OA
HETATM    8  N4  UNL     1      -4.840  -3.122  42.141  1.00  0.00    -0.272 N 
ATOM      9  H4  UNL     1      -4.567  -2.400  41.475  1.00  0.00     0.174 HD
HETATM   10  C11 UNL     1      -5.539  -2.724  43.300  1.00  0.00     0.344 A 
HETATM   11  O2  UNL     1      -5.853  -1.541  43.579  1.00  0.00    -0.245 OA
ENDROOT
BRANCH   5  12
HETATM   12  C6  UNL     1      -3.982  -7.450  41.573  1.00  0.00     0.034 A 
HETATM   13  C7  UNL     1      -2.674  -7.873  41.497  1.00  0.00     0.031 A 
HETATM   14  C8  UNL     1      -2.474  -8.459  40.278  1.00  0.00     0.019 A 
HETATM   15  C9  UNL     1      -3.646  -8.406  39.591  1.00  0.00     0.088 A 
HETATM   16  N3  UNL     1      -4.538  -7.804  40.369  1.00  0.00    -0.366 N 
ATOM     17  H3  UNL     1      -5.508  -7.628  40.107  1.00  0.00     0.165 HD
ENDBRANCH   5  12
BRANCH   1  18
HETATM   18  C2  UNL     1      -6.645  -3.389  45.449  1.00  0.00     0.105 C 
HETATM   19  C1  UNL     1      -7.641  -4.464  45.820  1.00  0.00     0.034 C 
HETATM   20  C3  UNL     1      -5.641  -3.218  46.563  1.00  0.00     0.034 C 
ENDBRANCH   1  18
TORSDOF 2
ENDMDL
MODEL 3
REMARK VINA RESULT: -6.424625201      3.638      5.526
REMARK  2 active torsions:
REMARK  status: ('A' for Active; 'I' for Inactive)
REMARK    1  A    between atoms: C2_2  and  N1_4 
REMARK    2  A    between atoms: C5_8  and  C6_9 
ROOT
HETATM    1  N1  UNL     1      -4.416  -4.737  41.839  1.00  0.00    -0.238 N 
HETATM    2  N2  UNL     1      -5.047  -5.274  42.948  1.00  0.00    -0.289 N 
ATOM      3  H2  UNL     1      -5.035  -6.286  43.077  1.00  0.00     0.187 HD
HETATM    4  C4  UNL     1      -5.729  -4.451  43.938  1.00  0.00     0.118 A 
HETATM    5  C5  UNL     1      -6.254  -5.039  44.952  1.00  0.00     0.066 C 
HETATM    6  C10 UNL     1      -5.729  -3.012  43.726  1.00  0.00     0.277 A 
HETATM    7  O1  UNL     1      -6.282  -2.197  44.516  1.00  0.00    -0.266 OA
HETATM    8  N4  UNL     1      -5.059  -2.506  42.556  1.00  0.00    -0.272 N 
ATOM      9  H4  UNL     1      -5.057  -1.498  42.403  1.00  0.00     0.174 HD
HETATM   10  C11 UNL     1      -4.404  -3.321  41.610  1.00  0.00     0.344 A 
HETATM   11  O2  UNL     1      -3.815  -2.901  40.585  1.00  0.00    -0.245 OA
ENDROOT
BRANCH   5  12
HETATM   12  C6  UNL     1      -6.984  -4.460  46.059  1.00  0.00     0.034 A 
HETATM   13  C7  UNL     1      -8.340  -4.415  46.289  1.00  0.00     0.031 A 
HETATM   14  C8  UNL     1      -8.564  -3.752  47.463  1.00  0.00     0.019 A 
HETATM   15  C9  UNL     1      -7.357  -3.382  47.970  1.00  0.00     0.088 A 
HETATM   16  N3  UNL     1      -6.423  -3.807  47.128  1.00  0.00    -0.366 N 
ATOM     17  H3  UNL     1      -5.421  -3.667  47.259  1.00  0.00     0.165 HD
ENDBRANCH   5  12
BRANCH   1  18
HETATM   18  C2  UNL     1      -3.749  -5.630  40.885  1.00  0.00     0.105 C 
HETATM   19  C1  UNL     1      -2.897  -6.650  41.605  1.00  0.00     0.034 C 
HETATM   20  C3  UNL     1      -4.812  -6.333  40.077  1.00  0.00     0.034 C 
ENDBRANCH   1  18
TORSDOF 2
ENDMDL
MODEL 4
REMARK VINA RESULT: -6.421638706      2.340      3.051
REMARK  2 active torsions:
REMARK  status: ('A' for Active; 'I' for Inactive)
REMARK    1  A    between atoms: C2_2  and  N1_4 
REMARK    2  A    between atoms: C5_8  and  C6_9 
ROOT
HETATM    1  N1  UNL     1      -1.788  -9.911  37.008  1.00  0.00    -0.238 N 
HETATM    2  N2  UNL     1      -2.692  -9.978  38.055  1.00  0.00    -0.289 N 
ATOM      3  H2  UNL     1      -3.201 -10.849  38.208  1.00  0.00     0.187 HD
HETATM    4  C4  UNL     1      -2.946  -8.854  38.946  1.00  0.00     0.118 A 
HETATM    5  C5  UNL     1      -3.775  -9.025  39.911  1.00  0.00     0.066 C 
HETATM    6  C10 UNL     1      -2.205  -7.627  38.701  1.00  0.00     0.277 A 
HETATM    7  O1  UNL     1      -2.335  -6.588  39.408  1.00  0.00    -0.266 OA
HETATM    8  N4  UNL     1      -1.278  -7.610  37.600  1.00  0.00    -0.272 N 
ATOM      9  H4  UNL     1      -0.757  -6.751  37.424  1.00  0.00     0.174 HD
HETATM   10  C11 UNL     1      -1.048  -8.711  36.748  1.00  0.00     0.344 A 
HETATM   11  O2  UNL     1      -0.246  -8.718  35.783  1.00  0.00    -0.245 OA
ENDROOT
BRANCH   5  12
HETATM   12  C6  UNL     1      -4.203  -8.079  40.919  1.00  0.00     0.034 A 
HETATM   13  C7  UNL     1      -3.778  -7.931  42.220  1.00  0.00     0.031 A 
HETATM   14  C8  UNL     1      -4.479  -6.907  42.795  1.00  0.00     0.019 A 
HETATM   15  C9  UNL     1      -5.338  -6.414  41.863  1.00  0.00     0.088 A 
HETATM   16  N3  UNL     1      -5.167  -7.117  40.750  1.00  0.00    -0.366 N 
ATOM     17  H3  UNL     1      -5.683  -6.963  39.884  1.00  0.00     0.165 HD
ENDBRANCH   5  12
BRANCH   1  18
HETATM   18  C2  UNL     1      -1.586 -11.086  36.153  1.00  0.00     0.105 C 
HETATM   19  C1  UNL     1      -1.610 -12.358  36.968  1.00  0.00     0.034 C 
HETATM   20  C3  UNL     1      -2.693 -11.117  35.127  1.00  0.00     0.034 C 
ENDBRANCH   1  18
TORSDOF 2
ENDMDL
MODEL 5
REMARK VINA RESULT: -6.337720213      2.032      2.620
REMARK  2 active torsions:
REMARK  status: ('A' for Active; 'I' for Inactive)
REMARK    1  A    between atoms: C2_2  and  N1_4 
REMARK    2  A    between atoms: C5_8  and  C6_9 
ROOT
HETATM    1  N1  UNL     1      -3.561 -10.930  39.083  1.00  0.00    -0.238 N 
HETATM    2  N2  UNL     1      -4.228 -10.037  39.904  1.00  0.00    -0.289 N 
ATOM      3  H2  UNL     1      -5.033 -10.367  40.437  1.00  0.00     0.187 HD
HETATM    4  C4  UNL     1      -3.826  -8.643  40.039  1.00  0.00     0.118 A 
HETATM    5  C5  UNL     1      -4.485  -7.901  40.854  1.00  0.00     0.066 C 
HETATM    6  C10 UNL     1      -2.675  -8.202  39.267  1.00  0.00     0.277 A 
HETATM    7  O1  UNL     1      -2.229  -7.021  39.303  1.00  0.00    -0.266 OA
HETATM    8  N4  UNL     1      -2.018  -9.170  38.428  1.00  0.00    -0.272 N 
ATOM      9  H4  UNL     1      -1.211  -8.865  37.884  1.00  0.00     0.174 HD
HETATM   10  C11 UNL     1      -2.424 -10.516  38.313  1.00  0.00     0.344 A 
HETATM   11  O2  UNL     1      -1.867 -11.376  37.589  1.00  0.00    -0.245 OA
ENDROOT
BRANCH   5  12
HETATM   12  C6  UNL     1      -4.296  -6.500  41.161  1.00  0.00     0.034 A 
HETATM   13  C7  UNL     1      -3.748  -5.912  42.278  1.00  0.00     0.031 A 
HETATM   14  C8  UNL     1      -3.792  -4.554  42.125  1.00  0.00     0.019 A 
HETATM   15  C9  UNL     1      -4.364  -4.289  40.920  1.00  0.00     0.088 A 
HETATM   16  N3  UNL     1      -4.660  -5.452  40.353  1.00  0.00    -0.366 N 
ATOM     17  H3  UNL     1      -5.101  -5.553  39.439  1.00  0.00     0.165 HD
ENDBRANCH   5  12
BRANCH   1  18
HETATM   18  C2  UNL     1      -4.025 -12.319  39.000  1.00  0.00     0.105 C 
HETATM   19  C1  UNL     1      -3.233 -13.209  39.932  1.00  0.00     0.034 C 
HETATM   20  C3  UNL     1      -5.484 -12.352  39.383  1.00  0.00     0.034 C 
ENDBRANCH   1  18
TORSDOF 2
ENDMDL
