MODEL 1
REMARK VINA RESULT: -6.137868250      0.000      0.000
REMARK  4 active torsions:
REMARK  status: ('A' for Active; 'I' for Inactive)
REMARK    1  A    between atoms: N1_1  and  S1_4 
REMARK    2  A    between atoms: S1_4  and  C1_7 
REMARK    3  A    between atoms: C4_10  and  N2_11 
REMARK    4  A    between atoms: N2_11  and  C5_13 
ROOT
HETATM    1  C1  UNL     1     -17.163  26.470  -2.575  1.00  0.00     0.079 A 
HETATM    2  C2  UNL     1     -16.229  25.626  -2.014  1.00  0.00     0.027 A 
HETATM    3  C3  UNL     1     -14.933  25.571  -2.492  1.00  0.00     0.031 A 
HETATM    4  C4  UNL     1     -14.568  26.379  -3.552  1.00  0.00     0.049 A 
HETATM    5  C7  UNL     1     -15.517  27.216  -4.097  1.00  0.00     0.031 A 
HETATM    6  C8  UNL     1     -16.800  27.279  -3.634  1.00  0.00     0.027 A 
ENDROOT
BRANCH   4   7
HETATM    7  N2  UNL     1     -13.227  26.336  -4.061  1.00  0.00    -0.190 N 
ATOM      8  H2  UNL     1     -12.420  26.338  -3.438  1.00  0.00     0.184 HD
BRANCH   7   9
HETATM    9  C5  UNL     1     -13.088  26.294  -5.358  1.00  0.00     0.698 A 
HETATM   10  N3  UNL     1     -13.391  25.308  -6.209  1.00  0.00    -0.185 N 
HETATM   11  C6  UNL     1     -13.082  25.695  -7.458  1.00  0.00     0.215 A 
ATOM     12  H3  UNL     1     -13.792  24.406  -5.950  1.00  0.00     0.185 HD
HETATM   13  N4  UNL     1     -12.583  26.937  -7.373  1.00  0.00    -0.281 N 
HETATM   14  N5  UNL     1     -12.595  27.281  -6.098  1.00  0.00    -0.131 N 
ATOM     15  H4  UNL     1     -12.255  27.510  -8.150  1.00  0.00     0.188 HD
ATOM     16  H5  UNL     1     -12.271  28.177  -5.734  1.00  0.00     0.205 HD
ENDBRANCH   7   9
ENDBRANCH   4   7
BRANCH   1  17
HETATM   17  S1  UNL     1     -18.814  26.530  -1.955  1.00  0.00     0.256 S 
HETATM   18  O1  UNL     1     -19.555  27.715  -2.548  1.00  0.00    -0.201 OA
HETATM   19  O2  UNL     1     -18.748  26.657  -0.458  1.00  0.00    -0.201 OA
BRANCH  17  20
HETATM   20  N1  UNL     1     -19.606  25.041  -2.372  1.00  0.00    -0.324 N 
ATOM     21  H12 UNL     1     -20.324  24.599  -1.797  1.00  0.00     0.169 HD
ATOM     22  H11 UNL     1     -19.254  24.683  -3.260  1.00  0.00     0.169 HD
ENDBRANCH  17  20
ENDBRANCH   1  17
TORSDOF 4
ENDMDL
MODEL 2
REMARK VINA RESULT: -6.107812771      0.026      1.189
REMARK  4 active torsions:
REMARK  status: ('A' for Active; 'I' for Inactive)
REMARK    1  A    between atoms: N1_1  and  S1_4 
REMARK    2  A    between atoms: S1_4  and  C1_7 
REMARK    3  A    between atoms: C4_10  and  N2_11 
REMARK    4  A    between atoms: N2_11  and  C5_13 
ROOT
HETATM    1  C1  UNL     1     -17.175  26.460  -2.575  1.00  0.00     0.079 A 
HETATM    2  C2  UNL     1     -16.800  27.246  -3.642  1.00  0.00     0.027 A 
HETATM    3  C3  UNL     1     -15.510  27.213  -4.140  1.00  0.00     0.031 A 
HETATM    4  C4  UNL     1     -14.582  26.372  -3.556  1.00  0.00     0.049 A 
HETATM    5  C7  UNL     1     -14.979  25.593  -2.491  1.00  0.00     0.031 A 
HETATM    6  C8  UNL     1     -16.249  25.618  -1.991  1.00  0.00     0.027 A 
ENDROOT
BRANCH   4   7
HETATM    7  N2  UNL     1     -13.239  26.322  -4.060  1.00  0.00    -0.190 N 
ATOM      8  H2  UNL     1     -12.435  26.311  -3.433  1.00  0.00     0.184 HD
BRANCH   7   9
HETATM    9  C5  UNL     1     -13.095  26.292  -5.357  1.00  0.00     0.698 A 
HETATM   10  N3  UNL     1     -13.395  25.314  -6.218  1.00  0.00    -0.185 N 
HETATM   11  C6  UNL     1     -13.081  25.712  -7.462  1.00  0.00     0.215 A 
ATOM     12  H3  UNL     1     -13.799  24.410  -5.969  1.00  0.00     0.185 HD
HETATM   13  N4  UNL     1     -12.580  26.952  -7.364  1.00  0.00    -0.281 N 
HETATM   14  N5  UNL     1     -12.597  27.285  -6.086  1.00  0.00    -0.131 N 
ATOM     15  H4  UNL     1     -12.249  27.532  -8.134  1.00  0.00     0.188 HD
ATOM     16  H5  UNL     1     -12.273  28.177  -5.712  1.00  0.00     0.205 HD
ENDBRANCH   7   9
ENDBRANCH   4   7
BRANCH   1  17
HETATM   17  S1  UNL     1     -18.824  26.513  -1.950  1.00  0.00     0.256 S 
HETATM   18  O1  UNL     1     -19.568  27.702  -2.532  1.00  0.00    -0.201 OA
HETATM   19  O2  UNL     1     -18.755  26.628  -0.452  1.00  0.00    -0.201 OA
BRANCH  17  20
HETATM   20  N1  UNL     1     -19.616  25.027  -2.377  1.00  0.00    -0.324 N 
ATOM     21  H12 UNL     1     -19.887  24.780  -3.329  1.00  0.00     0.169 HD
ATOM     22  H11 UNL     1     -19.767  24.449  -1.550  1.00  0.00     0.169 HD
ENDBRANCH  17  20
ENDBRANCH   1  17
TORSDOF 4
ENDMDL
MODEL 3
REMARK VINA RESULT: -6.066425580      0.776      1.078
REMARK  4 active torsions:
REMARK  status: ('A' for Active; 'I' for Inactive)
REMARK    1  A    between atoms: N1_1  and  S1_4 
REMARK    2  A    between atoms: S1_4  and  C1_7 
REMARK    3  A    between atoms: C4_10  and  N2_11 
REMARK    4  A    between atoms: N2_11  and  C5_13 
ROOT
HETATM    1  C1  UNL     1     -17.393  26.748  -2.670  1.00  0.00     0.079 A 
HETATM    2  C2  UNL     1     -16.606  25.898  -1.924  1.00  0.00     0.027 A 
HETATM    3  C3  UNL     1     -15.289  25.653  -2.266  1.00  0.00     0.031 A 
HETATM    4  C4  UNL     1     -14.753  26.275  -3.377  1.00  0.00     0.049 A 
HETATM    5  C7  UNL     1     -15.556  27.122  -4.108  1.00  0.00     0.031 A 
HETATM    6  C8  UNL     1     -16.858  27.371  -3.780  1.00  0.00     0.027 A 
ENDROOT
BRANCH   4   7
HETATM    7  N2  UNL     1     -13.387  26.034  -3.747  1.00  0.00    -0.190 N 
ATOM      8  H2  UNL     1     -12.697  25.720  -3.065  1.00  0.00     0.184 HD
BRANCH   7   9
HETATM    9  C5  UNL     1     -13.069  26.235  -4.997  1.00  0.00     0.698 A 
HETATM   10  N3  UNL     1     -12.433  27.272  -5.550  1.00  0.00    -0.185 N 
HETATM   11  C6  UNL     1     -12.317  27.063  -6.872  1.00  0.00     0.215 A 
ATOM     12  H3  UNL     1     -12.090  28.092  -5.049  1.00  0.00     0.185 HD
HETATM   13  N4  UNL     1     -12.890  25.879  -7.134  1.00  0.00    -0.281 N 
HETATM   14  N5  UNL     1     -13.339  25.395  -5.990  1.00  0.00    -0.131 N 
ATOM     15  H4  UNL     1     -12.966  25.434  -8.049  1.00  0.00     0.188 HD
ATOM     16  H5  UNL     1     -13.823  24.503  -5.885  1.00  0.00     0.205 HD
ENDBRANCH   7   9
ENDBRANCH   4   7
BRANCH   1  17
HETATM   17  S1  UNL     1     -19.072  27.051  -2.221  1.00  0.00     0.256 S 
HETATM   18  O1  UNL     1     -19.828  27.650  -3.393  1.00  0.00    -0.201 OA
HETATM   19  O2  UNL     1     -19.082  28.003  -1.057  1.00  0.00    -0.201 OA
BRANCH  17  20
HETATM   20  N1  UNL     1     -19.786  25.543  -1.738  1.00  0.00    -0.324 N 
ATOM     21  H12 UNL     1     -19.859  25.233  -0.768  1.00  0.00     0.169 HD
ATOM     22  H11 UNL     1     -20.117  25.024  -2.551  1.00  0.00     0.169 HD
ENDBRANCH  17  20
ENDBRANCH   1  17
TORSDOF 4
ENDMDL
MODEL 4
REMARK VINA RESULT: -6.001904491      1.220      1.965
REMARK  4 active torsions:
REMARK  status: ('A' for Active; 'I' for Inactive)
REMARK    1  A    between atoms: N1_1  and  S1_4 
REMARK    2  A    between atoms: S1_4  and  C1_7 
REMARK    3  A    between atoms: C4_10  and  N2_11 
REMARK    4  A    between atoms: N2_11  and  C5_13 
ROOT
HETATM    1  C1  UNL     1     -17.303  26.715  -2.620  1.00  0.00     0.079 A 
HETATM    2  C2  UNL     1     -16.630  27.191  -3.724  1.00  0.00     0.027 A 
HETATM    3  C3  UNL     1     -15.307  26.865  -3.955  1.00  0.00     0.031 A 
HETATM    4  C4  UNL     1     -14.648  26.043  -3.060  1.00  0.00     0.049 A 
HETATM    5  C7  UNL     1     -15.340  25.576  -1.963  1.00  0.00     0.031 A 
HETATM    6  C8  UNL     1     -16.647  25.893  -1.725  1.00  0.00     0.027 A 
ENDROOT
BRANCH   4   7
HETATM    7  N2  UNL     1     -13.275  25.692  -3.283  1.00  0.00    -0.190 N 
ATOM      8  H2  UNL     1     -12.560  25.861  -2.575  1.00  0.00     0.184 HD
BRANCH   7   9
HETATM    9  C5  UNL     1     -12.983  25.146  -4.432  1.00  0.00     0.698 A 
HETATM   10  N3  UNL     1     -12.209  25.614  -5.417  1.00  0.00    -0.185 N 
HETATM   11  C6  UNL     1     -12.187  24.722  -6.420  1.00  0.00     0.215 A 
ATOM     12  H3  UNL     1     -11.714  26.506  -5.407  1.00  0.00     0.185 HD
HETATM   13  N4  UNL     1     -12.959  23.690  -6.046  1.00  0.00    -0.281 N 
HETATM   14  N5  UNL     1     -13.430  23.965  -4.844  1.00  0.00    -0.131 N 
ATOM     15  H4  UNL     1     -13.147  22.848  -6.591  1.00  0.00     0.188 HD
ATOM     16  H5  UNL     1     -14.050  23.357  -4.308  1.00  0.00     0.205 HD
ENDBRANCH   7   9
ENDBRANCH   4   7
BRANCH   1  17
HETATM   17  S1  UNL     1     -18.992  27.141  -2.339  1.00  0.00     0.256 S 
HETATM   18  O1  UNL     1     -19.591  27.764  -3.586  1.00  0.00    -0.201 OA
HETATM   19  O2  UNL     1     -19.046  28.116  -1.195  1.00  0.00    -0.201 OA
BRANCH  17  20
HETATM   20  N1  UNL     1     -19.852  25.695  -1.904  1.00  0.00    -0.324 N 
ATOM     21  H12 UNL     1     -19.720  25.198  -1.022  1.00  0.00     0.169 HD
ATOM     22  H11 UNL     1     -20.497  25.423  -2.646  1.00  0.00     0.169 HD
ENDBRANCH  17  20
ENDBRANCH   1  17
TORSDOF 4
ENDMDL
MODEL 5
REMARK VINA RESULT: -5.964761594      1.379      1.399
REMARK  4 active torsions:
REMARK  status: ('A' for Active; 'I' for Inactive)
REMARK    1  A    between atoms: N1_1  and  S1_4 
REMARK    2  A    between atoms: S1_4  and  C1_7 
REMARK    3  A    between atoms: C4_10  and  N2_11 
REMARK    4  A    between atoms: N2_11  and  C5_13 
ROOT
HETATM    1  C1  UNL     1     -17.217  26.757  -2.807  1.00  0.00     0.079 A 
HETATM    2  C2  UNL     1     -16.603  25.988  -1.843  1.00  0.00     0.027 A 
HETATM    3  C3  UNL     1     -15.269  25.639  -1.945  1.00  0.00     0.031 A 
HETATM    4  C4  UNL     1     -14.539  26.072  -3.035  1.00  0.00     0.049 A 
HETATM    5  C7  UNL     1     -15.172  26.841  -3.987  1.00  0.00     0.031 A 
HETATM    6  C8  UNL     1     -16.489  27.192  -3.896  1.00  0.00     0.027 A 
ENDROOT
BRANCH   4   7
HETATM    7  N2  UNL     1     -13.153  25.720  -3.158  1.00  0.00    -0.190 N 
ATOM      8  H2  UNL     1     -12.491  25.888  -2.401  1.00  0.00     0.184 HD
BRANCH   7   9
HETATM    9  C5  UNL     1     -12.780  25.174  -4.283  1.00  0.00     0.698 A 
HETATM   10  N3  UNL     1     -13.186  24.030  -4.843  1.00  0.00    -0.185 N 
HETATM   11  C6  UNL     1     -12.537  23.855  -6.006  1.00  0.00     0.215 A 
ATOM     12  H3  UNL     1     -13.879  23.392  -4.450  1.00  0.00     0.185 HD
HETATM   13  N4  UNL     1     -11.719  24.907  -6.163  1.00  0.00    -0.281 N 
HETATM   14  N5  UNL     1     -11.880  25.692  -5.113  1.00  0.00    -0.131 N 
ATOM     15  H4  UNL     1     -11.090  25.071  -6.948  1.00  0.00     0.188 HD
ATOM     16  H5  UNL     1     -11.384  26.570  -4.961  1.00  0.00     0.205 HD
ENDBRANCH   7   9
ENDBRANCH   4   7
BRANCH   1  17
HETATM   17  S1  UNL     1     -18.920  27.196  -2.663  1.00  0.00     0.256 S 
HETATM   18  O1  UNL     1     -19.361  27.995  -3.876  1.00  0.00    -0.201 OA
HETATM   19  O2  UNL     1     -19.090  28.015  -1.413  1.00  0.00    -0.201 OA
BRANCH  17  20
HETATM   20  N1  UNL     1     -19.848  25.734  -2.523  1.00  0.00    -0.324 N 
ATOM     21  H12 UNL     1     -20.025  25.255  -1.639  1.00  0.00     0.169 HD
ATOM     22  H11 UNL     1     -20.184  25.432  -3.438  1.00  0.00     0.169 HD
ENDBRANCH  17  20
ENDBRANCH   1  17
TORSDOF 4
ENDMDL
