MODEL 1
REMARK VINA RESULT: -7.041356296      0.000      0.000
REMARK  3 active torsions:
REMARK  status: ('A' for Active; 'I' for Inactive)
REMARK    1  A    between atoms: N1_1  and  C1_4 
REMARK    2  A    between atoms: C2_5  and  S1_6 
REMARK    3  A    between atoms: S1_6  and  C3_9 
ROOT
HETATM    1  C1  UNL     1     -19.270  25.671  -1.357  1.00  0.00     0.119 A 
HETATM    2  C2  UNL     1     -18.178  24.930  -1.023  1.00  0.00     0.112 A 
HETATM    3  C9  UNL     1     -17.928  24.652   0.335  1.00  0.00     0.133 A 
HETATM    4  N2  UNL     1     -18.775  25.129   1.234  1.00  0.00    -0.307 N 
ATOM      5  H2  UNL     1     -18.594  24.928   2.217  1.00  0.00     0.186 HD
HETATM    6  N3  UNL     1     -19.839  25.847   0.936  1.00  0.00    -0.265 N 
ATOM      7  H3  UNL     1     -20.452  26.184   1.678  1.00  0.00     0.190 HD
HETATM    8  C10 UNL     1     -20.111  26.133  -0.338  1.00  0.00     0.287 A 
HETATM    9  O3  UNL     1     -21.126  26.823  -0.662  1.00  0.00    -0.264 OA
ENDROOT
BRANCH   2  10
HETATM   10  S1  UNL     1     -17.128  24.264  -2.211  1.00  0.00     0.210 S 
HETATM   11  O1  UNL     1     -16.291  23.122  -1.657  1.00  0.00    -0.217 OA
HETATM   12  O2  UNL     1     -17.967  23.649  -3.316  1.00  0.00    -0.217 OA
BRANCH  10  13
HETATM   13  C3  UNL     1     -16.042  25.386  -2.966  1.00  0.00     0.064 A 
HETATM   14  C4  UNL     1     -14.666  25.120  -2.976  1.00  0.00     0.024 A 
HETATM   15  C5  UNL     1     -13.729  25.947  -3.519  1.00  0.00     0.002 A 
HETATM   16  C6  UNL     1     -14.187  27.122  -4.093  1.00  0.00     0.000 A 
HETATM   17  C7  UNL     1     -15.531  27.403  -4.093  1.00  0.00     0.002 A 
HETATM   18  C8  UNL     1     -16.455  26.557  -3.542  1.00  0.00     0.024 A 
ENDBRANCH  10  13
ENDBRANCH   2  10
BRANCH   1  19
HETATM   19  N1  UNL     1     -19.573  26.029  -2.542  1.00  0.00    -0.393 N 
ATOM     20  H12 UNL     1     -18.793  26.194  -3.177  1.00  0.00     0.156 HD
ATOM     21  H11 UNL     1     -20.525  26.123  -2.898  1.00  0.00     0.156 HD
ENDBRANCH   1  19
TORSDOF 3
ENDMDL
MODEL 2
REMARK VINA RESULT: -6.847729489      1.572      2.768
REMARK  3 active torsions:
REMARK  status: ('A' for Active; 'I' for Inactive)
REMARK    1  A    between atoms: N1_1  and  C1_4 
REMARK    2  A    between atoms: C2_5  and  S1_6 
REMARK    3  A    between atoms: S1_6  and  C3_9 
ROOT
HETATM    1  C1  UNL     1     -18.490  26.135  -1.357  1.00  0.00     0.119 A 
HETATM    2  C2  UNL     1     -17.566  26.137  -2.358  1.00  0.00     0.112 A 
HETATM    3  C9  UNL     1     -17.900  26.712  -3.599  1.00  0.00     0.133 A 
HETATM    4  N2  UNL     1     -19.111  27.233  -3.737  1.00  0.00    -0.307 N 
ATOM      5  H2  UNL     1     -19.352  27.650  -4.636  1.00  0.00     0.186 HD
HETATM    6  N3  UNL     1     -20.021  27.244  -2.785  1.00  0.00    -0.265 N 
ATOM      7  H3  UNL     1     -20.936  27.663  -2.957  1.00  0.00     0.190 HD
HETATM    8  C10 UNL     1     -19.744  26.709  -1.596  1.00  0.00     0.287 A 
HETATM    9  O3  UNL     1     -20.596  26.702  -0.655  1.00  0.00    -0.264 OA
ENDROOT
BRANCH   2  10
HETATM   10  S1  UNL     1     -15.978  25.515  -2.135  1.00  0.00     0.210 S 
HETATM   11  O1  UNL     1     -15.290  26.127  -0.925  1.00  0.00    -0.217 OA
HETATM   12  O2  UNL     1     -16.072  24.030  -1.836  1.00  0.00    -0.217 OA
BRANCH  10  13
HETATM   13  C3  UNL     1     -14.906  25.692  -3.487  1.00  0.00     0.064 A 
HETATM   14  C4  UNL     1     -14.332  26.941  -3.759  1.00  0.00     0.024 A 
HETATM   15  C5  UNL     1     -13.500  27.189  -4.809  1.00  0.00     0.002 A 
HETATM   16  C6  UNL     1     -13.216  26.126  -5.651  1.00  0.00     0.000 A 
HETATM   17  C7  UNL     1     -13.769  24.894  -5.403  1.00  0.00     0.002 A 
HETATM   18  C8  UNL     1     -14.602  24.666  -4.342  1.00  0.00     0.024 A 
ENDBRANCH  10  13
ENDBRANCH   2  10
BRANCH   1  19
HETATM   19  N1  UNL     1     -18.324  25.602  -0.212  1.00  0.00    -0.393 N 
ATOM     20  H12 UNL     1     -18.885  25.983   0.548  1.00  0.00     0.156 HD
ATOM     21  H11 UNL     1     -17.708  24.811  -0.020  1.00  0.00     0.156 HD
ENDBRANCH   1  19
TORSDOF 3
ENDMDL
MODEL 3
REMARK VINA RESULT: -6.624458279      2.026      2.730
REMARK  3 active torsions:
REMARK  status: ('A' for Active; 'I' for Inactive)
REMARK    1  A    between atoms: N1_1  and  C1_4 
REMARK    2  A    between atoms: C2_5  and  S1_6 
REMARK    3  A    between atoms: S1_6  and  C3_9 
ROOT
HETATM    1  C1  UNL     1     -19.408  26.277  -1.321  1.00  0.00     0.119 A 
HETATM    2  C2  UNL     1     -18.165  25.722  -1.300  1.00  0.00     0.112 A 
HETATM    3  C9  UNL     1     -17.734  25.049  -0.140  1.00  0.00     0.133 A 
HETATM    4  N2  UNL     1     -18.567  24.986   0.888  1.00  0.00    -0.307 N 
ATOM      5  H2  UNL     1     -18.255  24.499   1.728  1.00  0.00     0.186 HD
HETATM    6  N3  UNL     1     -19.774  25.513   0.892  1.00  0.00    -0.265 N 
ATOM      7  H3  UNL     1     -20.367  25.428   1.718  1.00  0.00     0.190 HD
HETATM    8  C10 UNL     1     -20.220  26.159  -0.186  1.00  0.00     0.287 A 
HETATM    9  O3  UNL     1     -21.377  26.680  -0.218  1.00  0.00    -0.264 OA
ENDROOT
BRANCH   2  10
HETATM   10  S1  UNL     1     -17.125  25.759  -2.669  1.00  0.00     0.210 S 
HETATM   11  O1  UNL     1     -17.766  26.463  -3.853  1.00  0.00    -0.217 OA
HETATM   12  O2  UNL     1     -15.897  26.583  -2.327  1.00  0.00    -0.217 OA
BRANCH  10  13
HETATM   13  C3  UNL     1     -16.560  24.216  -3.224  1.00  0.00     0.064 A 
HETATM   14  C4  UNL     1     -15.256  24.094  -3.723  1.00  0.00     0.024 A 
HETATM   15  C5  UNL     1     -14.727  22.934  -4.206  1.00  0.00     0.002 A 
HETATM   16  C6  UNL     1     -15.546  21.817  -4.195  1.00  0.00     0.000 A 
HETATM   17  C7  UNL     1     -16.827  21.916  -3.711  1.00  0.00     0.002 A 
HETATM   18  C8  UNL     1     -17.339  23.090  -3.230  1.00  0.00     0.024 A 
ENDBRANCH  10  13
ENDBRANCH   2  10
BRANCH   1  19
HETATM   19  N1  UNL     1     -19.889  26.951  -2.289  1.00  0.00    -0.393 N 
ATOM     20  H12 UNL     1     -20.084  27.934  -2.101  1.00  0.00     0.156 HD
ATOM     21  H11 UNL     1     -20.052  26.588  -3.229  1.00  0.00     0.156 HD
ENDBRANCH   1  19
TORSDOF 3
ENDMDL
MODEL 4
REMARK VINA RESULT: -6.560515931      2.583      3.378
REMARK  3 active torsions:
REMARK  status: ('A' for Active; 'I' for Inactive)
REMARK    1  A    between atoms: N1_1  and  C1_4 
REMARK    2  A    between atoms: C2_5  and  S1_6 
REMARK    3  A    between atoms: S1_6  and  C3_9 
ROOT
HETATM    1  C1  UNL     1     -19.715  25.976  -0.832  1.00  0.00     0.119 A 
HETATM    2  C2  UNL     1     -18.549  25.317  -0.589  1.00  0.00     0.112 A 
HETATM    3  C9  UNL     1     -18.295  24.829   0.707  1.00  0.00     0.133 A 
HETATM    4  N2  UNL     1     -19.212  25.034   1.640  1.00  0.00    -0.307 N 
ATOM      5  H2  UNL     1     -19.028  24.680   2.579  1.00  0.00     0.186 HD
HETATM    6  N3  UNL     1     -20.348  25.667   1.430  1.00  0.00    -0.265 N 
ATOM      7  H3  UNL     1     -21.014  25.791   2.193  1.00  0.00     0.190 HD
HETATM    8  C10 UNL     1     -20.627  26.146   0.217  1.00  0.00     0.287 A 
HETATM    9  O3  UNL     1     -21.710  26.761  -0.023  1.00  0.00    -0.264 OA
ENDROOT
BRANCH   2  10
HETATM   10  S1  UNL     1     -17.401  25.003  -1.831  1.00  0.00     0.210 S 
HETATM   11  O1  UNL     1     -17.774  25.684  -3.138  1.00  0.00    -0.217 OA
HETATM   12  O2  UNL     1     -16.068  25.609  -1.429  1.00  0.00    -0.217 OA
BRANCH  10  13
HETATM   13  C3  UNL     1     -17.110  23.330  -2.179  1.00  0.00     0.064 A 
HETATM   14  C4  UNL     1     -17.125  22.885  -3.508  1.00  0.00     0.024 A 
HETATM   15  C5  UNL     1     -16.934  21.589  -3.885  1.00  0.00     0.002 A 
HETATM   16  C6  UNL     1     -16.713  20.668  -2.874  1.00  0.00     0.000 A 
HETATM   17  C7  UNL     1     -16.696  21.082  -1.565  1.00  0.00     0.002 A 
HETATM   18  C8  UNL     1     -16.889  22.389  -1.210  1.00  0.00     0.024 A 
ENDBRANCH  10  13
ENDBRANCH   2  10
BRANCH   1  19
HETATM   19  N1  UNL     1     -20.035  26.506  -1.946  1.00  0.00    -0.393 N 
ATOM     20  H12 UNL     1     -20.167  27.517  -1.943  1.00  0.00     0.156 HD
ATOM     21  H11 UNL     1     -20.127  26.001  -2.828  1.00  0.00     0.156 HD
ENDBRANCH   1  19
TORSDOF 3
ENDMDL
MODEL 5
REMARK VINA RESULT: -6.554489854      3.194      4.209
REMARK  3 active torsions:
REMARK  status: ('A' for Active; 'I' for Inactive)
REMARK    1  A    between atoms: N1_1  and  C1_4 
REMARK    2  A    between atoms: C2_5  and  S1_6 
REMARK    3  A    between atoms: S1_6  and  C3_9 
ROOT
HETATM    1  C1  UNL     1     -17.602  26.347  -2.977  1.00  0.00     0.119 A 
HETATM    2  C2  UNL     1     -17.588  25.068  -2.511  1.00  0.00     0.112 A 
HETATM    3  C9  UNL     1     -18.742  24.552  -1.890  1.00  0.00     0.133 A 
HETATM    4  N2  UNL     1     -19.799  25.344  -1.787  1.00  0.00    -0.307 N 
ATOM      5  H2  UNL     1     -20.635  24.970  -1.337  1.00  0.00     0.186 HD
HETATM    6  N3  UNL     1     -19.838  26.584  -2.231  1.00  0.00    -0.265 N 
ATOM      7  H3  UNL     1     -20.686  27.140  -2.120  1.00  0.00     0.190 HD
HETATM    8  C10 UNL     1     -18.766  27.109  -2.825  1.00  0.00     0.287 A 
HETATM    9  O3  UNL     1     -18.767  28.300  -3.264  1.00  0.00    -0.264 OA
ENDROOT
BRANCH   2  10
HETATM   10  S1  UNL     1     -16.227  24.037  -2.714  1.00  0.00     0.210 S 
HETATM   11  O1  UNL     1     -15.364  24.456  -3.894  1.00  0.00    -0.217 OA
HETATM   12  O2  UNL     1     -15.331  24.164  -1.496  1.00  0.00    -0.217 OA
BRANCH  10  13
HETATM   13  C3  UNL     1     -16.585  22.350  -2.904  1.00  0.00     0.064 A 
HETATM   14  C4  UNL     1     -16.506  21.496  -1.797  1.00  0.00     0.024 A 
HETATM   15  C5  UNL     1     -16.742  20.154  -1.846  1.00  0.00     0.002 A 
HETATM   16  C6  UNL     1     -17.079  19.620  -3.079  1.00  0.00     0.000 A 
HETATM   17  C7  UNL     1     -17.160  20.441  -4.177  1.00  0.00     0.002 A 
HETATM   18  C8  UNL     1     -16.920  21.786  -4.105  1.00  0.00     0.024 A 
ENDBRANCH  10  13
ENDBRANCH   2  10
BRANCH   1  19
HETATM   19  N1  UNL     1     -16.607  26.940  -3.510  1.00  0.00    -0.393 N 
ATOM     20  H12 UNL     1     -16.643  27.959  -3.521  1.00  0.00     0.156 HD
ATOM     21  H11 UNL     1     -15.780  26.473  -3.883  1.00  0.00     0.156 HD
ENDBRANCH   1  19
TORSDOF 3
ENDMDL
