MODEL 1
REMARK VINA RESULT: -6.119680692      0.000      0.000
REMARK  4 active torsions:
REMARK  status: ('A' for Active; 'I' for Inactive)
REMARK    1  A    between atoms: O1_2  and  C2_3 
REMARK    2  A    between atoms: C7_8  and  C8_9 
REMARK    3  A    between atoms: N1_10  and  O2_12 
REMARK    4  A    between atoms: C10_14  and  N2_15 
ROOT
HETATM    1  C2  UNL     1      82.440  96.122  17.050  1.00  0.00     0.082 A 
HETATM    2  C3  UNL     1      81.848  97.094  17.810  1.00  0.00     0.069 A 
HETATM    3  C4  UNL     1      82.541  97.674  18.851  1.00  0.00     0.067 A 
HETATM    4  C5  UNL     1      83.823  97.254  19.101  1.00  0.00     0.038 A 
HETATM    5  C6  UNL     1      84.410  96.263  18.317  1.00  0.00     0.033 A 
HETATM    6  C7  UNL     1      83.755  95.664  17.276  1.00  0.00     0.016 A 
HETATM    7  C10 UNL     1      84.321  97.959  20.173  1.00  0.00     0.126 A 
HETATM    8  N3  UNL     1      83.329  98.793  20.552  1.00  0.00    -0.283 N 
ATOM      9  H3  UNL     1      83.384  99.455  21.327  1.00  0.00     0.189 HD
HETATM   10  N4  UNL     1      82.280  98.626  19.773  1.00  0.00    -0.294 N 
HETATM   11  C11 UNL     1      81.054  99.356  19.903  1.00  0.00     0.178 C 
ENDROOT
BRANCH   6  12
HETATM   12  C8  UNL     1      84.285  94.632  16.416  1.00  0.00     0.130 C 
HETATM   13  N1  UNL     1      85.328  94.634  15.727  1.00  0.00    -0.276 N 
HETATM   14  C9  UNL     1      85.719  93.476  14.896  1.00  0.00     0.184 C 
BRANCH  13  15
HETATM   15  O2  UNL     1      86.193  95.675  15.668  1.00  0.00    -0.288 OA
ATOM     16  H2  UNL     1      86.669  95.926  14.885  1.00  0.00     0.244 HD
ENDBRANCH  13  15
ENDBRANCH   6  12
BRANCH   1  17
HETATM   17  O1  UNL     1      81.707  95.548  15.995  1.00  0.00    -0.355 OA
HETATM   18  C1  UNL     1      80.512  94.859  16.210  1.00  0.00     0.210 C 
ENDBRANCH   1  17
BRANCH   7  19
HETATM   19  N2  UNL     1      85.491  97.820  20.674  1.00  0.00    -0.384 N 
ATOM     20  H22 UNL     1      85.901  97.003  21.128  1.00  0.00     0.157 HD
ATOM     21  H21 UNL     1      86.215  98.538  20.694  1.00  0.00     0.157 HD
ENDBRANCH   7  19
TORSDOF 4
ENDMDL
MODEL 2
REMARK VINA RESULT: -5.956860358      1.699      2.175
REMARK  4 active torsions:
REMARK  status: ('A' for Active; 'I' for Inactive)
REMARK    1  A    between atoms: O1_2  and  C2_3 
REMARK    2  A    between atoms: C7_8  and  C8_9 
REMARK    3  A    between atoms: N1_10  and  O2_12 
REMARK    4  A    between atoms: C10_14  and  N2_15 
ROOT
HETATM    1  C2  UNL     1      82.335  94.837  15.412  1.00  0.00     0.082 A 
HETATM    2  C3  UNL     1      81.677  95.407  16.469  1.00  0.00     0.069 A 
HETATM    3  C4  UNL     1      82.391  95.978  17.499  1.00  0.00     0.067 A 
HETATM    4  C5  UNL     1      83.763  95.958  17.439  1.00  0.00     0.038 A 
HETATM    5  C6  UNL     1      84.415  95.373  16.356  1.00  0.00     0.033 A 
HETATM    6  C7  UNL     1      83.741  94.796  15.314  1.00  0.00     0.016 A 
HETATM    7  C10 UNL     1      84.266  96.575  18.560  1.00  0.00     0.126 A 
HETATM    8  N3  UNL     1      83.190  96.958  19.280  1.00  0.00    -0.283 N 
ATOM      9  H3  UNL     1      83.227  97.447  20.174  1.00  0.00     0.189 HD
HETATM   10  N4  UNL     1      82.085  96.607  18.655  1.00  0.00    -0.294 N 
HETATM   11  C11 UNL     1      80.764  96.863  19.147  1.00  0.00     0.178 C 
ENDROOT
BRANCH   6  12
HETATM   12  C8  UNL     1      84.335  94.169  14.156  1.00  0.00     0.130 C 
HETATM   13  N1  UNL     1      85.452  94.370  13.634  1.00  0.00    -0.276 N 
HETATM   14  C9  UNL     1      85.901  93.627  12.436  1.00  0.00     0.184 C 
BRANCH  13  15
HETATM   15  O2  UNL     1      86.353  95.271  14.095  1.00  0.00    -0.288 OA
ATOM     16  H2  UNL     1      86.958  95.099  14.807  1.00  0.00     0.244 HD
ENDBRANCH  13  15
ENDBRANCH   6  12
BRANCH   1  17
HETATM   17  O1  UNL     1      81.578  94.261  14.375  1.00  0.00    -0.355 OA
HETATM   18  C1  UNL     1      80.182  94.225  14.407  1.00  0.00     0.210 C 
ENDBRANCH   1  17
BRANCH   7  19
HETATM   19  N2  UNL     1      85.510  96.733  18.825  1.00  0.00    -0.384 N 
ATOM     20  H22 UNL     1      86.300  96.140  18.571  1.00  0.00     0.157 HD
ATOM     21  H21 UNL     1      85.908  97.510  19.353  1.00  0.00     0.157 HD
ENDBRANCH   7  19
TORSDOF 4
ENDMDL
MODEL 3
REMARK VINA RESULT: -5.926489863      2.377      3.023
REMARK  4 active torsions:
REMARK  status: ('A' for Active; 'I' for Inactive)
REMARK    1  A    between atoms: O1_2  and  C2_3 
REMARK    2  A    between atoms: C7_8  and  C8_9 
REMARK    3  A    between atoms: N1_10  and  O2_12 
REMARK    4  A    between atoms: C10_14  and  N2_15 
ROOT
HETATM    1  C2  UNL     1      82.796  93.497  15.701  1.00  0.00     0.082 A 
HETATM    2  C3  UNL     1      82.200  93.818  16.891  1.00  0.00     0.069 A 
HETATM    3  C4  UNL     1      82.827  94.676  17.767  1.00  0.00     0.067 A 
HETATM    4  C5  UNL     1      84.051  95.192  17.419  1.00  0.00     0.038 A 
HETATM    5  C6  UNL     1      84.643  94.854  16.204  1.00  0.00     0.033 A 
HETATM    6  C7  UNL     1      84.052  94.006  15.308  1.00  0.00     0.016 A 
HETATM    7  C10 UNL     1      84.490  96.015  18.430  1.00  0.00     0.126 A 
HETATM    8  N3  UNL     1      83.524  95.982  19.373  1.00  0.00    -0.283 N 
ATOM      9  H3  UNL     1      83.549  96.493  20.256  1.00  0.00     0.189 HD
HETATM   10  N4  UNL     1      82.544  95.194  18.982  1.00  0.00    -0.294 N 
HETATM   11  C11 UNL     1      81.361  94.937  19.749  1.00  0.00     0.178 C 
ENDROOT
BRANCH   6  12
HETATM   12  C8  UNL     1      84.592  93.603  14.031  1.00  0.00     0.130 C 
HETATM   13  N1  UNL     1      85.613  94.013  13.439  1.00  0.00    -0.276 N 
HETATM   14  C9  UNL     1      86.020  93.480  12.121  1.00  0.00     0.184 C 
BRANCH  13  15
HETATM   15  O2  UNL     1      86.439  94.969  13.928  1.00  0.00    -0.288 OA
ATOM     16  H2  UNL     1      86.755  95.708  13.422  1.00  0.00     0.244 HD
ENDBRANCH  13  15
ENDBRANCH   6  12
BRANCH   1  17
HETATM   17  O1  UNL     1      82.131  92.618  14.827  1.00  0.00    -0.355 OA
HETATM   18  C1  UNL     1      81.852  91.294  15.175  1.00  0.00     0.210 C 
ENDBRANCH   1  17
BRANCH   7  19
HETATM   19  N2  UNL     1      85.597  96.661  18.434  1.00  0.00    -0.384 N 
ATOM     20  H22 UNL     1      86.258  96.794  19.199  1.00  0.00     0.157 HD
ATOM     21  H21 UNL     1      85.994  97.159  17.638  1.00  0.00     0.157 HD
ENDBRANCH   7  19
TORSDOF 4
ENDMDL
MODEL 4
REMARK VINA RESULT: -5.814269298      1.578      1.578
REMARK  4 active torsions:
REMARK  status: ('A' for Active; 'I' for Inactive)
REMARK    1  A    between atoms: O1_2  and  C2_3 
REMARK    2  A    between atoms: C7_8  and  C8_9 
REMARK    3  A    between atoms: N1_10  and  O2_12 
REMARK    4  A    between atoms: C10_14  and  N2_15 
ROOT
HETATM    1  C2  UNL     1      83.115  95.056  18.244  1.00  0.00     0.082 A 
HETATM    2  C3  UNL     1      82.450  95.566  19.327  1.00  0.00     0.069 A 
HETATM    3  C4  UNL     1      82.974  96.636  20.018  1.00  0.00     0.067 A 
HETATM    4  C5  UNL     1      84.167  97.169  19.597  1.00  0.00     0.038 A 
HETATM    5  C6  UNL     1      84.830  96.637  18.493  1.00  0.00     0.033 A 
HETATM    6  C7  UNL     1      84.342  95.576  17.781  1.00  0.00     0.016 A 
HETATM    7  C10 UNL     1      84.501  98.217  20.423  1.00  0.00     0.126 A 
HETATM    8  N3  UNL     1      83.504  98.300  21.330  1.00  0.00    -0.283 N 
ATOM      9  H3  UNL     1      83.455  98.982  22.087  1.00  0.00     0.189 HD
HETATM   10  N4  UNL     1      82.604  97.368  21.091  1.00  0.00    -0.294 N 
HETATM   11  C11 UNL     1      81.415  97.177  21.868  1.00  0.00     0.178 C 
ENDROOT
BRANCH   6  12
HETATM   12  C8  UNL     1      84.961  94.964  16.630  1.00  0.00     0.130 C 
HETATM   13  N1  UNL     1      84.815  95.231  15.418  1.00  0.00    -0.276 N 
HETATM   14  C9  UNL     1      85.538  94.491  14.361  1.00  0.00     0.184 C 
BRANCH  13  15
HETATM   15  O2  UNL     1      83.995  96.203  14.950  1.00  0.00    -0.288 OA
ATOM     16  H2  UNL     1      83.878  96.400  14.028  1.00  0.00     0.244 HD
ENDBRANCH  13  15
ENDBRANCH   6  12
BRANCH   1  17
HETATM   17  O1  UNL     1      82.554  93.963  17.559  1.00  0.00    -0.355 OA
HETATM   18  C1  UNL     1      81.343  94.060  16.870  1.00  0.00     0.210 C 
ENDBRANCH   1  17
BRANCH   7  19
HETATM   19  N2  UNL     1      85.553  98.941  20.316  1.00  0.00    -0.384 N 
ATOM     20  H22 UNL     1      85.628  99.955  20.231  1.00  0.00     0.157 HD
ATOM     21  H21 UNL     1      86.511  98.592  20.299  1.00  0.00     0.157 HD
ENDBRANCH   7  19
TORSDOF 4
ENDMDL
MODEL 5
REMARK VINA RESULT: -5.686755829      4.321      6.374
REMARK  4 active torsions:
REMARK  status: ('A' for Active; 'I' for Inactive)
REMARK    1  A    between atoms: O1_2  and  C2_3 
REMARK    2  A    between atoms: C7_8  and  C8_9 
REMARK    3  A    between atoms: N1_10  and  O2_12 
REMARK    4  A    between atoms: C10_14  and  N2_15 
ROOT
HETATM    1  C2  UNL     1      82.335  92.372  15.252  1.00  0.00     0.082 A 
HETATM    2  C3  UNL     1      83.142  93.328  15.807  1.00  0.00     0.069 A 
HETATM    3  C4  UNL     1      84.148  93.901  15.060  1.00  0.00     0.067 A 
HETATM    4  C5  UNL     1      84.316  93.491  13.761  1.00  0.00     0.038 A 
HETATM    5  C6  UNL     1      83.486  92.517  13.213  1.00  0.00     0.033 A 
HETATM    6  C7  UNL     1      82.477  91.925  13.922  1.00  0.00     0.016 A 
HETATM    7  C10 UNL     1      85.367  94.187  13.208  1.00  0.00     0.126 A 
HETATM    8  N3  UNL     1      85.815  95.006  14.184  1.00  0.00    -0.283 N 
ATOM      9  H3  UNL     1      86.594  95.657  14.089  1.00  0.00     0.189 HD
HETATM   10  N4  UNL     1      85.097  94.838  15.275  1.00  0.00    -0.294 N 
HETATM   11  C11 UNL     1      85.309  95.554  16.498  1.00  0.00     0.178 C 
ENDROOT
BRANCH   6  12
HETATM   12  C8  UNL     1      81.572  90.910  13.434  1.00  0.00     0.130 C 
HETATM   13  N1  UNL     1      80.562  91.033  12.709  1.00  0.00    -0.276 N 
HETATM   14  C9  UNL     1      79.744  89.870  12.304  1.00  0.00     0.184 C 
BRANCH  13  15
HETATM   15  O2  UNL     1      80.116  92.218  12.228  1.00  0.00    -0.288 OA
ATOM     16  H2  UNL     1      80.389  93.065  12.564  1.00  0.00     0.244 HD
ENDBRANCH  13  15
ENDBRANCH   6  12
BRANCH   1  17
HETATM   17  O1  UNL     1      81.317  91.805  16.041  1.00  0.00    -0.355 OA
HETATM   18  C1  UNL     1      80.448  92.587  16.805  1.00  0.00     0.210 C 
ENDBRANCH   1  17
BRANCH   7  19
HETATM   19  N2  UNL     1      85.796  94.053  12.009  1.00  0.00    -0.384 N 
ATOM     20  H22 UNL     1      85.264  93.981  11.142  1.00  0.00     0.157 HD
ATOM     21  H21 UNL     1      86.777  93.996  11.735  1.00  0.00     0.157 HD
ENDBRANCH   7  19
TORSDOF 4
ENDMDL
