MODEL 1
REMARK VINA RESULT: -6.759524201      0.000      0.000
REMARK  5 active torsions:
REMARK  status: ('A' for Active; 'I' for Inactive)
REMARK    1  A    between atoms: C2_2  and  N1_3 
REMARK    2  A    between atoms: N1_3  and  C3_5 
REMARK    3  A    between atoms: C5_9  and  N3_10 
REMARK    4  A    between atoms: N3_10  and  C6_12 
REMARK    5  A    between atoms: N7_22  and  O1_23 
ROOT
HETATM    1  C3  UNL     1      85.017  95.919  17.709  1.00  0.00     0.720 A 
HETATM    2  N2  UNL     1      83.974  95.072  17.779  1.00  0.00    -0.195 N 
ATOM      3  H2  UNL     1      83.368  95.064  18.599  1.00  0.00     0.183 HD
HETATM    4  C4  UNL     1      83.741  94.236  16.751  1.00  0.00     0.156 A 
HETATM    5  C5  UNL     1      84.538  94.212  15.616  1.00  0.00     0.140 A 
HETATM    6  N6  UNL     1      85.569  95.077  15.589  1.00  0.00    -0.242 N 
ATOM      7  H6  UNL     1      86.183  95.099  14.775  1.00  0.00     0.192 HD
HETATM    8  N7  UNL     1      85.800  95.900  16.599  1.00  0.00     0.018 N 
ENDROOT
BRANCH   5   9
HETATM    9  N3  UNL     1      84.271  93.315  14.536  1.00  0.00    -0.325 N 
ATOM     10  H3  UNL     1      84.940  92.597  14.258  1.00  0.00     0.169 HD
BRANCH   9  11
HETATM   11  C6  UNL     1      83.141  93.457  13.930  1.00  0.00     0.123 A 
HETATM   12  C7  UNL     1      82.329  92.369  13.605  1.00  0.00     0.075 A 
HETATM   13  C8  UNL     1      81.224  92.914  12.974  1.00  0.00     0.025 A 
HETATM   14  C9  UNL     1      80.090  92.113  12.454  1.00  0.00     0.070 C 
HETATM   15  N4  UNL     1      81.369  94.246  12.926  1.00  0.00    -0.304 N 
HETATM   16  N5  UNL     1      82.511  94.552  13.497  1.00  0.00    -0.285 N 
ATOM     17  H4  UNL     1      80.707  94.907  12.518  1.00  0.00     0.186 HD
ATOM     18  H5  UNL     1      82.870  95.502  13.597  1.00  0.00     0.188 HD
ENDBRANCH   9  11
ENDBRANCH   5   9
BRANCH   8  19
HETATM   19  O1  UNL     1      86.874  96.785  16.548  1.00  0.00    -0.254 OA
ATOM     20  H1  UNL     1      87.499  96.764  17.263  1.00  0.00     0.247 HD
ENDBRANCH   8  19
BRANCH   1  21
HETATM   21  N1  UNL     1      85.307  96.751  18.649  1.00  0.00    -0.223 N 
ATOM     22  H1  UNL     1      86.279  97.020  18.803  1.00  0.00     0.177 HD
BRANCH  21  23
HETATM   23  C2  UNL     1      84.279  97.298  19.478  1.00  0.00     0.134 C 
HETATM   24  C1  UNL     1      84.929  98.265  20.473  1.00  0.00     0.027 C 
ENDBRANCH  21  23
ENDBRANCH   1  21
TORSDOF 5
ENDMDL
MODEL 2
REMARK VINA RESULT: -6.755296424      2.330      6.435
REMARK  5 active torsions:
REMARK  status: ('A' for Active; 'I' for Inactive)
REMARK    1  A    between atoms: C2_2  and  N1_3 
REMARK    2  A    between atoms: N1_3  and  C3_5 
REMARK    3  A    between atoms: C5_9  and  N3_10 
REMARK    4  A    between atoms: N3_10  and  C6_12 
REMARK    5  A    between atoms: N7_22  and  O1_23 
ROOT
HETATM    1  C3  UNL     1      84.840  95.104  15.511  1.00  0.00     0.720 A 
HETATM    2  N2  UNL     1      83.660  94.561  15.863  1.00  0.00    -0.195 N 
ATOM      3  H2  UNL     1      83.116  94.025  15.188  1.00  0.00     0.183 HD
HETATM    4  C4  UNL     1      83.209  94.735  17.118  1.00  0.00     0.156 A 
HETATM    5  C5  UNL     1      83.916  95.456  18.070  1.00  0.00     0.140 A 
HETATM    6  N6  UNL     1      85.091  95.980  17.674  1.00  0.00    -0.242 N 
ATOM      7  H6  UNL     1      85.648  96.517  18.338  1.00  0.00     0.192 HD
HETATM    8  N7  UNL     1      85.536  95.811  16.440  1.00  0.00     0.018 N 
ENDROOT
BRANCH   5   9
HETATM    9  N3  UNL     1      83.416  95.628  19.398  1.00  0.00    -0.325 N 
ATOM     10  H3  UNL     1      83.046  94.844  19.935  1.00  0.00     0.169 HD
BRANCH   9  11
HETATM   11  C6  UNL     1      83.456  96.822  19.883  1.00  0.00     0.123 A 
HETATM   12  C7  UNL     1      82.316  97.619  19.989  1.00  0.00     0.075 A 
HETATM   13  C8  UNL     1      82.753  98.810  20.544  1.00  0.00     0.025 A 
HETATM   14  C9  UNL     1      81.866  99.960  20.840  1.00  0.00     0.070 C 
HETATM   15  N4  UNL     1      84.074  98.726  20.756  1.00  0.00    -0.304 N 
HETATM   16  N5  UNL     1      84.476  97.542  20.358  1.00  0.00    -0.285 N 
ATOM     17  H4  UNL     1      84.664  99.455  21.157  1.00  0.00     0.186 HD
ATOM     18  H5  UNL     1      85.441  97.213  20.405  1.00  0.00     0.188 HD
ENDBRANCH   9  11
ENDBRANCH   5   9
BRANCH   8  19
HETATM   19  O1  UNL     1      86.755  96.363  16.054  1.00  0.00    -0.254 OA
ATOM     20  H1  UNL     1      86.968  97.231  16.376  1.00  0.00     0.247 HD
ENDBRANCH   8  19
BRANCH   1  21
HETATM   21  N1  UNL     1      85.342  94.984  14.331  1.00  0.00    -0.223 N 
ATOM     22  H1  UNL     1      86.128  95.572  14.053  1.00  0.00     0.177 HD
BRANCH  21  23
HETATM   23  C2  UNL     1      84.806  94.032  13.407  1.00  0.00     0.134 C 
HETATM   24  C1  UNL     1      85.885  93.715  12.366  1.00  0.00     0.027 C 
ENDBRANCH  21  23
ENDBRANCH   1  21
TORSDOF 5
ENDMDL
MODEL 3
REMARK VINA RESULT: -6.434507267      2.698      7.470
REMARK  5 active torsions:
REMARK  status: ('A' for Active; 'I' for Inactive)
REMARK    1  A    between atoms: C2_2  and  N1_3 
REMARK    2  A    between atoms: N1_3  and  C3_5 
REMARK    3  A    between atoms: C5_9  and  N3_10 
REMARK    4  A    between atoms: N3_10  and  C6_12 
REMARK    5  A    between atoms: N7_22  and  O1_23 
ROOT
HETATM    1  C3  UNL     1      85.002  95.429  16.869  1.00  0.00     0.720 A 
HETATM    2  N2  UNL     1      83.818  95.114  17.424  1.00  0.00    -0.195 N 
ATOM      3  H2  UNL     1      83.247  94.364  17.035  1.00  0.00     0.183 HD
HETATM    4  C4  UNL     1      83.396  95.803  18.500  1.00  0.00     0.156 A 
HETATM    5  C5  UNL     1      84.138  96.832  19.062  1.00  0.00     0.140 A 
HETATM    6  N6  UNL     1      85.316  97.112  18.475  1.00  0.00    -0.242 N 
ATOM      7  H6  UNL     1      85.899  97.859  18.853  1.00  0.00     0.192 HD
HETATM    8  N7  UNL     1      85.732  96.436  17.417  1.00  0.00     0.018 N 
ENDROOT
BRANCH   5   9
HETATM    9  N3  UNL     1      83.669  97.550  20.206  1.00  0.00    -0.325 N 
ATOM     10  H3  UNL     1      82.680  97.756  20.340  1.00  0.00     0.169 HD
BRANCH   9  11
HETATM   11  C6  UNL     1      84.561  97.925  21.060  1.00  0.00     0.123 A 
HETATM   12  C7  UNL     1      84.527  97.519  22.395  1.00  0.00     0.075 A 
HETATM   13  C8  UNL     1      85.628  98.117  22.986  1.00  0.00     0.025 A 
HETATM   14  C9  UNL     1      85.988  97.958  24.414  1.00  0.00     0.070 C 
HETATM   15  N4  UNL     1      86.277  98.834  22.057  1.00  0.00    -0.304 N 
HETATM   16  N5  UNL     1      85.631  98.710  20.922  1.00  0.00    -0.285 N 
ATOM     17  H4  UNL     1      87.126  99.381  22.208  1.00  0.00     0.186 HD
ATOM     18  H5  UNL     1      85.911  99.155  20.047  1.00  0.00     0.188 HD
ENDBRANCH   9  11
ENDBRANCH   5   9
BRANCH   8  19
HETATM   19  O1  UNL     1      86.955  96.745  16.826  1.00  0.00    -0.254 OA
ATOM     20  H1  UNL     1      86.997  96.758  15.877  1.00  0.00     0.247 HD
ENDBRANCH   8  19
BRANCH   1  21
HETATM   21  N1  UNL     1      85.477  94.819  15.839  1.00  0.00    -0.223 N 
ATOM     22  H1  UNL     1      86.349  94.296  15.918  1.00  0.00     0.177 HD
BRANCH  21  23
HETATM   23  C2  UNL     1      84.791  94.868  14.585  1.00  0.00     0.134 C 
HETATM   24  C1  UNL     1      85.486  93.902  13.620  1.00  0.00     0.027 C 
ENDBRANCH  21  23
ENDBRANCH   1  21
TORSDOF 5
ENDMDL
MODEL 4
REMARK VINA RESULT: -6.371826829      2.379      6.258
REMARK  5 active torsions:
REMARK  status: ('A' for Active; 'I' for Inactive)
REMARK    1  A    between atoms: C2_2  and  N1_3 
REMARK    2  A    between atoms: N1_3  and  C3_5 
REMARK    3  A    between atoms: C5_9  and  N3_10 
REMARK    4  A    between atoms: N3_10  and  C6_12 
REMARK    5  A    between atoms: N7_22  and  O1_23 
ROOT
HETATM    1  C3  UNL     1      84.942  94.921  15.564  1.00  0.00     0.720 A 
HETATM    2  N2  UNL     1      83.789  94.335  15.933  1.00  0.00    -0.195 N 
ATOM      3  H2  UNL     1      83.297  93.713  15.292  1.00  0.00     0.183 HD
HETATM    4  C4  UNL     1      83.293  94.582  17.158  1.00  0.00     0.156 A 
HETATM    5  C5  UNL     1      83.927  95.421  18.063  1.00  0.00     0.140 A 
HETATM    6  N6  UNL     1      85.079  95.985  17.652  1.00  0.00    -0.242 N 
ATOM      7  H6  UNL     1      85.584  96.608  18.281  1.00  0.00     0.192 HD
HETATM    8  N7  UNL     1      85.567  95.743  16.446  1.00  0.00     0.018 N 
ENDROOT
BRANCH   5   9
HETATM    9  N3  UNL     1      83.381  95.668  19.361  1.00  0.00    -0.325 N 
ATOM     10  H3  UNL     1      83.431  94.971  20.103  1.00  0.00     0.169 HD
BRANCH   9  11
HETATM   11  C6  UNL     1      82.823  96.816  19.545  1.00  0.00     0.123 A 
HETATM   12  C7  UNL     1      82.729  97.402  20.809  1.00  0.00     0.075 A 
HETATM   13  C8  UNL     1      82.077  98.606  20.605  1.00  0.00     0.025 A 
HETATM   14  C9  UNL     1      81.761  99.569  21.687  1.00  0.00     0.070 C 
HETATM   15  N4  UNL     1      81.800  98.729  19.299  1.00  0.00    -0.304 N 
HETATM   16  N5  UNL     1      82.248  97.660  18.685  1.00  0.00    -0.285 N 
ATOM     17  H4  UNL     1      81.324  99.517  18.860  1.00  0.00     0.186 HD
ATOM     18  H5  UNL     1      82.168  97.494  17.681  1.00  0.00     0.188 HD
ENDBRANCH   9  11
ENDBRANCH   5   9
BRANCH   8  19
HETATM   19  O1  UNL     1      86.760  96.339  16.044  1.00  0.00    -0.254 OA
ATOM     20  H1  UNL     1      86.899  96.466  15.113  1.00  0.00     0.247 HD
ENDBRANCH   8  19
BRANCH   1  21
HETATM   21  N1  UNL     1      85.483  94.737  14.409  1.00  0.00    -0.223 N 
ATOM     22  H1  UNL     1      86.319  95.262  14.153  1.00  0.00     0.177 HD
BRANCH  21  23
HETATM   23  C2  UNL     1      84.921  93.803  13.484  1.00  0.00     0.134 C 
HETATM   24  C1  UNL     1      85.897  93.639  12.315  1.00  0.00     0.027 C 
ENDBRANCH  21  23
ENDBRANCH   1  21
TORSDOF 5
ENDMDL
MODEL 5
REMARK VINA RESULT: -6.356343618      1.125      1.324
REMARK  5 active torsions:
REMARK  status: ('A' for Active; 'I' for Inactive)
REMARK    1  A    between atoms: C2_2  and  N1_3 
REMARK    2  A    between atoms: N1_3  and  C3_5 
REMARK    3  A    between atoms: C5_9  and  N3_10 
REMARK    4  A    between atoms: N3_10  and  C6_12 
REMARK    5  A    between atoms: N7_22  and  O1_23 
ROOT
HETATM    1  C3  UNL     1      84.785  95.878  17.347  1.00  0.00     0.720 A 
HETATM    2  N2  UNL     1      83.622  95.240  17.121  1.00  0.00    -0.195 N 
ATOM      3  H2  UNL     1      82.933  95.142  17.866  1.00  0.00     0.183 HD
HETATM    4  C4  UNL     1      83.382  94.734  15.899  1.00  0.00     0.156 A 
HETATM    5  C5  UNL     1      84.290  94.843  14.856  1.00  0.00     0.140 A 
HETATM    6  N6  UNL     1      85.439  95.489  15.126  1.00  0.00    -0.242 N 
ATOM      7  H6  UNL     1      86.138  95.597  14.392  1.00  0.00     0.192 HD
HETATM    8  N7  UNL     1      85.678  95.988  16.329  1.00  0.00     0.018 N 
ENDROOT
BRANCH   5   9
HETATM    9  N3  UNL     1      84.011  94.296  13.564  1.00  0.00    -0.325 N 
ATOM     10  H3  UNL     1      84.479  94.640  12.726  1.00  0.00     0.169 HD
BRANCH   9  11
HETATM   11  C6  UNL     1      83.138  93.348  13.513  1.00  0.00     0.123 A 
HETATM   12  C7  UNL     1      83.392  92.076  14.027  1.00  0.00     0.075 A 
HETATM   13  C8  UNL     1      82.239  91.349  13.788  1.00  0.00     0.025 A 
HETATM   14  C9  UNL     1      82.062  89.929  14.174  1.00  0.00     0.070 C 
HETATM   15  N4  UNL     1      81.352  92.141  13.169  1.00  0.00    -0.304 N 
HETATM   16  N5  UNL     1      81.901  93.322  13.012  1.00  0.00    -0.285 N 
ATOM     17  H4  UNL     1      80.414  91.871  12.871  1.00  0.00     0.186 HD
ATOM     18  H5  UNL     1      81.442  94.118  12.567  1.00  0.00     0.188 HD
ENDBRANCH   9  11
ENDBRANCH   5   9
BRANCH   8  19
HETATM   19  O1  UNL     1      86.875  96.652  16.585  1.00  0.00    -0.254 OA
ATOM     20  H1  UNL     1      87.372  96.969  15.841  1.00  0.00     0.247 HD
ENDBRANCH   8  19
BRANCH   1  21
HETATM   21  N1  UNL     1      85.092  96.391  18.488  1.00  0.00    -0.223 N 
ATOM     22  H1  UNL     1      86.046  96.306  18.841  1.00  0.00     0.177 HD
BRANCH  21  23
HETATM   23  C2  UNL     1      84.107  97.079  19.264  1.00  0.00     0.134 C 
HETATM   24  C1  UNL     1      84.832  97.995  20.255  1.00  0.00     0.027 C 
ENDBRANCH  21  23
ENDBRANCH   1  21
TORSDOF 5
ENDMDL
