MODEL 1
REMARK VINA RESULT: -6.828861590      0.000      0.000
REMARK  3 active torsions:
REMARK  status: ('A' for Active; 'I' for Inactive)
REMARK    1  A    between atoms: O1_2  and  C2_3 
REMARK    2  A    between atoms: C5_12  and  O2_13 
REMARK    3  A    between atoms: C5_12  and  C6_15 
ROOT
HETATM    1  C2  UNL     1      83.913  96.218  18.065  1.00  0.00     0.186 A 
HETATM    2  N1  UNL     1      82.663  96.479  17.718  1.00  0.00    -0.278 N 
ATOM      3  H1  UNL     1      82.169  95.998  16.966  1.00  0.00     0.189 HD
HETATM    4  N2  UNL     1      82.126  97.433  18.459  1.00  0.00    -0.296 N 
ATOM      5  H2  UNL     1      81.179  97.805  18.380  1.00  0.00     0.187 HD
HETATM    6  C3  UNL     1      83.084  97.824  19.349  1.00  0.00     0.086 A 
HETATM    7  C4  UNL     1      84.222  97.076  19.125  1.00  0.00     0.112 A 
HETATM    8  N3  UNL     1      85.150  97.420  19.950  1.00  0.00    -0.344 N 
ATOM      9  H3  UNL     1      86.086  97.015  19.987  1.00  0.00     0.163 HD
HETATM   10  C5  UNL     1      84.660  98.468  20.812  1.00  0.00     0.203 A 
HETATM   11  C11 UNL     1      83.280  98.671  20.341  1.00  0.00     0.008 A 
HETATM   12  C12 UNL     1      82.249  99.627  20.837  1.00  0.00     0.051 C 
ENDROOT
BRANCH  10  13
HETATM   13  O2  UNL     1      85.463  99.592  20.578  1.00  0.00    -0.362 OA
ATOM     14  H2  UNL     1      85.979  99.729  21.364  1.00  0.00     0.213 HD
ENDBRANCH  10  13
BRANCH  10  15
HETATM   15  C6  UNL     1      84.734  98.033  22.227  1.00  0.00     0.069 A 
HETATM   16  C7  UNL     1      85.883  98.295  22.962  1.00  0.00     0.030 A 
HETATM   17  C8  UNL     1      86.016  97.919  24.281  1.00  0.00     0.003 A 
HETATM   18  C9  UNL     1      84.948  97.254  24.873  1.00  0.00     0.017 A 
HETATM   19  C10 UNL     1      83.821  97.009  24.113  1.00  0.00     0.088 A 
HETATM   20  N4  UNL     1      83.743  97.398  22.831  1.00  0.00    -0.365 N 
ATOM     21  H4  UNL     1      82.892  97.198  22.305  1.00  0.00     0.165 HD
ENDBRANCH  10  15
BRANCH   1  22
HETATM   22  O1  UNL     1      84.813  95.291  17.534  1.00  0.00    -0.338 OA
HETATM   23  C1  UNL     1      84.999  95.252  16.126  1.00  0.00     0.211 C 
ENDBRANCH   1  22
TORSDOF 3
ENDMDL
MODEL 2
REMARK VINA RESULT: -6.253464606      3.798      8.057
REMARK  3 active torsions:
REMARK  status: ('A' for Active; 'I' for Inactive)
REMARK    1  A    between atoms: O1_2  and  C2_3 
REMARK    2  A    between atoms: C5_12  and  O2_13 
REMARK    3  A    between atoms: C5_12  and  C6_15 
ROOT
HETATM    1  C2  UNL     1      83.037  96.353  17.719  1.00  0.00     0.186 A 
HETATM    2  N1  UNL     1      84.027  95.993  18.522  1.00  0.00    -0.278 N 
ATOM      3  H1  UNL     1      84.142  96.341  19.474  1.00  0.00     0.189 HD
HETATM    4  N2  UNL     1      84.848  95.131  17.949  1.00  0.00    -0.296 N 
ATOM      5  H2  UNL     1      85.679  94.712  18.366  1.00  0.00     0.187 HD
HETATM    6  C3  UNL     1      84.368  94.910  16.690  1.00  0.00     0.086 A 
HETATM    7  C4  UNL     1      83.228  95.667  16.516  1.00  0.00     0.112 A 
HETATM    8  N3  UNL     1      82.748  95.483  15.335  1.00  0.00    -0.344 N 
ATOM      9  H3  UNL     1      81.908  95.929  14.964  1.00  0.00     0.163 HD
HETATM   10  C5  UNL     1      83.581  94.548  14.619  1.00  0.00     0.203 A 
HETATM   11  C11 UNL     1      84.632  94.220  15.596  1.00  0.00     0.008 A 
HETATM   12  C12 UNL     1      85.797  93.301  15.452  1.00  0.00     0.051 C 
ENDROOT
BRANCH  10  13
HETATM   13  O2  UNL     1      84.094  95.230  13.509  1.00  0.00    -0.362 OA
ATOM     14  H2  UNL     1      85.003  94.968  13.422  1.00  0.00     0.213 HD
ENDBRANCH  10  13
BRANCH  10  15
HETATM   15  C6  UNL     1      82.780  93.369  14.210  1.00  0.00     0.069 A 
HETATM   16  C7  UNL     1      82.777  92.235  15.012  1.00  0.00     0.030 A 
HETATM   17  C8  UNL     1      82.054  91.107  14.691  1.00  0.00     0.003 A 
HETATM   18  C9  UNL     1      81.312  91.130  13.515  1.00  0.00     0.017 A 
HETATM   19  C10 UNL     1      81.339  92.274  12.740  1.00  0.00     0.088 A 
HETATM   20  N4  UNL     1      82.060  93.347  13.101  1.00  0.00    -0.365 N 
ATOM     21  H4  UNL     1      82.052  94.171  12.501  1.00  0.00     0.165 HD
ENDBRANCH  10  15
BRANCH   1  22
HETATM   22  O1  UNL     1      81.977  97.234  17.947  1.00  0.00    -0.338 OA
HETATM   23  C1  UNL     1      82.046  98.107  19.067  1.00  0.00     0.211 C 
ENDBRANCH   1  22
TORSDOF 3
ENDMDL
MODEL 3
REMARK VINA RESULT: -6.200189729      3.519      7.883
REMARK  3 active torsions:
REMARK  status: ('A' for Active; 'I' for Inactive)
REMARK    1  A    between atoms: O1_2  and  C2_3 
REMARK    2  A    between atoms: C5_12  and  O2_13 
REMARK    3  A    between atoms: C5_12  and  C6_15 
ROOT
HETATM    1  C2  UNL     1      83.165  96.523  17.969  1.00  0.00     0.186 A 
HETATM    2  N1  UNL     1      84.249  96.177  18.645  1.00  0.00    -0.278 N 
ATOM      3  H1  UNL     1      84.482  96.538  19.571  1.00  0.00     0.189 HD
HETATM    4  N2  UNL     1      84.997  95.311  17.984  1.00  0.00    -0.296 N 
ATOM      5  H2  UNL     1      85.877  94.901  18.299  1.00  0.00     0.187 HD
HETATM    6  C3  UNL     1      84.364  95.071  16.799  1.00  0.00     0.086 A 
HETATM    7  C4  UNL     1      83.207  95.821  16.760  1.00  0.00     0.112 A 
HETATM    8  N3  UNL     1      82.582  95.619  15.651  1.00  0.00    -0.344 N 
ATOM      9  H3  UNL     1      81.701  96.057  15.383  1.00  0.00     0.163 HD
HETATM   10  C5  UNL     1      83.324  94.678  14.849  1.00  0.00     0.203 A 
HETATM   11  C11 UNL     1      84.492  94.368  15.690  1.00  0.00     0.008 A 
HETATM   12  C12 UNL     1      85.635  93.451  15.412  1.00  0.00     0.051 C 
ENDROOT
BRANCH  10  13
HETATM   13  O2  UNL     1      83.690  95.347  13.674  1.00  0.00    -0.362 OA
ATOM     14  H2  UNL     1      84.601  95.135  13.509  1.00  0.00     0.213 HD
ENDBRANCH  10  13
BRANCH  10  15
HETATM   15  C6  UNL     1      82.485  93.490  14.558  1.00  0.00     0.069 A 
HETATM   16  C7  UNL     1      82.058  93.260  13.257  1.00  0.00     0.030 A 
HETATM   17  C8  UNL     1      81.278  92.176  12.918  1.00  0.00     0.003 A 
HETATM   18  C9  UNL     1      80.918  91.298  13.935  1.00  0.00     0.017 A 
HETATM   19  C10 UNL     1      81.360  91.558  15.218  1.00  0.00     0.088 A 
HETATM   20  N4  UNL     1      82.120  92.629  15.493  1.00  0.00    -0.365 N 
ATOM     21  H4  UNL     1      82.425  92.784  16.453  1.00  0.00     0.165 HD
ENDBRANCH  10  15
BRANCH   1  22
HETATM   22  O1  UNL     1      82.137  97.402  18.317  1.00  0.00    -0.338 OA
HETATM   23  C1  UNL     1      82.308  98.232  19.458  1.00  0.00     0.211 C 
ENDBRANCH   1  22
TORSDOF 3
ENDMDL
MODEL 4
REMARK VINA RESULT: -6.173933091      1.972      6.188
REMARK  3 active torsions:
REMARK  status: ('A' for Active; 'I' for Inactive)
REMARK    1  A    between atoms: O1_2  and  C2_3 
REMARK    2  A    between atoms: C5_12  and  O2_13 
REMARK    3  A    between atoms: C5_12  and  C6_15 
ROOT
HETATM    1  C2  UNL     1      84.494  97.875  20.189  1.00  0.00     0.186 A 
HETATM    2  N1  UNL     1      83.589  98.841  20.239  1.00  0.00    -0.278 N 
ATOM      3  H1  UNL     1      83.699  99.695  20.785  1.00  0.00     0.189 HD
HETATM    4  N2  UNL     1      82.528  98.572  19.498  1.00  0.00    -0.296 N 
ATOM      5  H2  UNL     1      81.704  99.161  19.378  1.00  0.00     0.187 HD
HETATM    6  C3  UNL     1      82.749  97.352  18.926  1.00  0.00     0.086 A 
HETATM    7  C4  UNL     1      83.979  96.888  19.343  1.00  0.00     0.112 A 
HETATM    8  N3  UNL     1      84.220  95.735  18.821  1.00  0.00    -0.344 N 
ATOM      9  H3  UNL     1      85.065  95.184  18.974  1.00  0.00     0.163 HD
HETATM   10  C5  UNL     1      83.111  95.346  17.985  1.00  0.00     0.203 A 
HETATM   11  C11 UNL     1      82.181  96.480  18.115  1.00  0.00     0.008 A 
HETATM   12  C12 UNL     1      80.843  96.675  17.486  1.00  0.00     0.051 C 
ENDROOT
BRANCH  10  13
HETATM   13  O2  UNL     1      82.582  94.171  18.536  1.00  0.00    -0.362 OA
ATOM     14  H2  UNL     1      83.021  94.037  19.368  1.00  0.00     0.213 HD
ENDBRANCH  10  13
BRANCH  10  15
HETATM   15  C6  UNL     1      83.577  95.132  16.594  1.00  0.00     0.069 A 
HETATM   16  C7  UNL     1      82.659  94.768  15.617  1.00  0.00     0.030 A 
HETATM   17  C8  UNL     1      83.024  94.555  14.306  1.00  0.00     0.003 A 
HETATM   18  C9  UNL     1      84.366  94.715  13.976  1.00  0.00     0.017 A 
HETATM   19  C10 UNL     1      85.251  95.076  14.973  1.00  0.00     0.088 A 
HETATM   20  N4  UNL     1      84.842  95.273  16.236  1.00  0.00    -0.365 N 
ATOM     21  H4  UNL     1      85.527  95.540  16.941  1.00  0.00     0.165 HD
ENDBRANCH  10  15
BRANCH   1  22
HETATM   22  O1  UNL     1      85.735  97.780  20.822  1.00  0.00    -0.338 OA
HETATM   23  C1  UNL     1      85.837  98.173  22.185  1.00  0.00     0.211 C 
ENDBRANCH   1  22
TORSDOF 3
ENDMDL
MODEL 5
REMARK VINA RESULT: -6.150501710      3.364      5.392
REMARK  3 active torsions:
REMARK  status: ('A' for Active; 'I' for Inactive)
REMARK    1  A    between atoms: O1_2  and  C2_3 
REMARK    2  A    between atoms: C5_12  and  O2_13 
REMARK    3  A    between atoms: C5_12  and  C6_15 
ROOT
HETATM    1  C2  UNL     1      83.171  94.668  14.055  1.00  0.00     0.186 A 
HETATM    2  N1  UNL     1      84.393  94.938  13.621  1.00  0.00    -0.278 N 
ATOM      3  H1  UNL     1      84.694  94.813  12.655  1.00  0.00     0.189 HD
HETATM    4  N2  UNL     1      85.178  95.389  14.584  1.00  0.00    -0.296 N 
ATOM      5  H2  UNL     1      86.157  95.662  14.494  1.00  0.00     0.187 HD
HETATM    6  C3  UNL     1      84.426  95.417  15.723  1.00  0.00     0.086 A 
HETATM    7  C4  UNL     1      83.156  94.968  15.421  1.00  0.00     0.112 A 
HETATM    8  N3  UNL     1      82.417  94.982  16.476  1.00  0.00    -0.344 N 
ATOM      9  H3  UNL     1      81.438  94.697  16.513  1.00  0.00     0.163 HD
HETATM   10  C5  UNL     1      83.188  95.463  17.595  1.00  0.00     0.203 A 
HETATM   11  C11 UNL     1      84.509  95.728  17.002  1.00  0.00     0.008 A 
HETATM   12  C12 UNL     1      85.746  96.245  17.655  1.00  0.00     0.051 C 
ENDROOT
BRANCH  10  13
HETATM   13  O2  UNL     1      83.235  94.422  18.532  1.00  0.00    -0.362 OA
ATOM     14  H2  UNL     1      82.959  94.789  19.363  1.00  0.00     0.213 HD
ENDBRANCH  10  13
BRANCH  10  15
HETATM   15  C6  UNL     1      82.552  96.676  18.163  1.00  0.00     0.069 A 
HETATM   16  C7  UNL     1      81.455  97.235  17.519  1.00  0.00     0.030 A 
HETATM   17  C8  UNL     1      80.816  98.360  17.993  1.00  0.00     0.003 A 
HETATM   18  C9  UNL     1      81.309  98.938  19.159  1.00  0.00     0.017 A 
HETATM   19  C10 UNL     1      82.402  98.356  19.772  1.00  0.00     0.088 A 
HETATM   20  N4  UNL     1      82.986  97.259  19.268  1.00  0.00    -0.365 N 
ATOM     21  H4  UNL     1      83.790  96.861  19.752  1.00  0.00     0.165 HD
ENDBRANCH  10  15
BRANCH   1  22
HETATM   22  O1  UNL     1      82.064  94.180  13.359  1.00  0.00    -0.338 OA
HETATM   23  C1  UNL     1      82.025  92.800  13.022  1.00  0.00     0.211 C 
ENDBRANCH   1  22
TORSDOF 3
ENDMDL
