MODEL 1
REMARK VINA RESULT: -9.000281286      0.000      0.000
REMARK  10 active torsions:
REMARK  status: ('A' for Active; 'I' for Inactive)
REMARK    1  A    between atoms: C2_2  and  O1_3 
REMARK    2  A    between atoms: C2_2  and  C3_5 
REMARK    3  A    between atoms: C3_5  and  N1_6 
REMARK    4  A    between atoms: C5_8  and  C6_9 
REMARK    5  A    between atoms: C6_9  and  C7_10 
REMARK    6  A    between atoms: C8_15  and  C9_16 
REMARK    7  A    between atoms: C9_16  and  N4_17 
REMARK    8  A    between atoms: C12_22  and  N6_23 
REMARK    9  A    between atoms: C13_28  and  N8_29 
REMARK   10  A    between atoms: C14_36  and  N12_37 
ROOT
HETATM    1  N4  UNL     1      18.357  -6.688   5.028  1.00  0.00    -0.326 N 
HETATM    2  C10 UNL     1      17.157  -7.487   5.086  1.00  0.00     0.124 A 
HETATM    3  C11 UNL     1      16.063  -7.379   5.961  1.00  0.00     0.164 A 
HETATM    4  N5  UNL     1      14.984  -8.173   5.874  1.00  0.00    -0.173 N 
ATOM      5  H5  UNL     1      14.200  -8.079   6.520  1.00  0.00     0.186 HD
HETATM    6  C12 UNL     1      14.982  -9.096   4.899  1.00  0.00     0.679 A 
HETATM    7  N7  UNL     1      16.003  -9.234   4.046  1.00  0.00    -0.175 N 
ATOM      8  H7  UNL     1      15.960  -9.950   3.321  1.00  0.00     0.186 HD
HETATM    9  C13 UNL     1      17.110  -8.422   4.133  1.00  0.00     0.145 A 
HETATM   10  N9  UNL     1      15.940  -6.453   7.025  1.00  0.00    -0.270 N 
ATOM     11  H9  UNL     1      15.045  -6.487   7.514  1.00  0.00     0.185 HD
HETATM   12  N10 UNL     1      16.831  -5.504   7.517  1.00  0.00    -0.026 NA
HETATM   13  N11 UNL     1      17.650  -5.030   6.508  1.00  0.00    -0.072 NA
HETATM   14  C14 UNL     1      18.762  -5.955   6.211  1.00  0.00     0.397 C 
ENDROOT
BRANCH   1  15
HETATM   15  C9  UNL     1      19.080  -6.653   3.814  1.00  0.00     0.204 C 
BRANCH  15  16
HETATM   16  C8  UNL     1      19.023  -5.187   3.424  1.00  0.00     0.117 A 
HETATM   17  N3  UNL     1      18.371  -4.196   4.109  1.00  0.00    -0.286 N 
HETATM   18  N2  UNL     1      18.510  -3.065   3.489  1.00  0.00    -0.287 N 
ATOM     19  H3  UNL     1      17.853  -4.328   4.977  1.00  0.00     0.188 HD
HETATM   20  C7  UNL     1      19.237  -3.246   2.401  1.00  0.00     0.104 A 
ATOM     21  H2  UNL     1      18.119  -2.174   3.795  1.00  0.00     0.188 HD
HETATM   22  N13 UNL     1      19.545  -4.537   2.368  1.00  0.00    -0.327 N 
HETATM   23  C15 UNL     1      20.341  -5.160   1.329  1.00  0.00     0.159 C 
BRANCH  20  24
HETATM   24  C6  UNL     1      19.623  -2.193   1.426  1.00  0.00     0.137 C 
BRANCH  24  25
HETATM   25  C5  UNL     1      20.175  -0.983   2.088  1.00  0.00     0.047 A 
HETATM   26  C4  UNL     1      19.582   0.239   2.334  1.00  0.00     0.134 A 
HETATM   27  N1  UNL     1      20.469   1.051   2.968  1.00  0.00    -0.282 N 
HETATM   28  N15 UNL     1      21.579   0.348   3.110  1.00  0.00    -0.020 NA
HETATM   29  N14 UNL     1      21.419  -0.875   2.587  1.00  0.00    -0.286 N 
ATOM     30  H14 UNL     1      22.129  -1.608   2.569  1.00  0.00     0.184 HD
BRANCH  27  31
HETATM   31  C3  UNL     1      20.250   2.430   3.411  1.00  0.00     0.177 C 
BRANCH  31  32
HETATM   32  C2  UNL     1      20.451   3.398   2.261  1.00  0.00     0.133 C 
HETATM   33  C1  UNL     1      19.094   3.850   1.796  1.00  0.00     0.041 C 
BRANCH  32  34
HETATM   34  O1  UNL     1      21.211   2.854   1.242  1.00  0.00    -0.394 OA
ATOM     35  H1  UNL     1      21.743   3.502   0.796  1.00  0.00     0.210 HD
ENDBRANCH  32  34
ENDBRANCH  31  32
ENDBRANCH  27  31
ENDBRANCH  24  25
ENDBRANCH  20  24
ENDBRANCH  15  16
ENDBRANCH   1  15
BRANCH  14  36
HETATM   36  N12 UNL     1      18.840  -6.813   7.406  1.00  0.00    -0.043 N 
ATOM     37 3H12 UNL     1      18.058  -7.467   7.440  1.00  0.00     0.278 HD
ATOM     38 2H12 UNL     1      19.608  -7.480   7.330  1.00  0.00     0.278 HD
ATOM     39 1H12 UNL     1      18.907  -6.274   8.269  1.00  0.00     0.278 HD
ENDBRANCH  14  36
BRANCH   9  40
HETATM   40  N8  UNL     1      18.127  -8.652   3.239  1.00  0.00    -0.383 N 
ATOM     41  H82 UNL     1      18.732  -7.863   3.011  1.00  0.00     0.157 HD
ATOM     42  H81 UNL     1      18.287  -9.549   2.781  1.00  0.00     0.157 HD
ENDBRANCH   9  40
BRANCH   6  43
HETATM   43  N6  UNL     1      13.957  -9.882   4.782  1.00  0.00    -0.234 N 
ATOM     44  H62 UNL     1      13.700 -10.224   3.856  1.00  0.00     0.174 HD
ATOM     45  H61 UNL     1      13.434 -10.138   5.620  1.00  0.00     0.174 HD
ENDBRANCH   6  43
TORSDOF 10
ENDMDL
MODEL 2
REMARK VINA RESULT: -8.772345876      7.865     10.807
REMARK  10 active torsions:
REMARK  status: ('A' for Active; 'I' for Inactive)
REMARK    1  A    between atoms: C2_2  and  O1_3 
REMARK    2  A    between atoms: C2_2  and  C3_5 
REMARK    3  A    between atoms: C3_5  and  N1_6 
REMARK    4  A    between atoms: C5_8  and  C6_9 
REMARK    5  A    between atoms: C6_9  and  C7_10 
REMARK    6  A    between atoms: C8_15  and  C9_16 
REMARK    7  A    between atoms: C9_16  and  N4_17 
REMARK    8  A    between atoms: C12_22  and  N6_23 
REMARK    9  A    between atoms: C13_28  and  N8_29 
REMARK   10  A    between atoms: C14_36  and  N12_37 
ROOT
HETATM    1  N4  UNL     1      24.826 -12.095   7.246  1.00  0.00    -0.326 N 
HETATM    2  C10 UNL     1      24.645 -13.028   6.162  1.00  0.00     0.124 A 
HETATM    3  C11 UNL     1      24.500 -12.772   4.787  1.00  0.00     0.164 A 
HETATM    4  N5  UNL     1      24.377 -13.751   3.877  1.00  0.00    -0.173 N 
ATOM      5  H5  UNL     1      24.272 -13.543   2.884  1.00  0.00     0.186 HD
HETATM    6  C12 UNL     1      24.398 -15.014   4.331  1.00  0.00     0.679 A 
HETATM    7  N7  UNL     1      24.532 -15.302   5.630  1.00  0.00    -0.175 N 
ATOM      8  H7  UNL     1      24.542 -16.276   5.931  1.00  0.00     0.186 HD
HETATM    9  C13 UNL     1      24.658 -14.302   6.566  1.00  0.00     0.145 A 
HETATM   10  N9  UNL     1      24.463 -11.493   4.182  1.00  0.00    -0.270 N 
ATOM     11  H9  UNL     1      24.412 -11.509   3.163  1.00  0.00     0.185 HD
HETATM   12  N10 UNL     1      24.485 -10.218   4.739  1.00  0.00    -0.026 NA
HETATM   13  N11 UNL     1      25.202 -10.212   5.922  1.00  0.00    -0.072 NA
HETATM   14  C14 UNL     1      24.407 -10.720   7.059  1.00  0.00     0.397 C 
ENDROOT
BRANCH   1  15
HETATM   15  C9  UNL     1      25.414 -12.565   8.443  1.00  0.00     0.204 C 
BRANCH  15  16
HETATM   16  C8  UNL     1      24.614 -11.853   9.519  1.00  0.00     0.117 A 
HETATM   17  N3  UNL     1      23.333 -12.151   9.901  1.00  0.00    -0.286 N 
HETATM   18  N2  UNL     1      22.948 -11.334  10.832  1.00  0.00    -0.287 N 
ATOM     19  H3  UNL     1      22.766 -12.903   9.511  1.00  0.00     0.188 HD
HETATM   20  C7  UNL     1      23.922 -10.485  11.103  1.00  0.00     0.104 A 
ATOM     21  H2  UNL     1      22.034 -11.346  11.285  1.00  0.00     0.188 HD
HETATM   22  N13 UNL     1      24.931 -10.805  10.302  1.00  0.00    -0.327 N 
HETATM   23  C15 UNL     1      26.205 -10.116  10.278  1.00  0.00     0.159 C 
BRANCH  20  24
HETATM   24  C6  UNL     1      23.874  -9.396  12.115  1.00  0.00     0.137 C 
BRANCH  24  25
HETATM   25  C5  UNL     1      23.080  -8.229  11.652  1.00  0.00     0.047 A 
HETATM   26  C4  UNL     1      22.689  -7.874  10.377  1.00  0.00     0.134 A 
HETATM   27  N1  UNL     1      21.974  -6.720  10.429  1.00  0.00    -0.282 N 
HETATM   28  N15 UNL     1      21.924  -6.372  11.704  1.00  0.00    -0.020 NA
HETATM   29  N14 UNL     1      22.584  -7.266  12.451  1.00  0.00    -0.286 N 
ATOM     30  H14 UNL     1      22.694  -7.225  13.464  1.00  0.00     0.184 HD
BRANCH  27  31
HETATM   31  C3  UNL     1      21.372  -5.997   9.307  1.00  0.00     0.177 C 
BRANCH  31  32
HETATM   32  C2  UNL     1      19.878  -6.252   9.249  1.00  0.00     0.133 C 
HETATM   33  C1  UNL     1      19.409  -5.940   7.854  1.00  0.00     0.041 C 
BRANCH  32  34
HETATM   34  O1  UNL     1      19.185  -5.545  10.215  1.00  0.00    -0.394 OA
ATOM     35  H1  UNL     1      19.519  -5.698  11.091  1.00  0.00     0.210 HD
ENDBRANCH  32  34
ENDBRANCH  31  32
ENDBRANCH  27  31
ENDBRANCH  24  25
ENDBRANCH  20  24
ENDBRANCH  15  16
ENDBRANCH   1  15
BRANCH  14  36
HETATM   36  N12 UNL     1      23.013 -10.615   6.593  1.00  0.00    -0.043 N 
ATOM     37 3H12 UNL     1      22.359 -10.706   7.370  1.00  0.00     0.278 HD
ATOM     38 2H12 UNL     1      22.793  -9.661   6.305  1.00  0.00     0.278 HD
ATOM     39 1H12 UNL     1      22.799 -11.281   5.852  1.00  0.00     0.278 HD
ENDBRANCH  14  36
BRANCH   9  40
HETATM   40  N8  UNL     1      24.759 -14.684   7.881  1.00  0.00    -0.383 N 
ATOM     41  H82 UNL     1      25.678 -14.611   8.317  1.00  0.00     0.157 HD
ATOM     42  H81 UNL     1      23.979 -15.053   8.425  1.00  0.00     0.157 HD
ENDBRANCH   9  40
BRANCH   6  43
HETATM   43  N6  UNL     1      24.282 -15.987   3.481  1.00  0.00    -0.234 N 
ATOM     44  H62 UNL     1      24.522 -15.820   2.503  1.00  0.00     0.174 HD
ATOM     45  H61 UNL     1      23.956 -16.895   3.813  1.00  0.00     0.174 HD
ENDBRANCH   6  43
TORSDOF 10
ENDMDL
MODEL 3
REMARK VINA RESULT: -8.749625701      5.386      8.901
REMARK  10 active torsions:
REMARK  status: ('A' for Active; 'I' for Inactive)
REMARK    1  A    between atoms: C2_2  and  O1_3 
REMARK    2  A    between atoms: C2_2  and  C3_5 
REMARK    3  A    between atoms: C3_5  and  N1_6 
REMARK    4  A    between atoms: C5_8  and  C6_9 
REMARK    5  A    between atoms: C6_9  and  C7_10 
REMARK    6  A    between atoms: C8_15  and  C9_16 
REMARK    7  A    between atoms: C9_16  and  N4_17 
REMARK    8  A    between atoms: C12_22  and  N6_23 
REMARK    9  A    between atoms: C13_28  and  N8_29 
REMARK   10  A    between atoms: C14_36  and  N12_37 
ROOT
HETATM    1  N4  UNL     1      17.920  -7.316   4.905  1.00  0.00    -0.326 N 
HETATM    2  C10 UNL     1      18.445  -6.000   4.631  1.00  0.00     0.124 A 
HETATM    3  C11 UNL     1      18.675  -4.936   5.520  1.00  0.00     0.164 A 
HETATM    4  N5  UNL     1      19.211  -3.769   5.129  1.00  0.00    -0.173 N 
ATOM      5  H5  UNL     1      19.369  -3.008   5.790  1.00  0.00     0.186 HD
HETATM    6  C12 UNL     1      19.531  -3.647   3.831  1.00  0.00     0.679 A 
HETATM    7  N7  UNL     1      19.328  -4.635   2.952  1.00  0.00    -0.175 N 
ATOM      8  H7  UNL     1      19.585  -4.499   1.974  1.00  0.00     0.186 HD
HETATM    9  C13 UNL     1      18.779  -5.831   3.348  1.00  0.00     0.145 A 
HETATM   10  N9  UNL     1      18.385  -4.935   6.905  1.00  0.00    -0.270 N 
ATOM     11  H9  UNL     1      18.677  -4.091   7.398  1.00  0.00     0.185 HD
HETATM   12  N10 UNL     1      17.770  -5.890   7.710  1.00  0.00    -0.026 NA
HETATM   13  N11 UNL     1      18.010  -7.165   7.230  1.00  0.00    -0.072 NA
HETATM   14  C14 UNL     1      17.124  -7.512   6.101  1.00  0.00     0.397 C 
ENDROOT
BRANCH   1  15
HETATM   15  C9  UNL     1      18.212  -8.356   3.994  1.00  0.00     0.204 C 
BRANCH  15  16
HETATM   16  C8  UNL     1      19.581  -8.831   4.445  1.00  0.00     0.117 A 
HETATM   17  N3  UNL     1      20.344  -8.269   5.434  1.00  0.00    -0.286 N 
HETATM   18  N2  UNL     1      21.464  -8.912   5.548  1.00  0.00    -0.287 N 
ATOM     19  H3  UNL     1      20.071  -7.464   5.997  1.00  0.00     0.188 HD
HETATM   20  C7  UNL     1      21.497  -9.898   4.670  1.00  0.00     0.104 A 
ATOM     21  H2  UNL     1      22.206  -8.690   6.212  1.00  0.00     0.188 HD
HETATM   22  N13 UNL     1      20.351  -9.844   4.003  1.00  0.00    -0.327 N 
HETATM   23  C15 UNL     1      19.979 -10.757   2.941  1.00  0.00     0.159 C 
BRANCH  20  24
HETATM   24  C6  UNL     1      22.610 -10.868   4.489  1.00  0.00     0.137 C 
BRANCH  24  25
HETATM   25  C5  UNL     1      23.593 -10.815   5.602  1.00  0.00     0.047 A 
HETATM   26  C4  UNL     1      23.569 -11.438   6.833  1.00  0.00     0.134 A 
HETATM   27  N1  UNL     1      24.684 -11.098   7.532  1.00  0.00    -0.282 N 
HETATM   28  N15 UNL     1      25.378 -10.288   6.751  1.00  0.00    -0.020 NA
HETATM   29  N14 UNL     1      24.737 -10.107   5.589  1.00  0.00    -0.286 N 
ATOM     30  H14 UNL     1      25.063  -9.525   4.818  1.00  0.00     0.184 HD
BRANCH  27  31
HETATM   31  C3  UNL     1      25.056 -11.536   8.879  1.00  0.00     0.177 C 
BRANCH  31  32
HETATM   32  C2  UNL     1      24.087 -10.982   9.906  1.00  0.00     0.133 C 
HETATM   33  C1  UNL     1      24.891 -10.321  10.991  1.00  0.00     0.041 C 
BRANCH  32  34
HETATM   34  O1  UNL     1      23.227 -11.949  10.393  1.00  0.00    -0.394 OA
ATOM     35  H1  UNL     1      23.227 -11.995  11.341  1.00  0.00     0.210 HD
ENDBRANCH  32  34
ENDBRANCH  31  32
ENDBRANCH  27  31
ENDBRANCH  24  25
ENDBRANCH  20  24
ENDBRANCH  15  16
ENDBRANCH   1  15
BRANCH  14  36
HETATM   36  N12 UNL     1      16.018  -6.546   6.206  1.00  0.00    -0.043 N 
ATOM     37 3H12 UNL     1      16.349  -5.591   6.067  1.00  0.00     0.278 HD
ATOM     38 2H12 UNL     1      15.389  -6.618   5.405  1.00  0.00     0.278 HD
ATOM     39 1H12 UNL     1      15.506  -6.633   7.083  1.00  0.00     0.278 HD
ENDBRANCH  14  36
BRANCH   9  40
HETATM   40  N8  UNL     1      18.574  -6.779   2.376  1.00  0.00    -0.383 N 
ATOM     41  H82 UNL     1      17.615  -7.094   2.228  1.00  0.00     0.157 HD
ATOM     42  H81 UNL     1      19.324  -7.194   1.822  1.00  0.00     0.157 HD
ENDBRANCH   9  40
BRANCH   6  43
HETATM   43  N6  UNL     1      20.052  -2.534   3.416  1.00  0.00    -0.234 N 
ATOM     44  H62 UNL     1      20.883  -2.173   3.884  1.00  0.00     0.174 HD
ATOM     45  H61 UNL     1      19.618  -2.049   2.630  1.00  0.00     0.174 HD
ENDBRANCH   6  43
TORSDOF 10
ENDMDL
MODEL 4
REMARK VINA RESULT: -8.728851303      5.636      8.242
REMARK  10 active torsions:
REMARK  status: ('A' for Active; 'I' for Inactive)
REMARK    1  A    between atoms: C2_2  and  O1_3 
REMARK    2  A    between atoms: C2_2  and  C3_5 
REMARK    3  A    between atoms: C3_5  and  N1_6 
REMARK    4  A    between atoms: C5_8  and  C6_9 
REMARK    5  A    between atoms: C6_9  and  C7_10 
REMARK    6  A    between atoms: C8_15  and  C9_16 
REMARK    7  A    between atoms: C9_16  and  N4_17 
REMARK    8  A    between atoms: C12_22  and  N6_23 
REMARK    9  A    between atoms: C13_28  and  N8_29 
REMARK   10  A    between atoms: C14_36  and  N12_37 
ROOT
HETATM    1  N4  UNL     1      17.708  -7.559   4.998  1.00  0.00    -0.326 N 
HETATM    2  C10 UNL     1      16.369  -7.976   5.335  1.00  0.00     0.124 A 
HETATM    3  C11 UNL     1      15.450  -7.377   6.215  1.00  0.00     0.164 A 
HETATM    4  N5  UNL     1      14.211  -7.857   6.404  1.00  0.00    -0.173 N 
ATOM      5  H5  UNL     1      13.560  -7.408   7.048  1.00  0.00     0.186 HD
HETATM    6  C12 UNL     1      13.866  -8.952   5.709  1.00  0.00     0.679 A 
HETATM    7  N7  UNL     1      14.710  -9.553   4.862  1.00  0.00    -0.175 N 
ATOM      8  H7  UNL     1      14.406 -10.385   4.355  1.00  0.00     0.186 HD
HETATM    9  C13 UNL     1      15.980  -9.065   4.666  1.00  0.00     0.145 A 
HETATM   10  N9  UNL     1      15.687  -6.225   7.003  1.00  0.00    -0.270 N 
ATOM     11  H9  UNL     1      14.878  -5.904   7.536  1.00  0.00     0.185 HD
HETATM   12  N10 UNL     1      16.833  -5.455   7.173  1.00  0.00    -0.026 NA
HETATM   13  N11 UNL     1      17.609  -5.469   6.028  1.00  0.00    -0.072 NA
HETATM   14  C14 UNL     1      18.422  -6.697   5.919  1.00  0.00     0.397 C 
ENDROOT
BRANCH   1  15
HETATM   15  C9  UNL     1      18.261  -8.007   3.776  1.00  0.00     0.204 C 
BRANCH  15  16
HETATM   16  C8  UNL     1      19.556  -8.668   4.210  1.00  0.00     0.117 A 
HETATM   17  N3  UNL     1      20.398  -8.224   5.194  1.00  0.00    -0.286 N 
HETATM   18  N2  UNL     1      21.421  -9.015   5.292  1.00  0.00    -0.287 N 
ATOM     19  H3  UNL     1      20.243  -7.393   5.765  1.00  0.00     0.188 HD
HETATM   20  C7  UNL     1      21.310  -9.989   4.407  1.00  0.00     0.104 A 
ATOM     21  H2  UNL     1      22.192  -8.902   5.950  1.00  0.00     0.188 HD
HETATM   22  N13 UNL     1      20.175  -9.773   3.753  1.00  0.00    -0.327 N 
HETATM   23  C15 UNL     1      19.672 -10.618   2.689  1.00  0.00     0.159 C 
BRANCH  20  24
HETATM   24  C6  UNL     1      22.278 -11.101   4.208  1.00  0.00     0.137 C 
BRANCH  24  25
HETATM   25  C5  UNL     1      23.364 -11.094   5.222  1.00  0.00     0.047 A 
HETATM   26  C4  UNL     1      23.399 -11.649   6.484  1.00  0.00     0.134 A 
HETATM   27  N1  UNL     1      24.604 -11.390   7.057  1.00  0.00    -0.282 N 
HETATM   28  N15 UNL     1      25.295 -10.694   6.171  1.00  0.00    -0.020 NA
HETATM   29  N14 UNL     1      24.564 -10.507   5.063  1.00  0.00    -0.286 N 
ATOM     30  H14 UNL     1      24.869  -9.999   4.233  1.00  0.00     0.184 HD
BRANCH  27  31
HETATM   31  C3  UNL     1      25.060 -11.797   8.388  1.00  0.00     0.177 C 
BRANCH  31  32
HETATM   32  C2  UNL     1      24.912 -10.655   9.374  1.00  0.00     0.133 C 
HETATM   33  C1  UNL     1      23.860 -11.043  10.377  1.00  0.00     0.041 C 
BRANCH  32  34
HETATM   34  O1  UNL     1      24.637  -9.452   8.750  1.00  0.00    -0.394 OA
ATOM     35  H1  UNL     1      24.538  -9.542   7.810  1.00  0.00     0.210 HD
ENDBRANCH  32  34
ENDBRANCH  31  32
ENDBRANCH  27  31
ENDBRANCH  24  25
ENDBRANCH  20  24
ENDBRANCH  15  16
ENDBRANCH   1  15
BRANCH  14  36
HETATM   36  N12 UNL     1      18.441  -7.234   7.291  1.00  0.00    -0.043 N 
ATOM     37 3H12 UNL     1      19.138  -6.756   7.862  1.00  0.00     0.278 HD
ATOM     38 2H12 UNL     1      17.599  -6.966   7.802  1.00  0.00     0.278 HD
ATOM     39 1H12 UNL     1      18.577  -8.244   7.313  1.00  0.00     0.278 HD
ENDBRANCH  14  36
BRANCH   9  40
HETATM   40  N8  UNL     1      16.792  -9.762   3.805  1.00  0.00    -0.383 N 
ATOM     41  H82 UNL     1      16.679  -9.577   2.808  1.00  0.00     0.157 HD
ATOM     42  H81 UNL     1      17.473 -10.459   4.107  1.00  0.00     0.157 HD
ENDBRANCH   9  40
BRANCH   6  43
HETATM   43  N6  UNL     1      12.676  -9.444   5.865  1.00  0.00    -0.234 N 
ATOM     44  H62 UNL     1      12.301  -9.540   6.809  1.00  0.00     0.174 HD
ATOM     45  H61 UNL     1      12.146  -9.722   5.039  1.00  0.00     0.174 HD
ENDBRANCH   6  43
TORSDOF 10
ENDMDL
MODEL 5
REMARK VINA RESULT: -8.589958099      9.388     10.934
REMARK  10 active torsions:
REMARK  status: ('A' for Active; 'I' for Inactive)
REMARK    1  A    between atoms: C2_2  and  O1_3 
REMARK    2  A    between atoms: C2_2  and  C3_5 
REMARK    3  A    between atoms: C3_5  and  N1_6 
REMARK    4  A    between atoms: C5_8  and  C6_9 
REMARK    5  A    between atoms: C6_9  and  C7_10 
REMARK    6  A    between atoms: C8_15  and  C9_16 
REMARK    7  A    between atoms: C9_16  and  N4_17 
REMARK    8  A    between atoms: C12_22  and  N6_23 
REMARK    9  A    between atoms: C13_28  and  N8_29 
REMARK   10  A    between atoms: C14_36  and  N12_37 
ROOT
HETATM    1  N4  UNL     1      24.969 -12.683   5.136  1.00  0.00    -0.326 N 
HETATM    2  C10 UNL     1      24.125 -12.683   3.966  1.00  0.00     0.124 A 
HETATM    3  C11 UNL     1      23.256 -13.685   3.501  1.00  0.00     0.164 A 
HETATM    4  N5  UNL     1      22.493 -13.531   2.407  1.00  0.00    -0.173 N 
ATOM      5  H5  UNL     1      21.869 -14.272   2.085  1.00  0.00     0.186 HD
HETATM    6  C12 UNL     1      22.586 -12.362   1.755  1.00  0.00     0.679 A 
HETATM    7  N7  UNL     1      23.401 -11.382   2.163  1.00  0.00    -0.175 N 
ATOM      8  H7  UNL     1      23.442 -10.509   1.637  1.00  0.00     0.186 HD
HETATM    9  C13 UNL     1      24.185 -11.536   3.283  1.00  0.00     0.145 A 
HETATM   10  N9  UNL     1      23.064 -14.956   4.093  1.00  0.00    -0.270 N 
ATOM     11  H9  UNL     1      22.346 -15.527   3.645  1.00  0.00     0.185 HD
HETATM   12  N10 UNL     1      23.687 -15.560   5.181  1.00  0.00    -0.026 NA
HETATM   13  N11 UNL     1      24.088 -14.612   6.105  1.00  0.00    -0.072 NA
HETATM   14  C14 UNL     1      25.352 -13.955   5.717  1.00  0.00     0.397 C 
ENDROOT
BRANCH   1  15
HETATM   15  C9  UNL     1      25.380 -11.438   5.665  1.00  0.00     0.204 C 
BRANCH  15  16
HETATM   16  C8  UNL     1      24.778 -11.445   7.059  1.00  0.00     0.117 A 
HETATM   17  N3  UNL     1      23.637 -12.098   7.441  1.00  0.00    -0.286 N 
HETATM   18  N2  UNL     1      23.399 -11.877   8.697  1.00  0.00    -0.287 N 
ATOM     19  H3  UNL     1      23.060 -12.674   6.828  1.00  0.00     0.188 HD
HETATM   20  C7  UNL     1      24.341 -11.093   9.190  1.00  0.00     0.104 A 
ATOM     21  H2  UNL     1      22.608 -12.250   9.221  1.00  0.00     0.188 HD
HETATM   22  N13 UNL     1      25.175 -10.834   8.191  1.00  0.00    -0.327 N 
HETATM   23  C15 UNL     1      26.356 -10.003   8.307  1.00  0.00     0.159 C 
BRANCH  20  24
HETATM   24  C6  UNL     1      24.427 -10.613  10.595  1.00  0.00     0.137 C 
BRANCH  24  25
HETATM   25  C5  UNL     1      23.723  -9.320  10.796  1.00  0.00     0.047 A 
HETATM   26  C4  UNL     1      23.524  -8.591  11.950  1.00  0.00     0.134 A 
HETATM   27  N1  UNL     1      22.820  -7.465  11.657  1.00  0.00    -0.282 N 
HETATM   28  N15 UNL     1      22.593  -7.499  10.355  1.00  0.00    -0.020 NA
HETATM   29  N14 UNL     1      23.127  -8.606   9.823  1.00  0.00    -0.286 N 
ATOM     30  H14 UNL     1      23.089  -8.867   8.838  1.00  0.00     0.184 HD
BRANCH  27  31
HETATM   31  C3  UNL     1      22.395  -6.416  12.586  1.00  0.00     0.177 C 
BRANCH  31  32
HETATM   32  C2  UNL     1      23.313  -5.214  12.490  1.00  0.00     0.133 C 
HETATM   33  C1  UNL     1      22.952  -4.265  13.599  1.00  0.00     0.041 C 
BRANCH  32  34
HETATM   34  O1  UNL     1      23.272  -4.619  11.242  1.00  0.00    -0.394 OA
ATOM     35  H1  UNL     1      23.425  -5.235  10.536  1.00  0.00     0.210 HD
ENDBRANCH  32  34
ENDBRANCH  31  32
ENDBRANCH  27  31
ENDBRANCH  24  25
ENDBRANCH  20  24
ENDBRANCH  15  16
ENDBRANCH   1  15
BRANCH  14  36
HETATM   36  N12 UNL     1      25.941 -14.872   4.727  1.00  0.00    -0.043 N 
ATOM     37 3H12 UNL     1      26.388 -14.356   3.969  1.00  0.00     0.278 HD
ATOM     38 2H12 UNL     1      26.761 -15.346   5.107  1.00  0.00     0.278 HD
ATOM     39 1H12 UNL     1      25.264 -15.543   4.366  1.00  0.00     0.278 HD
ENDBRANCH  14  36
BRANCH   9  40
HETATM   40  N8  UNL     1      25.017 -10.494   3.613  1.00  0.00    -0.383 N 
ATOM     41  H82 UNL     1      24.663  -9.812   4.284  1.00  0.00     0.157 HD
ATOM     42  H81 UNL     1      25.944 -10.359   3.209  1.00  0.00     0.157 HD
ENDBRANCH   9  40
BRANCH   6  43
HETATM   43  N6  UNL     1      21.864 -12.176   0.694  1.00  0.00    -0.234 N 
ATOM     44  H62 UNL     1      20.988 -11.660   0.778  1.00  0.00     0.174 HD
ATOM     45  H61 UNL     1      22.191 -12.549  -0.197  1.00  0.00     0.174 HD
ENDBRANCH   6  43
TORSDOF 10
ENDMDL
