MODEL 1
REMARK VINA RESULT: -8.117306625      0.000      0.000
REMARK  9 active torsions:
REMARK  status: ('A' for Active; 'I' for Inactive)
REMARK    1  A    between atoms: C2_2  and  C3_3 
REMARK    2  A    between atoms: C3_3  and  C4_4 
REMARK    3  A    between atoms: C4_4  and  C5_5 
REMARK    4  A    between atoms: N1_6  and  C6_8 
REMARK    5  A    between atoms: C10_13  and  O1_14 
REMARK    6  A    between atoms: C12_18  and  C13_19 
REMARK    7  A    between atoms: C13_19  and  C14_20 
REMARK    8  A    between atoms: C15_22  and  O3_23 
REMARK    9  A    between atoms: C19_28  and  O5_29 
ROOT
HETATM    1  C6  UNL     1     -11.085  13.776  15.560  1.00  0.00     0.033 A 
HETATM    2  C7  UNL     1     -12.331  14.307  15.254  1.00  0.00     0.049 A 
HETATM    3  C8  UNL     1     -13.510  13.821  15.753  1.00  0.00     0.027 A 
HETATM    4 BR1  UNL     1     -15.209  14.582  15.302  1.00  0.00    -0.050 Br
HETATM    5  C9  UNL     1     -13.432  12.744  16.607  1.00  0.00     0.030 A 
HETATM    6  C10 UNL     1     -14.604  12.251  17.114  1.00  0.00     0.113 A 
HETATM    7  C11 UNL     1     -14.532  11.164  17.980  1.00  0.00     0.127 A 
HETATM    8  O2  UNL     1     -15.653  10.712  18.449  1.00  0.00    -0.308 OA
HETATM    9  C12 UNL     1     -15.723   9.697  19.269  1.00  0.00     0.092 A 
HETATM   10  C15 UNL     1     -14.571   9.074  19.659  1.00  0.00     0.149 A 
HETATM   11  C17 UNL     1     -13.330   9.512  19.191  1.00  0.00     0.223 A 
HETATM   12  O4  UNL     1     -12.283   8.939  19.551  1.00  0.00    -0.284 OA
HETATM   13  C18 UNL     1     -13.309  10.581  18.331  1.00  0.00     0.088 A 
HETATM   14  C19 UNL     1     -12.130  11.078  17.821  1.00  0.00     0.094 A 
HETATM   15  C20 UNL     1     -12.232  12.180  16.945  1.00  0.00     0.015 A 
HETATM   16  C21 UNL     1     -11.047  12.691  16.424  1.00  0.00     0.044 A 
ENDROOT
BRANCH   1  17
HETATM   17  N1  UNL     1      -9.906  14.335  15.007  1.00  0.00    -0.369 N 
HETATM   18  C5  UNL     1      -9.393  13.867  13.938  1.00  0.00     0.061 C 
ATOM     19  H1  UNL     1      -9.460  15.125  15.472  1.00  0.00     0.165 HD
BRANCH  18  20
HETATM   20  C4  UNL     1     -10.027  12.726  13.253  1.00  0.00     0.044 C 
BRANCH  20  21
HETATM   21  C3  UNL     1      -9.068  11.545  13.133  1.00  0.00     0.005 C 
BRANCH  21  22
HETATM   22  C2  UNL     1      -9.846  10.266  13.297  1.00  0.00    -0.004 C 
HETATM   23  C1  UNL     1      -9.875   9.746  14.694  1.00  0.00     0.005 C 
ENDBRANCH  21  22
ENDBRANCH  20  21
ENDBRANCH  18  20
ENDBRANCH   1  17
BRANCH  14  24
HETATM   24  O5  UNL     1     -10.906  10.577  18.105  1.00  0.00    -0.359 OA
ATOM     25  H5  UNL     1     -10.100  11.080  18.069  1.00  0.00     0.217 HD
ENDBRANCH  14  24
BRANCH   6  26
HETATM   26  O1  UNL     1     -15.844  12.820  16.772  1.00  0.00    -0.357 OA
ATOM     27  H1  UNL     1     -16.633  12.608  17.256  1.00  0.00     0.217 HD
ENDBRANCH   6  26
BRANCH  10  28
HETATM   28  O3  UNL     1     -14.580   7.993  20.533  1.00  0.00    -0.350 OA
HETATM   29  C16 UNL     1     -14.443   8.060  21.918  1.00  0.00     0.210 C 
ENDBRANCH  10  28
BRANCH   9  30
HETATM   30  C13 UNL     1     -17.079   9.300  19.707  1.00  0.00     0.083 C 
BRANCH  30  31
HETATM   31  C14 UNL     1     -17.753  10.420  20.442  1.00  0.00     0.121 C 
HETATM   32 CL1  UNL     1     -17.244  10.636  22.111  1.00  0.00    -0.130 Cl
ENDBRANCH  30  31
ENDBRANCH   9  30
TORSDOF 9
ENDMDL
MODEL 2
REMARK VINA RESULT: -7.528286742      3.903      6.892
REMARK  9 active torsions:
REMARK  status: ('A' for Active; 'I' for Inactive)
REMARK    1  A    between atoms: C2_2  and  C3_3 
REMARK    2  A    between atoms: C3_3  and  C4_4 
REMARK    3  A    between atoms: C4_4  and  C5_5 
REMARK    4  A    between atoms: N1_6  and  C6_8 
REMARK    5  A    between atoms: C10_13  and  O1_14 
REMARK    6  A    between atoms: C12_18  and  C13_19 
REMARK    7  A    between atoms: C13_19  and  C14_20 
REMARK    8  A    between atoms: C15_22  and  O3_23 
REMARK    9  A    between atoms: C19_28  and  O5_29 
ROOT
HETATM    1  C6  UNL     1     -12.544  13.414  16.149  1.00  0.00     0.033 A 
HETATM    2  C7  UNL     1     -11.804  13.804  15.041  1.00  0.00     0.049 A 
HETATM    3  C8  UNL     1     -10.751  13.087  14.538  1.00  0.00     0.027 A 
HETATM    4 BR1  UNL     1      -9.754  13.662  13.007  1.00  0.00    -0.050 Br
HETATM    5  C9  UNL     1     -10.426  11.915  15.182  1.00  0.00     0.030 A 
HETATM    6  C10 UNL     1      -9.377  11.188  14.687  1.00  0.00     0.113 A 
HETATM    7  C11 UNL     1      -9.045  10.001  15.332  1.00  0.00     0.127 A 
HETATM    8  O2  UNL     1      -8.049   9.328  14.846  1.00  0.00    -0.308 OA
HETATM    9  C12 UNL     1      -7.636   8.199  15.360  1.00  0.00     0.092 A 
HETATM   10  C15 UNL     1      -8.274   7.693  16.457  1.00  0.00     0.149 A 
HETATM   11  C17 UNL     1      -9.356   8.367  17.028  1.00  0.00     0.223 A 
HETATM   12  O4  UNL     1      -9.933   7.899  18.029  1.00  0.00    -0.284 OA
HETATM   13  C18 UNL     1      -9.751   9.549  16.453  1.00  0.00     0.088 A 
HETATM   14  C19 UNL     1     -10.807  10.281  16.951  1.00  0.00     0.094 A 
HETATM   15  C20 UNL     1     -11.121  11.481  16.278  1.00  0.00     0.015 A 
HETATM   16  C21 UNL     1     -12.187  12.226  16.772  1.00  0.00     0.044 A 
ENDROOT
BRANCH   1  17
HETATM   17  N1  UNL     1     -13.624  14.207  16.612  1.00  0.00    -0.369 N 
HETATM   18  C5  UNL     1     -14.832  13.826  16.467  1.00  0.00     0.061 C 
ATOM     19  H1  UNL     1     -13.431  15.098  17.068  1.00  0.00     0.165 HD
BRANCH  18  20
HETATM   20  C4  UNL     1     -15.126  12.539  15.810  1.00  0.00     0.044 C 
BRANCH  20  21
HETATM   21  C3  UNL     1     -15.488  11.463  16.831  1.00  0.00     0.005 C 
BRANCH  21  22
HETATM   22  C2  UNL     1     -16.124  12.121  18.027  1.00  0.00    -0.004 C 
HETATM   23  C1  UNL     1     -17.143  11.277  18.716  1.00  0.00     0.005 C 
ENDBRANCH  21  22
ENDBRANCH  20  21
ENDBRANCH  18  20
ENDBRANCH   1  17
BRANCH  14  24
HETATM   24  O5  UNL     1     -11.542   9.921  18.029  1.00  0.00    -0.359 OA
ATOM     25  H5  UNL     1     -12.448  10.172  18.166  1.00  0.00     0.217 HD
ENDBRANCH  14  24
BRANCH   6  26
HETATM   26  O1  UNL     1      -8.654  11.625  13.563  1.00  0.00    -0.357 OA
ATOM     27  H1  UNL     1      -7.765  11.950  13.645  1.00  0.00     0.217 HD
ENDBRANCH   6  26
BRANCH  10  28
HETATM   28  O3  UNL     1      -7.886   6.494  17.045  1.00  0.00    -0.350 OA
HETATM   29  C16 UNL     1      -8.473   5.249  16.828  1.00  0.00     0.210 C 
ENDBRANCH  10  28
BRANCH   9  30
HETATM   30  C13 UNL     1      -6.481   7.559  14.693  1.00  0.00     0.083 C 
BRANCH  30  31
HETATM   31  C14 UNL     1      -5.192   7.987  15.331  1.00  0.00     0.121 C 
HETATM   32 CL1  UNL     1      -5.214   9.582  16.070  1.00  0.00    -0.130 Cl
ENDBRANCH  30  31
ENDBRANCH   9  30
TORSDOF 9
ENDMDL
MODEL 3
REMARK VINA RESULT: -7.339034890      4.061      6.651
REMARK  9 active torsions:
REMARK  status: ('A' for Active; 'I' for Inactive)
REMARK    1  A    between atoms: C2_2  and  C3_3 
REMARK    2  A    between atoms: C3_3  and  C4_4 
REMARK    3  A    between atoms: C4_4  and  C5_5 
REMARK    4  A    between atoms: N1_6  and  C6_8 
REMARK    5  A    between atoms: C10_13  and  O1_14 
REMARK    6  A    between atoms: C12_18  and  C13_19 
REMARK    7  A    between atoms: C13_19  and  C14_20 
REMARK    8  A    between atoms: C15_22  and  O3_23 
REMARK    9  A    between atoms: C19_28  and  O5_29 
ROOT
HETATM    1  C6  UNL     1     -12.354  13.618  15.809  1.00  0.00     0.033 A 
HETATM    2  C7  UNL     1     -11.493  13.744  14.727  1.00  0.00     0.049 A 
HETATM    3  C8  UNL     1     -10.518  12.832  14.419  1.00  0.00     0.027 A 
HETATM    4 BR1  UNL     1      -9.350  13.045  12.916  1.00  0.00    -0.050 Br
HETATM    5  C9  UNL     1     -10.403  11.736  15.242  1.00  0.00     0.030 A 
HETATM    6  C10 UNL     1      -9.434  10.817  14.944  1.00  0.00     0.113 A 
HETATM    7  C11 UNL     1      -9.314   9.704  15.771  1.00  0.00     0.127 A 
HETATM    8  O2  UNL     1      -8.390   8.846  15.470  1.00  0.00    -0.308 OA
HETATM    9  C12 UNL     1      -8.173   7.761  16.167  1.00  0.00     0.092 A 
HETATM   10  C15 UNL     1      -8.949   7.507  17.263  1.00  0.00     0.149 A 
HETATM   11  C17 UNL     1      -9.962   8.390  17.640  1.00  0.00     0.223 A 
HETATM   12  O4  UNL     1     -10.665   8.151  18.642  1.00  0.00    -0.284 OA
HETATM   13  C18 UNL     1     -10.149   9.516  16.878  1.00  0.00     0.088 A 
HETATM   14  C19 UNL     1     -11.125  10.441  17.178  1.00  0.00     0.094 A 
HETATM   15  C20 UNL     1     -11.224  11.560  16.323  1.00  0.00     0.015 A 
HETATM   16  C21 UNL     1     -12.207  12.499  16.616  1.00  0.00     0.044 A 
ENDROOT
BRANCH   1  17
HETATM   17  N1  UNL     1     -13.342  14.602  16.064  1.00  0.00    -0.369 N 
HETATM   18  C5  UNL     1     -14.572  14.286  16.184  1.00  0.00     0.061 C 
ATOM     19  H1  UNL     1     -13.065  15.579  16.153  1.00  0.00     0.165 HD
BRANCH  18  20
HETATM   20  C4  UNL     1     -14.987  12.878  16.059  1.00  0.00     0.044 C 
BRANCH  20  21
HETATM   21  C3  UNL     1     -15.856  12.447  17.238  1.00  0.00     0.005 C 
BRANCH  21  22
HETATM   22  C2  UNL     1     -15.393  11.096  17.716  1.00  0.00    -0.004 C 
HETATM   23  C1  UNL     1     -15.379  10.948  19.200  1.00  0.00     0.005 C 
ENDBRANCH  21  22
ENDBRANCH  20  21
ENDBRANCH  18  20
ENDBRANCH   1  17
BRANCH  14  24
HETATM   24  O5  UNL     1     -11.974  10.340  18.227  1.00  0.00    -0.359 OA
ATOM     25  H5  UNL     1     -12.459   9.554  18.449  1.00  0.00     0.217 HD
ENDBRANCH  14  24
BRANCH   6  26
HETATM   26  O1  UNL     1      -8.583  10.989  13.838  1.00  0.00    -0.357 OA
ATOM     27  H1  UNL     1      -8.249  10.243  13.353  1.00  0.00     0.217 HD
ENDBRANCH   6  26
BRANCH  10  28
HETATM   28  O3  UNL     1      -8.770   6.368  18.040  1.00  0.00    -0.350 OA
HETATM   29  C16 UNL     1      -9.371   5.129  17.824  1.00  0.00     0.210 C 
ENDBRANCH  10  28
BRANCH   9  30
HETATM   30  C13 UNL     1      -7.076   6.889  15.696  1.00  0.00     0.083 C 
BRANCH  30  31
HETATM   31  C14 UNL     1      -6.237   7.592  14.670  1.00  0.00     0.121 C 
HETATM   32 CL1  UNL     1      -4.827   6.701  14.116  1.00  0.00    -0.130 Cl
ENDBRANCH  30  31
ENDBRANCH   9  30
TORSDOF 9
ENDMDL
MODEL 4
REMARK VINA RESULT: -7.319264882      3.947      7.148
REMARK  9 active torsions:
REMARK  status: ('A' for Active; 'I' for Inactive)
REMARK    1  A    between atoms: C2_2  and  C3_3 
REMARK    2  A    between atoms: C3_3  and  C4_4 
REMARK    3  A    between atoms: C4_4  and  C5_5 
REMARK    4  A    between atoms: N1_6  and  C6_8 
REMARK    5  A    between atoms: C10_13  and  O1_14 
REMARK    6  A    between atoms: C12_18  and  C13_19 
REMARK    7  A    between atoms: C13_19  and  C14_20 
REMARK    8  A    between atoms: C15_22  and  O3_23 
REMARK    9  A    between atoms: C19_28  and  O5_29 
ROOT
HETATM    1  C6  UNL     1     -12.254  12.823  16.370  1.00  0.00     0.033 A 
HETATM    2  C7  UNL     1     -12.591  12.096  17.505  1.00  0.00     0.049 A 
HETATM    3  C8  UNL     1     -11.961  10.941  17.885  1.00  0.00     0.027 A 
HETATM    4 BR1  UNL     1     -12.459   9.968  19.458  1.00  0.00    -0.050 Br
HETATM    5  C9  UNL     1     -10.938  10.492  17.081  1.00  0.00     0.030 A 
HETATM    6  C10 UNL     1     -10.299   9.339  17.451  1.00  0.00     0.113 A 
HETATM    7  C11 UNL     1      -9.262   8.882  16.644  1.00  0.00     0.127 A 
HETATM    8  O2  UNL     1      -8.671   7.789  17.013  1.00  0.00    -0.308 OA
HETATM    9  C12 UNL     1      -7.684   7.253  16.343  1.00  0.00     0.092 A 
HETATM   10  C15 UNL     1      -7.246   7.862  15.201  1.00  0.00     0.149 A 
HETATM   11  C17 UNL     1      -7.839   9.043  14.750  1.00  0.00     0.223 A 
HETATM   12  O4  UNL     1      -7.433   9.594  13.707  1.00  0.00    -0.284 OA
HETATM   13  C18 UNL     1      -8.872   9.565  15.487  1.00  0.00     0.088 A 
HETATM   14  C19 UNL     1      -9.514  10.726  15.116  1.00  0.00     0.094 A 
HETATM   15  C20 UNL     1     -10.563  11.167  15.952  1.00  0.00     0.015 A 
HETATM   16  C21 UNL     1     -11.218  12.339  15.586  1.00  0.00     0.044 A 
ENDROOT
BRANCH   1  17
HETATM   17  N1  UNL     1     -12.950  14.013  16.042  1.00  0.00    -0.369 N 
HETATM   18  C5  UNL     1     -14.213  14.012  15.868  1.00  0.00     0.061 C 
ATOM     19  H1  UNL     1     -12.431  14.886  15.945  1.00  0.00     0.165 HD
BRANCH  18  20
HETATM   20  C4  UNL     1     -14.976  12.759  16.007  1.00  0.00     0.044 C 
BRANCH  20  21
HETATM   21  C3  UNL     1     -16.048  12.877  17.088  1.00  0.00     0.005 C 
BRANCH  21  22
HETATM   22  C2  UNL     1     -15.945  11.689  18.007  1.00  0.00    -0.004 C 
HETATM   23  C1  UNL     1     -17.211  11.362  18.724  1.00  0.00     0.005 C 
ENDBRANCH  21  22
ENDBRANCH  20  21
ENDBRANCH  18  20
ENDBRANCH   1  17
BRANCH  14  24
HETATM   24  O5  UNL     1      -9.204  11.450  14.015  1.00  0.00    -0.359 OA
ATOM     25  H5  UNL     1      -8.780  12.299  14.035  1.00  0.00     0.217 HD
ENDBRANCH  14  24
BRANCH   6  26
HETATM   26  O1  UNL     1     -10.678   8.636  18.609  1.00  0.00    -0.357 OA
ATOM     27  H1  UNL     1     -11.559   8.296  18.712  1.00  0.00     0.217 HD
ENDBRANCH   6  26
BRANCH  10  28
HETATM   28  O3  UNL     1      -6.198   7.345  14.448  1.00  0.00    -0.350 OA
HETATM   29  C16 UNL     1      -4.840   7.524  14.706  1.00  0.00     0.210 C 
ENDBRANCH  10  28
BRANCH   9  30
HETATM   30  C13 UNL     1      -7.122   6.000  16.892  1.00  0.00     0.083 C 
BRANCH  30  31
HETATM   31  C14 UNL     1      -8.186   5.193  17.576  1.00  0.00     0.121 C 
HETATM   32 CL1  UNL     1      -9.454   4.578  16.525  1.00  0.00    -0.130 Cl
ENDBRANCH  30  31
ENDBRANCH   9  30
TORSDOF 9
ENDMDL
MODEL 5
REMARK VINA RESULT: -7.312756263      4.046      6.729
REMARK  9 active torsions:
REMARK  status: ('A' for Active; 'I' for Inactive)
REMARK    1  A    between atoms: C2_2  and  C3_3 
REMARK    2  A    between atoms: C3_3  and  C4_4 
REMARK    3  A    between atoms: C4_4  and  C5_5 
REMARK    4  A    between atoms: N1_6  and  C6_8 
REMARK    5  A    between atoms: C10_13  and  O1_14 
REMARK    6  A    between atoms: C12_18  and  C13_19 
REMARK    7  A    between atoms: C13_19  and  C14_20 
REMARK    8  A    between atoms: C15_22  and  O3_23 
REMARK    9  A    between atoms: C19_28  and  O5_29 
ROOT
HETATM    1  C6  UNL     1     -10.250   7.129  19.521  1.00  0.00     0.033 A 
HETATM    2  C7  UNL     1     -11.636   7.211  19.554  1.00  0.00     0.049 A 
HETATM    3  C8  UNL     1     -12.353   8.233  18.987  1.00  0.00     0.027 A 
HETATM    4 BR1  UNL     1     -14.265   8.309  19.058  1.00  0.00    -0.050 Br
HETATM    5  C9  UNL     1     -11.637   9.222  18.353  1.00  0.00     0.030 A 
HETATM    6  C10 UNL     1     -12.342  10.247  17.781  1.00  0.00     0.113 A 
HETATM    7  C11 UNL     1     -11.625  11.250  17.136  1.00  0.00     0.127 A 
HETATM    8  O2  UNL     1     -12.312  12.210  16.601  1.00  0.00    -0.308 OA
HETATM    9  C12 UNL     1     -11.759  13.212  15.968  1.00  0.00     0.092 A 
HETATM   10  C15 UNL     1     -10.399  13.262  15.857  1.00  0.00     0.149 A 
HETATM   11  C17 UNL     1      -9.601  12.258  16.409  1.00  0.00     0.223 A 
HETATM   12  O4  UNL     1      -8.359  12.309  16.304  1.00  0.00    -0.284 OA
HETATM   13  C18 UNL     1     -10.227  11.228  17.065  1.00  0.00     0.088 A 
HETATM   14  C19 UNL     1      -9.519  10.196  17.641  1.00  0.00     0.094 A 
HETATM   15  C20 UNL     1     -10.271   9.193  18.289  1.00  0.00     0.015 A 
HETATM   16  C21 UNL     1      -9.565   8.146  18.873  1.00  0.00     0.044 A 
ENDROOT
BRANCH   1  17
HETATM   17  N1  UNL     1      -9.577   6.039  20.128  1.00  0.00    -0.369 N 
HETATM   18  C5  UNL     1      -9.443   4.926  19.521  1.00  0.00     0.061 C 
ATOM     19  H1  UNL     1      -9.193   6.147  21.066  1.00  0.00     0.165 HD
BRANCH  18  20
HETATM   20  C4  UNL     1      -9.992   4.755  18.163  1.00  0.00     0.044 C 
BRANCH  20  21
HETATM   21  C3  UNL     1      -8.880   4.567  17.133  1.00  0.00     0.005 C 
BRANCH  21  22
HETATM   22  C2  UNL     1      -8.768   5.818  16.303  1.00  0.00    -0.004 C 
HETATM   23  C1  UNL     1      -7.432   6.476  16.372  1.00  0.00     0.005 C 
ENDBRANCH  21  22
ENDBRANCH  20  21
ENDBRANCH  18  20
ENDBRANCH   1  17
BRANCH  14  24
HETATM   24  O5  UNL     1      -8.169  10.095  17.622  1.00  0.00    -0.359 OA
ATOM     25  H5  UNL     1      -7.675   9.439  18.099  1.00  0.00     0.217 HD
ENDBRANCH  14  24
BRANCH   6  26
HETATM   26  O1  UNL     1     -13.746  10.289  17.843  1.00  0.00    -0.357 OA
ATOM     27  H1  UNL     1     -14.223  11.092  17.666  1.00  0.00     0.217 HD
ENDBRANCH   6  26
BRANCH  10  28
HETATM   28  O3  UNL     1      -9.753  14.298  15.192  1.00  0.00    -0.350 OA
HETATM   29  C16 UNL     1      -9.382  14.301  13.848  1.00  0.00     0.210 C 
ENDBRANCH  10  28
BRANCH   9  30
HETATM   30  C13 UNL     1     -12.682  14.231  15.421  1.00  0.00     0.083 C 
BRANCH  30  31
HETATM   31  C14 UNL     1     -13.947  14.293  16.226  1.00  0.00     0.121 C 
HETATM   32 CL1  UNL     1     -15.337  13.500  15.500  1.00  0.00    -0.130 Cl
ENDBRANCH  30  31
ENDBRANCH   9  30
TORSDOF 9
ENDMDL
