MODEL 1
REMARK VINA RESULT: -7.859760804      0.000      0.000
REMARK  8 active torsions:
REMARK  status: ('A' for Active; 'I' for Inactive)
REMARK    1  A    between atoms: C2_2  and  C3_3 
REMARK    2  A    between atoms: C3_3  and  C4_4 
REMARK    3  A    between atoms: C4_4  and  C5_5 
REMARK    4  A    between atoms: C4_4  and  O1_7 
REMARK    5  A    between atoms: O1_7  and  C6_8 
REMARK    6  A    between atoms: C8_10  and  C9_11 
REMARK    7  A    between atoms: C10_12  and  C11_13 
REMARK    8  A    between atoms: C16_18  and  O2_19 
ROOT
HETATM    1  C6  UNL     1     -11.993  11.940  16.179  1.00  0.00     0.116 A 
HETATM    2  C7  UNL     1     -10.935  11.038  16.157  1.00  0.00     0.069 A 
HETATM    3  C8  UNL     1     -10.828   9.967  17.011  1.00  0.00     0.035 A 
HETATM    4  N1  UNL     1     -11.797   9.780  17.916  1.00  0.00    -0.351 N 
ATOM      5  H1  UNL     1     -11.751   8.995  18.566  1.00  0.00     0.166 HD
HETATM    6  C18 UNL     1     -12.825  10.633  17.959  1.00  0.00     0.108 A 
HETATM    7  C19 UNL     1     -13.927  10.606  18.827  1.00  0.00     0.130 A 
HETATM    8 BR1  UNL     1     -14.260   9.334  20.193  1.00  0.00    -0.027 Br
HETATM    9  N2  UNL     1     -14.653  11.671  18.454  1.00  0.00    -0.251 N 
ATOM     10  H2  UNL     1     -15.534  11.955  18.881  1.00  0.00     0.195 HD
HETATM   11  O3  UNL     1     -14.080  12.280  17.483  1.00  0.00    -0.232 OA
HETATM   12  C20 UNL     1     -12.969  11.729  17.113  1.00  0.00     0.162 A 
ENDROOT
BRANCH   3  13
HETATM   13  C9  UNL     1      -9.696   9.039  16.952  1.00  0.00     0.030 C 
HETATM   14  C10 UNL     1      -8.836   9.136  15.970  1.00  0.00     0.014 C 
BRANCH  14  15
HETATM   15  C11 UNL     1      -7.676   8.271  15.811  1.00  0.00    -0.033 A 
HETATM   16  C12 UNL     1      -7.389   7.292  16.720  1.00  0.00     0.018 A 
HETATM   17  C13 UNL     1      -6.286   6.458  16.582  1.00  0.00    -0.059 A 
HETATM   18  C14 UNL     1      -5.983   5.407  17.565  1.00  0.00     0.048 C 
HETATM   19  C15 UNL     1      -5.483   6.655  15.484  1.00  0.00     0.043 A 
HETATM   20  C16 UNL     1      -5.762   7.636  14.563  1.00  0.00     0.067 A 
HETATM   21  C17 UNL     1      -6.848   8.448  14.711  1.00  0.00     0.048 A 
BRANCH  20  22
HETATM   22  O2  UNL     1      -4.943   7.827  13.456  1.00  0.00    -0.361 OA
ATOM     23  H2  UNL     1      -4.939   8.655  12.991  1.00  0.00     0.217 HD
ENDBRANCH  20  22
ENDBRANCH  14  15
ENDBRANCH   3  13
BRANCH   1  24
HETATM   24  O1  UNL     1     -11.985  12.929  15.310  1.00  0.00    -0.311 OA
BRANCH  24  25
HETATM   25  C4  UNL     1     -11.755  14.326  15.369  1.00  0.00     0.063 C 
BRANCH  25  26
HETATM   26  C3  UNL     1     -10.322  14.538  15.275  1.00  0.00     0.007 C 
BRANCH  26  27
HETATM   27  C2  UNL     1      -9.377  13.937  14.359  1.00  0.00     0.025 C 
HETATM   28  C1  UNL     1      -9.710  13.813  12.903  1.00  0.00     0.009 C 
ENDBRANCH  26  27
ENDBRANCH  25  26
BRANCH  25  29
HETATM   29  C5  UNL     1     -12.779  15.104  14.675  1.00  0.00     0.179 C 
HETATM   30 CL1  UNL     1     -14.428  14.599  14.628  1.00  0.00    -0.123 Cl
ENDBRANCH  25  29
ENDBRANCH  24  25
ENDBRANCH   1  24
TORSDOF 8
ENDMDL
MODEL 2
REMARK VINA RESULT: -7.827238242      3.646      5.334
REMARK  8 active torsions:
REMARK  status: ('A' for Active; 'I' for Inactive)
REMARK    1  A    between atoms: C2_2  and  C3_3 
REMARK    2  A    between atoms: C3_3  and  C4_4 
REMARK    3  A    between atoms: C4_4  and  C5_5 
REMARK    4  A    between atoms: C4_4  and  O1_7 
REMARK    5  A    between atoms: O1_7  and  C6_8 
REMARK    6  A    between atoms: C8_10  and  C9_11 
REMARK    7  A    between atoms: C10_12  and  C11_13 
REMARK    8  A    between atoms: C16_18  and  O2_19 
ROOT
HETATM    1  C6  UNL     1     -14.108  10.327  19.200  1.00  0.00     0.116 A 
HETATM    2  C7  UNL     1     -13.207  10.506  18.155  1.00  0.00     0.069 A 
HETATM    3  C8  UNL     1     -12.169   9.648  17.889  1.00  0.00     0.035 A 
HETATM    4  N1  UNL     1     -12.012   8.578  18.679  1.00  0.00    -0.351 N 
ATOM      5  H1  UNL     1     -11.252   7.919  18.511  1.00  0.00     0.166 HD
HETATM    6  C18 UNL     1     -12.863   8.383  19.691  1.00  0.00     0.108 A 
HETATM    7  C19 UNL     1     -12.865   7.332  20.620  1.00  0.00     0.130 A 
HETATM    8 BR1  UNL     1     -11.643   5.885  20.694  1.00  0.00    -0.027 Br
HETATM    9  N2  UNL     1     -13.913   7.608  21.411  1.00  0.00    -0.251 N 
ATOM     10  H2  UNL     1     -14.210   7.041  22.205  1.00  0.00     0.195 HD
HETATM   11  O3  UNL     1     -14.489   8.686  21.026  1.00  0.00    -0.232 OA
HETATM   12  C20 UNL     1     -13.927   9.229  19.993  1.00  0.00     0.162 A 
ENDROOT
BRANCH   3  13
HETATM   13  C9  UNL     1     -11.243   9.874  16.776  1.00  0.00     0.030 C 
HETATM   14  C10 UNL     1     -11.355  10.963  16.058  1.00  0.00     0.014 C 
BRANCH  14  15
HETATM   15  C11 UNL     1     -10.493  11.291  14.931  1.00  0.00    -0.033 A 
HETATM   16  C12 UNL     1     -10.308  12.585  14.531  1.00  0.00     0.018 A 
HETATM   17  C13 UNL     1      -9.490  12.915  13.458  1.00  0.00    -0.059 A 
HETATM   18  C14 UNL     1      -9.296  14.310  13.033  1.00  0.00     0.048 C 
HETATM   19  C15 UNL     1      -8.863  11.881  12.805  1.00  0.00     0.043 A 
HETATM   20  C16 UNL     1      -9.041  10.577  13.199  1.00  0.00     0.067 A 
HETATM   21  C17 UNL     1      -9.849  10.266  14.254  1.00  0.00     0.048 A 
BRANCH  20  22
HETATM   22  O2  UNL     1      -8.403   9.538  12.531  1.00  0.00    -0.361 OA
ATOM     23  H2  UNL     1      -8.126   8.757  12.996  1.00  0.00     0.217 HD
ENDBRANCH  20  22
ENDBRANCH  14  15
ENDBRANCH   3  13
BRANCH   1  24
HETATM   24  O1  UNL     1     -15.064  11.219  19.356  1.00  0.00    -0.311 OA
BRANCH  24  25
HETATM   25  C4  UNL     1     -16.119  11.721  18.554  1.00  0.00     0.063 C 
BRANCH  25  26
HETATM   26  C3  UNL     1     -15.586  11.951  17.224  1.00  0.00     0.007 C 
BRANCH  26  27
HETATM   27  C2  UNL     1     -15.320  13.209  16.561  1.00  0.00     0.025 C 
HETATM   28  C1  UNL     1     -13.920  13.738  16.477  1.00  0.00     0.009 C 
ENDBRANCH  26  27
ENDBRANCH  25  26
BRANCH  25  29
HETATM   29  C5  UNL     1     -17.412  11.111  18.861  1.00  0.00     0.179 C 
HETATM   30 CL1  UNL     1     -17.530   9.560  19.608  1.00  0.00    -0.123 Cl
ENDBRANCH  25  29
ENDBRANCH  24  25
ENDBRANCH   1  24
TORSDOF 8
ENDMDL
MODEL 3
REMARK VINA RESULT: -7.777163064      1.205      1.937
REMARK  8 active torsions:
REMARK  status: ('A' for Active; 'I' for Inactive)
REMARK    1  A    between atoms: C2_2  and  C3_3 
REMARK    2  A    between atoms: C3_3  and  C4_4 
REMARK    3  A    between atoms: C4_4  and  C5_5 
REMARK    4  A    between atoms: C4_4  and  O1_7 
REMARK    5  A    between atoms: O1_7  and  C6_8 
REMARK    6  A    between atoms: C8_10  and  C9_11 
REMARK    7  A    between atoms: C10_12  and  C11_13 
REMARK    8  A    between atoms: C16_18  and  O2_19 
ROOT
HETATM    1  C6  UNL     1     -11.911  12.239  16.724  1.00  0.00     0.116 A 
HETATM    2  C7  UNL     1     -10.912  11.283  16.572  1.00  0.00     0.069 A 
HETATM    3  C8  UNL     1     -10.990  10.011  17.083  1.00  0.00     0.035 A 
HETATM    4  N1  UNL     1     -12.090   9.669  17.767  1.00  0.00    -0.351 N 
ATOM      5  H1  UNL     1     -12.182   8.733  18.160  1.00  0.00     0.166 HD
HETATM    6  C18 UNL     1     -13.064  10.569  17.929  1.00  0.00     0.108 A 
HETATM    7  C19 UNL     1     -14.281  10.404  18.608  1.00  0.00     0.130 A 
HETATM    8 BR1  UNL     1     -14.879   8.837  19.491  1.00  0.00    -0.027 Br
HETATM    9  N2  UNL     1     -14.885  11.595  18.474  1.00  0.00    -0.251 N 
ATOM     10  H2  UNL     1     -15.802  11.829  18.853  1.00  0.00     0.195 HD
HETATM   11  O3  UNL     1     -14.144  12.395  17.801  1.00  0.00    -0.232 OA
HETATM   12  C20 UNL     1     -13.022  11.867  17.427  1.00  0.00     0.162 A 
ENDROOT
BRANCH   3  13
HETATM   13  C9  UNL     1      -9.914   9.034  16.897  1.00  0.00     0.030 C 
HETATM   14  C10 UNL     1      -8.884   9.346  16.152  1.00  0.00     0.014 C 
BRANCH  14  15
HETATM   15  C11 UNL     1      -7.759   8.457  15.899  1.00  0.00    -0.033 A 
HETATM   16  C12 UNL     1      -7.473   7.415  16.735  1.00  0.00     0.018 A 
HETATM   17  C13 UNL     1      -6.403   6.559  16.507  1.00  0.00    -0.059 A 
HETATM   18  C14 UNL     1      -6.102   5.439  17.413  1.00  0.00     0.048 C 
HETATM   19  C15 UNL     1      -5.632   6.798  15.395  1.00  0.00     0.043 A 
HETATM   20  C16 UNL     1      -5.911   7.842  14.546  1.00  0.00     0.067 A 
HETATM   21  C17 UNL     1      -6.964   8.677  14.782  1.00  0.00     0.048 A 
BRANCH  20  22
HETATM   22  O2  UNL     1      -5.125   8.077  13.423  1.00  0.00    -0.361 OA
ATOM     23  H2  UNL     1      -5.479   7.960  12.549  1.00  0.00     0.217 HD
ENDBRANCH  20  22
ENDBRANCH  14  15
ENDBRANCH   3  13
BRANCH   1  24
HETATM   24  O1  UNL     1     -11.721  13.426  16.189  1.00  0.00    -0.311 OA
BRANCH  24  25
HETATM   25  C4  UNL     1     -11.617  13.937  14.872  1.00  0.00     0.063 C 
BRANCH  25  26
HETATM   26  C3  UNL     1     -12.657  14.936  14.707  1.00  0.00     0.007 C 
BRANCH  26  27
HETATM   27  C2  UNL     1     -14.045  14.745  14.344  1.00  0.00     0.025 C 
HETATM   28  C1  UNL     1     -15.049  14.348  15.383  1.00  0.00     0.009 C 
ENDBRANCH  26  27
ENDBRANCH  25  26
BRANCH  25  29
HETATM   29  C5  UNL     1     -10.234  14.063  14.413  1.00  0.00     0.179 C 
HETATM   30 CL1  UNL     1      -9.777  13.688  12.793  1.00  0.00    -0.123 Cl
ENDBRANCH  25  29
ENDBRANCH  24  25
ENDBRANCH   1  24
TORSDOF 8
ENDMDL
MODEL 4
REMARK VINA RESULT: -7.754795672      1.195      1.653
REMARK  8 active torsions:
REMARK  status: ('A' for Active; 'I' for Inactive)
REMARK    1  A    between atoms: C2_2  and  C3_3 
REMARK    2  A    between atoms: C3_3  and  C4_4 
REMARK    3  A    between atoms: C4_4  and  C5_5 
REMARK    4  A    between atoms: C4_4  and  O1_7 
REMARK    5  A    between atoms: O1_7  and  C6_8 
REMARK    6  A    between atoms: C8_10  and  C9_11 
REMARK    7  A    between atoms: C10_12  and  C11_13 
REMARK    8  A    between atoms: C16_18  and  O2_19 
ROOT
HETATM    1  C6  UNL     1     -12.106  11.872  16.270  1.00  0.00     0.116 A 
HETATM    2  C7  UNL     1     -11.078  10.938  16.346  1.00  0.00     0.069 A 
HETATM    3  C8  UNL     1     -11.066   9.888  17.231  1.00  0.00     0.035 A 
HETATM    4  N1  UNL     1     -12.102   9.754  18.070  1.00  0.00    -0.351 N 
ATOM      5  H1  UNL     1     -12.126   8.986  18.740  1.00  0.00     0.166 HD
HETATM    6  C18 UNL     1     -13.102  10.638  18.018  1.00  0.00     0.108 A 
HETATM    7  C19 UNL     1     -14.263  10.668  18.805  1.00  0.00     0.130 A 
HETATM    8 BR1  UNL     1     -14.732   9.444  20.174  1.00  0.00    -0.027 Br
HETATM    9  N2  UNL     1     -14.927  11.743  18.354  1.00  0.00    -0.251 N 
ATOM     10  H2  UNL     1     -15.827  12.065  18.710  1.00  0.00     0.195 HD
HETATM   11  O3  UNL     1     -14.268  12.308  17.412  1.00  0.00    -0.232 OA
HETATM   12  C20 UNL     1     -13.151  11.714  17.136  1.00  0.00     0.162 A 
ENDROOT
BRANCH   3  13
HETATM   13  C9  UNL     1      -9.961   8.926  17.277  1.00  0.00     0.030 C 
HETATM   14  C10 UNL     1      -9.163   8.814  16.246  1.00  0.00     0.014 C 
BRANCH  14  15
HETATM   15  C11 UNL     1      -8.037   7.895  16.180  1.00  0.00    -0.033 A 
HETATM   16  C12 UNL     1      -6.907   8.203  15.475  1.00  0.00     0.018 A 
HETATM   17  C13 UNL     1      -5.824   7.336  15.403  1.00  0.00    -0.059 A 
HETATM   18  C14 UNL     1      -4.611   7.676  14.642  1.00  0.00     0.048 C 
HETATM   19  C15 UNL     1      -5.929   6.141  16.073  1.00  0.00     0.043 A 
HETATM   20  C16 UNL     1      -7.059   5.821  16.786  1.00  0.00     0.067 A 
HETATM   21  C17 UNL     1      -8.117   6.681  16.848  1.00  0.00     0.048 A 
BRANCH  20  22
HETATM   22  O2  UNL     1      -7.156   4.609  17.460  1.00  0.00    -0.361 OA
ATOM     23  H2  UNL     1      -7.955   4.368  17.914  1.00  0.00     0.217 HD
ENDBRANCH  20  22
ENDBRANCH  14  15
ENDBRANCH   3  13
BRANCH   1  24
HETATM   24  O1  UNL     1     -12.005  12.836  15.379  1.00  0.00    -0.311 OA
BRANCH  24  25
HETATM   25  C4  UNL     1     -11.729  14.225  15.419  1.00  0.00     0.063 C 
BRANCH  25  26
HETATM   26  C3  UNL     1     -10.291  14.388  15.304  1.00  0.00     0.007 C 
BRANCH  26  27
HETATM   27  C2  UNL     1      -9.385  13.786  14.351  1.00  0.00     0.025 C 
HETATM   28  C1  UNL     1      -9.726  13.766  12.892  1.00  0.00     0.009 C 
ENDBRANCH  26  27
ENDBRANCH  25  26
BRANCH  25  29
HETATM   29  C5  UNL     1     -12.736  15.029  14.729  1.00  0.00     0.179 C 
HETATM   30 CL1  UNL     1     -14.394  14.556  14.674  1.00  0.00    -0.123 Cl
ENDBRANCH  25  29
ENDBRANCH  24  25
ENDBRANCH   1  24
TORSDOF 8
ENDMDL
MODEL 5
REMARK VINA RESULT: -7.751568518      2.978      7.467
REMARK  8 active torsions:
REMARK  status: ('A' for Active; 'I' for Inactive)
REMARK    1  A    between atoms: C2_2  and  C3_3 
REMARK    2  A    between atoms: C3_3  and  C4_4 
REMARK    3  A    between atoms: C4_4  and  C5_5 
REMARK    4  A    between atoms: C4_4  and  O1_7 
REMARK    5  A    between atoms: O1_7  and  C6_8 
REMARK    6  A    between atoms: C8_10  and  C9_11 
REMARK    7  A    between atoms: C10_12  and  C11_13 
REMARK    8  A    between atoms: C16_18  and  O2_19 
ROOT
HETATM    1  C6  UNL     1     -10.615  11.985  16.152  1.00  0.00     0.116 A 
HETATM    2  C7  UNL     1     -11.710  11.639  16.939  1.00  0.00     0.069 A 
HETATM    3  C8  UNL     1     -11.902  10.388  17.471  1.00  0.00     0.035 A 
HETATM    4  N1  UNL     1     -10.984   9.445  17.220  1.00  0.00    -0.351 N 
ATOM      5  H1  UNL     1     -11.094   8.505  17.600  1.00  0.00     0.166 HD
HETATM    6  C18 UNL     1      -9.923   9.750  16.467  1.00  0.00     0.108 A 
HETATM    7  C19 UNL     1      -8.864   8.909  16.095  1.00  0.00     0.130 A 
HETATM    8 BR1  UNL     1      -8.650   7.086  16.568  1.00  0.00    -0.027 Br
HETATM    9  N2  UNL     1      -8.076   9.698  15.349  1.00  0.00    -0.251 N 
ATOM     10  H2  UNL     1      -7.204   9.404  14.910  1.00  0.00     0.195 HD
HETATM   11  O3  UNL     1      -8.577  10.875  15.267  1.00  0.00    -0.232 OA
HETATM   12  C20 UNL     1      -9.693  11.005  15.910  1.00  0.00     0.162 A 
ENDROOT
BRANCH   3  13
HETATM   13  C9  UNL     1     -13.070  10.068  18.296  1.00  0.00     0.030 C 
HETATM   14  C10 UNL     1     -14.046  10.935  18.392  1.00  0.00     0.014 C 
BRANCH  14  15
HETATM   15  C11 UNL     1     -15.251  10.725  19.180  1.00  0.00    -0.033 A 
HETATM   16  C12 UNL     1     -15.246   9.927  20.290  1.00  0.00     0.018 A 
HETATM   17  C13 UNL     1     -16.388   9.716  21.052  1.00  0.00    -0.059 A 
HETATM   18  C14 UNL     1     -16.373   8.856  22.246  1.00  0.00     0.048 C 
HETATM   19  C15 UNL     1     -17.539  10.347  20.647  1.00  0.00     0.043 A 
HETATM   20  C16 UNL     1     -17.557  11.152  19.533  1.00  0.00     0.067 A 
HETATM   21  C17 UNL     1     -16.428  11.350  18.792  1.00  0.00     0.048 A 
BRANCH  20  22
HETATM   22  O2  UNL     1     -18.727  11.785  19.131  1.00  0.00    -0.361 OA
ATOM     23  H2  UNL     1     -19.022  12.580  19.559  1.00  0.00     0.217 HD
ENDBRANCH  20  22
ENDBRANCH  14  15
ENDBRANCH   3  13
BRANCH   1  24
HETATM   24  O1  UNL     1     -10.541  13.218  15.698  1.00  0.00    -0.311 OA
BRANCH  24  25
HETATM   25  C4  UNL     1     -10.934  13.883  14.510  1.00  0.00     0.063 C 
BRANCH  25  26
HETATM   26  C3  UNL     1     -11.945  14.861  14.871  1.00  0.00     0.007 C 
BRANCH  26  27
HETATM   27  C2  UNL     1     -13.383  14.766  14.741  1.00  0.00     0.025 C 
HETATM   28  C1  UNL     1     -14.192  14.062  15.788  1.00  0.00     0.009 C 
ENDBRANCH  26  27
ENDBRANCH  25  26
BRANCH  25  29
HETATM   29  C5  UNL     1      -9.825  14.106  13.584  1.00  0.00     0.179 C 
HETATM   30 CL1  UNL     1      -9.207  12.842  12.587  1.00  0.00    -0.123 Cl
ENDBRANCH  25  29
ENDBRANCH  24  25
ENDBRANCH   1  24
TORSDOF 8
ENDMDL
