MODEL 1
REMARK VINA RESULT: -7.686417762      0.000      0.000
REMARK  9 active torsions:
REMARK  status: ('A' for Active; 'I' for Inactive)
REMARK    1  A    between atoms: C2_2  and  N1_3 
REMARK    2  A    between atoms: N1_3  and  C3_4 
REMARK    3  A    between atoms: N1_3  and  C5_6 
REMARK    4  A    between atoms: C5_6  and  N2_7 
REMARK    5  A    between atoms: C6_8  and  O1_9 
REMARK    6  A    between atoms: C7_11  and  N3_12 
REMARK    7  A    between atoms: N4_14  and  C8_16 
REMARK    8  A    between atoms: C14_24  and  C15_25 
REMARK    9  A    between atoms: C17_29  and  C18_30 
ROOT
HETATM    1  C15 UNL     1     -12.499  13.741  15.736  1.00  0.00     0.201 C 
HETATM    2  N5  UNL     1     -11.939  15.066  15.498  1.00  0.00    -0.066 NA
HETATM    3  N6  UNL     1     -13.695  13.836  15.707  1.00  0.00    -0.413 NA
HETATM    4  C16 UNL     1     -15.030  13.907  15.679  1.00  0.00     0.230 C 
ENDROOT
BRANCH   1   5
HETATM    5  C14 UNL     1     -11.729  12.524  15.981  1.00  0.00     0.075 A 
HETATM    6  C7  UNL     1     -12.188  11.662  17.013  1.00  0.00     0.116 A 
HETATM    7  C6  UNL     1     -11.334  10.612  17.055  1.00  0.00     0.177 A 
HETATM    8  N2  UNL     1     -10.350  10.723  16.125  1.00  0.00    -0.288 N 
HETATM    9  C17 UNL     1     -10.608  11.901  15.474  1.00  0.00     0.044 A 
BRANCH   6  10
HETATM   10  N3  UNL     1     -13.328  11.858  17.850  1.00  0.00    -0.295 N 
HETATM   11  N4  UNL     1     -14.156  10.926  17.930  1.00  0.00    -0.299 N 
ATOM     12  H4  UNL     1     -13.940  10.094  17.381  1.00  0.00     0.187 HD
ATOM     13  H3  UNL     1     -13.461  12.729  18.364  1.00  0.00     0.187 HD
BRANCH  11  14
HETATM   14  C8  UNL     1     -15.339  10.873  18.673  1.00  0.00     0.070 A 
HETATM   15  C9  UNL     1     -16.462  11.547  18.254  1.00  0.00     0.034 A 
HETATM   16  C10 UNL     1     -17.652  11.500  18.991  1.00  0.00     0.026 A 
HETATM   17  C11 UNL     1     -17.713  10.770  20.157  1.00  0.00     0.035 A 
HETATM   18 CL1  UNL     1     -19.205  10.721  21.067  1.00  0.00    -0.084 Cl
HETATM   19  C12 UNL     1     -16.597  10.091  20.588  1.00  0.00     0.050 A 
HETATM   20  C13 UNL     1     -15.424  10.150  19.841  1.00  0.00     0.063 A 
HETATM   21 CL2  UNL     1     -14.037   9.279  20.421  1.00  0.00    -0.082 Cl
ENDBRANCH  11  14
ENDBRANCH   6  10
BRANCH   7  22
HETATM   22  O1  UNL     1     -11.486   9.556  17.968  1.00  0.00    -0.344 OA
ATOM     23  H1  UNL     1     -12.278   9.347  18.448  1.00  0.00     0.219 HD
ENDBRANCH   7  22
BRANCH   8  24
HETATM   24  C5  UNL     1      -9.324   9.747  15.962  1.00  0.00     0.192 C 
BRANCH  24  25
HETATM   25  N1  UNL     1      -8.328   9.647  16.972  1.00  0.00    -0.357 N 
BRANCH  25  26
HETATM   26  C2  UNL     1      -7.177  10.397  16.556  1.00  0.00     0.124 C 
HETATM   27  C1  UNL     1      -6.052   9.601  15.974  1.00  0.00     0.027 C 
ENDBRANCH  25  26
BRANCH  25  28
HETATM   28  C3  UNL     1      -8.092   8.416  17.583  1.00  0.00     0.060 C 
HETATM   29  C4  UNL     1      -8.888   7.289  16.967  1.00  0.00     0.055 C 
ENDBRANCH  25  28
ENDBRANCH  24  25
ENDBRANCH   8  24
BRANCH   9  30
HETATM   30  C18 UNL     1      -9.824  12.443  14.375  1.00  0.00    -0.007 C 
HETATM   31  C19 UNL     1     -10.549  13.213  13.292  1.00  0.00     0.021 C 
HETATM   32  C20 UNL     1      -9.141  11.350  13.588  1.00  0.00     0.021 C 
HETATM   33  C21 UNL     1      -8.824  13.453  14.924  1.00  0.00     0.021 C 
ENDBRANCH   9  30
ENDBRANCH   1   5
TORSDOF 9
ENDMDL
MODEL 2
REMARK VINA RESULT: -7.618398513      2.950      5.229
REMARK  9 active torsions:
REMARK  status: ('A' for Active; 'I' for Inactive)
REMARK    1  A    between atoms: C2_2  and  N1_3 
REMARK    2  A    between atoms: N1_3  and  C3_4 
REMARK    3  A    between atoms: N1_3  and  C5_6 
REMARK    4  A    between atoms: C5_6  and  N2_7 
REMARK    5  A    between atoms: C6_8  and  O1_9 
REMARK    6  A    between atoms: C7_11  and  N3_12 
REMARK    7  A    between atoms: N4_14  and  C8_16 
REMARK    8  A    between atoms: C14_24  and  C15_25 
REMARK    9  A    between atoms: C17_29  and  C18_30 
ROOT
HETATM    1  C15 UNL     1      -8.336  10.683  15.804  1.00  0.00     0.201 C 
HETATM    2  N5  UNL     1      -8.151  12.111  16.034  1.00  0.00    -0.066 NA
HETATM    3  N6  UNL     1      -8.502  10.518  14.627  1.00  0.00    -0.413 NA
HETATM    4  C16 UNL     1      -8.689  10.300  13.321  1.00  0.00     0.230 C 
ENDROOT
BRANCH   1   5
HETATM    5  C14 UNL     1      -8.332   9.648  16.835  1.00  0.00     0.075 A 
HETATM    6  C7  UNL     1      -9.394   9.668  17.779  1.00  0.00     0.116 A 
HETATM    7  C6  UNL     1      -9.187   8.629  18.622  1.00  0.00     0.177 A 
HETATM    8  N2  UNL     1      -8.068   7.930  18.299  1.00  0.00    -0.288 N 
HETATM    9  C17 UNL     1      -7.555   8.568  17.200  1.00  0.00     0.044 A 
BRANCH   6  10
HETATM   10  N3  UNL     1     -10.474  10.599  17.835  1.00  0.00    -0.295 N 
HETATM   11  N4  UNL     1     -11.086  10.842  16.773  1.00  0.00    -0.299 N 
ATOM     12  H4  UNL     1     -10.754  10.343  15.947  1.00  0.00     0.187 HD
ATOM     13  H3  UNL     1     -10.736  11.051  18.710  1.00  0.00     0.187 HD
BRANCH  11  14
HETATM   14  C8  UNL     1     -12.166  11.705  16.567  1.00  0.00     0.070 A 
HETATM   15  C9  UNL     1     -11.959  13.013  16.195  1.00  0.00     0.034 A 
HETATM   16  C10 UNL     1     -13.035  13.885  15.986  1.00  0.00     0.026 A 
HETATM   17  C11 UNL     1     -14.327  13.440  16.154  1.00  0.00     0.035 A 
HETATM   18 CL1  UNL     1     -15.659  14.541  15.891  1.00  0.00    -0.084 Cl
HETATM   19  C12 UNL     1     -14.548  12.134  16.527  1.00  0.00     0.050 A 
HETATM   20  C13 UNL     1     -13.466  11.283  16.729  1.00  0.00     0.063 A 
HETATM   21 CL2  UNL     1     -13.790   9.642  17.201  1.00  0.00    -0.082 Cl
ENDBRANCH  11  14
ENDBRANCH   6  10
BRANCH   7  22
HETATM   22  O1  UNL     1     -10.052   8.344  19.690  1.00  0.00    -0.344 OA
ATOM     23  H1  UNL     1     -10.794   8.873  19.960  1.00  0.00     0.219 HD
ENDBRANCH   7  22
BRANCH   8  24
HETATM   24  C5  UNL     1      -7.628   6.789  19.032  1.00  0.00     0.192 C 
BRANCH  24  25
HETATM   25  N1  UNL     1      -8.335   5.568  18.859  1.00  0.00    -0.357 N 
BRANCH  25  26
HETATM   26  C2  UNL     1      -8.364   4.874  20.115  1.00  0.00     0.124 C 
HETATM   27  C1  UNL     1      -8.707   3.419  20.052  1.00  0.00     0.027 C 
ENDBRANCH  25  26
BRANCH  25  28
HETATM   28  C3  UNL     1      -8.109   4.799  17.718  1.00  0.00     0.060 C 
HETATM   29  C4  UNL     1      -9.215   4.919  16.697  1.00  0.00     0.055 C 
ENDBRANCH  25  28
ENDBRANCH  24  25
ENDBRANCH   8  24
BRANCH   9  30
HETATM   30  C18 UNL     1      -6.355   8.171  16.480  1.00  0.00    -0.007 C 
HETATM   31  C19 UNL     1      -5.361   7.276  17.187  1.00  0.00     0.021 C 
HETATM   32  C20 UNL     1      -5.506   9.365  16.114  1.00  0.00     0.021 C 
HETATM   33  C21 UNL     1      -6.753   7.364  15.251  1.00  0.00     0.021 C 
ENDBRANCH   9  30
ENDBRANCH   1   5
TORSDOF 9
ENDMDL
MODEL 3
REMARK VINA RESULT: -7.539911322      2.730      5.261
REMARK  9 active torsions:
REMARK  status: ('A' for Active; 'I' for Inactive)
REMARK    1  A    between atoms: C2_2  and  N1_3 
REMARK    2  A    between atoms: N1_3  and  C3_4 
REMARK    3  A    between atoms: N1_3  and  C5_6 
REMARK    4  A    between atoms: C5_6  and  N2_7 
REMARK    5  A    between atoms: C6_8  and  O1_9 
REMARK    6  A    between atoms: C7_11  and  N3_12 
REMARK    7  A    between atoms: N4_14  and  C8_16 
REMARK    8  A    between atoms: C14_24  and  C15_25 
REMARK    9  A    between atoms: C17_29  and  C18_30 
ROOT
HETATM    1  C15 UNL     1      -8.279   9.950  14.853  1.00  0.00     0.201 C 
HETATM    2  N5  UNL     1      -7.701   9.531  13.582  1.00  0.00    -0.066 NA
HETATM    3  N6  UNL     1      -8.577  11.110  14.758  1.00  0.00    -0.413 NA
HETATM    4  C16 UNL     1      -8.920  12.400  14.685  1.00  0.00     0.230 C 
ENDROOT
BRANCH   1   5
HETATM    5  C14 UNL     1      -8.448   9.103  16.032  1.00  0.00     0.075 A 
HETATM    6  C7  UNL     1      -9.734   9.079  16.634  1.00  0.00     0.116 A 
HETATM    7  C6  UNL     1      -9.655   8.235  17.691  1.00  0.00     0.177 A 
HETATM    8  N2  UNL     1      -8.411   7.705  17.823  1.00  0.00    -0.288 N 
HETATM    9  C17 UNL     1      -7.683   8.248  16.797  1.00  0.00     0.044 A 
BRANCH   6  10
HETATM   10  N3  UNL     1     -10.892   9.800  16.215  1.00  0.00    -0.295 N 
HETATM   11  N4  UNL     1     -11.224  10.803  16.882  1.00  0.00    -0.299 N 
ATOM     12  H4  UNL     1     -10.628  11.020  17.681  1.00  0.00     0.187 HD
ATOM     13  H3  UNL     1     -11.429   9.508  15.398  1.00  0.00     0.187 HD
BRANCH  11  14
HETATM   14  C8  UNL     1     -12.304  11.667  16.679  1.00  0.00     0.070 A 
HETATM   15  C9  UNL     1     -12.100  12.953  16.235  1.00  0.00     0.034 A 
HETATM   16  C10 UNL     1     -13.175  13.827  16.029  1.00  0.00     0.026 A 
HETATM   17  C11 UNL     1     -14.463  13.405  16.272  1.00  0.00     0.035 A 
HETATM   18 CL1  UNL     1     -15.795  14.507  16.011  1.00  0.00    -0.084 Cl
HETATM   19  C12 UNL     1     -14.681  12.122  16.717  1.00  0.00     0.050 A 
HETATM   20  C13 UNL     1     -13.600  11.268  16.915  1.00  0.00     0.063 A 
HETATM   21 CL2  UNL     1     -13.919   9.656  17.479  1.00  0.00    -0.082 Cl
ENDBRANCH  11  14
ENDBRANCH   6  10
BRANCH   7  22
HETATM   22  O1  UNL     1     -10.753   7.969  18.524  1.00  0.00    -0.344 OA
ATOM     23  H1  UNL     1     -11.215   8.607  19.055  1.00  0.00     0.219 HD
ENDBRANCH   7  22
BRANCH   8  24
HETATM   24  C5  UNL     1      -8.066   6.787  18.857  1.00  0.00     0.192 C 
BRANCH  24  25
HETATM   25  N1  UNL     1      -8.570   5.461  18.771  1.00  0.00    -0.357 N 
BRANCH  25  26
HETATM   26  C2  UNL     1      -8.426   4.832  20.054  1.00  0.00     0.124 C 
HETATM   27  C1  UNL     1      -8.661   3.355  20.090  1.00  0.00     0.027 C 
ENDBRANCH  25  26
BRANCH  25  28
HETATM   28  C3  UNL     1      -8.273   4.685  17.651  1.00  0.00     0.060 C 
HETATM   29  C4  UNL     1      -9.406   4.633  16.653  1.00  0.00     0.055 C 
ENDBRANCH  25  28
ENDBRANCH  24  25
ENDBRANCH   8  24
BRANCH   9  30
HETATM   30  C18 UNL     1      -6.284   7.965  16.517  1.00  0.00    -0.007 C 
HETATM   31  C19 UNL     1      -5.435   7.387  17.629  1.00  0.00     0.021 C 
HETATM   32  C20 UNL     1      -5.525   9.219  16.153  1.00  0.00     0.021 C 
HETATM   33  C21 UNL     1      -6.196   6.914  15.416  1.00  0.00     0.021 C 
ENDBRANCH   9  30
ENDBRANCH   1   5
TORSDOF 9
ENDMDL
MODEL 4
REMARK VINA RESULT: -7.495948515      3.386      6.000
REMARK  9 active torsions:
REMARK  status: ('A' for Active; 'I' for Inactive)
REMARK    1  A    between atoms: C2_2  and  N1_3 
REMARK    2  A    between atoms: N1_3  and  C3_4 
REMARK    3  A    between atoms: N1_3  and  C5_6 
REMARK    4  A    between atoms: C5_6  and  N2_7 
REMARK    5  A    between atoms: C6_8  and  O1_9 
REMARK    6  A    between atoms: C7_11  and  N3_12 
REMARK    7  A    between atoms: N4_14  and  C8_16 
REMARK    8  A    between atoms: C14_24  and  C15_25 
REMARK    9  A    between atoms: C17_29  and  C18_30 
ROOT
HETATM    1  C15 UNL     1     -11.524   7.037  19.389  1.00  0.00     0.201 C 
HETATM    2  N5  UNL     1     -11.419   6.828  20.829  1.00  0.00    -0.066 NA
HETATM    3  N6  UNL     1     -12.690   7.109  19.111  1.00  0.00    -0.413 NA
HETATM    4  C16 UNL     1     -13.979   7.195  18.768  1.00  0.00     0.230 C 
ENDROOT
BRANCH   1   5
HETATM    5  C14 UNL     1     -10.401   7.125  18.459  1.00  0.00     0.075 A 
HETATM    6  C7  UNL     1     -10.241   8.346  17.749  1.00  0.00     0.116 A 
HETATM    7  C6  UNL     1      -9.149   8.200  16.962  1.00  0.00     0.177 A 
HETATM    8  N2  UNL     1      -8.582   6.974  17.105  1.00  0.00    -0.288 N 
HETATM    9  C17 UNL     1      -9.362   6.327  18.028  1.00  0.00     0.044 A 
BRANCH   6  10
HETATM   10  N3  UNL     1     -11.068   9.506  17.842  1.00  0.00    -0.295 N 
HETATM   11  N4  UNL     1     -11.672   9.871  16.811  1.00  0.00    -0.299 N 
ATOM     12  H4  UNL     1     -11.518   9.298  15.981  1.00  0.00     0.187 HD
ATOM     13  H3  UNL     1     -11.162  10.018  18.718  1.00  0.00     0.187 HD
BRANCH  11  14
HETATM   14  C8  UNL     1     -12.531  10.961  16.644  1.00  0.00     0.070 A 
HETATM   15  C9  UNL     1     -13.896  10.795  16.704  1.00  0.00     0.034 A 
HETATM   16  C10 UNL     1     -14.765  11.881  16.537  1.00  0.00     0.026 A 
HETATM   17  C11 UNL     1     -14.259  13.141  16.308  1.00  0.00     0.035 A 
HETATM   18 CL1  UNL     1     -15.356  14.486  16.102  1.00  0.00    -0.084 Cl
HETATM   19  C12 UNL     1     -12.896  13.321  16.245  1.00  0.00     0.050 A 
HETATM   20  C13 UNL     1     -12.049  12.229  16.414  1.00  0.00     0.063 A 
HETATM   21 CL2  UNL     1     -10.335  12.500  16.326  1.00  0.00    -0.082 Cl
ENDBRANCH  11  14
ENDBRANCH   6  10
BRANCH   7  22
HETATM   22  O1  UNL     1      -8.693   9.221  16.113  1.00  0.00    -0.344 OA
ATOM     23  H1  UNL     1      -8.682  10.149  16.318  1.00  0.00     0.219 HD
ENDBRANCH   7  22
BRANCH   8  24
HETATM   24  C5  UNL     1      -7.419   6.569  16.387  1.00  0.00     0.192 C 
BRANCH  24  25
HETATM   25  N1  UNL     1      -6.155   7.030  16.844  1.00  0.00    -0.357 N 
BRANCH  25  26
HETATM   26  C2  UNL     1      -5.335   7.327  15.704  1.00  0.00     0.124 C 
HETATM   27  C1  UNL     1      -6.062   7.751  14.467  1.00  0.00     0.027 C 
ENDBRANCH  25  26
BRANCH  25  28
HETATM   28  C3  UNL     1      -5.536   6.385  17.915  1.00  0.00     0.060 C 
HETATM   29  C4  UNL     1      -5.585   7.186  19.194  1.00  0.00     0.055 C 
ENDBRANCH  25  28
ENDBRANCH  24  25
ENDBRANCH   8  24
BRANCH   9  30
HETATM   30  C18 UNL     1      -9.138   4.977  18.520  1.00  0.00    -0.007 C 
HETATM   31  C19 UNL     1      -8.215   4.073  17.732  1.00  0.00     0.021 C 
HETATM   32  C20 UNL     1     -10.419   4.177  18.550  1.00  0.00     0.021 C 
HETATM   33  C21 UNL     1      -8.484   5.047  19.894  1.00  0.00     0.021 C 
ENDBRANCH   9  30
ENDBRANCH   1   5
TORSDOF 9
ENDMDL
MODEL 5
REMARK VINA RESULT: -7.493014349      3.241      6.618
REMARK  9 active torsions:
REMARK  status: ('A' for Active; 'I' for Inactive)
REMARK    1  A    between atoms: C2_2  and  N1_3 
REMARK    2  A    between atoms: N1_3  and  C3_4 
REMARK    3  A    between atoms: N1_3  and  C5_6 
REMARK    4  A    between atoms: C5_6  and  N2_7 
REMARK    5  A    between atoms: C6_8  and  O1_9 
REMARK    6  A    between atoms: C7_11  and  N3_12 
REMARK    7  A    between atoms: N4_14  and  C8_16 
REMARK    8  A    between atoms: C14_24  and  C15_25 
REMARK    9  A    between atoms: C17_29  and  C18_30 
ROOT
HETATM    1  C15 UNL     1      -8.540  10.890  15.832  1.00  0.00     0.201 C 
HETATM    2  N5  UNL     1      -7.278  11.014  16.552  1.00  0.00    -0.066 NA
HETATM    3  N6  UNL     1      -8.307  10.399  14.762  1.00  0.00    -0.413 NA
HETATM    4  C16 UNL     1      -8.082   9.853  13.562  1.00  0.00     0.230 C 
ENDROOT
BRANCH   1   5
HETATM    5  C14 UNL     1      -9.848  11.307  16.331  1.00  0.00     0.075 A 
HETATM    6  C7  UNL     1     -10.418  10.536  17.380  1.00  0.00     0.116 A 
HETATM    7  C6  UNL     1     -11.611  11.104  17.678  1.00  0.00     0.177 A 
HETATM    8  N2  UNL     1     -11.863  12.190  16.903  1.00  0.00    -0.288 N 
HETATM    9  C17 UNL     1     -10.770  12.302  16.082  1.00  0.00     0.044 A 
BRANCH   6  10
HETATM   10  N3  UNL     1      -9.851   9.384  18.003  1.00  0.00    -0.295 N 
HETATM   11  N4  UNL     1     -10.330   8.269  17.706  1.00  0.00    -0.299 N 
ATOM     12  H4  UNL     1     -11.097   8.282  17.033  1.00  0.00     0.187 HD
ATOM     13  H3  UNL     1      -9.082   9.469  18.667  1.00  0.00     0.187 HD
BRANCH  11  14
HETATM   14  C8  UNL     1      -9.955   7.006  18.173  1.00  0.00     0.070 A 
HETATM   15  C9  UNL     1     -10.540   6.471  19.297  1.00  0.00     0.034 A 
HETATM   16  C10 UNL     1     -10.170   5.207  19.774  1.00  0.00     0.026 A 
HETATM   17  C11 UNL     1      -9.205   4.476  19.116  1.00  0.00     0.035 A 
HETATM   18 CL1  UNL     1      -8.754   2.900  19.723  1.00  0.00    -0.084 Cl
HETATM   19  C12 UNL     1      -8.611   5.001  17.991  1.00  0.00     0.050 A 
HETATM   20  C13 UNL     1      -8.993   6.258  17.533  1.00  0.00     0.063 A 
HETATM   21 CL2  UNL     1      -8.217   6.883  16.110  1.00  0.00    -0.082 Cl
ENDBRANCH  11  14
ENDBRANCH   6  10
BRANCH   7  22
HETATM   22  O1  UNL     1     -12.456  10.596  18.678  1.00  0.00    -0.344 OA
ATOM     23  H1  UNL     1     -13.130  11.085  19.135  1.00  0.00     0.219 HD
ENDBRANCH   7  22
BRANCH   8  24
HETATM   24  C5  UNL     1     -13.052  12.967  17.019  1.00  0.00     0.192 C 
BRANCH  24  25
HETATM   25  N1  UNL     1     -14.185  12.576  16.254  1.00  0.00    -0.357 N 
BRANCH  25  26
HETATM   26  C2  UNL     1     -15.036  13.719  16.079  1.00  0.00     0.124 C 
HETATM   27  C1  UNL     1     -14.954  14.400  14.750  1.00  0.00     0.027 C 
ENDBRANCH  25  26
BRANCH  25  28
HETATM   28  C3  UNL     1     -14.810  11.360  16.526  1.00  0.00     0.060 C 
HETATM   29  C4  UNL     1     -15.709  11.416  17.738  1.00  0.00     0.055 C 
ENDBRANCH  25  28
ENDBRANCH  24  25
ENDBRANCH   8  24
BRANCH   9  30
HETATM   30  C18 UNL     1     -10.575  13.335  15.078  1.00  0.00    -0.007 C 
HETATM   31  C19 UNL     1     -11.558  14.485  15.034  1.00  0.00     0.021 C 
HETATM   32  C20 UNL     1     -10.675  12.776  13.678  1.00  0.00     0.021 C 
HETATM   33  C21 UNL     1      -9.235  14.019  15.317  1.00  0.00     0.021 C 
ENDBRANCH   9  30
ENDBRANCH   1   5
TORSDOF 9
ENDMDL
