MODEL 1
REMARK VINA RESULT: -6.836216542      0.000      0.000
REMARK  4 active torsions:
REMARK  status: ('A' for Active; 'I' for Inactive)
REMARK    1  A    between atoms: N1_1  and  S1_4 
REMARK    2  A    between atoms: S1_4  and  C1_7 
REMARK    3  A    between atoms: C4_10  and  N2_11 
REMARK    4  A    between atoms: N2_11  and  C5_13 
ROOT
HETATM    1  C1  UNL     1       4.858  -9.532 -39.339  1.00  0.00     0.079 A 
HETATM    2  C2  UNL     1       5.932  -8.997 -40.004  1.00  0.00     0.027 A 
HETATM    3  C3  UNL     1       5.700  -8.146 -41.063  1.00  0.00     0.031 A 
HETATM    4  C4  UNL     1       4.411  -7.826 -41.463  1.00  0.00     0.049 A 
HETATM    5  C9  UNL     1       3.340  -8.367 -40.792  1.00  0.00     0.031 A 
HETATM    6  C10 UNL     1       3.567  -9.223 -39.727  1.00  0.00     0.027 A 
ENDROOT
BRANCH   4   7
HETATM    7  N2  UNL     1       4.148  -6.955 -42.546  1.00  0.00    -0.192 N 
ATOM      8  H2  UNL     1       3.659  -7.308 -43.369  1.00  0.00     0.184 HD
BRANCH   7   9
HETATM    9  C5  UNL     1       4.524  -5.703 -42.506  1.00  0.00     0.685 A 
HETATM   10  N3  UNL     1       5.536  -5.236 -43.224  1.00  0.00    -0.201 N 
HETATM   11  C6  UNL     1       5.914  -3.949 -43.175  1.00  0.00     0.111 A 
ATOM     12  H3  UNL     1       6.045  -5.876 -43.834  1.00  0.00     0.183 HD
HETATM   13  C7  UNL     1       5.239  -3.054 -42.354  1.00  0.00     0.092 A 
HETATM   14  C8  UNL     1       4.191  -3.573 -41.620  1.00  0.00     0.260 A 
HETATM   15  O3  UNL     1       3.549  -2.783 -40.855  1.00  0.00    -0.268 OA
HETATM   16  N4  UNL     1       3.851  -4.865 -41.701  1.00  0.00    -0.156 N 
ATOM     17  H4  UNL     1       3.071  -5.216 -41.145  1.00  0.00     0.187 HD
ENDBRANCH   7   9
ENDBRANCH   4   7
BRANCH   1  18
HETATM   18  S1  UNL     1       5.020 -10.625 -37.979  1.00  0.00     0.256 S 
HETATM   19  O1  UNL     1       5.781 -10.017 -36.860  1.00  0.00    -0.201 OA
HETATM   20  O2  UNL     1       5.647 -11.925 -38.397  1.00  0.00    -0.201 OA
BRANCH  18  21
HETATM   21  N1  UNL     1       3.402 -11.003 -37.446  1.00  0.00    -0.324 N 
ATOM     22  H12 UNL     1       2.837 -10.403 -36.846  1.00  0.00     0.169 HD
ATOM     23  H11 UNL     1       3.120 -11.907 -37.827  1.00  0.00     0.169 HD
ENDBRANCH  18  21
ENDBRANCH   1  18
TORSDOF 4
ENDMDL
MODEL 2
REMARK VINA RESULT: -6.778920763      0.225      1.142
REMARK  4 active torsions:
REMARK  status: ('A' for Active; 'I' for Inactive)
REMARK    1  A    between atoms: N1_1  and  S1_4 
REMARK    2  A    between atoms: S1_4  and  C1_7 
REMARK    3  A    between atoms: C4_10  and  N2_11 
REMARK    4  A    between atoms: N2_11  and  C5_13 
ROOT
HETATM    1  C1  UNL     1       4.587  -9.606 -39.262  1.00  0.00     0.079 A 
HETATM    2  C2  UNL     1       3.314  -9.166 -39.517  1.00  0.00     0.027 A 
HETATM    3  C3  UNL     1       3.106  -8.316 -40.583  1.00  0.00     0.031 A 
HETATM    4  C4  UNL     1       4.155  -7.904 -41.391  1.00  0.00     0.049 A 
HETATM    5  C9  UNL     1       5.429  -8.349 -41.128  1.00  0.00     0.031 A 
HETATM    6  C10 UNL     1       5.644  -9.203 -40.058  1.00  0.00     0.027 A 
ENDROOT
BRANCH   4   7
HETATM    7  N2  UNL     1       3.968  -7.033 -42.490  1.00  0.00    -0.192 N 
ATOM      8  H2  UNL     1       3.493  -7.371 -43.326  1.00  0.00     0.184 HD
BRANCH   7   9
HETATM    9  C5  UNL     1       4.397  -5.798 -42.446  1.00  0.00     0.685 A 
HETATM   10  N3  UNL     1       5.446  -5.379 -43.141  1.00  0.00    -0.201 N 
HETATM   11  C6  UNL     1       5.877  -4.109 -43.089  1.00  0.00     0.111 A 
ATOM     12  H3  UNL     1       5.941  -6.043 -43.735  1.00  0.00     0.183 HD
HETATM   13  C7  UNL     1       5.222  -3.181 -42.288  1.00  0.00     0.092 A 
HETATM   14  C8  UNL     1       4.135  -3.651 -41.577  1.00  0.00     0.260 A 
HETATM   15  O3  UNL     1       3.510  -2.829 -40.832  1.00  0.00    -0.268 OA
HETATM   16  N4  UNL     1       3.742  -4.926 -41.661  1.00  0.00    -0.156 N 
ATOM     17  H4  UNL     1       2.934  -5.241 -41.123  1.00  0.00     0.187 HD
ENDBRANCH   7   9
ENDBRANCH   4   7
BRANCH   1  18
HETATM   18  S1  UNL     1       4.980 -10.687 -37.939  1.00  0.00     0.256 S 
HETATM   19  O1  UNL     1       5.779 -10.014 -36.885  1.00  0.00    -0.201 OA
HETATM   20  O2  UNL     1       5.689 -11.917 -38.432  1.00  0.00    -0.201 OA
BRANCH  18  21
HETATM   21  N1  UNL     1       3.462 -11.225 -37.266  1.00  0.00    -0.324 N 
ATOM     22  H12 UNL     1       3.351 -11.611 -36.329  1.00  0.00     0.169 HD
ATOM     23  H11 UNL     1       2.719 -11.092 -37.952  1.00  0.00     0.169 HD
ENDBRANCH  18  21
ENDBRANCH   1  18
TORSDOF 4
ENDMDL
MODEL 3
REMARK VINA RESULT: -6.762541218      2.891      6.879
REMARK  4 active torsions:
REMARK  status: ('A' for Active; 'I' for Inactive)
REMARK    1  A    between atoms: N1_1  and  S1_4 
REMARK    2  A    between atoms: S1_4  and  C1_7 
REMARK    3  A    between atoms: C4_10  and  N2_11 
REMARK    4  A    between atoms: N2_11  and  C5_13 
ROOT
HETATM    1  C1  UNL     1       4.592  -4.908 -40.870  1.00  0.00     0.079 A 
HETATM    2  C2  UNL     1       4.564  -5.088 -39.510  1.00  0.00     0.027 A 
HETATM    3  C3  UNL     1       5.028  -6.277 -38.989  1.00  0.00     0.031 A 
HETATM    4  C4  UNL     1       5.517  -7.282 -39.809  1.00  0.00     0.049 A 
HETATM    5  C9  UNL     1       5.542  -7.094 -41.171  1.00  0.00     0.031 A 
HETATM    6  C10 UNL     1       5.076  -5.901 -41.701  1.00  0.00     0.027 A 
ENDROOT
BRANCH   4   7
HETATM    7  N2  UNL     1       5.998  -8.510 -39.298  1.00  0.00    -0.192 N 
ATOM      8  H2  UNL     1       7.004  -8.672 -39.238  1.00  0.00     0.184 HD
BRANCH   7   9
HETATM    9  C5  UNL     1       5.170  -9.440 -38.901  1.00  0.00     0.685 A 
HETATM   10  N3  UNL     1       4.537 -10.244 -39.745  1.00  0.00    -0.201 N 
HETATM   11  C6  UNL     1       3.689 -11.196 -39.327  1.00  0.00     0.111 A 
ATOM     12  H3  UNL     1       4.701 -10.135 -40.746  1.00  0.00     0.183 HD
HETATM   13  C7  UNL     1       3.446 -11.368 -37.970  1.00  0.00     0.092 A 
HETATM   14  C8  UNL     1       4.121 -10.515 -37.118  1.00  0.00     0.260 A 
HETATM   15  O3  UNL     1       3.923 -10.643 -35.867  1.00  0.00    -0.268 OA
HETATM   16  N4  UNL     1       4.957  -9.580 -37.582  1.00  0.00    -0.156 N 
ATOM     17  H4  UNL     1       5.440  -8.966 -36.926  1.00  0.00     0.187 HD
ENDBRANCH   7   9
ENDBRANCH   4   7
BRANCH   1  18
HETATM   18  S1  UNL     1       4.031  -3.444 -41.654  1.00  0.00     0.256 S 
HETATM   19  O1  UNL     1       3.520  -2.448 -40.681  1.00  0.00    -0.201 OA
HETATM   20  O2  UNL     1       2.989  -3.747 -42.693  1.00  0.00    -0.201 OA
BRANCH  18  21
HETATM   21  N1  UNL     1       5.402  -2.777 -42.506  1.00  0.00    -0.324 N 
ATOM     22  H12 UNL     1       6.040  -2.084 -42.117  1.00  0.00     0.169 HD
ATOM     23  H11 UNL     1       5.456  -3.188 -43.438  1.00  0.00     0.169 HD
ENDBRANCH  18  21
ENDBRANCH   1  18
TORSDOF 4
ENDMDL
MODEL 4
REMARK VINA RESULT: -6.721013582      2.882      6.848
REMARK  4 active torsions:
REMARK  status: ('A' for Active; 'I' for Inactive)
REMARK    1  A    between atoms: N1_1  and  S1_4 
REMARK    2  A    between atoms: S1_4  and  C1_7 
REMARK    3  A    between atoms: C4_10  and  N2_11 
REMARK    4  A    between atoms: N2_11  and  C5_13 
ROOT
HETATM    1  C1  UNL     1       4.641  -4.928 -41.144  1.00  0.00     0.079 A 
HETATM    2  C2  UNL     1       5.168  -5.930 -41.919  1.00  0.00     0.027 A 
HETATM    3  C3  UNL     1       5.608  -7.083 -41.303  1.00  0.00     0.031 A 
HETATM    4  C4  UNL     1       5.527  -7.242 -39.928  1.00  0.00     0.049 A 
HETATM    5  C9  UNL     1       4.999  -6.233 -39.159  1.00  0.00     0.031 A 
HETATM    6  C10 UNL     1       4.555  -5.072 -39.771  1.00  0.00     0.027 A 
ENDROOT
BRANCH   4   7
HETATM    7  N2  UNL     1       5.973  -8.414 -39.274  1.00  0.00    -0.192 N 
ATOM      8  H2  UNL     1       6.969  -8.546 -39.098  1.00  0.00     0.184 HD
BRANCH   7   9
HETATM    9  C5  UNL     1       5.122  -9.332 -38.892  1.00  0.00     0.685 A 
HETATM   10  N3  UNL     1       4.435 -10.073 -39.751  1.00  0.00    -0.201 N 
HETATM   11  C6  UNL     1       3.565 -11.013 -39.348  1.00  0.00     0.111 A 
ATOM     12  H3  UNL     1       4.571  -9.925 -40.750  1.00  0.00     0.183 HD
HETATM   13  C7  UNL     1       3.358 -11.237 -37.992  1.00  0.00     0.092 A 
HETATM   14  C8  UNL     1       4.090 -10.449 -37.126  1.00  0.00     0.260 A 
HETATM   15  O3  UNL     1       3.926 -10.627 -35.876  1.00  0.00    -0.268 OA
HETATM   16  N4  UNL     1       4.946  -9.524 -37.575  1.00  0.00    -0.156 N 
ATOM     17  H4  UNL     1       5.471  -8.958 -36.908  1.00  0.00     0.187 HD
ENDBRANCH   7   9
ENDBRANCH   4   7
BRANCH   1  18
HETATM   18  S1  UNL     1       4.048  -3.417 -41.806  1.00  0.00     0.256 S 
HETATM   19  O1  UNL     1       3.517  -2.516 -40.754  1.00  0.00    -0.201 OA
HETATM   20  O2  UNL     1       3.011  -3.656 -42.867  1.00  0.00    -0.201 OA
BRANCH  18  21
HETATM   21  N1  UNL     1       5.403  -2.653 -42.599  1.00  0.00    -0.324 N 
ATOM     22  H12 UNL     1       6.021  -1.974 -42.156  1.00  0.00     0.169 HD
ATOM     23  H11 UNL     1       5.471  -2.992 -43.558  1.00  0.00     0.169 HD
ENDBRANCH  18  21
ENDBRANCH   1  18
TORSDOF 4
ENDMDL
MODEL 5
REMARK VINA RESULT: -6.711518510      4.247      8.097
REMARK  4 active torsions:
REMARK  status: ('A' for Active; 'I' for Inactive)
REMARK    1  A    between atoms: N1_1  and  S1_4 
REMARK    2  A    between atoms: S1_4  and  C1_7 
REMARK    3  A    between atoms: C4_10  and  N2_11 
REMARK    4  A    between atoms: N2_11  and  C5_13 
ROOT
HETATM    1  C1  UNL     1       4.188  -7.439 -38.266  1.00  0.00     0.079 A 
HETATM    2  C2  UNL     1       4.926  -8.506 -37.823  1.00  0.00     0.027 A 
HETATM    3  C3  UNL     1       4.266  -9.600 -37.303  1.00  0.00     0.031 A 
HETATM    4  C4  UNL     1       2.882  -9.635 -37.221  1.00  0.00     0.049 A 
HETATM    5  C9  UNL     1       2.149  -8.560 -37.666  1.00  0.00     0.031 A 
HETATM    6  C10 UNL     1       2.807  -7.459 -38.190  1.00  0.00     0.027 A 
ENDROOT
BRANCH   4   7
HETATM    7  N2  UNL     1       2.183 -10.744 -36.691  1.00  0.00    -0.192 N 
ATOM      8  H2  UNL     1       1.853 -11.479 -37.318  1.00  0.00     0.184 HD
BRANCH   7   9
HETATM    9  C5  UNL     1       1.953 -10.840 -35.407  1.00  0.00     0.685 A 
HETATM   10  N3  UNL     1       0.884 -10.308 -34.830  1.00  0.00    -0.201 N 
HETATM   11  C6  UNL     1       0.658 -10.412 -33.510  1.00  0.00     0.111 A 
ATOM     12  H3  UNL     1       0.212  -9.803 -35.406  1.00  0.00     0.183 HD
HETATM   13  C7  UNL     1       1.557 -11.095 -32.700  1.00  0.00     0.092 A 
HETATM   14  C8  UNL     1       2.658 -11.636 -33.333  1.00  0.00     0.260 A 
HETATM   15  O3  UNL     1       3.504 -12.269 -32.622  1.00  0.00    -0.268 OA
HETATM   16  N4  UNL     1       2.841 -11.506 -34.652  1.00  0.00    -0.156 N 
ATOM     17  H4  UNL     1       3.666 -11.918 -35.089  1.00  0.00     0.187 HD
ENDBRANCH   7   9
ENDBRANCH   4   7
BRANCH   1  18
HETATM   18  S1  UNL     1       4.907  -5.992 -38.947  1.00  0.00     0.256 S 
HETATM   19  O1  UNL     1       5.787  -6.296 -40.102  1.00  0.00    -0.201 OA
HETATM   20  O2  UNL     1       5.658  -5.215 -37.904  1.00  0.00    -0.201 OA
BRANCH  18  21
HETATM   21  N1  UNL     1       3.587  -4.976 -39.469  1.00  0.00    -0.324 N 
ATOM     22  H12 UNL     1       3.696  -4.134 -40.033  1.00  0.00     0.169 HD
ATOM     23  H11 UNL     1       2.706  -5.358 -39.125  1.00  0.00     0.169 HD
ENDBRANCH  18  21
ENDBRANCH   1  18
TORSDOF 4
ENDMDL
