MODEL 1
REMARK VINA RESULT: -7.825332350      0.000      0.000
REMARK  3 active torsions:
REMARK  status: ('A' for Active; 'I' for Inactive)
REMARK    1  A    between atoms: N1_2  and  O1_3 
REMARK    2  A    between atoms: C2_5  and  C3_6 
REMARK    3  A    between atoms: N2_8  and  C5_9 
ROOT
HETATM    1  C5  UNL     1       4.866  -6.924 -41.373  1.00  0.00     0.056 A 
HETATM    2  C6  UNL     1       3.777  -7.154 -42.213  1.00  0.00     0.032 A 
HETATM    3  C7  UNL     1       3.638  -6.380 -43.347  1.00  0.00     0.025 A 
HETATM    4  C8  UNL     1       4.547  -5.386 -43.671  1.00  0.00     0.044 A 
HETATM    5  C9  UNL     1       4.422  -4.574 -44.840  1.00  0.00     0.099 C 
HETATM    6  N3  UNL     1       4.312  -3.900 -45.780  1.00  0.00    -0.191 NA
HETATM    7  C10 UNL     1       5.624  -5.156 -42.844  1.00  0.00     0.025 A 
HETATM    8  C11 UNL     1       5.753  -5.931 -41.718  1.00  0.00     0.032 A 
ENDROOT
BRANCH   1   9
HETATM    9  N2  UNL     1       5.001  -7.719 -40.213  1.00  0.00    -0.158 N 
HETATM   10  C4  UNL     1       5.176  -9.079 -40.301  1.00  0.00     0.131 A 
HETATM   11  C3  UNL     1       5.310  -9.880 -39.200  1.00  0.00     0.040 A 
HETATM   12  C13 UNL     1       5.257  -9.219 -37.959  1.00  0.00     0.144 A 
HETATM   13  N5  UNL     1       5.089  -7.908 -37.886  1.00  0.00    -0.178 N 
HETATM   14  N6  UNL     1       5.395 -10.039 -36.805  1.00  0.00    -0.081 NA
HETATM   15  C12 UNL     1       4.962  -7.168 -38.998  1.00  0.00     0.683 A 
ATOM     16  H5  UNL     1       5.055  -7.454 -36.974  1.00  0.00     0.185 HD
HETATM   17  N4  UNL     1       4.797  -5.890 -38.938  1.00  0.00    -0.234 N 
ATOM     18  H42 UNL     1       4.701  -5.328 -39.783  1.00  0.00     0.174 HD
ATOM     19  H41 UNL     1       4.767  -5.470 -38.009  1.00  0.00     0.174 HD
BRANCH  11  20
HETATM   20  C2  UNL     1       5.492 -11.288 -39.267  1.00  0.00     0.132 C 
HETATM   21  N1  UNL     1       4.725 -12.245 -39.447  1.00  0.00    -0.276 N 
HETATM   22  C1  UNL     1       3.327 -12.261 -39.659  1.00  0.00     0.184 C 
BRANCH  21  23
HETATM   23  O1  UNL     1       5.348 -13.548 -39.441  1.00  0.00    -0.288 OA
ATOM     24  H1  UNL     1       6.041 -13.658 -40.081  1.00  0.00     0.244 HD
ENDBRANCH  21  23
ENDBRANCH  11  20
ENDBRANCH   1   9
TORSDOF 3
ENDMDL
MODEL 2
REMARK VINA RESULT: -7.802978504      1.874      2.796
REMARK  3 active torsions:
REMARK  status: ('A' for Active; 'I' for Inactive)
REMARK    1  A    between atoms: N1_2  and  O1_3 
REMARK    2  A    between atoms: C2_5  and  C3_6 
REMARK    3  A    between atoms: N2_8  and  C5_9 
ROOT
HETATM    1  C5  UNL     1       5.398  -5.323 -43.054  1.00  0.00     0.056 A 
HETATM    2  C6  UNL     1       4.388  -5.730 -43.925  1.00  0.00     0.032 A 
HETATM    3  C7  UNL     1       4.515  -5.442 -45.269  1.00  0.00     0.025 A 
HETATM    4  C8  UNL     1       5.612  -4.762 -45.772  1.00  0.00     0.044 A 
HETATM    5  C9  UNL     1       5.763  -4.453 -47.159  1.00  0.00     0.099 C 
HETATM    6  N3  UNL     1       5.878  -4.184 -48.283  1.00  0.00    -0.191 NA
HETATM    7  C10 UNL     1       6.612  -4.358 -44.914  1.00  0.00     0.025 A 
HETATM    8  C11 UNL     1       6.476  -4.650 -43.579  1.00  0.00     0.032 A 
ENDROOT
BRANCH   1   9
HETATM    9  N2  UNL     1       5.261  -5.621 -41.680  1.00  0.00    -0.158 N 
HETATM   10  C4  UNL     1       5.493  -6.888 -41.201  1.00  0.00     0.131 A 
HETATM   11  C3  UNL     1       5.369  -7.212 -39.877  1.00  0.00     0.040 A 
HETATM   12  C13 UNL     1       4.987  -6.158 -39.027  1.00  0.00     0.144 A 
HETATM   13  N5  UNL     1       4.767  -4.941 -39.499  1.00  0.00    -0.178 N 
HETATM   14  N6  UNL     1       4.855  -6.481 -37.648  1.00  0.00    -0.081 NA
HETATM   15  C12 UNL     1       4.902  -4.676 -40.807  1.00  0.00     0.683 A 
ATOM     16  H5  UNL     1       4.492  -4.195 -38.861  1.00  0.00     0.185 HD
HETATM   17  N4  UNL     1       4.689  -3.494 -41.278  1.00  0.00    -0.234 N 
ATOM     18  H42 UNL     1       4.792  -3.293 -42.272  1.00  0.00     0.174 HD
ATOM     19  H41 UNL     1       4.415  -2.773 -40.611  1.00  0.00     0.174 HD
BRANCH  11  20
HETATM   20  C2  UNL     1       5.605  -8.516 -39.361  1.00  0.00     0.132 C 
HETATM   21  N1  UNL     1       4.918  -9.544 -39.281  1.00  0.00    -0.276 N 
HETATM   22  C1  UNL     1       3.590  -9.784 -39.704  1.00  0.00     0.184 C 
BRANCH  21  23
HETATM   23  O1  UNL     1       5.567 -10.677 -38.664  1.00  0.00    -0.288 OA
ATOM     24  H1  UNL     1       5.271 -10.870 -37.782  1.00  0.00     0.244 HD
ENDBRANCH  21  23
ENDBRANCH  11  20
ENDBRANCH   1   9
TORSDOF 3
ENDMDL
MODEL 3
REMARK VINA RESULT: -7.742406086      1.900      3.045
REMARK  3 active torsions:
REMARK  status: ('A' for Active; 'I' for Inactive)
REMARK    1  A    between atoms: N1_2  and  O1_3 
REMARK    2  A    between atoms: C2_5  and  C3_6 
REMARK    3  A    between atoms: N2_8  and  C5_9 
ROOT
HETATM    1  C5  UNL     1       5.345  -5.317 -43.096  1.00  0.00     0.056 A 
HETATM    2  C6  UNL     1       6.494  -4.670 -43.552  1.00  0.00     0.032 A 
HETATM    3  C7  UNL     1       6.614  -4.402 -44.900  1.00  0.00     0.025 A 
HETATM    4  C8  UNL     1       5.630  -4.757 -45.808  1.00  0.00     0.044 A 
HETATM    5  C9  UNL     1       5.734  -4.489 -47.208  1.00  0.00     0.099 C 
HETATM    6  N3  UNL     1       5.825  -4.289 -48.348  1.00  0.00    -0.191 NA
HETATM    7  C10 UNL     1       4.493  -5.396 -45.362  1.00  0.00     0.025 A 
HETATM    8  C11 UNL     1       4.384  -5.658 -44.018  1.00  0.00     0.032 A 
ENDROOT
BRANCH   1   9
HETATM    9  N2  UNL     1       5.230  -5.589 -41.715  1.00  0.00    -0.158 N 
HETATM   10  C4  UNL     1       5.462  -6.849 -41.217  1.00  0.00     0.131 A 
HETATM   11  C3  UNL     1       5.360  -7.148 -39.885  1.00  0.00     0.040 A 
HETATM   12  C13 UNL     1       4.997  -6.076 -39.049  1.00  0.00     0.144 A 
HETATM   13  N5  UNL     1       4.775  -4.867 -39.539  1.00  0.00    -0.178 N 
HETATM   14  N6  UNL     1       4.887  -6.373 -37.662  1.00  0.00    -0.081 NA
HETATM   15  C12 UNL     1       4.890  -4.627 -40.854  1.00  0.00     0.683 A 
ATOM     16  H5  UNL     1       4.515  -4.108 -38.911  1.00  0.00     0.185 HD
HETATM   17  N4  UNL     1       4.675  -3.452 -41.342  1.00  0.00    -0.234 N 
ATOM     18  H42 UNL     1       4.762  -3.270 -42.342  1.00  0.00     0.174 HD
ATOM     19  H41 UNL     1       4.416  -2.717 -40.684  1.00  0.00     0.174 HD
BRANCH  11  20
HETATM   20  C2  UNL     1       5.596  -8.443 -39.349  1.00  0.00     0.132 C 
HETATM   21  N1  UNL     1       4.915  -9.474 -39.263  1.00  0.00    -0.276 N 
HETATM   22  C1  UNL     1       3.593  -9.728 -39.696  1.00  0.00     0.184 C 
BRANCH  21  23
HETATM   23  O1  UNL     1       5.564 -10.595 -38.624  1.00  0.00    -0.288 OA
ATOM     24  H1  UNL     1       5.819 -11.294 -39.215  1.00  0.00     0.244 HD
ENDBRANCH  21  23
ENDBRANCH  11  20
ENDBRANCH   1   9
TORSDOF 3
ENDMDL
MODEL 4
REMARK VINA RESULT: -7.564063309      2.480      3.056
REMARK  3 active torsions:
REMARK  status: ('A' for Active; 'I' for Inactive)
REMARK    1  A    between atoms: N1_2  and  O1_3 
REMARK    2  A    between atoms: C2_5  and  C3_6 
REMARK    3  A    between atoms: N2_8  and  C5_9 
ROOT
HETATM    1  C5  UNL     1       4.593  -7.228 -41.072  1.00  0.00     0.056 A 
HETATM    2  C6  UNL     1       3.820  -7.649 -42.154  1.00  0.00     0.032 A 
HETATM    3  C7  UNL     1       3.816  -6.886 -43.304  1.00  0.00     0.025 A 
HETATM    4  C8  UNL     1       4.555  -5.718 -43.410  1.00  0.00     0.044 A 
HETATM    5  C9  UNL     1       4.565  -4.913 -44.591  1.00  0.00     0.099 C 
HETATM    6  N3  UNL     1       4.559  -4.248 -45.543  1.00  0.00    -0.191 NA
HETATM    7  C10 UNL     1       5.320  -5.299 -42.344  1.00  0.00     0.025 A 
HETATM    8  C11 UNL     1       5.316  -6.066 -41.205  1.00  0.00     0.032 A 
ENDROOT
BRANCH   1   9
HETATM    9  N2  UNL     1       4.591  -8.014 -39.898  1.00  0.00    -0.158 N 
HETATM   10  C4  UNL     1       3.488  -8.068 -39.081  1.00  0.00     0.131 A 
HETATM   11  C3  UNL     1       3.451  -8.818 -37.937  1.00  0.00     0.040 A 
HETATM   12  C13 UNL     1       4.624  -9.538 -37.645  1.00  0.00     0.144 A 
HETATM   13  N5  UNL     1       5.682  -9.478 -38.440  1.00  0.00    -0.178 N 
HETATM   14  N6  UNL     1       4.600 -10.322 -36.459  1.00  0.00    -0.081 NA
HETATM   15  C12 UNL     1       5.665  -8.727 -39.550  1.00  0.00     0.683 A 
ATOM     16  H5  UNL     1       6.519 -10.011 -38.206  1.00  0.00     0.185 HD
HETATM   17  N4  UNL     1       6.690  -8.661 -40.331  1.00  0.00    -0.234 N 
ATOM     18  H42 UNL     1       6.677  -8.090 -41.176  1.00  0.00     0.174 HD
ATOM     19  H41 UNL     1       7.510  -9.206 -40.065  1.00  0.00     0.174 HD
BRANCH  11  20
HETATM   20  C2  UNL     1       2.320  -8.889 -37.078  1.00  0.00     0.132 C 
HETATM   21  N1  UNL     1       1.268  -8.242 -36.990  1.00  0.00    -0.276 N 
HETATM   22  C1  UNL     1       0.805  -7.150 -37.761  1.00  0.00     0.184 C 
BRANCH  21  23
HETATM   23  O1  UNL     1       0.367  -8.662 -35.942  1.00  0.00    -0.288 OA
ATOM     24  H1  UNL     1       0.625  -8.393 -35.068  1.00  0.00     0.244 HD
ENDBRANCH  21  23
ENDBRANCH  11  20
ENDBRANCH   1   9
TORSDOF 3
ENDMDL
MODEL 5
REMARK VINA RESULT: -7.553822861      2.375      3.105
REMARK  3 active torsions:
REMARK  status: ('A' for Active; 'I' for Inactive)
REMARK    1  A    between atoms: N1_2  and  O1_3 
REMARK    2  A    between atoms: C2_5  and  C3_6 
REMARK    3  A    between atoms: N2_8  and  C5_9 
ROOT
HETATM    1  C5  UNL     1       4.643  -7.110 -41.132  1.00  0.00     0.056 A 
HETATM    2  C6  UNL     1       5.257  -5.858 -41.113  1.00  0.00     0.032 A 
HETATM    3  C7  UNL     1       5.190  -5.068 -42.242  1.00  0.00     0.025 A 
HETATM    4  C8  UNL     1       4.534  -5.484 -43.389  1.00  0.00     0.044 A 
HETATM    5  C9  UNL     1       4.452  -4.682 -44.569  1.00  0.00     0.099 C 
HETATM    6  N3  UNL     1       4.401  -4.040 -45.536  1.00  0.00    -0.191 NA
HETATM    7  C10 UNL     1       3.926  -6.721 -43.413  1.00  0.00     0.025 A 
HETATM    8  C11 UNL     1       3.999  -7.498 -42.283  1.00  0.00     0.032 A 
ENDROOT
BRANCH   1   9
HETATM    9  N2  UNL     1       4.717  -7.913 -39.973  1.00  0.00    -0.158 N 
HETATM   10  C4  UNL     1       3.644  -8.032 -39.122  1.00  0.00     0.131 A 
HETATM   11  C3  UNL     1       3.679  -8.801 -37.990  1.00  0.00     0.040 A 
HETATM   12  C13 UNL     1       4.894  -9.469 -37.748  1.00  0.00     0.144 A 
HETATM   13  N5  UNL     1       5.921  -9.347 -38.575  1.00  0.00    -0.178 N 
HETATM   14  N6  UNL     1       4.946 -10.272 -36.576  1.00  0.00    -0.081 NA
HETATM   15  C12 UNL     1       5.834  -8.579 -39.671  1.00  0.00     0.683 A 
ATOM     16  H5  UNL     1       6.790  -9.842 -38.376  1.00  0.00     0.185 HD
HETATM   17  N4  UNL     1       6.829  -8.453 -40.483  1.00  0.00    -0.234 N 
ATOM     18  H42 UNL     1       6.762  -7.870 -41.317  1.00  0.00     0.174 HD
ATOM     19  H41 UNL     1       7.682  -8.962 -40.252  1.00  0.00     0.174 HD
BRANCH  11  20
HETATM   20  C2  UNL     1       2.582  -8.939 -37.098  1.00  0.00     0.132 C 
HETATM   21  N1  UNL     1       1.479  -8.383 -37.001  1.00  0.00    -0.276 N 
HETATM   22  C1  UNL     1       0.903  -7.364 -37.795  1.00  0.00     0.184 C 
BRANCH  21  23
HETATM   23  O1  UNL     1       0.646  -8.842 -35.914  1.00  0.00    -0.288 OA
ATOM     24  H1  UNL     1       0.572  -9.787 -35.844  1.00  0.00     0.244 HD
ENDBRANCH  21  23
ENDBRANCH  11  20
ENDBRANCH   1   9
TORSDOF 3
ENDMDL
