MODEL 1
REMARK VINA RESULT: -6.762585274      0.000      0.000
REMARK  2 active torsions:
REMARK  status: ('A' for Active; 'I' for Inactive)
REMARK       I    between atoms: N3_4  and  C2_6 
REMARK       I    between atoms: C2_6  and  N4_8 
REMARK    1  A    between atoms: N4_8  and  C3_10 
REMARK    2  A    between atoms: C8_15  and  C9_16 
REMARK       I    between atoms: C9_16  and  N5_18 
ROOT
HETATM    1  C3  UNL     1      20.827  30.952  21.777  1.00  0.00     0.099 C 
HETATM    2  C4  UNL     1      19.756  31.681  22.575  1.00  0.00     0.026 C 
HETATM    3  C5  UNL     1      20.337  32.767  23.434  1.00  0.00     0.002 C 
HETATM    4  C6  UNL     1      21.299  33.659  22.755  1.00  0.00     0.001 C 
HETATM    5  C7  UNL     1      22.159  33.026  21.717  1.00  0.00     0.016 C 
HETATM    6  C8  UNL     1      21.465  31.973  20.901  1.00  0.00     0.101 C 
ENDROOT
BRANCH   1   7
HETATM    7  N4  UNL     1      21.721  30.332  22.701  1.00  0.00    -0.337 N 
HETATM    8  C2  UNL     1      22.518  29.232  22.316  1.00  0.00     0.322 C 
HETATM    9  N3  UNL     1      23.405  28.612  23.221  1.00  0.00    -0.285 N 
HETATM   10  O1  UNL     1      22.426  28.807  21.140  1.00  0.00    -0.247 OA
HETATM   11  C1  UNL     1      22.975  27.747  24.059  1.00  0.00     0.204 C 
ATOM     12  H3  UNL     1      24.395  28.856  23.206  1.00  0.00     0.172 HD
HETATM   13  N1  UNL     1      21.604  27.409  24.080  1.00  0.00    -0.066 NA
HETATM   14  N2  UNL     1      23.887  27.142  24.952  1.00  0.00    -0.066 NA
ATOM     15  H4  UNL     1      21.785  30.689  23.654  1.00  0.00     0.164 HD
ENDBRANCH   1   7
BRANCH   6  16
HETATM   16  C9  UNL     1      20.500  32.531  19.947  1.00  0.00     0.226 C 
HETATM   17  O2  UNL     1      20.500  33.810  19.852  1.00  0.00    -0.273 OA
HETATM   18  N5  UNL     1      19.597  31.838  19.143  1.00  0.00    -0.352 N 
HETATM   19  C10 UNL     1      19.460  30.377  19.107  1.00  0.00     0.125 C 
HETATM   20  C14 UNL     1      18.695  32.544  18.249  1.00  0.00     0.125 C 
HETATM   21  C11 UNL     1      19.013  30.002  17.702  1.00  0.00     0.020 C 
HETATM   22  C12 UNL     1      19.632  30.912  16.671  1.00  0.00     0.003 C 
HETATM   23  C13 UNL     1      19.183  32.334  16.839  1.00  0.00     0.020 C 
ENDBRANCH   6  16
TORSDOF 2
ENDMDL
MODEL 2
REMARK VINA RESULT: -6.543671363      5.455      7.622
REMARK  2 active torsions:
REMARK  status: ('A' for Active; 'I' for Inactive)
REMARK       I    between atoms: N3_4  and  C2_6 
REMARK       I    between atoms: C2_6  and  N4_8 
REMARK    1  A    between atoms: N4_8  and  C3_10 
REMARK    2  A    between atoms: C8_15  and  C9_16 
REMARK       I    between atoms: C9_16  and  N5_18 
ROOT
HETATM    1  C3  UNL     1      20.542  37.081  22.800  1.00  0.00     0.099 C 
HETATM    2  C4  UNL     1      20.311  37.727  21.442  1.00  0.00     0.026 C 
HETATM    3  C5  UNL     1      21.418  38.674  21.076  1.00  0.00     0.002 C 
HETATM    4  C6  UNL     1      22.785  38.150  21.272  1.00  0.00     0.001 C 
HETATM    5  C7  UNL     1      22.975  37.237  22.433  1.00  0.00     0.016 C 
HETATM    6  C8  UNL     1      21.816  36.317  22.690  1.00  0.00     0.101 C 
ENDROOT
BRANCH   1   7
HETATM    7  N4  UNL     1      20.562  38.114  23.784  1.00  0.00    -0.337 N 
HETATM    8  C2  UNL     1      20.567  37.807  25.162  1.00  0.00     0.322 C 
HETATM    9  N3  UNL     1      20.587  38.820  26.143  1.00  0.00    -0.285 N 
HETATM   10  O1  UNL     1      20.554  36.602  25.508  1.00  0.00    -0.247 OA
HETATM   11  C1  UNL     1      19.505  39.411  26.487  1.00  0.00     0.204 C 
ATOM     12  H3  UNL     1      21.470  39.084  26.581  1.00  0.00     0.172 HD
HETATM   13  N1  UNL     1      18.282  39.047  25.880  1.00  0.00    -0.066 NA
HETATM   14  N2  UNL     1      19.557  40.421  27.472  1.00  0.00    -0.066 NA
ATOM     15  H4  UNL     1      20.573  39.090  23.487  1.00  0.00     0.164 HD
ENDBRANCH   1   7
BRANCH   6  16
HETATM   16  C9  UNL     1      21.706  35.243  21.697  1.00  0.00     0.226 C 
HETATM   17  O2  UNL     1      22.125  35.539  20.521  1.00  0.00    -0.273 OA
HETATM   18  N5  UNL     1      21.205  33.955  21.883  1.00  0.00    -0.352 N 
HETATM   19  C10 UNL     1      20.693  33.434  23.156  1.00  0.00     0.125 C 
HETATM   20  C14 UNL     1      21.158  33.004  20.787  1.00  0.00     0.125 C 
HETATM   21  C11 UNL     1      20.965  31.938  23.171  1.00  0.00     0.020 C 
HETATM   22  C12 UNL     1      22.265  31.612  22.480  1.00  0.00     0.003 C 
HETATM   23  C13 UNL     1      22.229  31.971  21.024  1.00  0.00     0.020 C 
ENDBRANCH   6  16
TORSDOF 2
ENDMDL
MODEL 3
REMARK VINA RESULT: -6.528922116      4.407      7.819
REMARK  2 active torsions:
REMARK  status: ('A' for Active; 'I' for Inactive)
REMARK       I    between atoms: N3_4  and  C2_6 
REMARK       I    between atoms: C2_6  and  N4_8 
REMARK    1  A    between atoms: N4_8  and  C3_10 
REMARK    2  A    between atoms: C8_15  and  C9_16 
REMARK       I    between atoms: C9_16  and  N5_18 
ROOT
HETATM    1  C3  UNL     1      21.488  35.813  22.218  1.00  0.00     0.099 C 
HETATM    2  C4  UNL     1      22.877  36.243  21.772  1.00  0.00     0.026 C 
HETATM    3  C5  UNL     1      22.825  37.376  20.787  1.00  0.00     0.002 C 
HETATM    4  C6  UNL     1      21.937  38.495  21.162  1.00  0.00     0.001 C 
HETATM    5  C7  UNL     1      20.696  38.126  21.901  1.00  0.00     0.016 C 
HETATM    6  C8  UNL     1      20.872  36.999  22.877  1.00  0.00     0.101 C 
ENDROOT
BRANCH   1   7
HETATM    7  N4  UNL     1      20.779  35.348  21.070  1.00  0.00    -0.337 N 
HETATM    8  C2  UNL     1      20.365  34.002  20.966  1.00  0.00     0.322 C 
HETATM    9  N3  UNL     1      19.663  33.532  19.836  1.00  0.00    -0.285 N 
HETATM   10  O1  UNL     1      20.632  33.218  21.906  1.00  0.00    -0.247 OA
HETATM   11  C1  UNL     1      20.293  33.207  18.771  1.00  0.00     0.204 C 
ATOM     12  H3  UNL     1      18.646  33.450  19.869  1.00  0.00     0.172 HD
HETATM   13  N1  UNL     1      21.700  33.321  18.724  1.00  0.00    -0.066 NA
HETATM   14  N2  UNL     1      19.563  32.740  17.656  1.00  0.00    -0.066 NA
ATOM     15  H4  UNL     1      20.567  35.998  20.313  1.00  0.00     0.164 HD
ENDBRANCH   1   7
BRANCH   6  16
HETATM   16  C9  UNL     1      21.625  37.390  24.073  1.00  0.00     0.226 C 
HETATM   17  O2  UNL     1      22.296  38.478  23.968  1.00  0.00    -0.273 OA
HETATM   18  N5  UNL     1      21.692  36.722  25.296  1.00  0.00    -0.352 N 
HETATM   19  C10 UNL     1      20.987  35.473  25.606  1.00  0.00     0.125 C 
HETATM   20  C14 UNL     1      22.495  37.240  26.389  1.00  0.00     0.125 C 
HETATM   21  C11 UNL     1      20.685  35.485  27.096  1.00  0.00     0.020 C 
HETATM   22  C12 UNL     1      20.378  36.880  27.580  1.00  0.00     0.003 C 
HETATM   23  C13 UNL     1      21.557  37.795  27.430  1.00  0.00     0.020 C 
ENDBRANCH   6  16
TORSDOF 2
ENDMDL
MODEL 4
REMARK VINA RESULT: -6.455041813      3.679      6.423
REMARK  2 active torsions:
REMARK  status: ('A' for Active; 'I' for Inactive)
REMARK       I    between atoms: N3_4  and  C2_6 
REMARK       I    between atoms: C2_6  and  N4_8 
REMARK    1  A    between atoms: N4_8  and  C3_10 
REMARK    2  A    between atoms: C8_15  and  C9_16 
REMARK       I    between atoms: C9_16  and  N5_18 
ROOT
HETATM    1  C3  UNL     1      20.495  33.630  20.386  1.00  0.00     0.099 C 
HETATM    2  C4  UNL     1      20.059  32.695  21.504  1.00  0.00     0.026 C 
HETATM    3  C5  UNL     1      21.093  31.645  21.793  1.00  0.00     0.002 C 
HETATM    4  C6  UNL     1      22.476  32.145  21.928  1.00  0.00     0.001 C 
HETATM    5  C7  UNL     1      22.844  33.295  21.056  1.00  0.00     0.016 C 
HETATM    6  C8  UNL     1      21.742  34.296  20.858  1.00  0.00     0.101 C 
ENDROOT
BRANCH   1   7
HETATM    7  N4  UNL     1      20.659  32.855  19.199  1.00  0.00    -0.337 N 
HETATM    8  C2  UNL     1      19.648  32.807  18.215  1.00  0.00     0.322 C 
HETATM    9  N3  UNL     1      19.799  32.045  17.038  1.00  0.00    -0.285 N 
HETATM   10  O1  UNL     1      18.596  33.464  18.404  1.00  0.00    -0.247 OA
HETATM   11  C1  UNL     1      19.566  30.787  17.047  1.00  0.00     0.204 C 
ATOM     12  H3  UNL     1      20.097  32.499  16.175  1.00  0.00     0.172 HD
HETATM   13  N1  UNL     1      19.154  30.156  18.242  1.00  0.00    -0.066 NA
HETATM   14  N2  UNL     1      19.726  30.050  15.853  1.00  0.00    -0.066 NA
ATOM     15  H4  UNL     1      21.520  32.326  19.059  1.00  0.00     0.164 HD
ENDBRANCH   1   7
BRANCH   6  16
HETATM   16  C9  UNL     1      21.488  35.112  22.050  1.00  0.00     0.226 C 
HETATM   17  O2  UNL     1      21.577  34.491  23.168  1.00  0.00    -0.273 OA
HETATM   18  N5  UNL     1      21.167  36.468  22.103  1.00  0.00    -0.352 N 
HETATM   19  C10 UNL     1      21.032  37.342  20.932  1.00  0.00     0.125 C 
HETATM   20  C14 UNL     1      20.937  37.133  23.374  1.00  0.00     0.125 C 
HETATM   21  C11 UNL     1      21.433  38.742  21.368  1.00  0.00     0.020 C 
HETATM   22  C12 UNL     1      22.547  38.700  22.383  1.00  0.00     0.003 C 
HETATM   23  C13 UNL     1      22.122  38.021  23.652  1.00  0.00     0.020 C 
ENDBRANCH   6  16
TORSDOF 2
ENDMDL
MODEL 5
REMARK VINA RESULT: -6.127841391      2.291      6.949
REMARK  2 active torsions:
REMARK  status: ('A' for Active; 'I' for Inactive)
REMARK       I    between atoms: N3_4  and  C2_6 
REMARK       I    between atoms: C2_6  and  N4_8 
REMARK    1  A    between atoms: N4_8  and  C3_10 
REMARK    2  A    between atoms: C8_15  and  C9_16 
REMARK       I    between atoms: C9_16  and  N5_18 
ROOT
HETATM    1  C3  UNL     1      20.683  30.755  22.540  1.00  0.00     0.099 C 
HETATM    2  C4  UNL     1      20.154  29.360  22.247  1.00  0.00     0.026 C 
HETATM    3  C5  UNL     1      21.204  28.477  21.636  1.00  0.00     0.002 C 
HETATM    4  C6  UNL     1      22.515  28.496  22.316  1.00  0.00     0.001 C 
HETATM    5  C7  UNL     1      22.926  29.800  22.908  1.00  0.00     0.016 C 
HETATM    6  C8  UNL     1      21.798  30.586  23.513  1.00  0.00     0.101 C 
ENDROOT
BRANCH   1   7
HETATM    7  N4  UNL     1      21.072  31.350  21.302  1.00  0.00    -0.337 N 
HETATM    8  C2  UNL     1      20.267  32.328  20.679  1.00  0.00     0.322 C 
HETATM    9  N3  UNL     1      20.642  32.922  19.456  1.00  0.00    -0.285 N 
HETATM   10  O1  UNL     1      19.196  32.667  21.237  1.00  0.00    -0.247 OA
HETATM   11  C1  UNL     1      20.414  32.323  18.348  1.00  0.00     0.204 C 
ATOM     12  H3  UNL     1      21.096  33.835  19.455  1.00  0.00     0.172 HD
HETATM   13  N1  UNL     1      19.785  31.059  18.349  1.00  0.00    -0.066 NA
HETATM   14  N2  UNL     1      20.801  32.943  17.140  1.00  0.00    -0.066 NA
ATOM     15  H4  UNL     1      21.946  31.064  20.860  1.00  0.00     0.164 HD
ENDBRANCH   1   7
BRANCH   6  16
HETATM   16  C9  UNL     1      21.318  30.016  24.776  1.00  0.00     0.226 C 
HETATM   17  O2  UNL     1      20.061  30.149  24.994  1.00  0.00    -0.273 OA
HETATM   18  N5  UNL     1      22.062  29.355  25.752  1.00  0.00    -0.352 N 
HETATM   19  C10 UNL     1      23.505  29.099  25.673  1.00  0.00     0.125 C 
HETATM   20  C14 UNL     1      21.433  28.852  26.961  1.00  0.00     0.125 C 
HETATM   21  C11 UNL     1      23.775  27.808  26.429  1.00  0.00     0.020 C 
HETATM   22  C12 UNL     1      22.639  26.830  26.263  1.00  0.00     0.003 C 
HETATM   23  C13 UNL     1      21.363  27.351  26.855  1.00  0.00     0.020 C 
ENDBRANCH   6  16
TORSDOF 2
ENDMDL
