MODEL 1
REMARK VINA RESULT: -6.684075923      0.000      0.000
REMARK  3 active torsions:
REMARK  status: ('A' for Active; 'I' for Inactive)
REMARK    1  A    between atoms: C5_6  and  N2_7 
REMARK       I    between atoms: N2_7  and  C6_9 
REMARK       I    between atoms: C6_9  and  N3_11 
REMARK    2  A    between atoms: N3_11  and  C7_13 
REMARK    3  A    between atoms: C10_16  and  N4_17 
ROOT
HETATM    1  N2  UNL     1      25.306  36.458  21.124  1.00  0.00    -0.337 N 
ATOM      2  H2  UNL     1      25.907  37.221  21.434  1.00  0.00     0.164 HD
HETATM    3  C6  UNL     1      23.968  36.449  21.552  1.00  0.00     0.316 C 
HETATM    4  O1  UNL     1      23.224  35.505  21.169  1.00  0.00    -0.247 OA
HETATM    5  N3  UNL     1      23.440  37.444  22.380  1.00  0.00    -0.339 N 
ATOM      6  H3  UNL     1      24.068  38.193  22.671  1.00  0.00     0.164 HD
ENDROOT
BRANCH   5   7
HETATM    7  C7  UNL     1      22.082  37.497  22.855  1.00  0.00     0.086 C 
HETATM    8  C8  UNL     1      21.797  38.770  23.603  1.00  0.00     0.027 C 
HETATM    9  C9  UNL     1      21.819  38.587  25.104  1.00  0.00     0.035 C 
HETATM   10  C10 UNL     1      20.854  37.539  25.581  1.00  0.00     0.189 C 
HETATM   11  C14 UNL     1      20.410  36.659  24.402  1.00  0.00     0.035 C 
HETATM   12  C15 UNL     1      21.680  36.304  23.654  1.00  0.00     0.027 C 
BRANCH  10  13
HETATM   13  N4  UNL     1      19.746  38.049  26.318  1.00  0.00    -0.074 N 
HETATM   14  C11 UNL     1      20.175  38.684  27.576  1.00  0.00     0.272 C 
HETATM   15  C12 UNL     1      18.951  39.017  25.626  1.00  0.00     0.272 C 
HETATM   16  C13 UNL     1      18.833  36.972  26.738  1.00  0.00     0.272 C 
ENDBRANCH  10  13
ENDBRANCH   5   7
BRANCH   1  17
HETATM   17  C5  UNL     1      25.880  35.434  20.261  1.00  0.00     0.103 C 
HETATM   18  C4  UNL     1      27.362  35.554  20.333  1.00  0.00     0.028 C 
HETATM   19  C3  UNL     1      28.104  34.254  20.302  1.00  0.00     0.021 C 
HETATM   20  C2  UNL     1      27.287  33.174  19.624  1.00  0.00     0.116 C 
HETATM   21  N1  UNL     1      26.120  32.981  20.414  1.00  0.00    -0.415 N 
HETATM   22  C1  UNL     1      26.284  32.124  21.539  1.00  0.00     0.143 C 
HETATM   23  C16 UNL     1      25.302  34.116  20.614  1.00  0.00     0.141 C 
ENDBRANCH   1  17
TORSDOF 3
ENDMDL
MODEL 2
REMARK VINA RESULT: -6.477916004      5.285      7.051
REMARK  3 active torsions:
REMARK  status: ('A' for Active; 'I' for Inactive)
REMARK    1  A    between atoms: C5_6  and  N2_7 
REMARK       I    between atoms: N2_7  and  C6_9 
REMARK       I    between atoms: C6_9  and  N3_11 
REMARK    2  A    between atoms: N3_11  and  C7_13 
REMARK    3  A    between atoms: C10_16  and  N4_17 
ROOT
HETATM    1  N2  UNL     1      24.294  32.677  20.930  1.00  0.00    -0.337 N 
ATOM      2  H2  UNL     1      23.754  33.120  20.186  1.00  0.00     0.164 HD
HETATM    3  C6  UNL     1      23.702  31.626  21.648  1.00  0.00     0.316 C 
HETATM    4  O1  UNL     1      24.369  31.079  22.568  1.00  0.00    -0.247 OA
HETATM    5  N3  UNL     1      22.407  31.170  21.377  1.00  0.00    -0.339 N 
ATOM      6  H3  UNL     1      21.895  31.633  20.627  1.00  0.00     0.164 HD
ENDROOT
BRANCH   5   7
HETATM    7  C7  UNL     1      21.740  30.100  22.071  1.00  0.00     0.086 C 
HETATM    8  C8  UNL     1      21.309  30.509  23.453  1.00  0.00     0.027 C 
HETATM    9  C9  UNL     1      22.237  30.000  24.533  1.00  0.00     0.035 C 
HETATM   10  C10 UNL     1      22.394  28.506  24.515  1.00  0.00     0.189 C 
HETATM   11  C14 UNL     1      21.906  27.943  23.172  1.00  0.00     0.035 C 
HETATM   12  C15 UNL     1      22.521  28.831  22.107  1.00  0.00     0.027 C 
BRANCH  10  13
HETATM   13  N4  UNL     1      21.802  27.838  25.626  1.00  0.00    -0.074 N 
HETATM   14  C11 UNL     1      21.498  28.771  26.724  1.00  0.00     0.272 C 
HETATM   15  C12 UNL     1      20.586  27.142  25.337  1.00  0.00     0.272 C 
HETATM   16  C13 UNL     1      22.723  26.854  26.219  1.00  0.00     0.272 C 
ENDBRANCH  10  13
ENDBRANCH   5   7
BRANCH   1  17
HETATM   17  C5  UNL     1      25.640  33.169  21.192  1.00  0.00     0.103 C 
HETATM   18  C4  UNL     1      26.564  32.503  20.232  1.00  0.00     0.028 C 
HETATM   19  C3  UNL     1      27.673  33.369  19.718  1.00  0.00     0.021 C 
HETATM   20  C2  UNL     1      27.982  34.493  20.684  1.00  0.00     0.116 C 
HETATM   21  N1  UNL     1      26.814  35.300  20.768  1.00  0.00    -0.415 N 
HETATM   22  C1  UNL     1      26.665  36.261  19.728  1.00  0.00     0.143 C 
HETATM   23  C16 UNL     1      25.630  34.651  21.184  1.00  0.00     0.141 C 
ENDBRANCH   1  17
TORSDOF 3
ENDMDL
MODEL 3
REMARK VINA RESULT: -6.391818731      5.861      7.227
REMARK  3 active torsions:
REMARK  status: ('A' for Active; 'I' for Inactive)
REMARK    1  A    between atoms: C5_6  and  N2_7 
REMARK       I    between atoms: N2_7  and  C6_9 
REMARK       I    between atoms: C6_9  and  N3_11 
REMARK    2  A    between atoms: N3_11  and  C7_13 
REMARK    3  A    between atoms: C10_16  and  N4_17 
ROOT
HETATM    1  N2  UNL     1      24.454  31.967  21.673  1.00  0.00    -0.337 N 
ATOM      2  H2  UNL     1      24.956  31.665  22.509  1.00  0.00     0.164 HD
HETATM    3  C6  UNL     1      23.115  31.573  21.523  1.00  0.00     0.316 C 
HETATM    4  O1  UNL     1      22.494  31.945  20.490  1.00  0.00    -0.247 OA
HETATM    5  N3  UNL     1      22.454  30.789  22.474  1.00  0.00    -0.339 N 
ATOM      6  H3  UNL     1      22.983  30.505  23.298  1.00  0.00     0.164 HD
ENDROOT
BRANCH   5   7
HETATM    7  C7  UNL     1      21.086  30.349  22.384  1.00  0.00     0.086 C 
HETATM    8  C8  UNL     1      20.399  30.372  23.722  1.00  0.00     0.027 C 
HETATM    9  C9  UNL     1      20.304  29.003  24.357  1.00  0.00     0.035 C 
HETATM   10  C10 UNL     1      19.600  28.001  23.487  1.00  0.00     0.189 C 
HETATM   11  C14 UNL     1      19.532  28.516  22.042  1.00  0.00     0.035 C 
HETATM   12  C15 UNL     1      20.925  29.024  21.721  1.00  0.00     0.027 C 
BRANCH  10  13
HETATM   13  N4  UNL     1      18.324  27.592  23.973  1.00  0.00    -0.074 N 
HETATM   14  C11 UNL     1      18.096  26.152  23.759  1.00  0.00     0.272 C 
HETATM   15  C12 UNL     1      18.097  27.836  25.364  1.00  0.00     0.272 C 
HETATM   16  C13 UNL     1      17.230  28.253  23.242  1.00  0.00     0.272 C 
ENDBRANCH  10  13
ENDBRANCH   5   7
BRANCH   1  17
HETATM   17  C5  UNL     1      25.165  32.784  20.698  1.00  0.00     0.103 C 
HETATM   18  C4  UNL     1      25.001  34.211  21.092  1.00  0.00     0.028 C 
HETATM   19  C3  UNL     1      26.204  35.072  20.860  1.00  0.00     0.021 C 
HETATM   20  C2  UNL     1      27.085  34.500  19.770  1.00  0.00     0.116 C 
HETATM   21  N1  UNL     1      27.547  33.236  20.232  1.00  0.00    -0.415 N 
HETATM   22  C1  UNL     1      28.678  33.283  21.095  1.00  0.00     0.143 C 
HETATM   23  C16 UNL     1      26.554  32.287  20.563  1.00  0.00     0.141 C 
ENDBRANCH   1  17
TORSDOF 3
ENDMDL
MODEL 4
REMARK VINA RESULT: -6.341767743      4.778      5.613
REMARK  3 active torsions:
REMARK  status: ('A' for Active; 'I' for Inactive)
REMARK    1  A    between atoms: C5_6  and  N2_7 
REMARK       I    between atoms: N2_7  and  C6_9 
REMARK       I    between atoms: C6_9  and  N3_11 
REMARK    2  A    between atoms: N3_11  and  C7_13 
REMARK    3  A    between atoms: C10_16  and  N4_17 
ROOT
HETATM    1  N2  UNL     1      20.053  33.247  19.286  1.00  0.00    -0.337 N 
ATOM      2  H2  UNL     1      19.152  33.701  19.133  1.00  0.00     0.164 HD
HETATM    3  C6  UNL     1      20.947  33.831  20.198  1.00  0.00     0.316 C 
HETATM    4  O1  UNL     1      22.060  33.269  20.387  1.00  0.00    -0.247 OA
HETATM    5  N3  UNL     1      20.643  35.003  20.898  1.00  0.00    -0.339 N 
ATOM      6  H3  UNL     1      19.735  35.431  20.723  1.00  0.00     0.164 HD
ENDROOT
BRANCH   5   7
HETATM    7  C7  UNL     1      21.509  35.654  21.845  1.00  0.00     0.086 C 
HETATM    8  C8  UNL     1      21.377  35.069  23.224  1.00  0.00     0.027 C 
HETATM    9  C9  UNL     1      20.520  35.911  24.140  1.00  0.00     0.035 C 
HETATM   10  C10 UNL     1      21.018  37.322  24.278  1.00  0.00     0.189 C 
HETATM   11  C14 UNL     1      22.009  37.640  23.149  1.00  0.00     0.035 C 
HETATM   12  C15 UNL     1      21.356  37.137  21.876  1.00  0.00     0.027 C 
BRANCH  10  13
HETATM   13  N4  UNL     1      21.547  37.637  25.563  1.00  0.00    -0.074 N 
HETATM   14  C11 UNL     1      21.634  36.444  26.424  1.00  0.00     0.272 C 
HETATM   15  C12 UNL     1      22.851  38.225  25.555  1.00  0.00     0.272 C 
HETATM   16  C13 UNL     1      20.669  38.562  26.298  1.00  0.00     0.272 C 
ENDBRANCH  10  13
ENDBRANCH   5   7
BRANCH   1  17
HETATM   17  C5  UNL     1      20.345  32.026  18.546  1.00  0.00     0.103 C 
HETATM   18  C4  UNL     1      19.453  30.952  19.067  1.00  0.00     0.028 C 
HETATM   19  C3  UNL     1      18.945  29.996  18.033  1.00  0.00     0.021 C 
HETATM   20  C2  UNL     1      19.871  29.941  16.836  1.00  0.00     0.116 C 
HETATM   21  N1  UNL     1      19.871  31.240  16.254  1.00  0.00    -0.415 N 
HETATM   22  C1  UNL     1      18.783  31.511  15.376  1.00  0.00     0.143 C 
HETATM   23  C16 UNL     1      20.270  32.304  17.093  1.00  0.00     0.141 C 
ENDBRANCH   1  17
TORSDOF 3
ENDMDL
MODEL 5
REMARK VINA RESULT: -6.328470861      5.853      8.929
REMARK  3 active torsions:
REMARK  status: ('A' for Active; 'I' for Inactive)
REMARK    1  A    between atoms: C5_6  and  N2_7 
REMARK       I    between atoms: N2_7  and  C6_9 
REMARK       I    between atoms: C6_9  and  N3_11 
REMARK    2  A    between atoms: N3_11  and  C7_13 
REMARK    3  A    between atoms: C10_16  and  N4_17 
ROOT
HETATM    1  N2  UNL     1      20.711  35.518  20.888  1.00  0.00    -0.337 N 
ATOM      2  H2  UNL     1      19.796  35.886  20.628  1.00  0.00     0.164 HD
HETATM    3  C6  UNL     1      21.035  34.207  20.505  1.00  0.00     0.316 C 
HETATM    4  O1  UNL     1      22.167  33.752  20.827  1.00  0.00    -0.247 OA
HETATM    5  N3  UNL     1      20.152  33.397  19.784  1.00  0.00    -0.339 N 
ATOM      6  H3  UNL     1      19.246  33.795  19.538  1.00  0.00     0.164 HD
ENDROOT
BRANCH   5   7
HETATM    7  C7  UNL     1      20.419  32.048  19.359  1.00  0.00     0.086 C 
HETATM    8  C8  UNL     1      20.331  31.900  17.865  1.00  0.00     0.027 C 
HETATM    9  C9  UNL     1      19.026  31.286  17.411  1.00  0.00     0.035 C 
HETATM   10  C10 UNL     1      18.764  29.942  18.029  1.00  0.00     0.189 C 
HETATM   11  C14 UNL     1      19.673  29.740  19.250  1.00  0.00     0.035 C 
HETATM   12  C15 UNL     1      19.580  31.026  20.048  1.00  0.00     0.027 C 
BRANCH  10  13
HETATM   13  N4  UNL     1      18.838  28.850  17.117  1.00  0.00    -0.074 N 
HETATM   14  C11 UNL     1      19.283  27.613  17.783  1.00  0.00     0.272 C 
HETATM   15  C12 UNL     1      17.613  28.532  16.450  1.00  0.00     0.272 C 
HETATM   16  C13 UNL     1      19.843  29.088  16.067  1.00  0.00     0.272 C 
ENDBRANCH  10  13
ENDBRANCH   5   7
BRANCH   1  17
HETATM   17  C5  UNL     1      21.613  36.382  21.639  1.00  0.00     0.103 C 
HETATM   18  C4  UNL     1      21.644  37.708  20.962  1.00  0.00     0.028 C 
HETATM   19  C3  UNL     1      21.728  38.885  21.883  1.00  0.00     0.021 C 
HETATM   20  C2  UNL     1      22.349  38.500  23.209  1.00  0.00     0.116 C 
HETATM   21  N1  UNL     1      21.480  37.548  23.811  1.00  0.00    -0.415 N 
HETATM   22  C1  UNL     1      20.370  38.098  24.513  1.00  0.00     0.143 C 
HETATM   23  C16 UNL     1      21.222  36.374  23.068  1.00  0.00     0.141 C 
ENDBRANCH   1  17
TORSDOF 3
ENDMDL
