MODEL 1
REMARK VINA RESULT: -6.811832140      0.000      0.000
REMARK  5 active torsions:
REMARK  status: ('A' for Active; 'I' for Inactive)
REMARK    1  A    between atoms: N1_2  and  C2_3 
REMARK    2  A    between atoms: C2_3  and  C3_4 
REMARK    3  A    between atoms: C4_5  and  C5_6 
REMARK    4  A    between atoms: C5_6  and  N2_7 
REMARK    5  A    between atoms: C9_11  and  N3_12 
REMARK       I    between atoms: N3_12  and  C10_14 
ROOT
HETATM    1  N2  UNL     1      26.590  35.525  21.109  1.00  0.00     0.101 N 
HETATM    2  C6  UNL     1      27.703  35.234  20.236  1.00  0.00     0.273 C 
HETATM    3  C7  UNL     1      28.317  33.894  20.481  1.00  0.00     0.032 C 
HETATM    4  C8  UNL     1      27.294  32.773  20.559  1.00  0.00     0.029 C 
HETATM    5  C9  UNL     1      25.959  33.374  20.242  1.00  0.00     0.112 C 
HETATM    6  C11 UNL     1      25.666  34.442  21.276  1.00  0.00     0.298 C 
ENDROOT
BRANCH   1   7
HETATM    7  C5  UNL     1      25.930  36.721  20.593  1.00  0.00     0.365 C 
BRANCH   7   8
HETATM    8  C4  UNL     1      24.554  36.731  21.138  1.00  0.00    -0.075 C 
HETATM    9  C3  UNL     1      23.427  36.737  21.561  1.00  0.00    -0.077 C 
BRANCH   9  10
HETATM   10  C2  UNL     1      22.072  36.755  22.043  1.00  0.00     0.330 C 
BRANCH  10  11
HETATM   11  N1  UNL     1      21.795  37.821  22.962  1.00  0.00    -0.061 N 
HETATM   12  C1  UNL     1      22.224  39.118  22.528  1.00  0.00     0.273 C 
HETATM   13  C12 UNL     1      22.565  37.519  24.179  1.00  0.00     0.238 C 
HETATM   14  C13 UNL     1      22.333  38.527  25.259  1.00  0.00     0.028 C 
HETATM   15  C14 UNL     1      20.892  38.825  25.523  1.00  0.00     0.003 C 
HETATM   16  C15 UNL     1      20.061  37.863  24.712  1.00  0.00     0.028 C 
HETATM   17  C16 UNL     1      20.372  37.906  23.249  1.00  0.00     0.238 C 
ENDBRANCH  10  11
ENDBRANCH   9  10
ENDBRANCH   7   8
ENDBRANCH   1   7
BRANCH   5  18
HETATM   18  N3  UNL     1      24.891  32.454  20.061  1.00  0.00    -0.358 N 
HETATM   19  C10 UNL     1      24.105  31.894  21.097  1.00  0.00     0.182 C 
HETATM   20  N4  UNL     1      24.664  31.537  22.196  1.00  0.00    -0.374 N 
HETATM   21  N5  UNL     1      22.695  31.702  20.972  1.00  0.00    -0.064 NA
ATOM     22  H42 UNL     1      25.671  31.674  22.286  1.00  0.00     0.158 HD
ATOM     23  H41 UNL     1      24.098  31.134  22.943  1.00  0.00     0.158 HD
ATOM     24  H3  UNL     1      24.672  32.175  19.105  1.00  0.00     0.162 HD
ENDBRANCH   5  18
TORSDOF 5
ENDMDL
MODEL 2
REMARK VINA RESULT: -6.728689271      4.304      7.984
REMARK  5 active torsions:
REMARK  status: ('A' for Active; 'I' for Inactive)
REMARK    1  A    between atoms: N1_2  and  C2_3 
REMARK    2  A    between atoms: C2_3  and  C3_4 
REMARK    3  A    between atoms: C4_5  and  C5_6 
REMARK    4  A    between atoms: C5_6  and  N2_7 
REMARK    5  A    between atoms: C9_11  and  N3_12 
REMARK       I    between atoms: N3_12  and  C10_14 
ROOT
HETATM    1  N2  UNL     1      21.181  31.502  21.348  1.00  0.00     0.101 N 
HETATM    2  C6  UNL     1      22.226  31.593  22.339  1.00  0.00     0.273 C 
HETATM    3  C7  UNL     1      23.532  32.061  21.784  1.00  0.00     0.032 C 
HETATM    4  C8  UNL     1      23.403  33.303  20.917  1.00  0.00     0.029 C 
HETATM    5  C9  UNL     1      21.973  33.742  20.990  1.00  0.00     0.112 C 
HETATM    6  C11 UNL     1      21.108  32.620  20.454  1.00  0.00     0.298 C 
ENDROOT
BRANCH   1   7
HETATM    7  C5  UNL     1      19.921  31.299  22.059  1.00  0.00     0.365 C 
BRANCH   7   8
HETATM    8  C4  UNL     1      20.116  30.152  22.974  1.00  0.00    -0.075 C 
HETATM    9  C3  UNL     1      20.255  29.225  23.729  1.00  0.00    -0.077 C 
BRANCH   9  10
HETATM   10  C2  UNL     1      20.408  28.130  24.650  1.00  0.00     0.330 C 
BRANCH  10  11
HETATM   11  N1  UNL     1      21.762  27.905  25.066  1.00  0.00    -0.061 N 
HETATM   12  C1  UNL     1      21.937  26.823  25.990  1.00  0.00     0.273 C 
HETATM   13  C12 UNL     1      22.178  29.125  25.777  1.00  0.00     0.238 C 
HETATM   14  C13 UNL     1      23.601  29.058  26.229  1.00  0.00     0.028 C 
HETATM   15  C14 UNL     1      24.563  28.628  25.169  1.00  0.00     0.003 C 
HETATM   16  C15 UNL     1      23.814  28.549  23.863  1.00  0.00     0.028 C 
HETATM   17  C16 UNL     1      22.623  27.646  23.923  1.00  0.00     0.238 C 
ENDBRANCH  10  11
ENDBRANCH   9  10
ENDBRANCH   7   8
ENDBRANCH   1   7
BRANCH   5  18
HETATM   18  N3  UNL     1      21.682  35.007  20.412  1.00  0.00    -0.358 N 
HETATM   19  C10 UNL     1      21.667  36.243  21.104  1.00  0.00     0.182 C 
HETATM   20  N4  UNL     1      21.178  36.302  22.289  1.00  0.00    -0.374 N 
HETATM   21  N5  UNL     1      22.179  37.448  20.532  1.00  0.00    -0.064 NA
ATOM     22  H42 UNL     1      20.813  35.442  22.697  1.00  0.00     0.158 HD
ATOM     23  H41 UNL     1      21.168  37.192  22.788  1.00  0.00     0.158 HD
ATOM     24  H3  UNL     1      21.465  35.026  19.416  1.00  0.00     0.162 HD
ENDBRANCH   5  18
TORSDOF 5
ENDMDL
MODEL 3
REMARK VINA RESULT: -6.584737498      4.236      7.674
REMARK  5 active torsions:
REMARK  status: ('A' for Active; 'I' for Inactive)
REMARK    1  A    between atoms: N1_2  and  C2_3 
REMARK    2  A    between atoms: C2_3  and  C3_4 
REMARK    3  A    between atoms: C4_5  and  C5_6 
REMARK    4  A    between atoms: C5_6  and  N2_7 
REMARK    5  A    between atoms: C9_11  and  N3_12 
REMARK       I    between atoms: N3_12  and  C10_14 
ROOT
HETATM    1  N2  UNL     1      21.466  31.983  21.634  1.00  0.00     0.101 N 
HETATM    2  C6  UNL     1      21.385  32.934  20.551  1.00  0.00     0.273 C 
HETATM    3  C7  UNL     1      22.194  34.169  20.783  1.00  0.00     0.032 C 
HETATM    4  C8  UNL     1      23.616  33.877  21.232  1.00  0.00     0.029 C 
HETATM    5  C9  UNL     1      23.793  32.391  21.190  1.00  0.00     0.112 C 
HETATM    6  C11 UNL     1      22.790  31.770  22.141  1.00  0.00     0.298 C 
ENDROOT
BRANCH   1   7
HETATM    7  C5  UNL     1      20.861  30.738  21.169  1.00  0.00     0.365 C 
BRANCH   7   8
HETATM    8  C4  UNL     1      20.706  29.860  22.350  1.00  0.00    -0.075 C 
HETATM    9  C3  UNL     1      20.584  29.127  23.298  1.00  0.00    -0.077 C 
BRANCH   9  10
HETATM   10  C2  UNL     1      20.431  28.232  24.414  1.00  0.00     0.330 C 
BRANCH  10  11
HETATM   11  N1  UNL     1      21.649  27.980  25.128  1.00  0.00    -0.061 N 
HETATM   12  C1  UNL     1      21.560  26.959  26.130  1.00  0.00     0.273 C 
HETATM   13  C12 UNL     1      21.968  29.228  25.840  1.00  0.00     0.238 C 
HETATM   14  C13 UNL     1      23.255  29.134  26.596  1.00  0.00     0.028 C 
HETATM   15  C14 UNL     1      24.398  28.592  25.799  1.00  0.00     0.003 C 
HETATM   16  C15 UNL     1      23.945  28.454  24.368  1.00  0.00     0.028 C 
HETATM   17  C16 UNL     1      22.721  27.607  24.218  1.00  0.00     0.238 C 
ENDBRANCH  10  11
ENDBRANCH   9  10
ENDBRANCH   7   8
ENDBRANCH   1   7
BRANCH   5  18
HETATM   18  N3  UNL     1      25.119  31.918  21.380  1.00  0.00    -0.358 N 
HETATM   19  C10 UNL     1      26.286  32.497  20.822  1.00  0.00     0.182 C 
HETATM   20  N4  UNL     1      26.262  32.938  19.617  1.00  0.00    -0.374 N 
HETATM   21  N5  UNL     1      27.508  32.613  21.551  1.00  0.00    -0.064 NA
ATOM     22  H42 UNL     1      25.389  32.856  19.096  1.00  0.00     0.158 HD
ATOM     23  H41 UNL     1      27.101  33.356  19.215  1.00  0.00     0.158 HD
ATOM     24  H3  UNL     1      25.242  31.092  21.965  1.00  0.00     0.162 HD
ENDBRANCH   5  18
TORSDOF 5
ENDMDL
MODEL 4
REMARK VINA RESULT: -6.526592829      3.105      4.383
REMARK  5 active torsions:
REMARK  status: ('A' for Active; 'I' for Inactive)
REMARK    1  A    between atoms: N1_2  and  C2_3 
REMARK    2  A    between atoms: C2_3  and  C3_4 
REMARK    3  A    between atoms: C4_5  and  C5_6 
REMARK    4  A    between atoms: C5_6  and  N2_7 
REMARK    5  A    between atoms: C9_11  and  N3_12 
REMARK       I    between atoms: N3_12  and  C10_14 
ROOT
HETATM    1  N2  UNL     1      21.824  34.103  21.599  1.00  0.00     0.101 N 
HETATM    2  C6  UNL     1      22.926  33.219  21.301  1.00  0.00     0.273 C 
HETATM    3  C7  UNL     1      22.607  31.776  21.523  1.00  0.00     0.032 C 
HETATM    4  C8  UNL     1      21.294  31.350  20.887  1.00  0.00     0.029 C 
HETATM    5  C9  UNL     1      20.775  32.527  20.120  1.00  0.00     0.112 C 
HETATM    6  C11 UNL     1      20.556  33.666  21.095  1.00  0.00     0.298 C 
ENDROOT
BRANCH   1   7
HETATM    7  C5  UNL     1      22.177  35.427  21.093  1.00  0.00     0.365 C 
BRANCH   7   8
HETATM    8  C4  UNL     1      21.557  36.421  21.999  1.00  0.00    -0.075 C 
HETATM    9  C3  UNL     1      21.046  37.212  22.748  1.00  0.00    -0.077 C 
BRANCH   9  10
HETATM   10  C2  UNL     1      20.418  38.139  23.651  1.00  0.00     0.330 C 
BRANCH  10  11
HETATM   11  N1  UNL     1      20.763  37.935  25.028  1.00  0.00    -0.061 N 
HETATM   12  C1  UNL     1      20.309  38.960  25.921  1.00  0.00     0.273 C 
HETATM   13  C12 UNL     1      22.234  37.961  25.086  1.00  0.00     0.238 C 
HETATM   14  C13 UNL     1      22.749  37.707  26.466  1.00  0.00     0.028 C 
HETATM   15  C14 UNL     1      22.146  36.515  27.138  1.00  0.00     0.003 C 
HETATM   16  C15 UNL     1      21.290  35.794  26.128  1.00  0.00     0.028 C 
HETATM   17  C16 UNL     1      20.242  36.668  25.515  1.00  0.00     0.238 C 
ENDBRANCH  10  11
ENDBRANCH   9  10
ENDBRANCH   7   8
ENDBRANCH   1   7
BRANCH   5  18
HETATM   18  N3  UNL     1      19.655  32.277  19.281  1.00  0.00    -0.358 N 
HETATM   19  C10 UNL     1      19.701  32.127  17.873  1.00  0.00     0.182 C 
HETATM   20  N4  UNL     1      20.471  32.883  17.178  1.00  0.00    -0.374 N 
HETATM   21  N5  UNL     1      18.913  31.158  17.180  1.00  0.00    -0.064 NA
ATOM     22  H42 UNL     1      21.033  33.575  17.674  1.00  0.00     0.158 HD
ATOM     23  H41 UNL     1      20.504  32.775  16.165  1.00  0.00     0.158 HD
ATOM     24  H3  UNL     1      18.743  32.199  19.731  1.00  0.00     0.162 HD
ENDBRANCH   5  18
TORSDOF 5
ENDMDL
MODEL 5
REMARK VINA RESULT: -6.498461893      2.999      7.085
REMARK  5 active torsions:
REMARK  status: ('A' for Active; 'I' for Inactive)
REMARK    1  A    between atoms: N1_2  and  C2_3 
REMARK    2  A    between atoms: C2_3  and  C3_4 
REMARK    3  A    between atoms: C4_5  and  C5_6 
REMARK    4  A    between atoms: C5_6  and  N2_7 
REMARK    5  A    between atoms: C9_11  and  N3_12 
REMARK       I    between atoms: N3_12  and  C10_14 
ROOT
HETATM    1  N2  UNL     1      21.322  35.923  25.560  1.00  0.00     0.101 N 
HETATM    2  C6  UNL     1      21.460  36.860  26.650  1.00  0.00     0.273 C 
HETATM    3  C7  UNL     1      22.572  37.839  26.454  1.00  0.00     0.032 C 
HETATM    4  C8  UNL     1      22.557  38.495  25.084  1.00  0.00     0.029 C 
HETATM    5  C9  UNL     1      21.324  38.018  24.382  1.00  0.00     0.112 C 
HETATM    6  C11 UNL     1      21.408  36.510  24.255  1.00  0.00     0.298 C 
ENDROOT
BRANCH   1   7
HETATM    7  C5  UNL     1      20.059  35.215  25.750  1.00  0.00     0.365 C 
BRANCH   7   8
HETATM    8  C4  UNL     1      20.008  34.134  24.740  1.00  0.00    -0.075 C 
HETATM    9  C3  UNL     1      19.947  33.263  23.911  1.00  0.00    -0.077 C 
BRANCH   9  10
HETATM   10  C2  UNL     1      19.849  32.226  22.920  1.00  0.00     0.330 C 
BRANCH  10  11
HETATM   11  N1  UNL     1      20.871  32.282  21.915  1.00  0.00    -0.061 N 
HETATM   12  C1  UNL     1      20.704  31.356  20.834  1.00  0.00     0.273 C 
HETATM   13  C12 UNL     1      22.124  31.906  22.589  1.00  0.00     0.238 C 
HETATM   14  C13 UNL     1      23.301  31.972  21.669  1.00  0.00     0.028 C 
HETATM   15  C14 UNL     1      23.401  33.242  20.888  1.00  0.00     0.003 C 
HETATM   16  C15 UNL     1      22.344  34.188  21.397  1.00  0.00     0.028 C 
HETATM   17  C16 UNL     1      20.964  33.614  21.339  1.00  0.00     0.238 C 
ENDBRANCH  10  11
ENDBRANCH   9  10
ENDBRANCH   7   8
ENDBRANCH   1   7
BRANCH   5  18
HETATM   18  N3  UNL     1      21.013  38.671  23.159  1.00  0.00    -0.358 N 
HETATM   19  C10 UNL     1      21.724  38.521  21.943  1.00  0.00     0.182 C 
HETATM   20  N4  UNL     1      23.006  38.449  21.962  1.00  0.00    -0.374 N 
HETATM   21  N5  UNL     1      21.069  38.447  20.676  1.00  0.00    -0.064 NA
ATOM     22  H42 UNL     1      23.473  38.502  22.866  1.00  0.00     0.158 HD
ATOM     23  H41 UNL     1      23.518  38.340  21.086  1.00  0.00     0.158 HD
ATOM     24  H3  UNL     1      20.211  39.301  23.157  1.00  0.00     0.162 HD
ENDBRANCH   5  18
TORSDOF 5
ENDMDL
