MODEL 1
REMARK VINA RESULT: -5.440322074      0.000      0.000
REMARK  4 active torsions:
REMARK  status: ('A' for Active; 'I' for Inactive)
REMARK    1  A    between atoms: C11_12  and  O1_13 
REMARK    2  A    between atoms: C14_17  and  C15_18 
REMARK    3  A    between atoms: C14_17  and  O2_24 
REMARK    4  A    between atoms: N2_19  and  N3_21 
ROOT
HETATM    1  C1  UNL     1      21.111  31.485  27.110  1.00  0.00     0.221 C 
HETATM    2  N1  UNL     1      21.401  30.787  26.208  1.00  0.00    -0.462 NA
HETATM    3  C2  UNL     1      21.760  29.933  25.146  1.00  0.00     0.210 C 
HETATM    4  C3  UNL     1      20.606  29.737  24.234  1.00  0.00     0.000 C 
HETATM    5  C4  UNL     1      19.491  30.690  24.358  1.00  0.00     0.014 C 
HETATM    6  C5  UNL     1      20.000  31.899  23.608  1.00  0.00     0.010 C 
HETATM    7  C6  UNL     1      20.838  31.298  22.499  1.00  0.00    -0.043 C 
HETATM    8  C7  UNL     1      20.056  31.498  21.203  1.00  0.00     0.015 C 
HETATM    9  C8  UNL     1      22.127  32.063  22.345  1.00  0.00     0.015 C 
HETATM   10  C9  UNL     1      20.976  29.868  22.757  1.00  0.00     0.007 C 
HETATM   11  C10 UNL     1      22.297  29.239  22.581  1.00  0.00     0.038 C 
HETATM   12  C11 UNL     1      22.461  27.952  23.307  1.00  0.00     0.126 C 
HETATM   13  C12 UNL     1      21.645  27.708  24.511  1.00  0.00     0.058 C 
HETATM   14  C13 UNL     1      20.214  28.280  24.370  1.00  0.00     0.024 C 
HETATM   15  C14 UNL     1      22.051  28.510  25.733  1.00  0.00     0.132 C 
ENDROOT
BRANCH  15  16
HETATM   16  C15 UNL     1      23.468  28.403  26.069  1.00  0.00     0.121 C 
HETATM   17  N2  UNL     1      24.007  28.895  27.089  1.00  0.00    -0.319 N 
ATOM     18  H2  UNL     1      25.010  28.728  27.174  1.00  0.00     0.185 HD
BRANCH  17  19
HETATM   19  N3  UNL     1      23.442  29.633  28.119  1.00  0.00    -0.346 N 
ATOM     20  H32 UNL     1      22.558  29.257  28.463  1.00  0.00     0.176 HD
ATOM     21  H31 UNL     1      23.781  30.482  28.572  1.00  0.00     0.176 HD
ENDBRANCH  17  19
ENDBRANCH  15  16
BRANCH  15  22
HETATM   22  O2  UNL     1      21.151  28.430  26.739  1.00  0.00    -0.376 OA
HETATM   23  C16 UNL     1      20.938  27.295  27.421  1.00  0.00     0.203 C 
ENDBRANCH  15  22
BRANCH  12  24
HETATM   24  O1  UNL     1      22.216  26.865  22.428  1.00  0.00    -0.395 OA
ATOM     25  H1  UNL     1      21.284  26.691  22.378  1.00  0.00     0.210 HD
ENDBRANCH  12  24
TORSDOF 4
ENDMDL
MODEL 2
REMARK VINA RESULT: -5.204252235      3.118      5.671
REMARK  4 active torsions:
REMARK  status: ('A' for Active; 'I' for Inactive)
REMARK    1  A    between atoms: C11_12  and  O1_13 
REMARK    2  A    between atoms: C14_17  and  C15_18 
REMARK    3  A    between atoms: C14_17  and  O2_24 
REMARK    4  A    between atoms: N2_19  and  N3_21 
ROOT
HETATM    1  C1  UNL     1      23.941  31.898  21.190  1.00  0.00     0.221 C 
HETATM    2  N1  UNL     1      22.885  31.633  21.640  1.00  0.00    -0.462 NA
HETATM    3  C2  UNL     1      21.611  31.337  22.164  1.00  0.00     0.210 C 
HETATM    4  C3  UNL     1      21.348  29.879  22.077  1.00  0.00     0.000 C 
HETATM    5  C4  UNL     1      22.509  29.006  21.841  1.00  0.00     0.014 C 
HETATM    6  C5  UNL     1      23.137  28.908  23.212  1.00  0.00     0.010 C 
HETATM    7  C6  UNL     1      21.948  28.956  24.148  1.00  0.00    -0.043 C 
HETATM    8  C7  UNL     1      21.783  27.549  24.717  1.00  0.00     0.015 C 
HETATM    9  C8  UNL     1      22.239  29.861  25.317  1.00  0.00     0.015 C 
HETATM   10  C9  UNL     1      20.764  29.295  23.363  1.00  0.00     0.007 C 
HETATM   11  C10 UNL     1      19.815  30.286  23.901  1.00  0.00     0.038 C 
HETATM   12  C11 UNL     1      18.943  30.914  22.873  1.00  0.00     0.126 C 
HETATM   13  C12 UNL     1      19.425  30.985  21.481  1.00  0.00     0.058 C 
HETATM   14  C13 UNL     1      20.221  29.721  21.076  1.00  0.00     0.024 C 
HETATM   15  C14 UNL     1      20.532  31.993  21.237  1.00  0.00     0.132 C 
ENDROOT
BRANCH  15  16
HETATM   16  C15 UNL     1      20.227  33.336  21.721  1.00  0.00     0.121 C 
HETATM   17  N2  UNL     1      20.819  34.384  21.363  1.00  0.00    -0.319 N 
ATOM     18  H2  UNL     1      20.483  35.243  21.798  1.00  0.00     0.185 HD
BRANCH  17  19
HETATM   19  N3  UNL     1      21.864  34.546  20.465  1.00  0.00    -0.346 N 
ATOM     20  H32 UNL     1      21.616  34.338  19.498  1.00  0.00     0.176 HD
ATOM     21  H31 UNL     1      22.826  34.840  20.634  1.00  0.00     0.176 HD
ENDBRANCH  17  19
ENDBRANCH  15  16
BRANCH  15  22
HETATM   22  O2  UNL     1      21.096  31.870  20.014  1.00  0.00    -0.376 OA
HETATM   23  C16 UNL     1      20.414  32.101  18.883  1.00  0.00     0.203 C 
ENDBRANCH  15  22
BRANCH  12  24
HETATM   24  O1  UNL     1      17.688  30.254  22.832  1.00  0.00    -0.395 OA
ATOM     25  H1  UNL     1      17.358  30.239  21.942  1.00  0.00     0.210 HD
ENDBRANCH  12  24
TORSDOF 4
ENDMDL
MODEL 3
REMARK VINA RESULT: -5.092097154      2.505      4.635
REMARK  4 active torsions:
REMARK  status: ('A' for Active; 'I' for Inactive)
REMARK    1  A    between atoms: C11_12  and  O1_13 
REMARK    2  A    between atoms: C14_17  and  C15_18 
REMARK    3  A    between atoms: C14_17  and  O2_24 
REMARK    4  A    between atoms: N2_19  and  N3_21 
ROOT
HETATM    1  C1  UNL     1      18.485  29.256  25.919  1.00  0.00     0.221 C 
HETATM    2  N1  UNL     1      19.377  29.100  25.166  1.00  0.00    -0.462 NA
HETATM    3  C2  UNL     1      20.426  28.915  24.244  1.00  0.00     0.210 C 
HETATM    4  C3  UNL     1      21.579  29.779  24.601  1.00  0.00     0.000 C 
HETATM    5  C4  UNL     1      21.590  30.346  25.959  1.00  0.00     0.014 C 
HETATM    6  C5  UNL     1      22.075  29.188  26.800  1.00  0.00     0.010 C 
HETATM    7  C6  UNL     1      23.040  28.466  25.883  1.00  0.00    -0.043 C 
HETATM    8  C7  UNL     1      24.443  28.740  26.421  1.00  0.00     0.015 C 
HETATM    9  C8  UNL     1      22.830  26.977  25.970  1.00  0.00     0.015 C 
HETATM   10  C9  UNL     1      22.919  29.046  24.548  1.00  0.00     0.007 C 
HETATM   11  C10 UNL     1      22.878  28.145  23.383  1.00  0.00     0.038 C 
HETATM   12  C11 UNL     1      22.282  28.752  22.164  1.00  0.00     0.126 C 
HETATM   13  C12 UNL     1      21.314  29.854  22.320  1.00  0.00     0.058 C 
HETATM   14  C13 UNL     1      21.692  30.799  23.486  1.00  0.00     0.024 C 
HETATM   15  C14 UNL     1      19.953  29.440  22.846  1.00  0.00     0.132 C 
ENDROOT
BRANCH  15  16
HETATM   16  C15 UNL     1      19.337  28.347  22.100  1.00  0.00     0.121 C 
HETATM   17  N2  UNL     1      18.156  27.947  22.247  1.00  0.00    -0.319 N 
ATOM     18  H2  UNL     1      17.882  27.170  21.645  1.00  0.00     0.185 HD
BRANCH  17  19
HETATM   19  N3  UNL     1      17.169  28.404  23.107  1.00  0.00    -0.346 N 
ATOM     20  H32 UNL     1      17.479  29.142  23.740  1.00  0.00     0.176 HD
ATOM     21  H31 UNL     1      16.195  28.112  23.193  1.00  0.00     0.176 HD
ENDBRANCH  17  19
ENDBRANCH  15  16
BRANCH  15  22
HETATM   22  O2  UNL     1      19.177  30.494  23.187  1.00  0.00    -0.376 OA
HETATM   23  C16 UNL     1      18.774  31.406  22.291  1.00  0.00     0.203 C 
ENDBRANCH  15  22
BRANCH  12  24
HETATM   24  O1  UNL     1      23.308  29.235  21.312  1.00  0.00    -0.395 OA
ATOM     25  H1  UNL     1      23.501  28.593  20.638  1.00  0.00     0.210 HD
ENDBRANCH  12  24
TORSDOF 4
ENDMDL
MODEL 4
REMARK VINA RESULT: -5.055151749      2.605      4.629
REMARK  4 active torsions:
REMARK  status: ('A' for Active; 'I' for Inactive)
REMARK    1  A    between atoms: C11_12  and  O1_13 
REMARK    2  A    between atoms: C14_17  and  C15_18 
REMARK    3  A    between atoms: C14_17  and  O2_24 
REMARK    4  A    between atoms: N2_19  and  N3_21 
ROOT
HETATM    1  C1  UNL     1      18.405  28.762  24.391  1.00  0.00     0.221 C 
HETATM    2  N1  UNL     1      19.582  28.765  24.435  1.00  0.00    -0.462 NA
HETATM    3  C2  UNL     1      20.991  28.760  24.462  1.00  0.00     0.210 C 
HETATM    4  C3  UNL     1      21.494  30.000  25.103  1.00  0.00     0.000 C 
HETATM    5  C4  UNL     1      20.527  30.784  25.888  1.00  0.00     0.014 C 
HETATM    6  C5  UNL     1      20.463  30.023  27.193  1.00  0.00     0.010 C 
HETATM    7  C6  UNL     1      21.871  29.494  27.362  1.00  0.00    -0.043 C 
HETATM    8  C7  UNL     1      22.509  30.302  28.490  1.00  0.00     0.015 C 
HETATM    9  C8  UNL     1      21.840  28.060  27.825  1.00  0.00     0.015 C 
HETATM   10  C9  UNL     1      22.603  29.744  26.123  1.00  0.00     0.007 C 
HETATM   11  C10 UNL     1      23.460  28.677  25.577  1.00  0.00     0.038 C 
HETATM   12  C11 UNL     1      23.763  28.820  24.128  1.00  0.00     0.126 C 
HETATM   13  C12 UNL     1      22.813  29.559  23.275  1.00  0.00     0.058 C 
HETATM   14  C13 UNL     1      22.198  30.776  24.007  1.00  0.00     0.024 C 
HETATM   15  C14 UNL     1      21.513  28.833  22.987  1.00  0.00     0.132 C 
ENDROOT
BRANCH  15  16
HETATM   16  C15 UNL     1      21.691  27.480  22.467  1.00  0.00     0.121 C 
HETATM   17  N2  UNL     1      20.792  26.789  21.929  1.00  0.00    -0.319 N 
ATOM     18  H2  UNL     1      21.084  25.862  21.620  1.00  0.00     0.185 HD
BRANCH  17  19
HETATM   19  N3  UNL     1      19.461  27.098  21.694  1.00  0.00    -0.346 N 
ATOM     20  H32 UNL     1      18.982  27.510  22.496  1.00  0.00     0.176 HD
ATOM     21  H31 UNL     1      18.905  26.974  20.848  1.00  0.00     0.176 HD
ENDBRANCH  17  19
ENDBRANCH  15  16
BRANCH  15  22
HETATM   22  O2  UNL     1      20.587  29.624  22.398  1.00  0.00    -0.376 OA
HETATM   23  C16 UNL     1      20.841  30.310  21.274  1.00  0.00     0.203 C 
ENDBRANCH  15  22
BRANCH  12  24
HETATM   24  O1  UNL     1      25.026  29.441  23.956  1.00  0.00    -0.395 OA
ATOM     25  H1  UNL     1      25.015  30.313  24.335  1.00  0.00     0.210 HD
ENDBRANCH  12  24
TORSDOF 4
ENDMDL
MODEL 5
REMARK VINA RESULT: -4.963239463      2.540      4.990
REMARK  4 active torsions:
REMARK  status: ('A' for Active; 'I' for Inactive)
REMARK    1  A    between atoms: C11_12  and  O1_13 
REMARK    2  A    between atoms: C14_17  and  C15_18 
REMARK    3  A    between atoms: C14_17  and  O2_24 
REMARK    4  A    between atoms: N2_19  and  N3_21 
ROOT
HETATM    1  C1  UNL     1      23.605  31.717  22.010  1.00  0.00     0.221 C 
HETATM    2  N1  UNL     1      22.781  31.229  22.695  1.00  0.00    -0.462 NA
HETATM    3  C2  UNL     1      21.777  30.664  23.506  1.00  0.00     0.210 C 
HETATM    4  C3  UNL     1      21.799  29.185  23.390  1.00  0.00     0.000 C 
HETATM    5  C4  UNL     1      23.007  28.580  22.806  1.00  0.00     0.014 C 
HETATM    6  C5  UNL     1      23.981  28.599  23.961  1.00  0.00     0.010 C 
HETATM    7  C6  UNL     1      23.097  28.382  25.171  1.00  0.00    -0.043 C 
HETATM    8  C7  UNL     1      23.374  26.964  25.666  1.00  0.00     0.015 C 
HETATM    9  C8  UNL     1      23.499  29.312  26.286  1.00  0.00     0.015 C 
HETATM   10  C9  UNL     1      21.705  28.473  24.740  1.00  0.00     0.007 C 
HETATM   11  C10 UNL     1      20.753  29.234  25.569  1.00  0.00     0.038 C 
HETATM   12  C11 UNL     1      19.533  29.678  24.844  1.00  0.00     0.126 C 
HETATM   13  C12 UNL     1      19.605  29.866  23.383  1.00  0.00     0.058 C 
HETATM   14  C13 UNL     1      20.503  28.805  22.703  1.00  0.00     0.024 C 
HETATM   15  C14 UNL     1      20.383  31.089  22.934  1.00  0.00     0.132 C 
ENDROOT
BRANCH  15  16
HETATM   16  C15 UNL     1      19.954  32.331  23.569  1.00  0.00     0.121 C 
HETATM   17  N2  UNL     1      20.241  33.485  23.168  1.00  0.00    -0.319 N 
ATOM     18  H2  UNL     1      19.861  34.248  23.728  1.00  0.00     0.185 HD
BRANCH  17  19
HETATM   19  N3  UNL     1      21.000  33.877  22.074  1.00  0.00    -0.346 N 
ATOM     20  H32 UNL     1      21.302  33.104  21.480  1.00  0.00     0.176 HD
ATOM     21  H31 UNL     1      21.292  34.811  21.787  1.00  0.00     0.176 HD
ENDBRANCH  17  19
ENDBRANCH  15  16
BRANCH  15  22
HETATM   22  O2  UNL     1      20.617  31.104  21.602  1.00  0.00    -0.376 OA
HETATM   23  C16 UNL     1      19.624  31.114  20.700  1.00  0.00     0.203 C 
ENDBRANCH  15  22
BRANCH  12  24
HETATM   24  O1  UNL     1      18.471  28.768  25.081  1.00  0.00    -0.395 OA
ATOM     25  H1  UNL     1      17.722  28.995  24.542  1.00  0.00     0.210 HD
ENDBRANCH  12  24
TORSDOF 4
ENDMDL
