MODEL 1
REMARK VINA RESULT: -7.315068056      0.000      0.000
REMARK  4 active torsions:
REMARK  status: ('A' for Active; 'I' for Inactive)
REMARK       I    between atoms: C1_2  and  N2_4 
REMARK    1  A    between atoms: C2_6  and  N3_7 
REMARK    2  A    between atoms: C2_6  and  C13_19 
REMARK    3  A    between atoms: N3_7  and  C3_9 
REMARK    4  A    between atoms: C15_21  and  C16_22 
ROOT
HETATM    1  N1  UNL     1      22.290  37.621  20.467  1.00  0.00    -0.040 NA
HETATM    2  C1  UNL     1      22.897  36.663  21.308  1.00  0.00     0.334 C 
HETATM    3  O1  UNL     1      23.962  36.960  21.932  1.00  0.00    -0.251 OA
HETATM    4  N2  UNL     1      22.375  35.371  21.499  1.00  0.00    -0.300 N 
ATOM      5  H2  UNL     1      22.665  34.635  20.855  1.00  0.00     0.171 HD
HETATM    6  C2  UNL     1      21.532  35.057  22.463  1.00  0.00     0.086 C 
ENDROOT
BRANCH   6   7
HETATM    7  N3  UNL     1      21.176  36.129  23.316  1.00  0.00    -0.374 N 
ATOM      8  H3  UNL     1      20.811  36.966  22.861  1.00  0.00     0.161 HD
BRANCH   7   9
HETATM    9  C3  UNL     1      21.270  36.173  24.741  1.00  0.00     0.091 C 
HETATM   10  C4  UNL     1      19.990  36.357  25.472  1.00  0.00     0.009 C 
HETATM   11  C5  UNL     1      20.243  36.183  26.961  1.00  0.00     0.011 C 
HETATM   12  C9  UNL     1      19.525  37.786  25.254  1.00  0.00     0.011 C 
HETATM   13  C6  UNL     1      21.262  37.190  27.418  1.00  0.00    -0.013 C 
HETATM   14  C7  UNL     1      20.714  38.570  27.230  1.00  0.00     0.009 C 
HETATM   15  C12 UNL     1      22.565  36.997  26.669  1.00  0.00     0.011 C 
HETATM   16  C8  UNL     1      20.509  38.790  25.755  1.00  0.00    -0.013 C 
HETATM   17  C10 UNL     1      21.801  38.606  24.997  1.00  0.00     0.011 C 
HETATM   18  C11 UNL     1      22.276  37.207  25.200  1.00  0.00     0.009 C 
ENDBRANCH   7   9
ENDBRANCH   6   7
BRANCH   6  19
HETATM   19  C13 UNL     1      21.051  33.686  22.596  1.00  0.00     0.067 A 
HETATM   20  C14 UNL     1      21.926  32.566  22.052  1.00  0.00     0.027 A 
HETATM   21  C15 UNL     1      20.519  32.843  21.531  1.00  0.00     0.087 A 
BRANCH  21  22
HETATM   22  C16 UNL     1      20.383  33.213  20.128  1.00  0.00     0.236 C 
HETATM   23  N4  UNL     1      21.465  33.181  19.210  1.00  0.00    -0.062 NA
HETATM   24  O2  UNL     1      19.275  33.585  19.658  1.00  0.00    -0.276 OA
ENDBRANCH  21  22
ENDBRANCH   6  19
TORSDOF 4
ENDMDL
MODEL 2
REMARK VINA RESULT: -7.205920396      1.512      2.178
REMARK  4 active torsions:
REMARK  status: ('A' for Active; 'I' for Inactive)
REMARK       I    between atoms: C1_2  and  N2_4 
REMARK    1  A    between atoms: C2_6  and  N3_7 
REMARK    2  A    between atoms: C2_6  and  C13_19 
REMARK    3  A    between atoms: N3_7  and  C3_9 
REMARK    4  A    between atoms: C15_21  and  C16_22 
ROOT
HETATM    1  N1  UNL     1      21.785  38.380  20.711  1.00  0.00    -0.040 NA
HETATM    2  C1  UNL     1      22.535  37.191  20.835  1.00  0.00     0.334 C 
HETATM    3  O1  UNL     1      23.796  37.254  20.971  1.00  0.00    -0.251 OA
HETATM    4  N2  UNL     1      21.950  35.911  20.817  1.00  0.00    -0.300 N 
ATOM      5  H2  UNL     1      21.824  35.452  19.915  1.00  0.00     0.171 HD
HETATM    6  C2  UNL     1      21.557  35.272  21.902  1.00  0.00     0.086 C 
ENDROOT
BRANCH   6   7
HETATM    7  N3  UNL     1      21.764  35.971  23.114  1.00  0.00    -0.374 N 
ATOM      8  H3  UNL     1      22.735  36.103  23.399  1.00  0.00     0.161 HD
BRANCH   7   9
HETATM    9  C3  UNL     1      20.769  36.512  23.985  1.00  0.00     0.091 C 
HETATM   10  C4  UNL     1      20.693  37.994  24.044  1.00  0.00     0.009 C 
HETATM   11  C5  UNL     1      19.469  38.394  24.853  1.00  0.00     0.011 C 
HETATM   12  C9  UNL     1      21.915  38.500  24.790  1.00  0.00     0.011 C 
HETATM   13  C6  UNL     1      19.571  37.816  26.237  1.00  0.00    -0.013 C 
HETATM   14  C7  UNL     1      20.759  38.400  26.932  1.00  0.00     0.009 C 
HETATM   15  C12 UNL     1      19.649  36.304  26.170  1.00  0.00     0.011 C 
HETATM   16  C8  UNL     1      21.992  37.971  26.184  1.00  0.00    -0.013 C 
HETATM   17  C10 UNL     1      22.085  36.467  26.115  1.00  0.00     0.011 C 
HETATM   18  C11 UNL     1      20.891  35.949  25.386  1.00  0.00     0.009 C 
ENDBRANCH   7   9
ENDBRANCH   6   7
BRANCH   6  19
HETATM   19  C13 UNL     1      20.973  33.940  21.792  1.00  0.00     0.067 A 
HETATM   20  C14 UNL     1      21.169  32.975  22.952  1.00  0.00     0.027 A 
HETATM   21  C15 UNL     1      21.687  32.692  21.544  1.00  0.00     0.087 A 
BRANCH  21  22
HETATM   22  C16 UNL     1      23.128  32.546  21.376  1.00  0.00     0.236 C 
HETATM   23  N4  UNL     1      23.907  31.629  22.128  1.00  0.00    -0.062 NA
HETATM   24  O2  UNL     1      23.758  33.242  20.536  1.00  0.00    -0.276 OA
ENDBRANCH  21  22
ENDBRANCH   6  19
TORSDOF 4
ENDMDL
MODEL 3
REMARK VINA RESULT: -6.974206694      4.942      6.386
REMARK  4 active torsions:
REMARK  status: ('A' for Active; 'I' for Inactive)
REMARK       I    between atoms: C1_2  and  N2_4 
REMARK    1  A    between atoms: C2_6  and  N3_7 
REMARK    2  A    between atoms: C2_6  and  C13_19 
REMARK    3  A    between atoms: N3_7  and  C3_9 
REMARK    4  A    between atoms: C15_21  and  C16_22 
ROOT
HETATM    1  N1  UNL     1      22.720  34.765  21.447  1.00  0.00    -0.040 NA
HETATM    2  C1  UNL     1      22.636  33.689  20.537  1.00  0.00     0.334 C 
HETATM    3  O1  UNL     1      23.662  32.979  20.307  1.00  0.00    -0.251 OA
HETATM    4  N2  UNL     1      21.451  33.353  19.857  1.00  0.00    -0.300 N 
ATOM      5  H2  UNL     1      21.263  33.808  18.964  1.00  0.00     0.171 HD
HETATM    6  C2  UNL     1      20.570  32.481  20.309  1.00  0.00     0.086 C 
ENDROOT
BRANCH   6   7
HETATM    7  N3  UNL     1      20.900  31.892  21.553  1.00  0.00    -0.374 N 
ATOM      8  H3  UNL     1      21.082  32.535  22.324  1.00  0.00     0.161 HD
BRANCH   7   9
HETATM    9  C3  UNL     1      21.006  30.499  21.852  1.00  0.00     0.091 C 
HETATM   10  C4  UNL     1      20.297  30.040  23.074  1.00  0.00     0.009 C 
HETATM   11  C5  UNL     1      20.347  28.522  23.133  1.00  0.00     0.011 C 
HETATM   12  C9  UNL     1      21.051  30.567  24.282  1.00  0.00     0.011 C 
HETATM   13  C6  UNL     1      21.779  28.067  23.153  1.00  0.00    -0.013 C 
HETATM   14  C7  UNL     1      22.443  28.571  24.395  1.00  0.00     0.009 C 
HETATM   15  C12 UNL     1      22.498  28.538  21.904  1.00  0.00     0.011 C 
HETATM   16  C8  UNL     1      22.459  30.075  24.335  1.00  0.00    -0.013 C 
HETATM   17  C10 UNL     1      23.176  30.558  23.099  1.00  0.00     0.011 C 
HETATM   18  C11 UNL     1      22.451  30.048  21.899  1.00  0.00     0.009 C 
ENDBRANCH   7   9
ENDBRANCH   6   7
BRANCH   6  19
HETATM   19  C13 UNL     1      19.374  32.181  19.530  1.00  0.00     0.067 A 
HETATM   20  C14 UNL     1      19.227  30.779  18.958  1.00  0.00     0.027 A 
HETATM   21  C15 UNL     1      19.293  32.027  18.082  1.00  0.00     0.087 A 
BRANCH  21  22
HETATM   22  C16 UNL     1      20.403  32.131  17.143  1.00  0.00     0.236 C 
HETATM   23  N4  UNL     1      20.750  31.096  16.236  1.00  0.00    -0.062 NA
HETATM   24  O2  UNL     1      21.119  33.167  17.094  1.00  0.00    -0.276 OA
ENDBRANCH  21  22
ENDBRANCH   6  19
TORSDOF 4
ENDMDL
MODEL 4
REMARK VINA RESULT: -6.973672417      0.906      1.649
REMARK  4 active torsions:
REMARK  status: ('A' for Active; 'I' for Inactive)
REMARK       I    between atoms: C1_2  and  N2_4 
REMARK    1  A    between atoms: C2_6  and  N3_7 
REMARK    2  A    between atoms: C2_6  and  C13_19 
REMARK    3  A    between atoms: N3_7  and  C3_9 
REMARK    4  A    between atoms: C15_21  and  C16_22 
ROOT
HETATM    1  N1  UNL     1      20.661  38.066  20.843  1.00  0.00    -0.040 NA
HETATM    2  C1  UNL     1      21.674  37.085  20.929  1.00  0.00     0.334 C 
HETATM    3  O1  UNL     1      22.891  37.426  20.811  1.00  0.00    -0.251 OA
HETATM    4  N2  UNL     1      21.402  35.722  21.145  1.00  0.00    -0.300 N 
ATOM      5  H2  UNL     1      21.234  35.130  20.331  1.00  0.00     0.171 HD
HETATM    6  C2  UNL     1      21.354  35.165  22.340  1.00  0.00     0.086 C 
ENDROOT
BRANCH   6   7
HETATM    7  N3  UNL     1      21.598  36.048  23.418  1.00  0.00    -0.374 N 
ATOM      8  H3  UNL     1      22.570  36.314  23.574  1.00  0.00     0.161 HD
BRANCH   7   9
HETATM    9  C3  UNL     1      20.637  36.610  24.314  1.00  0.00     0.091 C 
HETATM   10  C4  UNL     1      20.703  38.082  24.500  1.00  0.00     0.009 C 
HETATM   11  C5  UNL     1      19.503  38.531  25.317  1.00  0.00     0.011 C 
HETATM   12  C9  UNL     1      21.949  38.399  25.309  1.00  0.00     0.011 C 
HETATM   13  C6  UNL     1      19.511  37.832  26.647  1.00  0.00    -0.013 C 
HETATM   14  C7  UNL     1      20.731  38.235  27.413  1.00  0.00     0.009 C 
HETATM   15  C12 UNL     1      19.443  36.330  26.452  1.00  0.00     0.011 C 
HETATM   16  C8  UNL     1      21.936  37.750  26.653  1.00  0.00    -0.013 C 
HETATM   17  C10 UNL     1      21.884  36.255  26.456  1.00  0.00     0.011 C 
HETATM   18  C11 UNL     1      20.665  35.922  25.663  1.00  0.00     0.009 C 
ENDBRANCH   7   9
ENDBRANCH   6   7
BRANCH   6  19
HETATM   19  C13 UNL     1      21.080  33.739  22.470  1.00  0.00     0.067 A 
HETATM   20  C14 UNL     1      22.086  32.760  21.883  1.00  0.00     0.027 A 
HETATM   21  C15 UNL     1      20.636  32.836  21.413  1.00  0.00     0.087 A 
BRANCH  21  22
HETATM   22  C16 UNL     1      20.400  33.194  20.020  1.00  0.00     0.236 C 
HETATM   23  N4  UNL     1      21.378  33.040  19.003  1.00  0.00    -0.062 NA
HETATM   24  O2  UNL     1      19.292  33.667  19.649  1.00  0.00    -0.276 OA
ENDBRANCH  21  22
ENDBRANCH   6  19
TORSDOF 4
ENDMDL
MODEL 5
REMARK VINA RESULT: -6.914397088      4.229      6.284
REMARK  4 active torsions:
REMARK  status: ('A' for Active; 'I' for Inactive)
REMARK       I    between atoms: C1_2  and  N2_4 
REMARK    1  A    between atoms: C2_6  and  N3_7 
REMARK    2  A    between atoms: C2_6  and  C13_19 
REMARK    3  A    between atoms: N3_7  and  C3_9 
REMARK    4  A    between atoms: C15_21  and  C16_22 
ROOT
HETATM    1  N1  UNL     1      21.398  34.895  22.545  1.00  0.00    -0.040 NA
HETATM    2  C1  UNL     1      21.562  34.513  21.196  1.00  0.00     0.334 C 
HETATM    3  O1  UNL     1      22.690  34.660  20.633  1.00  0.00    -0.251 OA
HETATM    4  N2  UNL     1      20.521  33.965  20.423  1.00  0.00    -0.300 N 
ATOM      5  H2  UNL     1      19.909  34.605  19.917  1.00  0.00     0.171 HD
HETATM    6  C2  UNL     1      20.292  32.670  20.318  1.00  0.00     0.086 C 
ENDROOT
BRANCH   6   7
HETATM    7  N3  UNL     1      21.181  31.846  21.048  1.00  0.00    -0.374 N 
ATOM      8  H3  UNL     1      22.118  31.736  20.659  1.00  0.00     0.161 HD
BRANCH   7   9
HETATM    9  C3  UNL     1      20.916  31.151  22.268  1.00  0.00     0.091 C 
HETATM   10  C4  UNL     1      21.900  31.359  23.361  1.00  0.00     0.009 C 
HETATM   11  C5  UNL     1      21.368  30.716  24.632  1.00  0.00     0.011 C 
HETATM   12  C9  UNL     1      23.180  30.634  22.987  1.00  0.00     0.011 C 
HETATM   13  C6  UNL     1      21.144  29.248  24.396  1.00  0.00    -0.013 C 
HETATM   14  C7  UNL     1      22.451  28.589  24.092  1.00  0.00     0.009 C 
HETATM   15  C12 UNL     1      20.140  29.043  23.280  1.00  0.00     0.011 C 
HETATM   16  C8  UNL     1      22.973  29.167  22.804  1.00  0.00    -0.013 C 
HETATM   17  C10 UNL     1      21.985  28.965  21.682  1.00  0.00     0.011 C 
HETATM   18  C11 UNL     1      20.718  29.669  22.032  1.00  0.00     0.009 C 
ENDBRANCH   7   9
ENDBRANCH   6   7
BRANCH   6  19
HETATM   19  C13 UNL     1      19.198  32.188  19.482  1.00  0.00     0.067 A 
HETATM   20  C14 UNL     1      19.259  30.753  18.982  1.00  0.00     0.027 A 
HETATM   21  C15 UNL     1      19.238  31.955  18.042  1.00  0.00     0.087 A 
BRANCH  21  22
HETATM   22  C16 UNL     1      20.392  32.148  17.172  1.00  0.00     0.236 C 
HETATM   23  N4  UNL     1      20.792  31.200  16.195  1.00  0.00    -0.062 NA
HETATM   24  O2  UNL     1      21.100  33.187  17.252  1.00  0.00    -0.276 OA
ENDBRANCH  21  22
ENDBRANCH   6  19
TORSDOF 4
ENDMDL
