MODEL 1
REMARK VINA RESULT: -6.577555961      0.000      0.000
REMARK  3 active torsions:
REMARK  status: ('A' for Active; 'I' for Inactive)
REMARK    1  A    between atoms: C2_2  and  N1_3 
REMARK    2  A    between atoms: C6_7  and  N2_8 
REMARK    3  A    between atoms: C14_16  and  N3_17 
REMARK       I    between atoms: N3_17  and  C15_19 
ROOT
HETATM    1  N1  UNL     1      22.621  31.355  22.666  1.00  0.00     0.090 N 
HETATM    2  C3  UNL     1      21.204  31.228  22.657  1.00  0.00     0.272 C 
HETATM    3  C4  UNL     1      20.611  32.450  21.971  1.00  0.00     0.032 C 
HETATM    4  C5  UNL     1      21.337  33.689  22.478  1.00  0.00     0.035 C 
HETATM    5  C6  UNL     1      21.731  34.563  21.282  1.00  0.00     0.192 C 
HETATM    6  C13 UNL     1      22.655  33.819  20.398  1.00  0.00     0.060 C 
HETATM    7  C14 UNL     1      23.626  32.881  21.059  1.00  0.00     0.114 C 
HETATM    8  C16 UNL     1      23.095  31.494  21.304  1.00  0.00     0.297 C 
ENDROOT
BRANCH   5   9
HETATM    9  N2  UNL     1      22.089  35.890  21.646  1.00  0.00    -0.067 N 
HETATM   10  C7  UNL     1      23.522  36.142  21.485  1.00  0.00     0.273 C 
HETATM   11  C8  UNL     1      21.271  36.873  20.972  1.00  0.00     0.237 C 
HETATM   12  C9  UNL     1      21.737  38.291  21.198  1.00  0.00     0.028 C 
HETATM   13  C10 UNL     1      21.810  38.628  22.671  1.00  0.00     0.003 C 
HETATM   14  C11 UNL     1      22.377  37.484  23.483  1.00  0.00     0.028 C 
HETATM   15  C12 UNL     1      21.846  36.154  23.081  1.00  0.00     0.237 C 
ENDBRANCH   5   9
BRANCH   7  16
HETATM   16  N3  UNL     1      24.832  32.761  20.269  1.00  0.00    -0.358 N 
HETATM   17  C15 UNL     1      26.079  33.286  20.637  1.00  0.00     0.182 C 
HETATM   18  N4  UNL     1      26.355  34.479  20.992  1.00  0.00    -0.374 N 
HETATM   19  N5  UNL     1      27.229  32.400  20.628  1.00  0.00    -0.064 NA
ATOM     20  H42 UNL     1      25.546  35.102  20.998  1.00  0.00     0.158 HD
ATOM     21  H41 UNL     1      27.262  34.861  21.260  1.00  0.00     0.158 HD
ATOM     22  H3  UNL     1      24.772  32.260  19.382  1.00  0.00     0.162 HD
ENDBRANCH   7  16
BRANCH   1  23
HETATM   23  C2  UNL     1      23.316  30.360  23.419  1.00  0.00     0.268 C 
HETATM   24  C1  UNL     1      22.511  29.804  24.540  1.00  0.00     0.037 C 
ENDBRANCH   1  23
TORSDOF 3
ENDMDL
MODEL 2
REMARK VINA RESULT: -6.463859368      2.939      5.966
REMARK  3 active torsions:
REMARK  status: ('A' for Active; 'I' for Inactive)
REMARK    1  A    between atoms: C2_2  and  N1_3 
REMARK    2  A    between atoms: C6_7  and  N2_8 
REMARK    3  A    between atoms: C14_16  and  N3_17 
REMARK       I    between atoms: N3_17  and  C15_19 
ROOT
HETATM    1  N1  UNL     1      20.417  32.166  19.758  1.00  0.00     0.090 N 
HETATM    2  C3  UNL     1      19.147  32.108  20.398  1.00  0.00     0.272 C 
HETATM    3  C4  UNL     1      19.349  31.641  21.832  1.00  0.00     0.032 C 
HETATM    4  C5  UNL     1      20.339  30.484  21.829  1.00  0.00     0.035 C 
HETATM    5  C6  UNL     1      21.395  30.725  22.914  1.00  0.00     0.192 C 
HETATM    6  C13 UNL     1      22.141  31.969  22.622  1.00  0.00     0.060 C 
HETATM    7  C14 UNL     1      22.391  32.292  21.175  1.00  0.00     0.114 C 
HETATM    8  C16 UNL     1      21.285  33.058  20.501  1.00  0.00     0.297 C 
ENDROOT
BRANCH   5   9
HETATM    9  N2  UNL     1      22.147  29.563  23.238  1.00  0.00    -0.067 N 
HETATM   10  C7  UNL     1      22.334  28.683  22.084  1.00  0.00     0.273 C 
HETATM   11  C8  UNL     1      23.392  29.892  23.895  1.00  0.00     0.237 C 
HETATM   12  C9  UNL     1      24.294  28.698  24.095  1.00  0.00     0.028 C 
HETATM   13  C10 UNL     1      23.600  27.596  24.864  1.00  0.00     0.003 C 
HETATM   14  C11 UNL     1      22.163  27.420  24.425  1.00  0.00     0.028 C 
HETATM   15  C12 UNL     1      21.447  28.709  24.222  1.00  0.00     0.237 C 
ENDBRANCH   5   9
BRANCH   7  16
HETATM   16  N3  UNL     1      23.612  33.054  21.030  1.00  0.00    -0.358 N 
HETATM   17  C15 UNL     1      24.899  32.501  21.030  1.00  0.00     0.182 C 
HETATM   18  N4  UNL     1      25.417  31.717  21.893  1.00  0.00    -0.374 N 
HETATM   19  N5  UNL     1      25.791  32.831  19.934  1.00  0.00    -0.064 NA
ATOM     20  H42 UNL     1      24.790  31.485  22.664  1.00  0.00     0.158 HD
ATOM     21  H41 UNL     1      26.355  31.314  21.893  1.00  0.00     0.158 HD
ATOM     22  H3  UNL     1      23.530  34.065  20.919  1.00  0.00     0.162 HD
ENDBRANCH   7  16
BRANCH   1  23
HETATM   23  C2  UNL     1      20.378  32.436  18.356  1.00  0.00     0.268 C 
HETATM   24  C1  UNL     1      19.154  31.912  17.691  1.00  0.00     0.037 C 
ENDBRANCH   1  23
TORSDOF 3
ENDMDL
MODEL 3
REMARK VINA RESULT: -6.231232133      1.716      2.933
REMARK  3 active torsions:
REMARK  status: ('A' for Active; 'I' for Inactive)
REMARK    1  A    between atoms: C2_2  and  N1_3 
REMARK    2  A    between atoms: C6_7  and  N2_8 
REMARK    3  A    between atoms: C14_16  and  N3_17 
REMARK       I    between atoms: N3_17  and  C15_19 
ROOT
HETATM    1  N1  UNL     1      23.292  33.312  21.358  1.00  0.00     0.090 N 
HETATM    2  C3  UNL     1      22.016  32.966  20.832  1.00  0.00     0.272 C 
HETATM    3  C4  UNL     1      21.101  34.177  20.944  1.00  0.00     0.032 C 
HETATM    4  C5  UNL     1      21.298  34.807  22.316  1.00  0.00     0.035 C 
HETATM    5  C6  UNL     1      21.472  36.321  22.152  1.00  0.00     0.192 C 
HETATM    6  C13 UNL     1      22.675  36.604  21.340  1.00  0.00     0.060 C 
HETATM    7  C14 UNL     1      23.847  35.677  21.508  1.00  0.00     0.114 C 
HETATM    8  C16 UNL     1      23.813  34.453  20.632  1.00  0.00     0.297 C 
ENDROOT
BRANCH   5   9
HETATM    9  N2  UNL     1      21.309  37.043  23.366  1.00  0.00    -0.067 N 
HETATM   10  C7  UNL     1      20.189  37.985  23.305  1.00  0.00     0.273 C 
HETATM   11  C8  UNL     1      21.236  36.164  24.511  1.00  0.00     0.237 C 
HETATM   12  C9  UNL     1      20.886  36.883  25.792  1.00  0.00     0.028 C 
HETATM   13  C10 UNL     1      21.857  38.005  26.086  1.00  0.00     0.003 C 
HETATM   14  C11 UNL     1      22.222  38.776  24.837  1.00  0.00     0.028 C 
HETATM   15  C12 UNL     1      22.475  37.904  23.658  1.00  0.00     0.237 C 
ENDBRANCH   5   9
BRANCH   7  16
HETATM   16  N3  UNL     1      25.087  36.375  21.247  1.00  0.00    -0.358 N 
HETATM   17  C15 UNL     1      26.276  35.756  20.835  1.00  0.00     0.182 C 
HETATM   18  N4  UNL     1      26.872  34.765  21.372  1.00  0.00    -0.374 N 
HETATM   19  N5  UNL     1      26.947  36.271  19.656  1.00  0.00    -0.064 NA
ATOM     20  H42 UNL     1      26.400  34.403  22.201  1.00  0.00     0.158 HD
ATOM     21  H41 UNL     1      27.737  34.315  21.072  1.00  0.00     0.158 HD
ATOM     22  H3  UNL     1      25.098  37.387  21.372  1.00  0.00     0.162 HD
ENDBRANCH   7  16
BRANCH   1  23
HETATM   23  C2  UNL     1      24.217  32.230  21.469  1.00  0.00     0.268 C 
HETATM   24  C1  UNL     1      23.769  31.170  22.413  1.00  0.00     0.037 C 
ENDBRANCH   1  23
TORSDOF 3
ENDMDL
MODEL 4
REMARK VINA RESULT: -6.100173595      2.380      6.998
REMARK  3 active torsions:
REMARK  status: ('A' for Active; 'I' for Inactive)
REMARK    1  A    between atoms: C2_2  and  N1_3 
REMARK    2  A    between atoms: C6_7  and  N2_8 
REMARK    3  A    between atoms: C14_16  and  N3_17 
REMARK       I    between atoms: N3_17  and  C15_19 
ROOT
HETATM    1  N1  UNL     1      22.086  33.343  21.695  1.00  0.00     0.090 N 
HETATM    2  C3  UNL     1      23.371  33.298  21.086  1.00  0.00     0.272 C 
HETATM    3  C4  UNL     1      23.895  31.871  21.166  1.00  0.00     0.032 C 
HETATM    4  C5  UNL     1      23.609  31.329  22.560  1.00  0.00     0.035 C 
HETATM    5  C6  UNL     1      22.988  29.933  22.437  1.00  0.00     0.192 C 
HETATM    6  C13 UNL     1      21.706  30.016  21.704  1.00  0.00     0.060 C 
HETATM    7  C14 UNL     1      20.872  31.247  21.925  1.00  0.00     0.114 C 
HETATM    8  C16 UNL     1      21.208  32.405  21.025  1.00  0.00     0.297 C 
ENDROOT
BRANCH   5   9
HETATM    9  N2  UNL     1      23.009  29.196  23.652  1.00  0.00    -0.067 N 
HETATM   10  C7  UNL     1      22.356  27.892  23.522  1.00  0.00     0.273 C 
HETATM   11  C8  UNL     1      24.343  29.098  24.201  1.00  0.00     0.237 C 
HETATM   12  C9  UNL     1      24.431  28.176  25.393  1.00  0.00     0.028 C 
HETATM   13  C10 UNL     1      23.470  28.585  26.488  1.00  0.00     0.003 C 
HETATM   14  C11 UNL     1      22.129  29.011  25.931  1.00  0.00     0.028 C 
HETATM   15  C12 UNL     1      22.239  29.869  24.720  1.00  0.00     0.237 C 
ENDBRANCH   5   9
BRANCH   7  16
HETATM   16  N3  UNL     1      19.467  30.945  21.754  1.00  0.00    -0.358 N 
HETATM   17  C15 UNL     1      18.569  30.716  22.806  1.00  0.00     0.182 C 
HETATM   18  N4  UNL     1      18.691  29.899  23.779  1.00  0.00    -0.374 N 
HETATM   19  N5  UNL     1      17.334  31.476  22.835  1.00  0.00    -0.064 NA
ATOM     20  H42 UNL     1      19.560  29.364  23.758  1.00  0.00     0.158 HD
ATOM     21  H41 UNL     1      18.038  29.732  24.544  1.00  0.00     0.158 HD
ATOM     22  H3  UNL     1      19.105  30.895  20.802  1.00  0.00     0.162 HD
ENDBRANCH   7  16
BRANCH   1  23
HETATM   23  C2  UNL     1      21.528  34.650  21.841  1.00  0.00     0.268 C 
HETATM   24  C1  UNL     1      22.345  35.712  21.193  1.00  0.00     0.037 C 
ENDBRANCH   1  23
TORSDOF 3
ENDMDL
MODEL 5
REMARK VINA RESULT: -6.060197043      4.041      7.396
REMARK  3 active torsions:
REMARK  status: ('A' for Active; 'I' for Inactive)
REMARK    1  A    between atoms: C2_2  and  N1_3 
REMARK    2  A    between atoms: C6_7  and  N2_8 
REMARK    3  A    between atoms: C14_16  and  N3_17 
REMARK       I    between atoms: N3_17  and  C15_19 
ROOT
HETATM    1  N1  UNL     1      20.556  31.577  21.617  1.00  0.00     0.090 N 
HETATM    2  C3  UNL     1      21.728  32.208  21.114  1.00  0.00     0.272 C 
HETATM    3  C4  UNL     1      22.931  31.341  21.457  1.00  0.00     0.032 C 
HETATM    4  C5  UNL     1      22.789  30.865  22.896  1.00  0.00     0.035 C 
HETATM    5  C6  UNL     1      23.063  29.357  22.954  1.00  0.00     0.192 C 
HETATM    6  C13 UNL     1      22.071  28.634  22.130  1.00  0.00     0.060 C 
HETATM    7  C14 UNL     1      20.675  29.193  22.094  1.00  0.00     0.114 C 
HETATM    8  C16 UNL     1      20.448  30.249  21.046  1.00  0.00     0.297 C 
ENDROOT
BRANCH   5   9
HETATM    9  N2  UNL     1      23.307  28.878  24.270  1.00  0.00    -0.067 N 
HETATM   10  C7  UNL     1      24.734  28.855  24.596  1.00  0.00     0.273 C 
HETATM   11  C8  UNL     1      22.521  29.584  25.256  1.00  0.00     0.237 C 
HETATM   12  C9  UNL     1      22.883  29.223  26.676  1.00  0.00     0.028 C 
HETATM   13  C10 UNL     1      22.771  27.735  26.921  1.00  0.00     0.003 C 
HETATM   14  C11 UNL     1      23.300  26.930  25.755  1.00  0.00     0.028 C 
HETATM   15  C12 UNL     1      22.888  27.468  24.430  1.00  0.00     0.237 C 
ENDBRANCH   5   9
BRANCH   7  16
HETATM   16  N3  UNL     1      19.711  28.137  21.876  1.00  0.00    -0.358 N 
HETATM   17  C15 UNL     1      19.911  27.042  21.024  1.00  0.00     0.182 C 
HETATM   18  N4  UNL     1      20.269  27.054  19.800  1.00  0.00    -0.374 N 
HETATM   19  N5  UNL     1      19.696  25.708  21.554  1.00  0.00    -0.064 NA
ATOM     20  H42 UNL     1      20.420  27.992  19.427  1.00  0.00     0.158 HD
ATOM     21  H41 UNL     1      20.414  26.257  19.179  1.00  0.00     0.158 HD
ATOM     22  H3  UNL     1      18.824  28.193  22.376  1.00  0.00     0.162 HD
ENDBRANCH   7  16
BRANCH   1  23
HETATM   23  C2  UNL     1      19.358  32.348  21.514  1.00  0.00     0.268 C 
HETATM   24  C1  UNL     1      19.095  32.840  20.136  1.00  0.00     0.037 C 
ENDBRANCH   1  23
TORSDOF 3
ENDMDL
