MODEL 1
REMARK VINA RESULT: -7.961227230      0.000      0.000
REMARK  9 active torsions:
REMARK  status: ('A' for Active; 'I' for Inactive)
REMARK    1  A    between atoms: C2_2  and  C3_3 
REMARK    2  A    between atoms: C3_3  and  C5_5 
REMARK    3  A    between atoms: C5_5  and  N1_6 
REMARK       I    between atoms: N1_6  and  C6_8 
REMARK       I    between atoms: C6_8  and  N2_10 
REMARK    4  A    between atoms: N2_10  and  C7_12 
REMARK    5  A    between atoms: C10_15  and  O2_16 
REMARK    6  A    between atoms: C17_24  and  C18_25 
REMARK    7  A    between atoms: C18_25  and  C19_26 
REMARK    8  A    between atoms: C19_26  and  C20_27 
REMARK    9  A    between atoms: C20_27  and  O3_28 
ROOT
HETATM    1  C7  UNL     1      37.591 -18.908  25.270  1.00  0.00     0.087 C 
HETATM    2  C8  UNL     1      37.860 -18.987  23.762  1.00  0.00     0.033 C 
HETATM    3  C9  UNL     1      37.521 -20.429  23.454  1.00  0.00     0.021 C 
HETATM    4  C10 UNL     1      37.130 -20.693  22.033  1.00  0.00     0.123 C 
HETATM    5  C11 UNL     1      35.961 -21.601  21.890  1.00  0.00     0.042 C 
HETATM    6  C12 UNL     1      35.673 -22.570  22.980  1.00  0.00    -0.034 C 
HETATM    7  C13 UNL     1      34.139 -22.797  22.868  1.00  0.00     0.016 C 
HETATM    8  C14 UNL     1      36.244 -23.899  22.689  1.00  0.00    -0.002 C 
HETATM    9  C15 UNL     1      37.644 -24.000  22.235  1.00  0.00     0.006 C 
HETATM   10  C16 UNL     1      38.068 -25.440  22.613  1.00  0.00     0.005 C 
HETATM   11  C17 UNL     1      36.851 -26.049  23.188  1.00  0.00    -0.010 C 
HETATM   12  C21 UNL     1      36.204 -24.869  23.886  1.00  0.00    -0.006 C 
HETATM   13  C22 UNL     1      37.026 -24.273  24.956  1.00  0.00     0.006 C 
HETATM   14  C23 UNL     1      36.886 -22.803  25.186  1.00  0.00     0.006 C 
HETATM   15  C24 UNL     1      35.884 -22.079  24.383  1.00  0.00    -0.001 C 
HETATM   16  C25 UNL     1      36.302 -20.619  24.269  1.00  0.00    -0.001 C 
HETATM   17  C26 UNL     1      36.502 -19.914  25.532  1.00  0.00     0.031 C 
ENDROOT
BRANCH   1  18
HETATM   18  N2  UNL     1      37.238 -17.553  25.608  1.00  0.00    -0.339 N 
HETATM   19  C6  UNL     1      37.427 -16.935  26.862  1.00  0.00     0.316 C 
HETATM   20  N1  UNL     1      37.048 -15.592  27.108  1.00  0.00    -0.343 N 
HETATM   21  O1  UNL     1      37.943 -17.558  27.818  1.00  0.00    -0.247 OA
ATOM     22  H1  UNL     1      36.624 -15.068  26.342  1.00  0.00     0.164 HD
ATOM     23  H2  UNL     1      36.813 -16.988  24.873  1.00  0.00     0.164 HD
BRANCH  20  24
HETATM   24  C5  UNL     1      37.220 -14.922  28.360  1.00  0.00     0.128 C 
BRANCH  24  25
HETATM   25  C3  UNL     1      36.091 -14.045  28.792  1.00  0.00    -0.001 C 
HETATM   26  C4  UNL     1      35.568 -13.150  27.693  1.00  0.00     0.011 C 
BRANCH  25  27
HETATM   27  C2  UNL     1      34.942 -14.948  29.200  1.00  0.00     0.001 C 
HETATM   28  C1  UNL     1      33.873 -14.143  29.943  1.00  0.00     0.005 C 
ENDBRANCH  25  27
ENDBRANCH  24  25
ENDBRANCH  20  24
ENDBRANCH   1  18
BRANCH   4  29
HETATM   29  O2  UNL     1      36.852 -19.455  21.449  1.00  0.00    -0.395 OA
ATOM     30  H2  UNL     1      37.680 -19.095  21.153  1.00  0.00     0.210 HD
ENDBRANCH   4  29
BRANCH  11  31
HETATM   31  C18 UNL     1      36.881 -27.325  23.859  1.00  0.00     0.012 C 
BRANCH  31  32
HETATM   32  C19 UNL     1      35.727 -27.897  24.560  1.00  0.00     0.077 C 
BRANCH  32  33
HETATM   33  C20 UNL     1      34.886 -28.845  23.808  1.00  0.00     0.110 C 
HETATM   34  S1  UNL     1      35.165 -29.161  22.219  1.00  0.00    -0.058 SA
BRANCH  33  35
HETATM   35  O3  UNL     1      33.821 -29.514  24.400  1.00  0.00    -0.354 OA
ATOM     36  H3  UNL     1      33.943 -30.311  24.902  1.00  0.00     0.218 HD
ENDBRANCH  33  35
ENDBRANCH  32  33
ENDBRANCH  31  32
ENDBRANCH  11  31
TORSDOF 9
ENDMDL
MODEL 2
REMARK VINA RESULT: -7.500949659      5.929      7.128
REMARK  9 active torsions:
REMARK  status: ('A' for Active; 'I' for Inactive)
REMARK    1  A    between atoms: C2_2  and  C3_3 
REMARK    2  A    between atoms: C3_3  and  C5_5 
REMARK    3  A    between atoms: C5_5  and  N1_6 
REMARK       I    between atoms: N1_6  and  C6_8 
REMARK       I    between atoms: C6_8  and  N2_10 
REMARK    4  A    between atoms: N2_10  and  C7_12 
REMARK    5  A    between atoms: C10_15  and  O2_16 
REMARK    6  A    between atoms: C17_24  and  C18_25 
REMARK    7  A    between atoms: C18_25  and  C19_26 
REMARK    8  A    between atoms: C19_26  and  C20_27 
REMARK    9  A    between atoms: C20_27  and  O3_28 
ROOT
HETATM    1  C7  UNL     1      39.845 -19.978  27.256  1.00  0.00     0.087 C 
HETATM    2  C8  UNL     1      39.651 -20.280  28.748  1.00  0.00     0.033 C 
HETATM    3  C9  UNL     1      40.320 -21.630  28.888  1.00  0.00     0.021 C 
HETATM    4  C10 UNL     1      40.808 -21.949  30.268  1.00  0.00     0.123 C 
HETATM    5  C11 UNL     1      42.157 -22.575  30.297  1.00  0.00     0.042 C 
HETATM    6  C12 UNL     1      42.620 -23.328  29.102  1.00  0.00    -0.034 C 
HETATM    7  C13 UNL     1      44.169 -23.208  29.176  1.00  0.00     0.016 C 
HETATM    8  C14 UNL     1      42.376 -24.777  29.246  1.00  0.00    -0.002 C 
HETATM    9  C15 UNL     1      41.052 -25.244  29.697  1.00  0.00     0.006 C 
HETATM   10  C16 UNL     1      40.954 -26.694  29.162  1.00  0.00     0.005 C 
HETATM   11  C17 UNL     1      42.258 -26.941  28.512  1.00  0.00    -0.010 C 
HETATM   12  C21 UNL     1      42.595 -25.576  27.947  1.00  0.00    -0.006 C 
HETATM   13  C22 UNL     1      41.624 -25.072  26.958  1.00  0.00     0.006 C 
HETATM   14  C23 UNL     1      41.419 -23.593  26.894  1.00  0.00     0.006 C 
HETATM   15  C24 UNL     1      42.256 -22.750  27.766  1.00  0.00    -0.001 C 
HETATM   16  C25 UNL     1      41.522 -21.446  28.048  1.00  0.00    -0.001 C 
HETATM   17  C26 UNL     1      41.124 -20.673  26.874  1.00  0.00     0.031 C 
ENDROOT
BRANCH   1  18
HETATM   18  N2  UNL     1      39.868 -18.550  27.071  1.00  0.00    -0.339 N 
HETATM   19  C6  UNL     1      38.743 -17.718  26.896  1.00  0.00     0.316 C 
HETATM   20  N1  UNL     1      38.858 -16.317  26.718  1.00  0.00    -0.343 N 
HETATM   21  O1  UNL     1      37.583 -18.192  26.891  1.00  0.00    -0.247 OA
ATOM     22  H1  UNL     1      39.795 -15.913  26.717  1.00  0.00     0.164 HD
ATOM     23  H2  UNL     1      40.783 -18.099  27.065  1.00  0.00     0.164 HD
BRANCH  20  24
HETATM   24  C5  UNL     1      37.748 -15.433  26.539  1.00  0.00     0.128 C 
BRANCH  24  25
HETATM   25  C3  UNL     1      37.550 -14.409  27.607  1.00  0.00    -0.001 C 
HETATM   26  C4  UNL     1      36.330 -13.543  27.393  1.00  0.00     0.011 C 
BRANCH  25  27
HETATM   27  C2  UNL     1      37.332 -15.149  28.914  1.00  0.00     0.001 C 
HETATM   28  C1  UNL     1      35.952 -15.810  28.925  1.00  0.00     0.005 C 
ENDBRANCH  25  27
ENDBRANCH  24  25
ENDBRANCH  20  24
ENDBRANCH   1  18
BRANCH   4  29
HETATM   29  O2  UNL     1      40.817 -20.752  30.985  1.00  0.00    -0.395 OA
ATOM     30  H2  UNL     1      41.581 -20.772  31.550  1.00  0.00     0.210 HD
ENDBRANCH   4  29
BRANCH  11  31
HETATM   31  C18 UNL     1      42.496 -28.110  27.701  1.00  0.00     0.012 C 
BRANCH  31  32
HETATM   32  C19 UNL     1      43.368 -29.215  28.112  1.00  0.00     0.077 C 
BRANCH  32  33
HETATM   33  C20 UNL     1      43.403 -29.545  29.548  1.00  0.00     0.110 C 
HETATM   34  S1  UNL     1      44.811 -29.520  30.397  1.00  0.00    -0.058 SA
BRANCH  33  35
HETATM   35  O3  UNL     1      42.255 -29.894  30.251  1.00  0.00    -0.354 OA
ATOM     36  H3  UNL     1      42.260 -30.014  31.193  1.00  0.00     0.218 HD
ENDBRANCH  33  35
ENDBRANCH  32  33
ENDBRANCH  31  32
ENDBRANCH  11  31
TORSDOF 9
ENDMDL
MODEL 3
REMARK VINA RESULT: -7.499845856      4.367     10.253
REMARK  9 active torsions:
REMARK  status: ('A' for Active; 'I' for Inactive)
REMARK    1  A    between atoms: C2_2  and  C3_3 
REMARK    2  A    between atoms: C3_3  and  C5_5 
REMARK    3  A    between atoms: C5_5  and  N1_6 
REMARK       I    between atoms: N1_6  and  C6_8 
REMARK       I    between atoms: C6_8  and  N2_10 
REMARK    4  A    between atoms: N2_10  and  C7_12 
REMARK    5  A    between atoms: C10_15  and  O2_16 
REMARK    6  A    between atoms: C17_24  and  C18_25 
REMARK    7  A    between atoms: C18_25  and  C19_26 
REMARK    8  A    between atoms: C19_26  and  C20_27 
REMARK    9  A    between atoms: C20_27  and  O3_28 
ROOT
HETATM    1  C7  UNL     1      37.211 -22.830  24.408  1.00  0.00     0.087 C 
HETATM    2  C8  UNL     1      38.653 -22.506  23.995  1.00  0.00     0.033 C 
HETATM    3  C9  UNL     1      38.936 -21.248  24.785  1.00  0.00     0.021 C 
HETATM    4  C10 UNL     1      40.385 -20.990  25.060  1.00  0.00     0.123 C 
HETATM    5  C11 UNL     1      40.662 -20.533  26.448  1.00  0.00     0.042 C 
HETATM    6  C12 UNL     1      39.581 -19.841  27.199  1.00  0.00    -0.034 C 
HETATM    7  C13 UNL     1      39.919 -20.149  28.686  1.00  0.00     0.016 C 
HETATM    8  C14 UNL     1      39.710 -18.374  27.109  1.00  0.00    -0.002 C 
HETATM    9  C15 UNL     1      39.935 -17.749  25.793  1.00  0.00     0.006 C 
HETATM   10  C16 UNL     1      39.422 -16.298  25.963  1.00  0.00     0.005 C 
HETATM   11  C17 UNL     1      39.013 -16.211  27.381  1.00  0.00    -0.010 C 
HETATM   12  C21 UNL     1      38.486 -17.607  27.646  1.00  0.00    -0.006 C 
HETATM   13  C22 UNL     1      37.333 -17.989  26.808  1.00  0.00     0.006 C 
HETATM   14  C23 UNL     1      37.204 -19.433  26.442  1.00  0.00     0.006 C 
HETATM   15  C24 UNL     1      38.190 -20.372  27.007  1.00  0.00    -0.001 C 
HETATM   16  C25 UNL     1      38.312 -21.576  26.085  1.00  0.00    -0.001 C 
HETATM   17  C26 UNL     1      37.071 -22.295  25.809  1.00  0.00     0.031 C 
ENDROOT
BRANCH   1  18
HETATM   18  N2  UNL     1      37.003 -24.250  24.293  1.00  0.00    -0.339 N 
HETATM   19  C6  UNL     1      35.816 -24.882  23.867  1.00  0.00     0.316 C 
HETATM   20  N1  UNL     1      35.698 -26.292  23.784  1.00  0.00    -0.343 N 
HETATM   21  O1  UNL     1      34.809 -24.213  23.541  1.00  0.00    -0.247 OA
ATOM     22  H1  UNL     1      36.507 -26.854  24.046  1.00  0.00     0.164 HD
ATOM     23  H2  UNL     1      37.786 -24.855  24.542  1.00  0.00     0.164 HD
BRANCH  20  24
HETATM   24  C5  UNL     1      34.517 -26.977  23.357  1.00  0.00     0.128 C 
BRANCH  24  25
HETATM   25  C3  UNL     1      34.688 -28.421  23.013  1.00  0.00    -0.001 C 
HETATM   26  C4  UNL     1      35.904 -28.696  22.158  1.00  0.00     0.011 C 
BRANCH  25  27
HETATM   27  C2  UNL     1      34.891 -29.178  24.312  1.00  0.00     0.001 C 
HETATM   28  C1  UNL     1      34.160 -30.521  24.261  1.00  0.00     0.005 C 
ENDBRANCH  25  27
ENDBRANCH  24  25
ENDBRANCH  20  24
ENDBRANCH   1  18
BRANCH   4  29
HETATM   29  O2  UNL     1      41.068 -22.180  24.800  1.00  0.00    -0.395 OA
ATOM     30  H2  UNL     1      41.416 -22.487  25.630  1.00  0.00     0.210 HD
ENDBRANCH   4  29
BRANCH  11  31
HETATM   31  C18 UNL     1      38.280 -15.080  27.894  1.00  0.00     0.012 C 
BRANCH  31  32
HETATM   32  C19 UNL     1      37.318 -15.174  28.997  1.00  0.00     0.077 C 
BRANCH  32  33
HETATM   33  C20 UNL     1      35.942 -14.719  28.730  1.00  0.00     0.110 C 
HETATM   34  S1  UNL     1      35.647 -13.292  27.967  1.00  0.00    -0.058 SA
BRANCH  33  35
HETATM   35  O3  UNL     1      34.833 -15.466  29.107  1.00  0.00    -0.354 OA
ATOM     36  H3  UNL     1      33.964 -15.283  28.769  1.00  0.00     0.218 HD
ENDBRANCH  33  35
ENDBRANCH  32  33
ENDBRANCH  31  32
ENDBRANCH  11  31
TORSDOF 9
ENDMDL
MODEL 4
REMARK VINA RESULT: -7.440296697      4.010      9.712
REMARK  9 active torsions:
REMARK  status: ('A' for Active; 'I' for Inactive)
REMARK    1  A    between atoms: C2_2  and  C3_3 
REMARK    2  A    between atoms: C3_3  and  C5_5 
REMARK    3  A    between atoms: C5_5  and  N1_6 
REMARK       I    between atoms: N1_6  and  C6_8 
REMARK       I    between atoms: C6_8  and  N2_10 
REMARK    4  A    between atoms: N2_10  and  C7_12 
REMARK    5  A    between atoms: C10_15  and  O2_16 
REMARK    6  A    between atoms: C17_24  and  C18_25 
REMARK    7  A    between atoms: C18_25  and  C19_26 
REMARK    8  A    between atoms: C19_26  and  C20_27 
REMARK    9  A    between atoms: C20_27  and  O3_28 
ROOT
HETATM    1  C7  UNL     1      36.437 -21.690  23.185  1.00  0.00     0.087 C 
HETATM    2  C8  UNL     1      37.261 -20.744  22.302  1.00  0.00     0.033 C 
HETATM    3  C9  UNL     1      37.718 -19.699  23.296  1.00  0.00     0.021 C 
HETATM    4  C10 UNL     1      38.968 -18.970  22.912  1.00  0.00     0.123 C 
HETATM    5  C11 UNL     1      39.924 -18.781  24.037  1.00  0.00     0.042 C 
HETATM    6  C12 UNL     1      39.394 -18.763  25.426  1.00  0.00    -0.034 C 
HETATM    7  C13 UNL     1      40.598 -19.255  26.278  1.00  0.00     0.016 C 
HETATM    8  C14 UNL     1      39.170 -17.385  25.902  1.00  0.00    -0.002 C 
HETATM    9  C15 UNL     1      38.449 -16.431  25.039  1.00  0.00     0.006 C 
HETATM   10  C16 UNL     1      37.878 -15.379  26.022  1.00  0.00     0.005 C 
HETATM   11  C17 UNL     1      38.383 -15.793  27.347  1.00  0.00    -0.010 C 
HETATM   12  C21 UNL     1      38.387 -17.304  27.227  1.00  0.00    -0.006 C 
HETATM   13  C22 UNL     1      37.058 -17.896  26.983  1.00  0.00     0.006 C 
HETATM   14  C23 UNL     1      37.007 -19.146  26.165  1.00  0.00     0.006 C 
HETATM   15  C24 UNL     1      38.289 -19.731  25.732  1.00  0.00    -0.001 C 
HETATM   16  C25 UNL     1      38.062 -20.540  24.463  1.00  0.00    -0.001 C 
HETATM   17  C26 UNL     1      37.059 -21.598  24.553  1.00  0.00     0.031 C 
ENDROOT
BRANCH   1  18
HETATM   18  N2  UNL     1      36.469 -23.010  22.608  1.00  0.00    -0.339 N 
HETATM   19  C6  UNL     1      35.823 -24.154  23.119  1.00  0.00     0.316 C 
HETATM   20  N1  UNL     1      35.909 -25.418  22.484  1.00  0.00    -0.343 N 
HETATM   21  O1  UNL     1      35.139 -24.096  24.167  1.00  0.00    -0.247 OA
ATOM     22  H1  UNL     1      36.463 -25.486  21.631  1.00  0.00     0.164 HD
ATOM     23  H2  UNL     1      37.009 -23.127  21.751  1.00  0.00     0.164 HD
BRANCH  20  24
HETATM   24  C5  UNL     1      35.271 -26.606  22.963  1.00  0.00     0.128 C 
BRANCH  24  25
HETATM   25  C3  UNL     1      36.166 -27.616  23.602  1.00  0.00    -0.001 C 
HETATM   26  C4  UNL     1      37.599 -27.538  23.127  1.00  0.00     0.011 C 
BRANCH  25  27
HETATM   27  C2  UNL     1      36.186 -27.330  25.092  1.00  0.00     0.001 C 
HETATM   28  C1  UNL     1      37.461 -26.573  25.468  1.00  0.00     0.005 C 
ENDBRANCH  25  27
ENDBRANCH  24  25
ENDBRANCH  20  24
ENDBRANCH   1  18
BRANCH   4  29
HETATM   29  O2  UNL     1      39.570 -19.703  21.887  1.00  0.00    -0.395 OA
ATOM     30  H2  UNL     1      40.460 -19.381  21.801  1.00  0.00     0.210 HD
ENDBRANCH   4  29
BRANCH  11  31
HETATM   31  C18 UNL     1      37.904 -15.192  28.567  1.00  0.00     0.012 C 
BRANCH  31  32
HETATM   32  C19 UNL     1      36.704 -15.649  29.276  1.00  0.00     0.077 C 
BRANCH  32  33
HETATM   33  C20 UNL     1      35.456 -14.904  29.033  1.00  0.00     0.110 C 
HETATM   34  S1  UNL     1      35.472 -13.403  28.362  1.00  0.00    -0.058 SA
BRANCH  33  35
HETATM   35  O3  UNL     1      34.211 -15.430  29.359  1.00  0.00    -0.354 OA
ATOM     36  H3  UNL     1      33.858 -16.196  28.922  1.00  0.00     0.218 HD
ENDBRANCH  33  35
ENDBRANCH  32  33
ENDBRANCH  31  32
ENDBRANCH  11  31
TORSDOF 9
ENDMDL
MODEL 5
REMARK VINA RESULT: -7.419508223      4.097     10.127
REMARK  9 active torsions:
REMARK  status: ('A' for Active; 'I' for Inactive)
REMARK    1  A    between atoms: C2_2  and  C3_3 
REMARK    2  A    between atoms: C3_3  and  C5_5 
REMARK    3  A    between atoms: C5_5  and  N1_6 
REMARK       I    between atoms: N1_6  and  C6_8 
REMARK       I    between atoms: C6_8  and  N2_10 
REMARK    4  A    between atoms: N2_10  and  C7_12 
REMARK    5  A    between atoms: C10_15  and  O2_16 
REMARK    6  A    between atoms: C17_24  and  C18_25 
REMARK    7  A    between atoms: C18_25  and  C19_26 
REMARK    8  A    between atoms: C19_26  and  C20_27 
REMARK    9  A    between atoms: C20_27  and  O3_28 
ROOT
HETATM    1  C7  UNL     1      36.476 -22.969  24.987  1.00  0.00     0.087 C 
HETATM    2  C8  UNL     1      36.778 -22.182  23.705  1.00  0.00     0.033 C 
HETATM    3  C9  UNL     1      37.315 -20.878  24.253  1.00  0.00     0.021 C 
HETATM    4  C10 UNL     1      38.213 -20.126  23.319  1.00  0.00     0.123 C 
HETATM    5  C11 UNL     1      39.420 -19.556  23.976  1.00  0.00     0.042 C 
HETATM    6  C12 UNL     1      39.365 -19.255  25.431  1.00  0.00    -0.034 C 
HETATM    7  C13 UNL     1      40.848 -19.378  25.883  1.00  0.00     0.016 C 
HETATM    8  C14 UNL     1      39.041 -17.838  25.681  1.00  0.00    -0.002 C 
HETATM    9  C15 UNL     1      37.913 -17.218  24.960  1.00  0.00     0.006 C 
HETATM   10  C16 UNL     1      37.491 -16.029  25.858  1.00  0.00     0.005 C 
HETATM   11  C17 UNL     1      38.459 -16.041  26.974  1.00  0.00    -0.010 C 
HETATM   12  C21 UNL     1      38.717 -17.524  27.154  1.00  0.00    -0.006 C 
HETATM   13  C22 UNL     1      37.520 -18.308  27.513  1.00  0.00     0.006 C 
HETATM   14  C23 UNL     1      37.456 -19.718  27.023  1.00  0.00     0.006 C 
HETATM   15  C24 UNL     1      38.623 -20.240  26.288  1.00  0.00    -0.001 C 
HETATM   16  C25 UNL     1      38.166 -21.358  25.362  1.00  0.00    -0.001 C 
HETATM   17  C26 UNL     1      37.469 -22.470  26.003  1.00  0.00     0.031 C 
ENDROOT
BRANCH   1  18
HETATM   18  N2  UNL     1      36.578 -24.377  24.702  1.00  0.00    -0.339 N 
HETATM   19  C6  UNL     1      35.520 -25.222  24.306  1.00  0.00     0.316 C 
HETATM   20  N1  UNL     1      35.711 -26.602  24.046  1.00  0.00    -0.343 N 
HETATM   21  O1  UNL     1      34.356 -24.779  24.168  1.00  0.00    -0.247 OA
ATOM     22  H1  UNL     1      36.651 -26.982  24.155  1.00  0.00     0.164 HD
ATOM     23  H2  UNL     1      37.500 -24.803  24.794  1.00  0.00     0.164 HD
BRANCH  20  24
HETATM   24  C5  UNL     1      34.671 -27.497  23.642  1.00  0.00     0.128 C 
BRANCH  24  25
HETATM   25  C3  UNL     1      34.980 -28.373  22.473  1.00  0.00    -0.001 C 
HETATM   26  C4  UNL     1      36.438 -28.355  22.076  1.00  0.00     0.011 C 
BRANCH  25  27
HETATM   27  C2  UNL     1      34.659 -29.801  22.876  1.00  0.00     0.001 C 
HETATM   28  C1  UNL     1      34.338 -29.870  24.371  1.00  0.00     0.005 C 
ENDBRANCH  25  27
ENDBRANCH  24  25
ENDBRANCH  20  24
ENDBRANCH   1  18
BRANCH   4  29
HETATM   29  O2  UNL     1      38.590 -21.015  22.310  1.00  0.00    -0.395 OA
ATOM     30  H2  UNL     1      39.498 -21.246  22.468  1.00  0.00     0.210 HD
ENDBRANCH   4  29
BRANCH  11  31
HETATM   31  C18 UNL     1      38.284 -15.216  28.144  1.00  0.00     0.012 C 
BRANCH  31  32
HETATM   32  C19 UNL     1      37.197 -15.404  29.109  1.00  0.00     0.077 C 
BRANCH  32  33
HETATM   33  C20 UNL     1      35.895 -14.795  28.784  1.00  0.00     0.110 C 
HETATM   34  S1  UNL     1      35.799 -13.370  27.968  1.00  0.00    -0.058 SA
BRANCH  33  35
HETATM   35  O3  UNL     1      34.693 -15.388  29.150  1.00  0.00    -0.354 OA
ATOM     36  H3  UNL     1      34.361 -16.164  28.714  1.00  0.00     0.218 HD
ENDBRANCH  33  35
ENDBRANCH  32  33
ENDBRANCH  31  32
ENDBRANCH  11  31
TORSDOF 9
ENDMDL
