MODEL 1
REMARK VINA RESULT: -7.270258574      0.000      0.000
REMARK  11 active torsions:
REMARK  status: ('A' for Active; 'I' for Inactive)
REMARK    1  A    between atoms: C2_2  and  N1_3 
REMARK    2  A    between atoms: C2_2  and  C20_23 
REMARK    3  A    between atoms: C10_11  and  O1_12 
REMARK    4  A    between atoms: C20_23  and  O2_24 
REMARK    5  A    between atoms: C20_23  and  C21_26 
REMARK    6  A    between atoms: C20_23  and  C26_35 
REMARK    7  A    between atoms: C21_26  and  C22_27 
REMARK    8  A    between atoms: C22_27  and  C23_28 
REMARK    9  A    between atoms: C23_28  and  C24_29 
REMARK   10  A    between atoms: C24_29  and  C25_30 
REMARK   11  A    between atoms: C25_30  and  N2_31 
ROOT
HETATM    1  C1  UNL     1      41.316 -23.209  25.396  1.00  0.00     0.066 C 
HETATM    2  C2  UNL     1      40.613 -22.623  26.595  1.00  0.00     0.016 C 
ENDROOT
BRANCH   2   3
HETATM    3  N1  UNL     1      39.246 -22.528  26.545  1.00  0.00    -0.380 N 
HETATM    4  C3  UNL     1      38.369 -23.420  25.928  1.00  0.00     0.123 C 
HETATM    5  C4  UNL     1      37.171 -22.585  25.402  1.00  0.00     0.027 C 
HETATM    6  C5  UNL     1      37.757 -21.240  25.456  1.00  0.00     0.014 C 
HETATM    7  C6  UNL     1      36.931 -20.058  25.753  1.00  0.00    -0.004 C 
HETATM    8  C19 UNL     1      38.525 -21.394  26.793  1.00  0.00     0.089 C 
HETATM    9  C7  UNL     1      36.690 -19.327  24.480  1.00  0.00     0.006 C 
HETATM   10  C17 UNL     1      37.710 -19.314  26.805  1.00  0.00     0.001 C 
HETATM   11  C8  UNL     1      37.643 -18.187  24.245  1.00  0.00     0.008 C 
HETATM   12  C9  UNL     1      37.389 -17.247  25.433  1.00  0.00     0.023 C 
HETATM   13  C10 UNL     1      37.942 -15.922  25.092  1.00  0.00     0.123 C 
HETATM   14  C15 UNL     1      37.776 -17.852  26.734  1.00  0.00    -0.031 C 
HETATM   15  C11 UNL     1      39.419 -15.790  25.453  1.00  0.00     0.032 C 
HETATM   16  C12 UNL     1      39.458 -15.971  26.946  1.00  0.00     0.007 C 
HETATM   17  C13 UNL     1      39.131 -17.404  27.262  1.00  0.00    -0.010 C 
HETATM   18  C14 UNL     1      39.084 -17.474  28.798  1.00  0.00     0.011 C 
HETATM   19  C16 UNL     1      36.779 -17.284  27.769  1.00  0.00     0.016 C 
HETATM   20  C18 UNL     1      39.076 -20.033  26.841  1.00  0.00     0.031 C 
BRANCH  13  21
HETATM   21  O1  UNL     1      37.281 -14.963  25.893  1.00  0.00    -0.395 OA
ATOM     22  H1  UNL     1      36.581 -14.585  25.374  1.00  0.00     0.210 HD
ENDBRANCH  13  21
ENDBRANCH   2   3
BRANCH   2  23
HETATM   23  C20 UNL     1      41.140 -23.098  27.922  1.00  0.00     0.101 C 
BRANCH  23  24
HETATM   24  O2  UNL     1      42.369 -23.751  27.655  1.00  0.00    -0.383 OA
ATOM     25  H2  UNL     1      42.263 -24.194  26.821  1.00  0.00     0.211 HD
ENDBRANCH  23  24
BRANCH  23  26
HETATM   26  C21 UNL     1      41.395 -22.105  28.971  1.00  0.00     0.044 C 
BRANCH  26  27
HETATM   27  C22 UNL     1      42.097 -20.833  28.539  1.00  0.00     0.003 C 
BRANCH  27  28
HETATM   28  C23 UNL     1      43.412 -20.830  29.281  1.00  0.00     0.002 C 
BRANCH  28  29
HETATM   29  C24 UNL     1      43.386 -21.618  30.539  1.00  0.00     0.027 C 
BRANCH  29  30
HETATM   30  C25 UNL     1      44.646 -21.460  31.316  1.00  0.00     0.229 C 
BRANCH  30  31
HETATM   31  N2  UNL     1      44.518 -22.123  32.625  1.00  0.00    -0.079 N 
ATOM     32  H23 UNL     1      44.457 -21.451  33.390  1.00  0.00     0.274 HD
ATOM     33  H22 UNL     1      43.606 -22.565  32.742  1.00  0.00     0.274 HD
ATOM     34  H21 UNL     1      45.283 -22.785  32.758  1.00  0.00     0.274 HD
ENDBRANCH  30  31
ENDBRANCH  29  30
ENDBRANCH  28  29
ENDBRANCH  27  28
ENDBRANCH  26  27
ENDBRANCH  23  26
BRANCH  23  35
HETATM   35  C26 UNL     1      40.266 -24.218  28.485  1.00  0.00     0.053 C 
HETATM   36  C27 UNL     1      40.853 -25.557  28.148  1.00  0.00     0.037 C 
HETATM   37  C28 UNL     1      40.635 -26.413  29.358  1.00  0.00     0.233 C 
HETATM   38  N3  UNL     1      40.330 -25.548  30.455  1.00  0.00    -0.075 N 
HETATM   39  C29 UNL     1      40.436 -24.176  29.990  1.00  0.00     0.240 C 
ATOM     40  H32 UNL     1      39.425 -25.752  30.878  1.00  0.00     0.277 HD
ATOM     41  H31 UNL     1      40.909 -25.733  31.275  1.00  0.00     0.277 HD
ENDBRANCH  23  35
ENDBRANCH   2  23
TORSDOF 11
ENDMDL
MODEL 2
REMARK VINA RESULT: -7.206142279      2.851      8.180
REMARK  11 active torsions:
REMARK  status: ('A' for Active; 'I' for Inactive)
REMARK    1  A    between atoms: C2_2  and  N1_3 
REMARK    2  A    between atoms: C2_2  and  C20_23 
REMARK    3  A    between atoms: C10_11  and  O1_12 
REMARK    4  A    between atoms: C20_23  and  O2_24 
REMARK    5  A    between atoms: C20_23  and  C21_26 
REMARK    6  A    between atoms: C20_23  and  C26_35 
REMARK    7  A    between atoms: C21_26  and  C22_27 
REMARK    8  A    between atoms: C22_27  and  C23_28 
REMARK    9  A    between atoms: C23_28  and  C24_29 
REMARK   10  A    between atoms: C24_29  and  C25_30 
REMARK   11  A    between atoms: C25_30  and  N2_31 
ROOT
HETATM    1  C1  UNL     1      38.902 -17.578  28.833  1.00  0.00     0.066 C 
HETATM    2  C2  UNL     1      39.311 -17.900  27.417  1.00  0.00     0.016 C 
ENDROOT
BRANCH   2   3
HETATM    3  N1  UNL     1      39.208 -19.205  27.010  1.00  0.00    -0.380 N 
HETATM    4  C3  UNL     1      38.033 -19.935  26.830  1.00  0.00     0.123 C 
HETATM    5  C4  UNL     1      38.357 -21.410  27.192  1.00  0.00     0.027 C 
HETATM    6  C5  UNL     1      39.613 -21.219  27.927  1.00  0.00     0.014 C 
HETATM    7  C6  UNL     1      40.683 -22.230  27.885  1.00  0.00    -0.004 C 
HETATM    8  C19 UNL     1      40.225 -20.118  27.025  1.00  0.00     0.089 C 
HETATM    9  C7  UNL     1      40.662 -22.984  29.168  1.00  0.00     0.006 C 
HETATM   10  C17 UNL     1      41.933 -21.438  27.605  1.00  0.00     0.001 C 
HETATM   11  C8  UNL     1      41.642 -22.473  30.188  1.00  0.00     0.008 C 
HETATM   12  C9  UNL     1      43.007 -22.656  29.508  1.00  0.00     0.023 C 
HETATM   13  C10 UNL     1      44.048 -22.594  30.551  1.00  0.00     0.123 C 
HETATM   14  C15 UNL     1      43.168 -21.794  28.308  1.00  0.00    -0.031 C 
HETATM   15  C11 UNL     1      44.512 -21.168  30.836  1.00  0.00     0.032 C 
HETATM   16  C12 UNL     1      45.092 -20.694  29.532  1.00  0.00     0.007 C 
HETATM   17  C13 UNL     1      43.972 -20.524  28.544  1.00  0.00    -0.010 C 
HETATM   18  C14 UNL     1      44.660 -20.149  27.220  1.00  0.00     0.011 C 
HETATM   19  C16 UNL     1      44.050 -22.603  27.331  1.00  0.00     0.016 C 
HETATM   20  C18 UNL     1      41.489 -19.967  27.760  1.00  0.00     0.031 C 
BRANCH  13  21
HETATM   21  O1  UNL     1      45.193 -23.259  30.055  1.00  0.00    -0.395 OA
ATOM     22  H1  UNL     1      45.096 -24.184  30.249  1.00  0.00     0.210 HD
ENDBRANCH  13  21
ENDBRANCH   2   3
BRANCH   2  23
HETATM   23  C20 UNL     1      38.844 -16.905  26.391  1.00  0.00     0.101 C 
BRANCH  23  24
HETATM   24  O2  UNL     1      37.556 -17.329  25.977  1.00  0.00    -0.383 OA
ATOM     25  H2  UNL     1      36.933 -16.893  26.548  1.00  0.00     0.211 HD
ENDBRANCH  23  24
BRANCH  23  26
HETATM   26  C21 UNL     1      38.732 -15.496  26.780  1.00  0.00     0.044 C 
BRANCH  26  27
HETATM   27  C22 UNL     1      37.337 -14.905  26.783  1.00  0.00     0.003 C 
BRANCH  27  28
HETATM   28  C23 UNL     1      37.103 -14.438  28.200  1.00  0.00     0.002 C 
BRANCH  28  29
HETATM   29  C24 UNL     1      35.943 -15.092  28.857  1.00  0.00     0.027 C 
BRANCH  29  30
HETATM   30  C25 UNL     1      34.898 -14.105  29.244  1.00  0.00     0.229 C 
BRANCH  30  31
HETATM   31  N2  UNL     1      33.643 -14.802  29.572  1.00  0.00    -0.079 N 
ATOM     32  H23 UNL     1      33.599 -15.729  29.149  1.00  0.00     0.274 HD
ATOM     33  H22 UNL     1      33.607 -15.084  30.552  1.00  0.00     0.274 HD
ATOM     34  H21 UNL     1      32.844 -14.224  29.311  1.00  0.00     0.274 HD
ENDBRANCH  30  31
ENDBRANCH  29  30
ENDBRANCH  28  29
ENDBRANCH  27  28
ENDBRANCH  26  27
ENDBRANCH  23  26
BRANCH  23  35
HETATM   35  C26 UNL     1      39.673 -17.014  25.111  1.00  0.00     0.053 C 
HETATM   36  C27 UNL     1      38.778 -17.242  23.928  1.00  0.00     0.037 C 
HETATM   37  C28 UNL     1      39.370 -16.437  22.811  1.00  0.00     0.233 C 
HETATM   38  N3  UNL     1      40.278 -15.494  23.386  1.00  0.00    -0.075 N 
HETATM   39  C29 UNL     1      40.209 -15.625  24.830  1.00  0.00     0.240 C 
ATOM     40  H32 UNL     1      41.227 -15.592  23.026  1.00  0.00     0.277 HD
ATOM     41  H31 UNL     1      40.109 -14.540  23.068  1.00  0.00     0.277 HD
ENDBRANCH  23  35
ENDBRANCH   2  23
TORSDOF 11
ENDMDL
MODEL 3
REMARK VINA RESULT: -7.123785350      1.926      3.929
REMARK  11 active torsions:
REMARK  status: ('A' for Active; 'I' for Inactive)
REMARK    1  A    between atoms: C2_2  and  N1_3 
REMARK    2  A    between atoms: C2_2  and  C20_23 
REMARK    3  A    between atoms: C10_11  and  O1_12 
REMARK    4  A    between atoms: C20_23  and  O2_24 
REMARK    5  A    between atoms: C20_23  and  C21_26 
REMARK    6  A    between atoms: C20_23  and  C26_35 
REMARK    7  A    between atoms: C21_26  and  C22_27 
REMARK    8  A    between atoms: C22_27  and  C23_28 
REMARK    9  A    between atoms: C23_28  and  C24_29 
REMARK   10  A    between atoms: C24_29  and  C25_30 
REMARK   11  A    between atoms: C25_30  and  N2_31 
ROOT
HETATM    1  C1  UNL     1      44.769 -20.486  27.752  1.00  0.00     0.066 C 
HETATM    2  C2  UNL     1      43.298 -20.760  27.942  1.00  0.00     0.016 C 
ENDROOT
BRANCH   2   3
HETATM    3  N1  UNL     1      42.565 -21.083  26.830  1.00  0.00    -0.380 N 
HETATM    4  C3  UNL     1      43.038 -21.680  25.661  1.00  0.00     0.123 C 
HETATM    5  C4  UNL     1      42.189 -21.116  24.490  1.00  0.00     0.027 C 
HETATM    6  C5  UNL     1      41.600 -19.944  25.147  1.00  0.00     0.014 C 
HETATM    7  C6  UNL     1      40.249 -19.471  24.797  1.00  0.00    -0.004 C 
HETATM    8  C19 UNL     1      41.327 -20.587  26.530  1.00  0.00     0.089 C 
HETATM    9  C7  UNL     1      40.386 -18.262  23.941  1.00  0.00     0.006 C 
HETATM   10  C17 UNL     1      39.571 -19.265  26.126  1.00  0.00     0.001 C 
HETATM   11  C8  UNL     1      40.281 -16.967  24.698  1.00  0.00     0.008 C 
HETATM   12  C9  UNL     1      38.870 -17.011  25.302  1.00  0.00     0.023 C 
HETATM   13  C10 UNL     1      38.501 -15.637  25.698  1.00  0.00     0.123 C 
HETATM   14  C15 UNL     1      38.711 -18.093  26.307  1.00  0.00    -0.031 C 
HETATM   15  C11 UNL     1      38.967 -15.286  27.108  1.00  0.00     0.032 C 
HETATM   16  C12 UNL     1      38.249 -16.265  27.996  1.00  0.00     0.007 C 
HETATM   17  C13 UNL     1      38.817 -17.636  27.754  1.00  0.00    -0.010 C 
HETATM   18  C14 UNL     1      37.959 -18.581  28.612  1.00  0.00     0.011 C 
HETATM   19  C16 UNL     1      37.244 -18.563  26.184  1.00  0.00     0.016 C 
HETATM   20  C18 UNL     1      40.711 -19.409  27.157  1.00  0.00     0.031 C 
BRANCH  13  21
HETATM   21  O1  UNL     1      37.089 -15.571  25.752  1.00  0.00    -0.395 OA
ATOM     22  H1  UNL     1      36.827 -14.725  25.410  1.00  0.00     0.210 HD
ENDBRANCH  13  21
ENDBRANCH   2   3
BRANCH   2  23
HETATM   23  C20 UNL     1      42.969 -21.596  29.149  1.00  0.00     0.101 C 
BRANCH  23  24
HETATM   24  O2  UNL     1      42.276 -20.747  30.048  1.00  0.00    -0.383 OA
ATOM     25  H2  UNL     1      41.583 -21.272  30.434  1.00  0.00     0.211 HD
ENDBRANCH  23  24
BRANCH  23  26
HETATM   26  C21 UNL     1      42.149 -22.798  28.967  1.00  0.00     0.044 C 
BRANCH  26  27
HETATM   27  C22 UNL     1      40.695 -22.692  29.383  1.00  0.00     0.003 C 
BRANCH  27  28
HETATM   28  C23 UNL     1      40.374 -24.005  30.055  1.00  0.00     0.002 C 
BRANCH  28  29
HETATM   29  C24 UNL     1      40.061 -25.099  29.101  1.00  0.00     0.027 C 
BRANCH  29  30
HETATM   30  C25 UNL     1      40.831 -26.336  29.405  1.00  0.00     0.229 C 
BRANCH  30  31
HETATM   31  N2  UNL     1      40.119 -27.515  28.886  1.00  0.00    -0.079 N 
ATOM     32  H23 UNL     1      39.216 -27.268  28.480  1.00  0.00     0.274 HD
ATOM     33  H22 UNL     1      40.561 -27.890  28.047  1.00  0.00     0.274 HD
ATOM     34  H21 UNL     1      40.029 -28.220  29.618  1.00  0.00     0.274 HD
ENDBRANCH  30  31
ENDBRANCH  29  30
ENDBRANCH  28  29
ENDBRANCH  27  28
ENDBRANCH  26  27
ENDBRANCH  23  26
BRANCH  23  35
HETATM   35  C26 UNL     1      44.237 -21.958  29.922  1.00  0.00     0.053 C 
HETATM   36  C27 UNL     1      44.529 -20.918  30.963  1.00  0.00     0.037 C 
HETATM   37  C28 UNL     1      45.029 -21.669  32.159  1.00  0.00     0.233 C 
HETATM   38  N3  UNL     1      44.670 -23.042  31.993  1.00  0.00    -0.075 N 
HETATM   39  C29 UNL     1      43.887 -23.160  30.776  1.00  0.00     0.240 C 
ATOM     40  H32 UNL     1      45.478 -23.665  32.004  1.00  0.00     0.277 HD
ATOM     41  H31 UNL     1      44.192 -23.425  32.809  1.00  0.00     0.277 HD
ENDBRANCH  23  35
ENDBRANCH   2  23
TORSDOF 11
ENDMDL
MODEL 4
REMARK VINA RESULT: -7.034420598      1.190      3.059
REMARK  11 active torsions:
REMARK  status: ('A' for Active; 'I' for Inactive)
REMARK    1  A    between atoms: C2_2  and  N1_3 
REMARK    2  A    between atoms: C2_2  and  C20_23 
REMARK    3  A    between atoms: C10_11  and  O1_12 
REMARK    4  A    between atoms: C20_23  and  O2_24 
REMARK    5  A    between atoms: C20_23  and  C21_26 
REMARK    6  A    between atoms: C20_23  and  C26_35 
REMARK    7  A    between atoms: C21_26  and  C22_27 
REMARK    8  A    between atoms: C22_27  and  C23_28 
REMARK    9  A    between atoms: C23_28  and  C24_29 
REMARK   10  A    between atoms: C24_29  and  C25_30 
REMARK   11  A    between atoms: C25_30  and  N2_31 
ROOT
HETATM    1  C1  UNL     1      40.986 -23.359  25.634  1.00  0.00     0.066 C 
HETATM    2  C2  UNL     1      40.262 -22.620  26.731  1.00  0.00     0.016 C 
ENDROOT
BRANCH   2   3
HETATM    3  N1  UNL     1      38.908 -22.448  26.593  1.00  0.00    -0.380 N 
HETATM    4  C3  UNL     1      38.022 -23.294  25.926  1.00  0.00     0.123 C 
HETATM    5  C4  UNL     1      36.909 -22.397  25.320  1.00  0.00     0.027 C 
HETATM    6  C5  UNL     1      37.568 -21.087  25.405  1.00  0.00     0.014 C 
HETATM    7  C6  UNL     1      36.793 -19.857  25.642  1.00  0.00    -0.004 C 
HETATM    8  C19 UNL     1      38.239 -21.272  26.789  1.00  0.00     0.089 C 
HETATM    9  C7  UNL     1      36.676 -19.125  24.352  1.00  0.00     0.006 C 
HETATM   10  C17 UNL     1      37.545 -19.149  26.737  1.00  0.00     0.001 C 
HETATM   11  C8  UNL     1      37.706 -18.043  24.172  1.00  0.00     0.008 C 
HETATM   12  C9  UNL     1      37.431 -17.080  25.336  1.00  0.00     0.023 C 
HETATM   13  C10 UNL     1      38.080 -15.792  25.024  1.00  0.00     0.123 C 
HETATM   14  C15 UNL     1      37.700 -17.694  26.663  1.00  0.00    -0.031 C 
HETATM   15  C11 UNL     1      39.536 -15.741  25.479  1.00  0.00     0.032 C 
HETATM   16  C12 UNL     1      39.470 -15.910  26.972  1.00  0.00     0.007 C 
HETATM   17  C13 UNL     1      39.041 -17.319  27.274  1.00  0.00    -0.010 C 
HETATM   18  C14 UNL     1      38.893 -17.372  28.804  1.00  0.00     0.011 C 
HETATM   19  C16 UNL     1      36.674 -17.061  27.629  1.00  0.00     0.016 C 
HETATM   20  C18 UNL     1      38.863 -19.944  26.864  1.00  0.00     0.031 C 
BRANCH  13  21
HETATM   21  O1  UNL     1      37.426 -14.789  25.776  1.00  0.00    -0.395 OA
ATOM     22  H1  UNL     1      36.544 -15.092  25.957  1.00  0.00     0.210 HD
ENDBRANCH  13  21
ENDBRANCH   2   3
BRANCH   2  23
HETATM   23  C20 UNL     1      40.686 -22.997  28.124  1.00  0.00     0.101 C 
BRANCH  23  24
HETATM   24  O2  UNL     1      39.629 -22.609  28.985  1.00  0.00    -0.383 OA
ATOM     25  H2  UNL     1      40.035 -22.285  29.781  1.00  0.00     0.211 HD
ENDBRANCH  23  24
BRANCH  23  26
HETATM   26  C21 UNL     1      40.984 -24.404  28.410  1.00  0.00     0.044 C 
BRANCH  26  27
HETATM   27  C22 UNL     1      39.983 -25.143  29.275  1.00  0.00     0.003 C 
BRANCH  27  28
HETATM   28  C23 UNL     1      40.741 -26.314  29.853  1.00  0.00     0.002 C 
BRANCH  28  29
HETATM   29  C24 UNL     1      42.003 -26.619  29.132  1.00  0.00     0.027 C 
BRANCH  29  30
HETATM   30  C25 UNL     1      42.085 -28.055  28.745  1.00  0.00     0.229 C 
BRANCH  30  31
HETATM   31  N2  UNL     1      41.057 -28.829  29.461  1.00  0.00    -0.079 N 
ATOM     32  H23 UNL     1      41.348 -29.795  29.619  1.00  0.00     0.274 HD
ATOM     33  H22 UNL     1      40.969 -28.539  30.435  1.00  0.00     0.274 HD
ATOM     34  H21 UNL     1      40.168 -28.774  28.963  1.00  0.00     0.274 HD
ENDBRANCH  30  31
ENDBRANCH  29  30
ENDBRANCH  28  29
ENDBRANCH  27  28
ENDBRANCH  26  27
ENDBRANCH  23  26
BRANCH  23  35
HETATM   35  C26 UNL     1      41.852 -22.126  28.592  1.00  0.00     0.053 C 
HETATM   36  C27 UNL     1      41.642 -21.693  30.013  1.00  0.00     0.037 C 
HETATM   37  C28 UNL     1      42.994 -21.745  30.657  1.00  0.00     0.233 C 
HETATM   38  N3  UNL     1      43.845 -22.534  29.823  1.00  0.00    -0.075 N 
HETATM   39  C29 UNL     1      43.048 -23.048  28.723  1.00  0.00     0.240 C 
ATOM     40  H32 UNL     1      44.670 -22.024  29.507  1.00  0.00     0.277 HD
ATOM     41  H31 UNL     1      44.328 -23.271  30.337  1.00  0.00     0.277 HD
ENDBRANCH  23  35
ENDBRANCH   2  23
TORSDOF 11
ENDMDL
MODEL 5
REMARK VINA RESULT: -6.991628978      1.798      2.329
REMARK  11 active torsions:
REMARK  status: ('A' for Active; 'I' for Inactive)
REMARK    1  A    between atoms: C2_2  and  N1_3 
REMARK    2  A    between atoms: C2_2  and  C20_23 
REMARK    3  A    between atoms: C10_11  and  O1_12 
REMARK    4  A    between atoms: C20_23  and  O2_24 
REMARK    5  A    between atoms: C20_23  and  C21_26 
REMARK    6  A    between atoms: C20_23  and  C26_35 
REMARK    7  A    between atoms: C21_26  and  C22_27 
REMARK    8  A    between atoms: C22_27  and  C23_28 
REMARK    9  A    between atoms: C23_28  and  C24_29 
REMARK   10  A    between atoms: C24_29  and  C25_30 
REMARK   11  A    between atoms: C25_30  and  N2_31 
ROOT
HETATM    1  C1  UNL     1      44.435 -21.510  25.578  1.00  0.00     0.066 C 
HETATM    2  C2  UNL     1      43.271 -21.348  26.523  1.00  0.00     0.016 C 
ENDROOT
BRANCH   2   3
HETATM    3  N1  UNL     1      42.049 -21.811  26.108  1.00  0.00    -0.380 N 
HETATM    4  C3  UNL     1      41.810 -22.834  25.192  1.00  0.00     0.123 C 
HETATM    5  C4  UNL     1      40.501 -22.472  24.439  1.00  0.00     0.027 C 
HETATM    6  C5  UNL     1      40.400 -21.048  24.782  1.00  0.00     0.014 C 
HETATM    7  C6  UNL     1      39.091 -20.395  24.952  1.00  0.00    -0.004 C 
HETATM    8  C19 UNL     1      40.863 -21.147  26.257  1.00  0.00     0.089 C 
HETATM    9  C7  UNL     1      38.816 -19.579  23.738  1.00  0.00     0.006 C 
HETATM   10  C17 UNL     1      39.220 -19.632  26.244  1.00  0.00     0.001 C 
HETATM   11  C8  UNL     1      39.184 -18.129  23.885  1.00  0.00     0.008 C 
HETATM   12  C9  UNL     1      38.300 -17.642  25.042  1.00  0.00     0.023 C 
HETATM   13  C10 UNL     1      38.259 -16.167  24.995  1.00  0.00     0.123 C 
HETATM   14  C15 UNL     1      38.640 -18.290  26.335  1.00  0.00    -0.031 C 
HETATM   15  C11 UNL     1      39.412 -15.522  25.759  1.00  0.00     0.032 C 
HETATM   16  C12 UNL     1      39.220 -15.976  27.181  1.00  0.00     0.007 C 
HETATM   17  C13 UNL     1      39.511 -17.449  27.255  1.00  0.00    -0.010 C 
HETATM   18  C14 UNL     1      39.186 -17.847  28.706  1.00  0.00     0.011 C 
HETATM   19  C16 UNL     1      37.306 -18.406  27.106  1.00  0.00     0.016 C 
HETATM   20  C18 UNL     1      40.724 -19.722  26.585  1.00  0.00     0.031 C 
BRANCH  13  21
HETATM   21  O1  UNL     1      37.090 -15.749  25.672  1.00  0.00    -0.395 OA
ATOM     22  H1  UNL     1      36.533 -16.510  25.785  1.00  0.00     0.210 HD
ENDBRANCH  13  21
ENDBRANCH   2   3
BRANCH   2  23
HETATM   23  C20 UNL     1      43.584 -21.665  27.960  1.00  0.00     0.101 C 
BRANCH  23  24
HETATM   24  O2  UNL     1      44.789 -22.411  27.953  1.00  0.00    -0.383 OA
ATOM     25  H2  UNL     1      44.538 -23.328  27.943  1.00  0.00     0.211 HD
ENDBRANCH  23  24
BRANCH  23  26
HETATM   26  C21 UNL     1      43.767 -20.553  28.899  1.00  0.00     0.044 C 
BRANCH  26  27
HETATM   27  C22 UNL     1      45.197 -20.137  29.180  1.00  0.00     0.003 C 
BRANCH  27  28
HETATM   28  C23 UNL     1      45.329 -20.150  30.684  1.00  0.00     0.002 C 
BRANCH  28  29
HETATM   29  C24 UNL     1      46.236 -21.210  31.191  1.00  0.00     0.027 C 
BRANCH  29  30
HETATM   30  C25 UNL     1      45.483 -22.406  31.658  1.00  0.00     0.229 C 
BRANCH  30  31
HETATM   31  N2  UNL     1      44.604 -22.042  32.782  1.00  0.00    -0.079 N 
ATOM     32  H23 UNL     1      44.501 -21.031  32.875  1.00  0.00     0.274 HD
ATOM     33  H22 UNL     1      43.628 -22.274  32.595  1.00  0.00     0.274 HD
ATOM     34  H21 UNL     1      44.941 -22.473  33.643  1.00  0.00     0.274 HD
ENDBRANCH  30  31
ENDBRANCH  29  30
ENDBRANCH  28  29
ENDBRANCH  27  28
ENDBRANCH  26  27
ENDBRANCH  23  26
BRANCH  23  35
HETATM   35  C26 UNL     1      42.567 -22.652  28.534  1.00  0.00     0.053 C 
HETATM   36  C27 UNL     1      43.261 -23.887  29.028  1.00  0.00     0.037 C 
HETATM   37  C28 UNL     1      42.549 -24.277  30.287  1.00  0.00     0.233 C 
HETATM   38  N3  UNL     1      41.784 -23.150  30.723  1.00  0.00    -0.075 N 
HETATM   39  C29 UNL     1      42.063 -22.042  29.826  1.00  0.00     0.240 C 
ATOM     40  H32 UNL     1      40.788 -23.355  30.798  1.00  0.00     0.277 HD
ATOM     41  H31 UNL     1      41.950 -22.916  31.702  1.00  0.00     0.277 HD
ENDBRANCH  23  35
ENDBRANCH   2  23
TORSDOF 11
ENDMDL
