MODEL 1
REMARK VINA RESULT: -7.372390495      0.000      0.000
REMARK  10 active torsions:
REMARK  status: ('A' for Active; 'I' for Inactive)
REMARK    1  A    between atoms: C7_9  and  C8_10 
REMARK    2  A    between atoms: C8_10  and  C9_11 
REMARK    3  A    between atoms: C9_11  and  C10_12 
REMARK    4  A    between atoms: C10_12  and  C11_13 
REMARK    5  A    between atoms: C11_13  and  N2_14 
REMARK       I    between atoms: N2_14  and  C12_16 
REMARK    6  A    between atoms: C12_16  and  O2_18 
REMARK    7  A    between atoms: O2_18  and  C13_19 
REMARK    8  A    between atoms: C19_25  and  C20_26 
REMARK    9  A    between atoms: C20_26  and  O3_27 
REMARK   10  A    between atoms: C23_31  and  O4_32 
ROOT
HETATM    1  C13 UNL     1      36.660 -20.573  23.844  1.00  0.00     0.138 C 
HETATM    2  C14 UNL     1      35.368 -21.321  23.473  1.00  0.00     0.035 C 
HETATM    3  C15 UNL     1      35.473 -22.806  23.737  1.00  0.00     0.036 C 
HETATM    4  C16 UNL     1      36.132 -23.112  25.050  1.00  0.00     0.190 C 
HETATM    5  C17 UNL     1      36.060 -21.798  25.843  1.00  0.00     0.041 C 
HETATM    6  C18 UNL     1      37.056 -20.830  25.232  1.00  0.00     0.030 C 
HETATM    7  C19 UNL     1      38.414 -21.352  25.558  1.00  0.00     0.016 C 
HETATM    8  C21 UNL     1      38.711 -20.794  26.984  1.00  0.00     0.017 C 
HETATM    9  C22 UNL     1      39.406 -21.766  27.855  1.00  0.00     0.032 C 
HETATM   10  C23 UNL     1      40.287 -22.779  27.242  1.00  0.00     0.120 C 
HETATM   11  C24 UNL     1      39.730 -23.406  25.981  1.00  0.00     0.066 C 
HETATM   12  C25 UNL     1      38.358 -22.838  25.761  1.00  0.00     0.203 C 
HETATM   13  N3  UNL     1      37.483 -23.611  24.946  1.00  0.00    -0.065 N 
HETATM   14  C26 UNL     1      37.434 -24.932  25.641  1.00  0.00     0.273 C 
HETATM   15  C27 UNL     1      37.926 -23.971  23.659  1.00  0.00     0.273 C 
ENDROOT
BRANCH   1  16
HETATM   16  O2  UNL     1      36.368 -19.206  23.576  1.00  0.00    -0.298 OA
BRANCH  16  17
HETATM   17  C12 UNL     1      37.262 -18.234  23.246  1.00  0.00     0.360 C 
HETATM   18  N2  UNL     1      38.017 -17.505  24.205  1.00  0.00    -0.337 N 
ATOM     19  H2  UNL     1      37.879 -17.725  25.191  1.00  0.00     0.164 HD
HETATM   20  O1  UNL     1      37.427 -17.968  22.036  1.00  0.00    -0.239 OA
BRANCH  18  21
HETATM   21  C11 UNL     1      38.954 -16.484  23.872  1.00  0.00     0.125 C 
BRANCH  21  22
HETATM   22  C10 UNL     1      39.804 -16.018  25.049  1.00  0.00     0.020 C 
BRANCH  22  23
HETATM   23  C9  UNL     1      38.855 -15.254  25.955  1.00  0.00     0.002 C 
BRANCH  23  24
HETATM   24  C8  UNL     1      38.960 -15.621  27.395  1.00  0.00     0.010 C 
BRANCH  24  25
HETATM   25  C7  UNL     1      37.779 -15.104  28.170  1.00  0.00     0.030 C 
HETATM   26  C2  UNL     1      36.780 -16.189  28.408  1.00  0.00    -0.018 C 
HETATM   27  C1  UNL     1      37.142 -17.576  28.011  1.00  0.00     0.063 C 
HETATM   28  N1  UNL     1      35.669 -15.854  28.942  1.00  0.00    -0.392 N 
HETATM   29  C3  UNL     1      35.502 -14.442  29.260  1.00  0.00     0.077 C 
ATOM     30  H1  UNL     1      34.938 -16.539  29.136  1.00  0.00     0.159 HD
HETATM   31  C4  UNL     1      34.099 -14.222  29.723  1.00  0.00     0.032 C 
HETATM   32  C5  UNL     1      35.720 -13.723  27.922  1.00  0.00     0.025 C 
HETATM   33  C6  UNL     1      37.058 -14.048  27.332  1.00  0.00     0.012 C 
ENDBRANCH  24  25
ENDBRANCH  23  24
ENDBRANCH  22  23
ENDBRANCH  21  22
ENDBRANCH  18  21
ENDBRANCH  16  17
ENDBRANCH   1  16
BRANCH   7  34
HETATM   34  C20 UNL     1      39.545 -20.833  24.780  1.00  0.00     0.176 C 
BRANCH  34  35
HETATM   35  O3  UNL     1      40.119 -19.650  25.044  1.00  0.00    -0.400 OA
ATOM     36  H3  UNL     1      40.940 -19.574  25.516  1.00  0.00     0.209 HD
ENDBRANCH  34  35
ENDBRANCH   7  34
BRANCH  10  37
HETATM   37  O4  UNL     1      40.462 -23.823  28.166  1.00  0.00    -0.396 OA
ATOM     38  H4  UNL     1      41.256 -24.291  27.936  1.00  0.00     0.210 HD
ENDBRANCH  10  37
TORSDOF 10
ENDMDL
MODEL 2
REMARK VINA RESULT: -7.341537455      1.759      4.447
REMARK  10 active torsions:
REMARK  status: ('A' for Active; 'I' for Inactive)
REMARK    1  A    between atoms: C7_9  and  C8_10 
REMARK    2  A    between atoms: C8_10  and  C9_11 
REMARK    3  A    between atoms: C9_11  and  C10_12 
REMARK    4  A    between atoms: C10_12  and  C11_13 
REMARK    5  A    between atoms: C11_13  and  N2_14 
REMARK       I    between atoms: N2_14  and  C12_16 
REMARK    6  A    between atoms: C12_16  and  O2_18 
REMARK    7  A    between atoms: O2_18  and  C13_19 
REMARK    8  A    between atoms: C19_25  and  C20_26 
REMARK    9  A    between atoms: C20_26  and  O3_27 
REMARK   10  A    between atoms: C23_31  and  O4_32 
ROOT
HETATM    1  C13 UNL     1      38.002 -23.964  25.843  1.00  0.00     0.138 C 
HETATM    2  C14 UNL     1      38.331 -25.285  25.128  1.00  0.00     0.035 C 
HETATM    3  C15 UNL     1      37.498 -25.482  23.882  1.00  0.00     0.036 C 
HETATM    4  C16 UNL     1      37.380 -24.229  23.065  1.00  0.00     0.190 C 
HETATM    5  C17 UNL     1      38.515 -23.323  23.567  1.00  0.00     0.041 C 
HETATM    6  C18 UNL     1      38.130 -22.813  24.943  1.00  0.00     0.030 C 
HETATM    7  C19 UNL     1      36.996 -21.866  24.746  1.00  0.00     0.016 C 
HETATM    8  C21 UNL     1      37.683 -20.506  24.409  1.00  0.00     0.017 C 
HETATM    9  C22 UNL     1      36.975 -19.741  23.361  1.00  0.00     0.032 C 
HETATM   10  C23 UNL     1      35.516 -19.907  23.212  1.00  0.00     0.120 C 
HETATM   11  C24 UNL     1      35.039 -21.340  23.323  1.00  0.00     0.066 C 
HETATM   12  C25 UNL     1      36.252 -22.209  23.489  1.00  0.00     0.203 C 
HETATM   13  N3  UNL     1      36.093 -23.579  23.136  1.00  0.00    -0.065 N 
HETATM   14  C26 UNL     1      35.637 -23.525  21.715  1.00  0.00     0.273 C 
HETATM   15  C27 UNL     1      35.054 -24.303  23.753  1.00  0.00     0.273 C 
ENDROOT
BRANCH   1  16
HETATM   16  O2  UNL     1      38.898 -23.927  26.950  1.00  0.00    -0.298 OA
BRANCH  16  17
HETATM   17  C12 UNL     1      39.727 -22.902  27.290  1.00  0.00     0.360 C 
HETATM   18  N2  UNL     1      39.295 -21.742  27.989  1.00  0.00    -0.337 N 
ATOM     19  H2  UNL     1      38.311 -21.678  28.249  1.00  0.00     0.164 HD
HETATM   20  O1  UNL     1      40.932 -22.985  26.969  1.00  0.00    -0.239 OA
BRANCH  18  21
HETATM   21  C11 UNL     1      40.153 -20.663  28.349  1.00  0.00     0.125 C 
BRANCH  21  22
HETATM   22  C10 UNL     1      40.248 -19.569  27.291  1.00  0.00     0.020 C 
BRANCH  22  23
HETATM   23  C9  UNL     1      39.296 -18.479  27.750  1.00  0.00     0.002 C 
BRANCH  23  24
HETATM   24  C8  UNL     1      38.452 -17.911  26.662  1.00  0.00     0.010 C 
BRANCH  24  25
HETATM   25  C7  UNL     1      37.540 -16.838  27.192  1.00  0.00     0.030 C 
HETATM   26  C2  UNL     1      37.685 -15.577  26.403  1.00  0.00    -0.018 C 
HETATM   27  C1  UNL     1      38.535 -15.606  25.184  1.00  0.00     0.063 C 
HETATM   28  N1  UNL     1      37.063 -14.546  26.829  1.00  0.00    -0.392 N 
HETATM   29  C3  UNL     1      36.279 -14.718  28.046  1.00  0.00     0.077 C 
ATOM     30  H1  UNL     1      37.113 -13.649  26.345  1.00  0.00     0.159 HD
HETATM   31  C4  UNL     1      35.762 -13.383  28.471  1.00  0.00     0.032 C 
HETATM   32  C5  UNL     1      37.290 -15.230  29.080  1.00  0.00     0.025 C 
HETATM   33  C6  UNL     1      37.961 -16.488  28.620  1.00  0.00     0.012 C 
ENDBRANCH  24  25
ENDBRANCH  23  24
ENDBRANCH  22  23
ENDBRANCH  21  22
ENDBRANCH  18  21
ENDBRANCH  16  17
ENDBRANCH   1  16
BRANCH   7  34
HETATM   34  C20 UNL     1      36.187 -21.522  25.921  1.00  0.00     0.176 C 
BRANCH  34  35
HETATM   35  O3  UNL     1      36.688 -20.856  26.972  1.00  0.00    -0.400 OA
ATOM     36  H3  UNL     1      36.138 -20.478  27.647  1.00  0.00     0.209 HD
ENDBRANCH  34  35
ENDBRANCH   7  34
BRANCH  10  37
HETATM   37  O4  UNL     1      35.155 -19.463  21.928  1.00  0.00    -0.396 OA
ATOM     38  H4  UNL     1      34.219 -19.589  21.824  1.00  0.00     0.210 HD
ENDBRANCH  10  37
TORSDOF 10
ENDMDL
MODEL 3
REMARK VINA RESULT: -7.258922376      2.961      8.160
REMARK  10 active torsions:
REMARK  status: ('A' for Active; 'I' for Inactive)
REMARK    1  A    between atoms: C7_9  and  C8_10 
REMARK    2  A    between atoms: C8_10  and  C9_11 
REMARK    3  A    between atoms: C9_11  and  C10_12 
REMARK    4  A    between atoms: C10_12  and  C11_13 
REMARK    5  A    between atoms: C11_13  and  N2_14 
REMARK       I    between atoms: N2_14  and  C12_16 
REMARK    6  A    between atoms: C12_16  and  O2_18 
REMARK    7  A    between atoms: O2_18  and  C13_19 
REMARK    8  A    between atoms: C19_25  and  C20_26 
REMARK    9  A    between atoms: C20_26  and  O3_27 
REMARK   10  A    between atoms: C23_31  and  O4_32 
ROOT
HETATM    1  C13 UNL     1      38.983 -20.890  27.661  1.00  0.00     0.138 C 
HETATM    2  C14 UNL     1      39.601 -21.926  26.708  1.00  0.00     0.035 C 
HETATM    3  C15 UNL     1      39.393 -21.561  25.256  1.00  0.00     0.036 C 
HETATM    4  C16 UNL     1      39.630 -20.104  24.989  1.00  0.00     0.190 C 
HETATM    5  C17 UNL     1      40.427 -19.605  26.205  1.00  0.00     0.041 C 
HETATM    6  C18 UNL     1      39.478 -19.537  27.387  1.00  0.00     0.030 C 
HETATM    7  C19 UNL     1      38.533 -18.417  27.112  1.00  0.00     0.016 C 
HETATM    8  C21 UNL     1      39.285 -17.145  27.614  1.00  0.00     0.017 C 
HETATM    9  C22 UNL     1      39.095 -15.973  26.734  1.00  0.00     0.032 C 
HETATM   10  C23 UNL     1      37.848 -15.854  25.955  1.00  0.00     0.120 C 
HETATM   11  C24 UNL     1      37.383 -17.149  25.323  1.00  0.00     0.066 C 
HETATM   12  C25 UNL     1      38.411 -18.198  25.633  1.00  0.00     0.203 C 
HETATM   13  N3  UNL     1      38.434 -19.328  24.766  1.00  0.00    -0.065 N 
HETATM   14  C26 UNL     1      38.639 -18.728  23.414  1.00  0.00     0.273 C 
HETATM   15  C27 UNL     1      37.237 -20.049  24.591  1.00  0.00     0.273 C 
ENDROOT
BRANCH   1  16
HETATM   16  O2  UNL     1      39.309 -21.365  28.963  1.00  0.00    -0.298 OA
BRANCH  16  17
HETATM   17  C12 UNL     1      40.494 -21.206  29.612  1.00  0.00     0.360 C 
HETATM   18  N2  UNL     1      41.700 -21.841  29.211  1.00  0.00    -0.337 N 
ATOM     19  H2  UNL     1      41.673 -22.447  28.390  1.00  0.00     0.164 HD
HETATM   20  O1  UNL     1      40.523 -20.463  30.617  1.00  0.00    -0.239 OA
BRANCH  18  21
HETATM   21  C11 UNL     1      42.947 -21.684  29.883  1.00  0.00     0.125 C 
BRANCH  21  22
HETATM   22  C10 UNL     1      43.687 -22.993  30.128  1.00  0.00     0.020 C 
BRANCH  22  23
HETATM   23  C9  UNL     1      43.493 -23.811  28.864  1.00  0.00     0.002 C 
BRANCH  23  24
HETATM   24  C8  UNL     1      42.708 -25.061  29.062  1.00  0.00     0.010 C 
BRANCH  24  25
HETATM   25  C7  UNL     1      41.670 -25.223  27.985  1.00  0.00     0.030 C 
HETATM   26  C2  UNL     1      40.297 -25.276  28.571  1.00  0.00    -0.018 C 
HETATM   27  C1  UNL     1      40.144 -25.019  30.027  1.00  0.00     0.063 C 
HETATM   28  N1  UNL     1      39.332 -25.543  27.776  1.00  0.00    -0.392 N 
HETATM   29  C3  UNL     1      39.685 -25.765  26.380  1.00  0.00     0.077 C 
ATOM     30  H1  UNL     1      38.367 -25.597  28.102  1.00  0.00     0.159 HD
HETATM   31  C4  UNL     1      38.464 -26.215  25.647  1.00  0.00     0.032 C 
HETATM   32  C5  UNL     1      40.707 -26.909  26.424  1.00  0.00     0.025 C 
HETATM   33  C6  UNL     1      41.881 -26.567  27.289  1.00  0.00     0.012 C 
ENDBRANCH  24  25
ENDBRANCH  23  24
ENDBRANCH  22  23
ENDBRANCH  21  22
ENDBRANCH  18  21
ENDBRANCH  16  17
ENDBRANCH   1  16
BRANCH   7  34
HETATM   34  C20 UNL     1      37.291 -18.370  27.893  1.00  0.00     0.176 C 
BRANCH  34  35
HETATM   35  O3  UNL     1      37.179 -17.666  29.029  1.00  0.00    -0.400 OA
ATOM     36  H3  UNL     1      37.934 -17.367  29.522  1.00  0.00     0.209 HD
ENDBRANCH  34  35
ENDBRANCH   7  34
BRANCH  10  37
HETATM   37  O4  UNL     1      38.075 -14.953  24.900  1.00  0.00    -0.396 OA
ATOM     38  H4  UNL     1      37.592 -15.258  24.141  1.00  0.00     0.210 HD
ENDBRANCH  10  37
TORSDOF 10
ENDMDL
MODEL 4
REMARK VINA RESULT: -7.232434632      5.228      8.785
REMARK  10 active torsions:
REMARK  status: ('A' for Active; 'I' for Inactive)
REMARK    1  A    between atoms: C7_9  and  C8_10 
REMARK    2  A    between atoms: C8_10  and  C9_11 
REMARK    3  A    between atoms: C9_11  and  C10_12 
REMARK    4  A    between atoms: C10_12  and  C11_13 
REMARK    5  A    between atoms: C11_13  and  N2_14 
REMARK       I    between atoms: N2_14  and  C12_16 
REMARK    6  A    between atoms: C12_16  and  O2_18 
REMARK    7  A    between atoms: O2_18  and  C13_19 
REMARK    8  A    between atoms: C19_25  and  C20_26 
REMARK    9  A    between atoms: C20_26  and  O3_27 
REMARK   10  A    between atoms: C23_31  and  O4_32 
ROOT
HETATM    1  C13 UNL     1      38.755 -20.975  27.586  1.00  0.00     0.138 C 
HETATM    2  C14 UNL     1      39.065 -22.083  26.565  1.00  0.00     0.035 C 
HETATM    3  C15 UNL     1      38.674 -21.689  25.159  1.00  0.00     0.036 C 
HETATM    4  C16 UNL     1      39.059 -20.277  24.830  1.00  0.00     0.190 C 
HETATM    5  C17 UNL     1      40.102 -19.894  25.891  1.00  0.00     0.041 C 
HETATM    6  C18 UNL     1      39.376 -19.701  27.209  1.00  0.00     0.030 C 
HETATM    7  C19 UNL     1      38.559 -18.462  27.070  1.00  0.00     0.016 C 
HETATM    8  C21 UNL     1      39.546 -17.306  27.419  1.00  0.00     0.017 C 
HETATM    9  C22 UNL     1      39.376 -16.116  26.559  1.00  0.00     0.032 C 
HETATM   10  C23 UNL     1      38.045 -15.826  25.990  1.00  0.00     0.120 C 
HETATM   11  C24 UNL     1      37.314 -17.044  25.466  1.00  0.00     0.066 C 
HETATM   12  C25 UNL     1      38.228 -18.224  25.625  1.00  0.00     0.203 C 
HETATM   13  N3  UNL     1      37.957 -19.344  24.789  1.00  0.00    -0.065 N 
HETATM   14  C26 UNL     1      38.019 -18.773  23.410  1.00  0.00     0.273 C 
HETATM   15  C27 UNL     1      36.662 -19.896  24.823  1.00  0.00     0.273 C 
ENDROOT
BRANCH   1  16
HETATM   16  O2  UNL     1      39.221 -21.494  28.827  1.00  0.00    -0.298 OA
BRANCH  16  17
HETATM   17  C12 UNL     1      40.453 -21.306  29.374  1.00  0.00     0.360 C 
HETATM   18  N2  UNL     1      41.611 -22.024  28.968  1.00  0.00    -0.337 N 
ATOM     19  H2  UNL     1      41.509 -22.715  28.225  1.00  0.00     0.164 HD
HETATM   20  O1  UNL     1      40.572 -20.457  30.284  1.00  0.00    -0.239 OA
BRANCH  18  21
HETATM   21  C11 UNL     1      42.905 -21.836  29.535  1.00  0.00     0.125 C 
BRANCH  21  22
HETATM   22  C10 UNL     1      43.266 -22.861  30.604  1.00  0.00     0.020 C 
BRANCH  22  23
HETATM   23  C9  UNL     1      44.424 -22.252  31.373  1.00  0.00     0.002 C 
BRANCH  23  24
HETATM   24  C8  UNL     1      44.956 -20.995  30.778  1.00  0.00     0.010 C 
BRANCH  24  25
HETATM   25  C7  UNL     1      46.434 -20.862  31.029  1.00  0.00     0.030 C 
HETATM   26  C2  UNL     1      47.217 -21.237  29.813  1.00  0.00    -0.018 C 
HETATM   27  C1  UNL     1      46.473 -21.516  28.557  1.00  0.00     0.063 C 
HETATM   28  N1  UNL     1      48.488 -21.294  29.931  1.00  0.00    -0.392 N 
HETATM   29  C3  UNL     1      49.031 -20.986  31.247  1.00  0.00     0.077 C 
ATOM     30  H1  UNL     1      49.090 -21.542  29.145  1.00  0.00     0.159 HD
HETATM   31  C4  UNL     1      50.500 -21.258  31.231  1.00  0.00     0.032 C 
HETATM   32  C5  UNL     1      48.336 -21.979  32.188  1.00  0.00     0.025 C 
HETATM   33  C6  UNL     1      46.845 -21.857  32.114  1.00  0.00     0.012 C 
ENDBRANCH  24  25
ENDBRANCH  23  24
ENDBRANCH  22  23
ENDBRANCH  21  22
ENDBRANCH  18  21
ENDBRANCH  16  17
ENDBRANCH   1  16
BRANCH   7  34
HETATM   34  C20 UNL     1      37.478 -18.249  28.040  1.00  0.00     0.176 C 
BRANCH  34  35
HETATM   35  O3  UNL     1      37.652 -17.550  29.171  1.00  0.00    -0.400 OA
ATOM     36  H3  UNL     1      38.189 -17.864  29.889  1.00  0.00     0.209 HD
ENDBRANCH  34  35
ENDBRANCH   7  34
BRANCH  10  37
HETATM   37  O4  UNL     1      38.217 -14.961  24.895  1.00  0.00    -0.396 OA
ATOM     38  H4  UNL     1      37.743 -15.323  24.155  1.00  0.00     0.210 HD
ENDBRANCH  10  37
TORSDOF 10
ENDMDL
MODEL 5
REMARK VINA RESULT: -7.211752420      1.197      1.647
REMARK  10 active torsions:
REMARK  status: ('A' for Active; 'I' for Inactive)
REMARK    1  A    between atoms: C7_9  and  C8_10 
REMARK    2  A    between atoms: C8_10  and  C9_11 
REMARK    3  A    between atoms: C9_11  and  C10_12 
REMARK    4  A    between atoms: C10_12  and  C11_13 
REMARK    5  A    between atoms: C11_13  and  N2_14 
REMARK       I    between atoms: N2_14  and  C12_16 
REMARK    6  A    between atoms: C12_16  and  O2_18 
REMARK    7  A    between atoms: O2_18  and  C13_19 
REMARK    8  A    between atoms: C19_25  and  C20_26 
REMARK    9  A    between atoms: C20_26  and  O3_27 
REMARK   10  A    between atoms: C23_31  and  O4_32 
ROOT
HETATM    1  C13 UNL     1      37.590 -19.219  22.610  1.00  0.00     0.138 C 
HETATM    2  C14 UNL     1      36.075 -19.273  22.352  1.00  0.00     0.035 C 
HETATM    3  C15 UNL     1      35.434 -20.494  22.972  1.00  0.00     0.036 C 
HETATM    4  C16 UNL     1      35.940 -20.770  24.357  1.00  0.00     0.190 C 
HETATM    5  C17 UNL     1      36.598 -19.455  24.805  1.00  0.00     0.041 C 
HETATM    6  C18 UNL     1      37.900 -19.302  24.041  1.00  0.00     0.030 C 
HETATM    7  C19 UNL     1      38.828 -20.346  24.564  1.00  0.00     0.016 C 
HETATM    8  C21 UNL     1      39.467 -19.696  25.830  1.00  0.00     0.017 C 
HETATM    9  C22 UNL     1      39.637 -20.646  26.949  1.00  0.00     0.032 C 
HETATM   10  C23 UNL     1      39.839 -22.077  26.652  1.00  0.00     0.120 C 
HETATM   11  C24 UNL     1      38.952 -22.614  25.549  1.00  0.00     0.066 C 
HETATM   12  C25 UNL     1      38.044 -21.501  25.115  1.00  0.00     0.203 C 
HETATM   13  N3  UNL     1      36.842 -21.892  24.459  1.00  0.00    -0.065 N 
HETATM   14  C26 UNL     1      36.182 -22.797  25.446  1.00  0.00     0.273 C 
HETATM   15  C27 UNL     1      36.950 -22.720  23.325  1.00  0.00     0.273 C 
ENDROOT
BRANCH   1  16
HETATM   16  O2  UNL     1      38.011 -18.002  22.004  1.00  0.00    -0.298 OA
BRANCH  16  17
HETATM   17  C12 UNL     1      39.053 -17.217  22.394  1.00  0.00     0.360 C 
HETATM   18  N2  UNL     1      38.904 -16.066  23.213  1.00  0.00    -0.337 N 
ATOM     19  H2  UNL     1      37.965 -15.817  23.525  1.00  0.00     0.164 HD
HETATM   20  O1  UNL     1      40.201 -17.527  22.009  1.00  0.00    -0.239 OA
BRANCH  18  21
HETATM   21  C11 UNL     1      39.987 -15.236  23.626  1.00  0.00     0.125 C 
BRANCH  21  22
HETATM   22  C10 UNL     1      40.295 -15.318  25.117  1.00  0.00     0.020 C 
BRANCH  22  23
HETATM   23  C9  UNL     1      38.980 -15.681  25.782  1.00  0.00     0.002 C 
BRANCH  23  24
HETATM   24  C8  UNL     1      39.095 -15.975  27.238  1.00  0.00     0.010 C 
BRANCH  24  25
HETATM   25  C7  UNL     1      37.962 -15.350  28.005  1.00  0.00     0.030 C 
HETATM   26  C2  UNL     1      36.947 -16.377  28.389  1.00  0.00    -0.018 C 
HETATM   27  C1  UNL     1      37.256 -17.805  28.117  1.00  0.00     0.063 C 
HETATM   28  N1  UNL     1      35.868 -15.959  28.932  1.00  0.00    -0.392 N 
HETATM   29  C3  UNL     1      35.751 -14.517  29.114  1.00  0.00     0.077 C 
ATOM     30  H1  UNL     1      35.129 -16.599  29.221  1.00  0.00     0.159 HD
HETATM   31  C4  UNL     1      34.375 -14.212  29.609  1.00  0.00     0.032 C 
HETATM   32  C5  UNL     1      35.929 -13.940  27.704  1.00  0.00     0.025 C 
HETATM   33  C6  UNL     1      37.233 -14.360  27.096  1.00  0.00     0.012 C 
ENDBRANCH  24  25
ENDBRANCH  23  24
ENDBRANCH  22  23
ENDBRANCH  21  22
ENDBRANCH  18  21
ENDBRANCH  16  17
ENDBRANCH   1  16
BRANCH   7  34
HETATM   34  C20 UNL     1      40.007 -20.673  23.755  1.00  0.00     0.176 C 
BRANCH  34  35
HETATM   35  O3  UNL     1      41.042 -19.831  23.614  1.00  0.00    -0.400 OA
ATOM     36  H3  UNL     1      41.500 -19.718  22.790  1.00  0.00     0.209 HD
ENDBRANCH  34  35
ENDBRANCH   7  34
BRANCH  10  37
HETATM   37  O4  UNL     1      39.528 -22.812  27.810  1.00  0.00    -0.396 OA
ATOM     38  H4  UNL     1      40.329 -23.204  28.135  1.00  0.00     0.210 HD
ENDBRANCH  10  37
TORSDOF 10
ENDMDL
