MODEL 1
REMARK VINA RESULT: -6.021074606      0.000      0.000
REMARK  14 active torsions:
REMARK  status: ('A' for Active; 'I' for Inactive)
REMARK       I    between atoms: C2_2  and  N1_4 
REMARK    1  A    between atoms: C3_6  and  N2_7 
REMARK    2  A    between atoms: C3_6  and  C11_16 
REMARK    3  A    between atoms: N2_7  and  C4_9 
REMARK    4  A    between atoms: C4_9  and  C5_10 
REMARK    5  A    between atoms: C4_9  and  C8_13 
REMARK    6  A    between atoms: N3_21  and  C16_22 
REMARK    7  A    between atoms: C16_22  and  N4_23 
REMARK    8  A    between atoms: C16_22  and  C21_28 
REMARK    9  A    between atoms: N4_23  and  C17_24 
REMARK   10  A    between atoms: C21_28  and  C22_29 
REMARK   11  A    between atoms: C21_28  and  C26_33 
REMARK   12  A    between atoms: C22_29  and  C23_30 
REMARK   13  A    between atoms: C26_33  and  O2_34 
REMARK   14  A    between atoms: N5_36  and  O3_38 
ROOT
HETATM    1  C11 UNL     1      40.143 -20.286  27.418  1.00  0.00     0.154 C 
HETATM    2  C12 UNL     1      41.585 -19.911  27.842  1.00  0.00     0.033 C 
HETATM    3  C13 UNL     1      42.616 -20.372  26.897  1.00  0.00     0.004 C 
HETATM    4  C14 UNL     1      42.115 -20.159  25.511  1.00  0.00     0.020 C 
HETATM    5  C15 UNL     1      40.902 -19.377  25.346  1.00  0.00     0.126 C 
HETATM    6  N3  UNL     1      39.816 -19.496  26.340  1.00  0.00    -0.348 N 
ENDROOT
BRANCH   6   7
HETATM    7  C16 UNL     1      38.645 -18.729  25.937  1.00  0.00     0.160 C 
BRANCH   7   8
HETATM    8  N4  UNL     1      37.831 -19.259  25.143  1.00  0.00    -0.424 NA
BRANCH   8   9
HETATM    9  C17 UNL     1      37.141 -19.774  24.132  1.00  0.00     0.084 C 
HETATM   10  C18 UNL     1      36.329 -18.755  23.258  1.00  0.00     0.053 C 
HETATM   11  C19 UNL     1      37.986 -20.471  23.029  1.00  0.00     0.053 C 
HETATM   12  C20 UNL     1      35.998 -20.771  24.444  1.00  0.00     0.053 C 
ENDBRANCH   8   9
ENDBRANCH   7   8
BRANCH   7  13
HETATM   13  C21 UNL     1      38.314 -17.378  26.420  1.00  0.00     0.144 C 
BRANCH  13  14
HETATM   14  C22 UNL     1      39.160 -16.788  27.497  1.00  0.00     0.025 C 
BRANCH  14  15
HETATM   15  C23 UNL     1      38.478 -16.685  28.843  1.00  0.00    -0.021 C 
HETATM   16  C24 UNL     1      39.035 -17.830  29.678  1.00  0.00     0.009 C 
HETATM   17  C25 UNL     1      36.982 -17.015  28.712  1.00  0.00     0.009 C 
ENDBRANCH  14  15
ENDBRANCH  13  14
BRANCH  13  18
HETATM   18  C26 UNL     1      38.437 -16.342  25.335  1.00  0.00     0.148 C 
HETATM   19  N5  UNL     1      37.912 -15.189  25.340  1.00  0.00    -0.250 N 
ATOM     20  H5  UNL     1      38.106 -14.624  24.514  1.00  0.00     0.196 HD
BRANCH  18  21
HETATM   21  O2  UNL     1      39.208 -16.720  24.236  1.00  0.00    -0.347 OA
ATOM     22  H2  UNL     1      39.029 -16.246  23.432  1.00  0.00     0.219 HD
ENDBRANCH  18  21
BRANCH  19  23
HETATM   23  O3  UNL     1      37.141 -14.594  26.264  1.00  0.00    -0.288 OA
ATOM     24  H3  UNL     1      37.340 -13.881  26.859  1.00  0.00     0.244 HD
ENDBRANCH  19  23
ENDBRANCH  13  18
ENDBRANCH   7  13
ENDBRANCH   6   7
BRANCH   1  25
HETATM   25  C3  UNL     1      40.097 -21.773  27.076  1.00  0.00     0.103 C 
HETATM   26  N1  UNL     1      39.374 -22.100  26.126  1.00  0.00    -0.315 N 
HETATM   27  C2  UNL     1      39.026 -23.256  25.475  1.00  0.00     0.219 C 
ATOM     28  H1  UNL     1      38.911 -21.289  25.714  1.00  0.00     0.170 HD
HETATM   29  C1  UNL     1      37.636 -23.811  25.640  1.00  0.00     0.117 C 
HETATM   30  O1  UNL     1      39.773 -23.951  24.710  1.00  0.00    -0.274 OA
BRANCH  25  31
HETATM   31  N2  UNL     1      40.859 -22.691  27.838  1.00  0.00    -0.373 N 
ATOM     32  H2  UNL     1      41.774 -22.962  27.480  1.00  0.00     0.161 HD
BRANCH  31  33
HETATM   33  C4  UNL     1      40.418 -23.278  29.109  1.00  0.00     0.089 C 
BRANCH  33  34
HETATM   34  C5  UNL     1      41.580 -23.086  30.050  1.00  0.00     0.000 C 
HETATM   35  C6  UNL     1      42.916 -22.982  29.373  1.00  0.00     0.011 C 
HETATM   36  C7  UNL     1      41.417 -21.816  30.873  1.00  0.00     0.011 C 
ENDBRANCH  33  34
BRANCH  33  37
HETATM   37  C8  UNL     1      40.106 -24.734  28.826  1.00  0.00     0.000 C 
HETATM   38  C9  UNL     1      40.480 -25.502  30.113  1.00  0.00     0.011 C 
HETATM   39  C10 UNL     1      40.948 -25.356  27.758  1.00  0.00     0.011 C 
ENDBRANCH  33  37
ENDBRANCH  31  33
ENDBRANCH  25  31
ENDBRANCH   1  25
TORSDOF 14
ENDMDL
MODEL 2
REMARK VINA RESULT: -5.893476326      1.995      2.762
REMARK  14 active torsions:
REMARK  status: ('A' for Active; 'I' for Inactive)
REMARK       I    between atoms: C2_2  and  N1_4 
REMARK    1  A    between atoms: C3_6  and  N2_7 
REMARK    2  A    between atoms: C3_6  and  C11_16 
REMARK    3  A    between atoms: N2_7  and  C4_9 
REMARK    4  A    between atoms: C4_9  and  C5_10 
REMARK    5  A    between atoms: C4_9  and  C8_13 
REMARK    6  A    between atoms: N3_21  and  C16_22 
REMARK    7  A    between atoms: C16_22  and  N4_23 
REMARK    8  A    between atoms: C16_22  and  C21_28 
REMARK    9  A    between atoms: N4_23  and  C17_24 
REMARK   10  A    between atoms: C21_28  and  C22_29 
REMARK   11  A    between atoms: C21_28  and  C26_33 
REMARK   12  A    between atoms: C22_29  and  C23_30 
REMARK   13  A    between atoms: C26_33  and  O2_34 
REMARK   14  A    between atoms: N5_36  and  O3_38 
ROOT
HETATM    1  C11 UNL     1      41.651 -20.682  28.203  1.00  0.00     0.154 C 
HETATM    2  C12 UNL     1      43.142 -20.274  28.296  1.00  0.00     0.033 C 
HETATM    3  C13 UNL     1      43.950 -20.731  27.153  1.00  0.00     0.004 C 
HETATM    4  C14 UNL     1      43.153 -20.548  25.908  1.00  0.00     0.020 C 
HETATM    5  C15 UNL     1      41.917 -19.792  26.005  1.00  0.00     0.126 C 
HETATM    6  N3  UNL     1      41.078 -19.914  27.214  1.00  0.00    -0.348 N 
ENDROOT
BRANCH   6   7
HETATM    7  C16 UNL     1      39.831 -19.176  27.069  1.00  0.00     0.160 C 
BRANCH   7   8
HETATM    8  N4  UNL     1      38.834 -19.777  26.602  1.00  0.00    -0.424 NA
BRANCH   8   9
HETATM    9  C17 UNL     1      37.871 -20.350  25.890  1.00  0.00     0.084 C 
HETATM   10  C18 UNL     1      36.824 -19.380  25.238  1.00  0.00     0.053 C 
HETATM   11  C19 UNL     1      38.342 -21.132  24.632  1.00  0.00     0.053 C 
HETATM   12  C20 UNL     1      36.885 -21.306  26.605  1.00  0.00     0.053 C 
ENDBRANCH   8   9
ENDBRANCH   7   8
BRANCH   7  13
HETATM   13  C21 UNL     1      39.632 -17.772  27.466  1.00  0.00     0.144 C 
BRANCH  13  14
HETATM   14  C22 UNL     1      39.236 -16.792  26.414  1.00  0.00     0.025 C 
BRANCH  14  15
HETATM   15  C23 UNL     1      40.150 -16.765  25.208  1.00  0.00    -0.021 C 
HETATM   16  C24 UNL     1      40.424 -15.293  24.931  1.00  0.00     0.009 C 
HETATM   17  C25 UNL     1      39.397 -17.245  23.957  1.00  0.00     0.009 C 
ENDBRANCH  14  15
ENDBRANCH  13  14
BRANCH  13  18
HETATM   18  C26 UNL     1      38.513 -17.619  28.461  1.00  0.00     0.148 C 
HETATM   19  N5  UNL     1      38.613 -17.725  29.720  1.00  0.00    -0.250 N 
ATOM     20  H5  UNL     1      37.743 -17.588  30.234  1.00  0.00     0.196 HD
BRANCH  18  21
HETATM   21  O2  UNL     1      37.263 -17.332  27.913  1.00  0.00    -0.347 OA
ATOM     22  H2  UNL     1      36.518 -17.626  28.425  1.00  0.00     0.219 HD
ENDBRANCH  18  21
BRANCH  19  23
HETATM   23  O3  UNL     1      39.686 -17.988  30.483  1.00  0.00    -0.288 OA
ATOM     24  H3  UNL     1      39.740 -18.369  31.351  1.00  0.00     0.244 HD
ENDBRANCH  19  23
ENDBRANCH  13  18
ENDBRANCH   7  13
ENDBRANCH   6   7
BRANCH   1  25
HETATM   25  C3  UNL     1      41.562 -22.174  27.897  1.00  0.00     0.103 C 
HETATM   26  N1  UNL     1      40.773 -22.511  27.004  1.00  0.00    -0.315 N 
HETATM   27  C2  UNL     1      40.367 -23.674  26.403  1.00  0.00     0.219 C 
ATOM     28  H1  UNL     1      40.295 -21.701  26.607  1.00  0.00     0.170 HD
HETATM   29  C1  UNL     1      38.984 -24.205  26.671  1.00  0.00     0.117 C 
HETATM   30  O1  UNL     1      41.053 -24.395  25.604  1.00  0.00    -0.274 OA
BRANCH  25  31
HETATM   31  N2  UNL     1      42.361 -23.087  28.625  1.00  0.00    -0.373 N 
ATOM     32  H2  UNL     1      43.047 -23.637  28.109  1.00  0.00     0.161 HD
BRANCH  31  33
HETATM   33  C4  UNL     1      42.267 -23.295  30.076  1.00  0.00     0.089 C 
BRANCH  33  34
HETATM   34  C5  UNL     1      43.693 -23.278  30.564  1.00  0.00     0.000 C 
HETATM   35  C6  UNL     1      44.722 -23.428  29.482  1.00  0.00     0.011 C 
HETATM   36  C7  UNL     1      44.013 -21.974  31.281  1.00  0.00     0.011 C 
ENDBRANCH  33  34
BRANCH  33  37
HETATM   37  C8  UNL     1      41.578 -24.631  30.275  1.00  0.00     0.000 C 
HETATM   38  C9  UNL     1      42.038 -25.521  29.099  1.00  0.00     0.011 C 
HETATM   39  C10 UNL     1      40.088 -24.587  30.154  1.00  0.00     0.011 C 
ENDBRANCH  33  37
ENDBRANCH  31  33
ENDBRANCH  25  31
ENDBRANCH   1  25
TORSDOF 14
ENDMDL
MODEL 3
REMARK VINA RESULT: -5.656621876      2.114      3.143
REMARK  14 active torsions:
REMARK  status: ('A' for Active; 'I' for Inactive)
REMARK       I    between atoms: C2_2  and  N1_4 
REMARK    1  A    between atoms: C3_6  and  N2_7 
REMARK    2  A    between atoms: C3_6  and  C11_16 
REMARK    3  A    between atoms: N2_7  and  C4_9 
REMARK    4  A    between atoms: C4_9  and  C5_10 
REMARK    5  A    between atoms: C4_9  and  C8_13 
REMARK    6  A    between atoms: N3_21  and  C16_22 
REMARK    7  A    between atoms: C16_22  and  N4_23 
REMARK    8  A    between atoms: C16_22  and  C21_28 
REMARK    9  A    between atoms: N4_23  and  C17_24 
REMARK   10  A    between atoms: C21_28  and  C22_29 
REMARK   11  A    between atoms: C21_28  and  C26_33 
REMARK   12  A    between atoms: C22_29  and  C23_30 
REMARK   13  A    between atoms: C26_33  and  O2_34 
REMARK   14  A    between atoms: N5_36  and  O3_38 
ROOT
HETATM    1  C11 UNL     1      40.268 -21.901  28.330  1.00  0.00     0.154 C 
HETATM    2  C12 UNL     1      40.959 -21.944  29.715  1.00  0.00     0.033 C 
HETATM    3  C13 UNL     1      42.417 -21.742  29.652  1.00  0.00     0.004 C 
HETATM    4  C14 UNL     1      42.704 -20.675  28.653  1.00  0.00     0.020 C 
HETATM    5  C15 UNL     1      41.578 -19.916  28.137  1.00  0.00     0.126 C 
HETATM    6  N3  UNL     1      40.286 -20.593  27.904  1.00  0.00    -0.348 N 
ENDROOT
BRANCH   6   7
HETATM    7  C16 UNL     1      39.326 -19.695  27.277  1.00  0.00     0.160 C 
BRANCH   7   8
HETATM    8  N4  UNL     1      38.463 -20.188  26.511  1.00  0.00    -0.424 NA
BRANCH   8   9
HETATM    9  C17 UNL     1      37.718 -20.884  25.659  1.00  0.00     0.084 C 
HETATM   10  C18 UNL     1      36.225 -20.426  25.513  1.00  0.00     0.053 C 
HETATM   11  C19 UNL     1      38.170 -20.828  24.173  1.00  0.00     0.053 C 
HETATM   12  C20 UNL     1      37.471 -22.386  25.942  1.00  0.00     0.053 C 
ENDBRANCH   8   9
ENDBRANCH   7   8
BRANCH   7  13
HETATM   13  C21 UNL     1      39.259 -18.241  27.500  1.00  0.00     0.144 C 
BRANCH  13  14
HETATM   14  C22 UNL     1      38.907 -17.367  26.345  1.00  0.00     0.025 C 
BRANCH  14  15
HETATM   15  C23 UNL     1      40.069 -17.035  25.434  1.00  0.00    -0.021 C 
HETATM   16  C24 UNL     1      40.051 -15.521  25.277  1.00  0.00     0.009 C 
HETATM   17  C25 UNL     1      39.800 -17.559  24.013  1.00  0.00     0.009 C 
ENDBRANCH  14  15
ENDBRANCH  13  14
BRANCH  13  18
HETATM   18  C26 UNL     1      38.195 -17.870  28.498  1.00  0.00     0.148 C 
HETATM   19  N5  UNL     1      38.365 -17.702  29.743  1.00  0.00    -0.250 N 
ATOM     20  H5  UNL     1      37.524 -17.453  30.262  1.00  0.00     0.196 HD
BRANCH  18  21
HETATM   21  O2  UNL     1      36.915 -17.702  27.970  1.00  0.00    -0.347 OA
ATOM     22  H2  UNL     1      36.385 -17.038  28.395  1.00  0.00     0.219 HD
ENDBRANCH  18  21
BRANCH  19  23
HETATM   23  O3  UNL     1      39.479 -17.800  30.484  1.00  0.00    -0.288 OA
ATOM     24  H3  UNL     1      39.981 -17.125  30.926  1.00  0.00     0.244 HD
ENDBRANCH  19  23
ENDBRANCH  13  18
ENDBRANCH   7  13
ENDBRANCH   6   7
BRANCH   1  25
HETATM   25  C3  UNL     1      41.013 -22.828  27.374  1.00  0.00     0.103 C 
HETATM   26  N1  UNL     1      41.077 -22.468  26.190  1.00  0.00    -0.315 N 
HETATM   27  C2  UNL     1      41.613 -22.940  25.021  1.00  0.00     0.219 C 
ATOM     28  H1  UNL     1      40.601 -21.577  26.047  1.00  0.00     0.170 HD
HETATM   29  C1  UNL     1      40.701 -23.461  23.942  1.00  0.00     0.117 C 
HETATM   30  O1  UNL     1      42.852 -22.994  24.721  1.00  0.00    -0.274 OA
BRANCH  25  31
HETATM   31  N2  UNL     1      41.584 -24.027  27.863  1.00  0.00    -0.373 N 
ATOM     32  H2  UNL     1      42.588 -24.037  28.043  1.00  0.00     0.161 HD
BRANCH  31  33
HETATM   33  C4  UNL     1      40.827 -25.257  28.127  1.00  0.00     0.089 C 
BRANCH  33  34
HETATM   34  C5  UNL     1      41.490 -25.870  29.334  1.00  0.00     0.000 C 
HETATM   35  C6  UNL     1      42.912 -25.438  29.547  1.00  0.00     0.011 C 
HETATM   36  C7  UNL     1      40.740 -25.520  30.611  1.00  0.00     0.011 C 
ENDBRANCH  33  34
BRANCH  33  37
HETATM   37  C8  UNL     1      40.941 -26.109  26.878  1.00  0.00     0.000 C 
HETATM   38  C9  UNL     1      39.518 -26.166  26.278  1.00  0.00     0.011 C 
HETATM   39  C10 UNL     1      41.301 -27.538  27.130  1.00  0.00     0.011 C 
ENDBRANCH  33  37
ENDBRANCH  31  33
ENDBRANCH  25  31
ENDBRANCH   1  25
TORSDOF 14
ENDMDL
MODEL 4
REMARK VINA RESULT: -5.636980091      1.684      3.695
REMARK  14 active torsions:
REMARK  status: ('A' for Active; 'I' for Inactive)
REMARK       I    between atoms: C2_2  and  N1_4 
REMARK    1  A    between atoms: C3_6  and  N2_7 
REMARK    2  A    between atoms: C3_6  and  C11_16 
REMARK    3  A    between atoms: N2_7  and  C4_9 
REMARK    4  A    between atoms: C4_9  and  C5_10 
REMARK    5  A    between atoms: C4_9  and  C8_13 
REMARK    6  A    between atoms: N3_21  and  C16_22 
REMARK    7  A    between atoms: C16_22  and  N4_23 
REMARK    8  A    between atoms: C16_22  and  C21_28 
REMARK    9  A    between atoms: N4_23  and  C17_24 
REMARK   10  A    between atoms: C21_28  and  C22_29 
REMARK   11  A    between atoms: C21_28  and  C26_33 
REMARK   12  A    between atoms: C22_29  and  C23_30 
REMARK   13  A    between atoms: C26_33  and  O2_34 
REMARK   14  A    between atoms: N5_36  and  O3_38 
ROOT
HETATM    1  C11 UNL     1      39.410 -21.231  27.645  1.00  0.00     0.154 C 
HETATM    2  C12 UNL     1      40.177 -21.272  28.990  1.00  0.00     0.033 C 
HETATM    3  C13 UNL     1      41.638 -21.153  28.839  1.00  0.00     0.004 C 
HETATM    4  C14 UNL     1      41.922 -20.132  27.792  1.00  0.00     0.020 C 
HETATM    5  C15 UNL     1      40.811 -19.327  27.317  1.00  0.00     0.126 C 
HETATM    6  N3  UNL     1      39.474 -19.938  27.178  1.00  0.00    -0.348 N 
ENDROOT
BRANCH   6   7
HETATM    7  C16 UNL     1      38.527 -19.007  26.578  1.00  0.00     0.160 C 
BRANCH   7   8
HETATM    8  N4  UNL     1      38.245 -17.958  27.206  1.00  0.00    -0.424 NA
BRANCH   8   9
HETATM    9  C17 UNL     1      38.129 -16.915  28.020  1.00  0.00     0.084 C 
HETATM   10  C18 UNL     1      36.702 -16.268  28.115  1.00  0.00     0.053 C 
HETATM   11  C19 UNL     1      38.402 -17.203  29.522  1.00  0.00     0.053 C 
HETATM   12  C20 UNL     1      38.941 -15.634  27.708  1.00  0.00     0.053 C 
ENDBRANCH   8   9
ENDBRANCH   7   8
BRANCH   7  13
HETATM   13  C21 UNL     1      37.895 -19.180  25.260  1.00  0.00     0.144 C 
BRANCH  13  14
HETATM   14  C22 UNL     1      36.546 -19.813  25.204  1.00  0.00     0.025 C 
BRANCH  14  15
HETATM   15  C23 UNL     1      36.542 -21.233  24.681  1.00  0.00    -0.021 C 
HETATM   16  C24 UNL     1      35.305 -21.345  23.801  1.00  0.00     0.009 C 
HETATM   17  C25 UNL     1      36.274 -22.223  25.827  1.00  0.00     0.009 C 
ENDBRANCH  14  15
ENDBRANCH  13  14
BRANCH  13  18
HETATM   18  C26 UNL     1      37.642 -17.863  24.576  1.00  0.00     0.148 C 
HETATM   19  N5  UNL     1      38.510 -16.976  24.319  1.00  0.00    -0.250 N 
ATOM     20  H5  UNL     1      38.151 -16.145  23.850  1.00  0.00     0.196 HD
BRANCH  18  21
HETATM   21  O2  UNL     1      36.318 -17.630  24.203  1.00  0.00    -0.347 OA
ATOM     22  H2  UNL     1      35.824 -17.068  24.789  1.00  0.00     0.219 HD
ENDBRANCH  18  21
BRANCH  19  23
HETATM   23  O3  UNL     1      39.829 -16.959  24.568  1.00  0.00    -0.288 OA
ATOM     24  H3  UNL     1      40.448 -16.240  24.535  1.00  0.00     0.244 HD
ENDBRANCH  19  23
ENDBRANCH  13  18
ENDBRANCH   7  13
ENDBRANCH   6   7
BRANCH   1  25
HETATM   25  C3  UNL     1      40.049 -22.223  26.678  1.00  0.00     0.103 C 
HETATM   26  N1  UNL     1      40.031 -21.918  25.478  1.00  0.00    -0.315 N 
HETATM   27  C2  UNL     1      40.458 -22.459  24.294  1.00  0.00     0.219 C 
ATOM     28  H1  UNL     1      39.573 -21.018  25.331  1.00  0.00     0.170 HD
HETATM   29  C1  UNL     1      39.448 -22.994  23.314  1.00  0.00     0.117 C 
HETATM   30  O1  UNL     1      41.667 -22.569  23.902  1.00  0.00    -0.274 OA
BRANCH  25  31
HETATM   31  N2  UNL     1      40.619 -23.419  27.177  1.00  0.00    -0.373 N 
ATOM     32  H2  UNL     1      41.633 -23.460  27.272  1.00  0.00     0.161 HD
BRANCH  31  33
HETATM   33  C4  UNL     1      39.845 -24.605  27.565  1.00  0.00     0.089 C 
BRANCH  33  34
HETATM   34  C5  UNL     1      40.685 -25.291  28.612  1.00  0.00     0.000 C 
HETATM   35  C6  UNL     1      42.121 -24.855  28.639  1.00  0.00     0.011 C 
HETATM   36  C7  UNL     1      40.136 -25.042  30.009  1.00  0.00     0.011 C 
ENDBRANCH  33  34
BRANCH  33  37
HETATM   37  C8  UNL     1      39.659 -25.429  26.306  1.00  0.00     0.000 C 
HETATM   38  C9  UNL     1      38.133 -25.505  26.076  1.00  0.00     0.011 C 
HETATM   39  C10 UNL     1      40.093 -26.855  26.425  1.00  0.00     0.011 C 
ENDBRANCH  33  37
ENDBRANCH  31  33
ENDBRANCH  25  31
ENDBRANCH   1  25
TORSDOF 14
ENDMDL
MODEL 5
REMARK VINA RESULT: -5.633990197      2.306      3.726
REMARK  14 active torsions:
REMARK  status: ('A' for Active; 'I' for Inactive)
REMARK       I    between atoms: C2_2  and  N1_4 
REMARK    1  A    between atoms: C3_6  and  N2_7 
REMARK    2  A    between atoms: C3_6  and  C11_16 
REMARK    3  A    between atoms: N2_7  and  C4_9 
REMARK    4  A    between atoms: C4_9  and  C5_10 
REMARK    5  A    between atoms: C4_9  and  C8_13 
REMARK    6  A    between atoms: N3_21  and  C16_22 
REMARK    7  A    between atoms: C16_22  and  N4_23 
REMARK    8  A    between atoms: C16_22  and  C21_28 
REMARK    9  A    between atoms: N4_23  and  C17_24 
REMARK   10  A    between atoms: C21_28  and  C22_29 
REMARK   11  A    between atoms: C21_28  and  C26_33 
REMARK   12  A    between atoms: C22_29  and  C23_30 
REMARK   13  A    between atoms: C26_33  and  O2_34 
REMARK   14  A    between atoms: N5_36  and  O3_38 
ROOT
HETATM    1  C11 UNL     1      40.175 -21.327  29.149  1.00  0.00     0.154 C 
HETATM    2  C12 UNL     1      41.214 -21.110  30.277  1.00  0.00     0.033 C 
HETATM    3  C13 UNL     1      42.588 -21.472  29.889  1.00  0.00     0.004 C 
HETATM    4  C14 UNL     1      42.822 -21.009  28.493  1.00  0.00     0.020 C 
HETATM    5  C15 UNL     1      41.823 -20.141  27.895  1.00  0.00     0.126 C 
HETATM    6  N3  UNL     1      40.394 -20.355  28.200  1.00  0.00    -0.348 N 
ENDROOT
BRANCH   6   7
HETATM    7  C16 UNL     1      39.548 -19.465  27.415  1.00  0.00     0.160 C 
BRANCH   7   8
HETATM    8  N4  UNL     1      38.763 -19.975  26.580  1.00  0.00    -0.424 NA
BRANCH   8   9
HETATM    9  C17 UNL     1      37.755 -20.437  25.848  1.00  0.00     0.084 C 
HETATM   10  C18 UNL     1      36.778 -19.360  25.260  1.00  0.00     0.053 C 
HETATM   11  C19 UNL     1      38.159 -21.183  24.546  1.00  0.00     0.053 C 
HETATM   12  C20 UNL     1      36.706 -21.355  26.522  1.00  0.00     0.053 C 
ENDBRANCH   8   9
ENDBRANCH   7   8
BRANCH   7  13
HETATM   13  C21 UNL     1      39.511 -18.000  27.550  1.00  0.00     0.144 C 
BRANCH  13  14
HETATM   14  C22 UNL     1      39.154 -17.191  26.350  1.00  0.00     0.025 C 
BRANCH  14  15
HETATM   15  C23 UNL     1      40.283 -17.009  25.359  1.00  0.00    -0.021 C 
HETATM   16  C24 UNL     1      40.249 -15.540  24.960  1.00  0.00     0.009 C 
HETATM   17  C25 UNL     1      39.972 -17.756  24.051  1.00  0.00     0.009 C 
ENDBRANCH  14  15
ENDBRANCH  13  14
BRANCH  13  18
HETATM   18  C26 UNL     1      38.472 -17.549  28.542  1.00  0.00     0.148 C 
HETATM   19  N5  UNL     1      38.591 -17.555  29.803  1.00  0.00    -0.250 N 
ATOM     20  H5  UNL     1      37.778 -17.212  30.314  1.00  0.00     0.196 HD
BRANCH  18  21
HETATM   21  O2  UNL     1      37.280 -17.084  27.986  1.00  0.00    -0.347 OA
ATOM     22  H2  UNL     1      37.029 -16.204  28.240  1.00  0.00     0.219 HD
ENDBRANCH  18  21
BRANCH  19  23
HETATM   23  O3  UNL     1      39.620 -17.944  30.573  1.00  0.00    -0.288 OA
ATOM     24  H3  UNL     1      40.196 -17.432  31.126  1.00  0.00     0.244 HD
ENDBRANCH  19  23
ENDBRANCH  13  18
ENDBRANCH   7  13
ENDBRANCH   6   7
BRANCH   1  25
HETATM   25  C3  UNL     1      40.343 -22.733  28.582  1.00  0.00     0.103 C 
HETATM   26  N1  UNL     1      40.701 -23.612  29.377  1.00  0.00    -0.315 N 
HETATM   27  C2  UNL     1      40.972 -24.955  29.340  1.00  0.00     0.219 C 
ATOM     28  H1  UNL     1      40.830 -23.234  30.316  1.00  0.00     0.170 HD
HETATM   29  C1  UNL     1      42.395 -25.430  29.470  1.00  0.00     0.117 C 
HETATM   30  O1  UNL     1      40.123 -25.897  29.203  1.00  0.00    -0.274 OA
BRANCH  25  31
HETATM   31  N2  UNL     1      40.091 -22.970  27.209  1.00  0.00    -0.373 N 
ATOM     32  H2  UNL     1      39.282 -22.514  26.788  1.00  0.00     0.161 HD
BRANCH  31  33
HETATM   33  C4  UNL     1      40.918 -23.828  26.352  1.00  0.00     0.089 C 
BRANCH  33  34
HETATM   34  C5  UNL     1      41.682 -22.876  25.469  1.00  0.00     0.000 C 
HETATM   35  C6  UNL     1      43.174 -23.039  25.524  1.00  0.00     0.011 C 
HETATM   36  C7  UNL     1      41.288 -23.042  24.008  1.00  0.00     0.011 C 
ENDBRANCH  33  34
BRANCH  33  37
HETATM   37  C8  UNL     1      39.962 -24.723  25.588  1.00  0.00     0.000 C 
HETATM   38  C9  UNL     1      38.583 -24.531  26.258  1.00  0.00     0.011 C 
HETATM   39  C10 UNL     1      40.242 -26.187  25.715  1.00  0.00     0.011 C 
ENDBRANCH  33  37
ENDBRANCH  31  33
ENDBRANCH  25  31
ENDBRANCH   1  25
TORSDOF 14
ENDMDL
