MODEL 1
REMARK VINA RESULT: -7.563505450      0.000      0.000
REMARK  10 active torsions:
REMARK  status: ('A' for Active; 'I' for Inactive)
REMARK       I    between atoms: N1_6  and  C6_7 
REMARK    1  A    between atoms: C6_7  and  C7_9 
REMARK    2  A    between atoms: C7_9  and  C8_10 
REMARK    3  A    between atoms: C8_10  and  C9_11 
REMARK    4  A    between atoms: C11_16  and  C12_17 
REMARK    5  A    between atoms: C12_17  and  C13_18 
REMARK    6  A    between atoms: C13_18  and  C14_19 
REMARK    7  A    between atoms: C14_19  and  N4_23 
REMARK    8  A    between atoms: N4_23  and  C16_25 
REMARK    9  A    between atoms: C24_33  and  C25_34 
REMARK   10  A    between atoms: C25_34  and  C26_35 
ROOT
HETATM    1  C9  UNL     1      40.642 -21.456  29.190  1.00  0.00     0.107 C 
HETATM    2  C10 UNL     1      41.099 -21.846  30.499  1.00  0.00     0.226 C 
HETATM    3  O2  UNL     1      40.887 -21.174  31.568  1.00  0.00    -0.273 OA
HETATM    4  N2  UNL     1      41.832 -23.033  30.684  1.00  0.00    -0.353 N 
ATOM      5  H2  UNL     1      42.523 -23.091  31.432  1.00  0.00     0.163 HD
HETATM    6  C11 UNL     1      41.607 -24.193  29.802  1.00  0.00     0.108 C 
HETATM    7  C23 UNL     1      41.439 -23.622  28.419  1.00  0.00     0.002 C 
HETATM    8  C24 UNL     1      41.011 -22.409  28.140  1.00  0.00    -0.059 C 
ENDROOT
BRANCH   6   9
HETATM    9  C12 UNL     1      42.791 -25.102  29.754  1.00  0.00     0.036 C 
BRANCH   9  10
HETATM   10  C13 UNL     1      43.890 -24.698  28.843  1.00  0.00     0.078 C 
BRANCH  10  11
HETATM   11  C14 UNL     1      45.234 -24.645  29.409  1.00  0.00     0.076 C 
HETATM   12  N3  UNL     1      46.126 -25.556  29.085  1.00  0.00    -0.389 N 
ATOM     13  H32 UNL     1      45.777 -26.257  28.431  1.00  0.00     0.157 HD
ATOM     14  H31 UNL     1      47.065 -25.520  29.480  1.00  0.00     0.157 HD
BRANCH  11  15
HETATM   15  N4  UNL     1      45.720 -23.670  30.319  1.00  0.00    -0.345 N 
HETATM   16  C15 UNL     1      45.320 -23.714  31.683  1.00  0.00     0.157 C 
BRANCH  15  17
HETATM   17  C16 UNL     1      46.589 -22.681  29.781  1.00  0.00     0.012 C 
HETATM   18  C17 UNL     1      46.186 -21.975  28.554  1.00  0.00     0.021 C 
HETATM   19  C18 UNL     1      44.986 -21.171  28.468  1.00  0.00    -0.025 C 
HETATM   20  C19 UNL     1      44.361 -20.549  29.642  1.00  0.00     0.027 C 
HETATM   21  C20 UNL     1      45.125 -20.454  30.896  1.00  0.00     0.004 C 
HETATM   22  C21 UNL     1      46.615 -20.342  30.725  1.00  0.00     0.006 C 
HETATM   23  C22 UNL     1      47.177 -21.725  30.787  1.00  0.00     0.057 C 
ENDBRANCH  15  17
ENDBRANCH  11  15
ENDBRANCH  10  11
ENDBRANCH   9  10
ENDBRANCH   6   9
BRANCH   8  24
HETATM   24  C25 UNL     1      40.937 -22.046  26.679  1.00  0.00     0.148 C 
BRANCH  24  25
HETATM   25  C26 UNL     1      39.697 -22.520  26.046  1.00  0.00     0.176 C 
HETATM   26  O3  UNL     1      38.573 -22.128  26.403  1.00  0.00    -0.648 OA
HETATM   27  O4  UNL     1      39.780 -23.442  25.008  1.00  0.00    -0.648 OA
ENDBRANCH  24  25
ENDBRANCH   8  24
BRANCH   1  28
HETATM   28  C8  UNL     1      40.927 -20.024  28.830  1.00  0.00     0.028 C 
BRANCH  28  29
HETATM   29  C7  UNL     1      39.773 -19.287  28.250  1.00  0.00     0.104 C 
BRANCH  29  30
HETATM   30  C6  UNL     1      39.248 -18.348  29.276  1.00  0.00     0.219 C 
HETATM   31  N1  UNL     1      38.182 -17.439  28.989  1.00  0.00    -0.352 N 
HETATM   32  C5  UNL     1      37.674 -16.525  29.989  1.00  0.00     0.125 C 
HETATM   33  C27 UNL     1      37.585 -17.421  27.675  1.00  0.00     0.130 C 
HETATM   34  C4  UNL     1      37.252 -15.198  29.405  1.00  0.00     0.020 C 
HETATM   35  C3  UNL     1      38.021 -15.006  28.106  1.00  0.00     0.007 C 
HETATM   36  C2  UNL     1      37.448 -16.021  27.134  1.00  0.00    -0.001 C 
HETATM   37  C1  UNL     1      38.114 -15.896  25.798  1.00  0.00     0.011 C 
HETATM   38  O1  UNL     1      39.732 -18.329  30.431  1.00  0.00    -0.273 OA
ENDBRANCH  29  30
ENDBRANCH  28  29
ENDBRANCH   1  28
TORSDOF 10
ENDMDL
MODEL 2
REMARK VINA RESULT: -7.511637115      1.606      2.191
REMARK  10 active torsions:
REMARK  status: ('A' for Active; 'I' for Inactive)
REMARK       I    between atoms: N1_6  and  C6_7 
REMARK    1  A    between atoms: C6_7  and  C7_9 
REMARK    2  A    between atoms: C7_9  and  C8_10 
REMARK    3  A    between atoms: C8_10  and  C9_11 
REMARK    4  A    between atoms: C11_16  and  C12_17 
REMARK    5  A    between atoms: C12_17  and  C13_18 
REMARK    6  A    between atoms: C13_18  and  C14_19 
REMARK    7  A    between atoms: C14_19  and  N4_23 
REMARK    8  A    between atoms: N4_23  and  C16_25 
REMARK    9  A    between atoms: C24_33  and  C25_34 
REMARK   10  A    between atoms: C25_34  and  C26_35 
ROOT
HETATM    1  C9  UNL     1      40.887 -21.239  27.764  1.00  0.00     0.107 C 
HETATM    2  C10 UNL     1      40.442 -22.258  28.681  1.00  0.00     0.226 C 
HETATM    3  O2  UNL     1      39.440 -22.134  29.468  1.00  0.00    -0.273 OA
HETATM    4  N2  UNL     1      41.109 -23.495  28.764  1.00  0.00    -0.353 N 
ATOM      5  H2  UNL     1      41.129 -24.002  29.649  1.00  0.00     0.163 HD
HETATM    6  C11 UNL     1      41.779 -24.062  27.580  1.00  0.00     0.108 C 
HETATM    7  C23 UNL     1      42.442 -22.897  26.894  1.00  0.00     0.002 C 
HETATM    8  C24 UNL     1      42.051 -21.643  26.972  1.00  0.00    -0.059 C 
ENDROOT
BRANCH   6   9
HETATM    9  C12 UNL     1      42.864 -25.020  27.950  1.00  0.00     0.036 C 
BRANCH   9  10
HETATM   10  C13 UNL     1      43.337 -24.961  29.355  1.00  0.00     0.078 C 
BRANCH  10  11
HETATM   11  C14 UNL     1      44.627 -24.321  29.593  1.00  0.00     0.076 C 
HETATM   12  N3  UNL     1      45.593 -24.981  30.195  1.00  0.00    -0.389 N 
ATOM     13  H32 UNL     1      45.338 -25.933  30.457  1.00  0.00     0.157 HD
ATOM     14  H31 UNL     1      46.494 -24.535  30.361  1.00  0.00     0.157 HD
BRANCH  11  15
HETATM   15  N4  UNL     1      44.982 -22.996  29.228  1.00  0.00    -0.345 N 
HETATM   16  C15 UNL     1      45.982 -22.779  28.241  1.00  0.00     0.157 C 
BRANCH  15  17
HETATM   17  C16 UNL     1      44.298 -21.950  29.905  1.00  0.00     0.012 C 
HETATM   18  C17 UNL     1      44.153 -22.028  31.369  1.00  0.00     0.021 C 
HETATM   19  C18 UNL     1      45.285 -22.065  32.269  1.00  0.00    -0.025 C 
HETATM   20  C19 UNL     1      46.599 -21.514  31.917  1.00  0.00     0.027 C 
HETATM   21  C20 UNL     1      46.712 -20.612  30.760  1.00  0.00     0.004 C 
HETATM   22  C21 UNL     1      45.482 -19.795  30.469  1.00  0.00     0.006 C 
HETATM   23  C22 UNL     1      44.667 -20.553  29.473  1.00  0.00     0.057 C 
ENDBRANCH  15  17
ENDBRANCH  11  15
ENDBRANCH  10  11
ENDBRANCH   9  10
ENDBRANCH   6   9
BRANCH   8  24
HETATM   24  C25 UNL     1      42.878 -20.637  26.211  1.00  0.00     0.148 C 
BRANCH  24  25
HETATM   25  C26 UNL     1      42.403 -20.448  24.833  1.00  0.00     0.176 C 
HETATM   26  O3  UNL     1      41.199 -20.492  24.530  1.00  0.00    -0.648 OA
HETATM   27  O4  UNL     1      43.333 -20.210  23.826  1.00  0.00    -0.648 OA
ENDBRANCH  24  25
ENDBRANCH   8  24
BRANCH   1  28
HETATM   28  C8  UNL     1      41.017 -19.869  28.370  1.00  0.00     0.028 C 
BRANCH  28  29
HETATM   29  C7  UNL     1      40.080 -18.855  27.819  1.00  0.00     0.104 C 
BRANCH  29  30
HETATM   30  C6  UNL     1      39.338 -18.234  28.948  1.00  0.00     0.219 C 
HETATM   31  N1  UNL     1      38.171 -17.435  28.733  1.00  0.00    -0.352 N 
HETATM   32  C5  UNL     1      37.452 -16.831  29.833  1.00  0.00     0.125 C 
HETATM   33  C27 UNL     1      37.686 -17.217  27.391  1.00  0.00     0.130 C 
HETATM   34  C4  UNL     1      36.879 -15.479  29.482  1.00  0.00     0.020 C 
HETATM   35  C3  UNL     1      37.711 -14.914  28.339  1.00  0.00     0.007 C 
HETATM   36  C2  UNL     1      37.379 -15.765  27.128  1.00  0.00    -0.001 C 
HETATM   37  C1  UNL     1      38.121 -15.271  25.925  1.00  0.00     0.011 C 
HETATM   38  O1  UNL     1      39.720 -18.396  30.129  1.00  0.00    -0.273 OA
ENDBRANCH  29  30
ENDBRANCH  28  29
ENDBRANCH   1  28
TORSDOF 10
ENDMDL
MODEL 3
REMARK VINA RESULT: -7.404081520      0.659      1.469
REMARK  10 active torsions:
REMARK  status: ('A' for Active; 'I' for Inactive)
REMARK       I    between atoms: N1_6  and  C6_7 
REMARK    1  A    between atoms: C6_7  and  C7_9 
REMARK    2  A    between atoms: C7_9  and  C8_10 
REMARK    3  A    between atoms: C8_10  and  C9_11 
REMARK    4  A    between atoms: C11_16  and  C12_17 
REMARK    5  A    between atoms: C12_17  and  C13_18 
REMARK    6  A    between atoms: C13_18  and  C14_19 
REMARK    7  A    between atoms: C14_19  and  N4_23 
REMARK    8  A    between atoms: N4_23  and  C16_25 
REMARK    9  A    between atoms: C24_33  and  C25_34 
REMARK   10  A    between atoms: C25_34  and  C26_35 
ROOT
HETATM    1  C9  UNL     1      40.593 -21.398  29.251  1.00  0.00     0.107 C 
HETATM    2  C10 UNL     1      40.953 -21.834  30.576  1.00  0.00     0.226 C 
HETATM    3  O2  UNL     1      40.738 -21.157  31.641  1.00  0.00    -0.273 OA
HETATM    4  N2  UNL     1      41.582 -23.075  30.782  1.00  0.00    -0.353 N 
ATOM      5  H2  UNL     1      42.228 -23.193  31.563  1.00  0.00     0.163 HD
HETATM    6  C11 UNL     1      41.314 -24.207  29.875  1.00  0.00     0.108 C 
HETATM    7  C23 UNL     1      41.260 -23.613  28.493  1.00  0.00     0.002 C 
HETATM    8  C24 UNL     1      40.940 -22.368  28.209  1.00  0.00    -0.059 C 
ENDROOT
BRANCH   6   9
HETATM    9  C12 UNL     1      42.426 -25.204  29.874  1.00  0.00     0.036 C 
BRANCH   9  10
HETATM   10  C13 UNL     1      43.499 -24.986  28.874  1.00  0.00     0.078 C 
BRANCH  10  11
HETATM   11  C14 UNL     1      44.742 -24.391  29.355  1.00  0.00     0.076 C 
HETATM   12  N3  UNL     1      45.615 -25.121  30.014  1.00  0.00    -0.389 N 
ATOM     13  H32 UNL     1      45.328 -26.091  30.138  1.00  0.00     0.157 HD
ATOM     14  H31 UNL     1      46.484 -24.704  30.350  1.00  0.00     0.157 HD
BRANCH  11  15
HETATM   15  N4  UNL     1      45.141 -23.039  29.182  1.00  0.00    -0.345 N 
HETATM   16  C15 UNL     1      46.133 -22.713  28.216  1.00  0.00     0.157 C 
BRANCH  15  17
HETATM   17  C16 UNL     1      44.509 -22.081  30.021  1.00  0.00     0.012 C 
HETATM   18  C17 UNL     1      44.633 -22.227  31.482  1.00  0.00     0.021 C 
HETATM   19  C18 UNL     1      45.906 -22.201  32.169  1.00  0.00    -0.025 C 
HETATM   20  C19 UNL     1      47.089 -21.526  31.623  1.00  0.00     0.027 C 
HETATM   21  C20 UNL     1      46.925 -20.575  30.513  1.00  0.00     0.004 C 
HETATM   22  C21 UNL     1      45.604 -19.856  30.482  1.00  0.00     0.006 C 
HETATM   23  C22 UNL     1      44.687 -20.643  29.605  1.00  0.00     0.057 C 
ENDBRANCH  15  17
ENDBRANCH  11  15
ENDBRANCH  10  11
ENDBRANCH   9  10
ENDBRANCH   6   9
BRANCH   8  24
HETATM   24  C25 UNL     1      40.968 -21.987  26.750  1.00  0.00     0.148 C 
BRANCH  24  25
HETATM   25  C26 UNL     1      39.734 -22.368  26.049  1.00  0.00     0.176 C 
HETATM   26  O3  UNL     1      38.615 -21.946  26.388  1.00  0.00    -0.648 OA
HETATM   27  O4  UNL     1      39.814 -23.234  24.963  1.00  0.00    -0.648 OA
ENDBRANCH  24  25
ENDBRANCH   8  24
BRANCH   1  28
HETATM   28  C8  UNL     1      41.004 -19.989  28.923  1.00  0.00     0.028 C 
BRANCH  28  29
HETATM   29  C7  UNL     1      39.950 -19.171  28.268  1.00  0.00     0.104 C 
BRANCH  29  30
HETATM   30  C6  UNL     1      39.322 -18.299  29.296  1.00  0.00     0.219 C 
HETATM   31  N1  UNL     1      38.228 -17.433  28.981  1.00  0.00    -0.352 N 
HETATM   32  C5  UNL     1      37.619 -16.585  29.982  1.00  0.00     0.125 C 
HETATM   33  C27 UNL     1      37.706 -17.393  27.636  1.00  0.00     0.130 C 
HETATM   34  C4  UNL     1      37.162 -15.259  29.423  1.00  0.00     0.020 C 
HETATM   35  C3  UNL     1      37.992 -14.979  28.179  1.00  0.00     0.007 C 
HETATM   36  C2  UNL     1      37.527 -15.981  27.139  1.00  0.00    -0.001 C 
HETATM   37  C1  UNL     1      38.259 -15.771  25.850  1.00  0.00     0.011 C 
HETATM   38  O1  UNL     1      39.739 -18.301  30.476  1.00  0.00    -0.273 OA
ENDBRANCH  29  30
ENDBRANCH  28  29
ENDBRANCH   1  28
TORSDOF 10
ENDMDL
MODEL 4
REMARK VINA RESULT: -7.394797402      3.943      9.252
REMARK  10 active torsions:
REMARK  status: ('A' for Active; 'I' for Inactive)
REMARK       I    between atoms: N1_6  and  C6_7 
REMARK    1  A    between atoms: C6_7  and  C7_9 
REMARK    2  A    between atoms: C7_9  and  C8_10 
REMARK    3  A    between atoms: C8_10  and  C9_11 
REMARK    4  A    between atoms: C11_16  and  C12_17 
REMARK    5  A    between atoms: C12_17  and  C13_18 
REMARK    6  A    between atoms: C13_18  and  C14_19 
REMARK    7  A    between atoms: C14_19  and  N4_23 
REMARK    8  A    between atoms: N4_23  and  C16_25 
REMARK    9  A    between atoms: C24_33  and  C25_34 
REMARK   10  A    between atoms: C25_34  and  C26_35 
ROOT
HETATM    1  C9  UNL     1      37.973 -18.416  27.909  1.00  0.00     0.107 C 
HETATM    2  C10 UNL     1      37.669 -19.679  27.283  1.00  0.00     0.226 C 
HETATM    3  O2  UNL     1      37.572 -20.790  27.910  1.00  0.00    -0.273 OA
HETATM    4  N2  UNL     1      37.453 -19.763  25.895  1.00  0.00    -0.353 N 
ATOM      5  H2  UNL     1      37.695 -20.619  25.395  1.00  0.00     0.163 HD
HETATM    6  C11 UNL     1      36.878 -18.622  25.160  1.00  0.00     0.108 C 
HETATM    7  C23 UNL     1      37.526 -17.396  25.745  1.00  0.00     0.002 C 
HETATM    8  C24 UNL     1      38.014 -17.298  26.963  1.00  0.00    -0.059 C 
ENDROOT
BRANCH   6   9
HETATM    9  C12 UNL     1      37.234 -18.650  23.709  1.00  0.00     0.036 C 
BRANCH   9  10
HETATM   10  C13 UNL     1      36.152 -19.052  22.778  1.00  0.00     0.078 C 
BRANCH  10  11
HETATM   11  C14 UNL     1      36.238 -20.390  22.201  1.00  0.00     0.076 C 
HETATM   12  N3  UNL     1      36.030 -20.572  20.915  1.00  0.00    -0.389 N 
ATOM     13  H32 UNL     1      35.813 -19.713  20.409  1.00  0.00     0.157 HD
ATOM     14  H31 UNL     1      36.090 -21.507  20.512  1.00  0.00     0.157 HD
BRANCH  11  15
HETATM   15  N4  UNL     1      36.540 -21.585  22.905  1.00  0.00    -0.345 N 
HETATM   16  C15 UNL     1      37.746 -22.284  22.627  1.00  0.00     0.157 C 
BRANCH  15  17
HETATM   17  C16 UNL     1      35.578 -22.015  23.860  1.00  0.00     0.012 C 
HETATM   18  C17 UNL     1      34.198 -22.265  23.413  1.00  0.00     0.021 C 
HETATM   19  C18 UNL     1      33.863 -23.259  22.415  1.00  0.00    -0.025 C 
HETATM   20  C19 UNL     1      34.705 -24.431  22.148  1.00  0.00     0.027 C 
HETATM   21  C20 UNL     1      35.747 -24.802  23.118  1.00  0.00     0.004 C 
HETATM   22  C21 UNL     1      35.445 -24.439  24.546  1.00  0.00     0.006 C 
HETATM   23  C22 UNL     1      36.045 -23.095  24.803  1.00  0.00     0.057 C 
ENDBRANCH  15  17
ENDBRANCH  11  15
ENDBRANCH  10  11
ENDBRANCH   9  10
ENDBRANCH   6   9
BRANCH   8  24
HETATM   24  C25 UNL     1      38.634 -15.973  27.330  1.00  0.00     0.148 C 
BRANCH  24  25
HETATM   25  C26 UNL     1      37.718 -15.121  28.102  1.00  0.00     0.176 C 
HETATM   26  O3  UNL     1      37.805 -14.993  29.335  1.00  0.00    -0.648 OA
HETATM   27  O4  UNL     1      36.714 -14.429  27.433  1.00  0.00    -0.648 OA
ENDBRANCH  24  25
ENDBRANCH   8  24
BRANCH   1  28
HETATM   28  C8  UNL     1      39.145 -18.452  28.850  1.00  0.00     0.028 C 
BRANCH  28  29
HETATM   29  C7  UNL     1      40.340 -19.164  28.327  1.00  0.00     0.104 C 
BRANCH  29  30
HETATM   30  C6  UNL     1      40.652 -20.296  29.240  1.00  0.00     0.219 C 
HETATM   31  N1  UNL     1      41.101 -21.561  28.743  1.00  0.00    -0.352 N 
HETATM   32  C5  UNL     1      41.402 -22.662  29.633  1.00  0.00     0.125 C 
HETATM   33  C27 UNL     1      41.264 -21.760  27.323  1.00  0.00     0.130 C 
HETATM   34  C4  UNL     1      41.037 -24.003  29.044  1.00  0.00     0.020 C 
HETATM   35  C3  UNL     1      39.951 -23.764  28.004  1.00  0.00     0.007 C 
HETATM   36  C2  UNL     1      40.633 -23.046  26.854  1.00  0.00    -0.001 C 
HETATM   37  C1  UNL     1      39.656 -22.790  25.748  1.00  0.00     0.011 C 
HETATM   38  O1  UNL     1      40.527 -20.171  30.479  1.00  0.00    -0.273 OA
ENDBRANCH  29  30
ENDBRANCH  28  29
ENDBRANCH   1  28
TORSDOF 10
ENDMDL
MODEL 5
REMARK VINA RESULT: -7.290514315      3.094      6.660
REMARK  10 active torsions:
REMARK  status: ('A' for Active; 'I' for Inactive)
REMARK       I    between atoms: N1_6  and  C6_7 
REMARK    1  A    between atoms: C6_7  and  C7_9 
REMARK    2  A    between atoms: C7_9  and  C8_10 
REMARK    3  A    between atoms: C8_10  and  C9_11 
REMARK    4  A    between atoms: C11_16  and  C12_17 
REMARK    5  A    between atoms: C12_17  and  C13_18 
REMARK    6  A    between atoms: C13_18  and  C14_19 
REMARK    7  A    between atoms: C14_19  and  N4_23 
REMARK    8  A    between atoms: N4_23  and  C16_25 
REMARK    9  A    between atoms: C24_33  and  C25_34 
REMARK   10  A    between atoms: C25_34  and  C26_35 
ROOT
HETATM    1  C9  UNL     1      41.497 -20.648  27.608  1.00  0.00     0.107 C 
HETATM    2  C10 UNL     1      41.022 -20.777  26.254  1.00  0.00     0.226 C 
HETATM    3  O2  UNL     1      40.988 -19.818  25.407  1.00  0.00    -0.273 OA
HETATM    4  N2  UNL     1      40.553 -22.012  25.767  1.00  0.00    -0.353 N 
ATOM      5  H2  UNL     1      39.829 -22.032  25.050  1.00  0.00     0.163 HD
HETATM    6  C11 UNL     1      41.103 -23.276  26.290  1.00  0.00     0.108 C 
HETATM    7  C23 UNL     1      41.264 -23.065  27.772  1.00  0.00     0.002 C 
HETATM    8  C24 UNL     1      41.438 -21.903  28.363  1.00  0.00    -0.059 C 
ENDROOT
BRANCH   6   9
HETATM    9  C12 UNL     1      40.155 -24.418  26.115  1.00  0.00     0.036 C 
BRANCH   9  10
HETATM   10  C13 UNL     1      38.736 -24.147  26.452  1.00  0.00     0.078 C 
BRANCH  10  11
HETATM   11  C14 UNL     1      37.743 -24.447  25.426  1.00  0.00     0.076 C 
HETATM   12  N3  UNL     1      37.199 -25.643  25.360  1.00  0.00    -0.389 N 
ATOM     13  H32 UNL     1      37.540 -26.289  26.071  1.00  0.00     0.157 HD
ATOM     14  H31 UNL     1      36.504 -25.853  24.643  1.00  0.00     0.157 HD
BRANCH  11  15
HETATM   15  N4  UNL     1      37.267 -23.548  24.436  1.00  0.00    -0.345 N 
HETATM   16  C15 UNL     1      38.003 -23.368  23.232  1.00  0.00     0.157 C 
BRANCH  15  17
HETATM   17  C16 UNL     1      36.058 -22.862  24.735  1.00  0.00     0.012 C 
HETATM   18  C17 UNL     1      35.989 -22.046  25.958  1.00  0.00     0.021 C 
HETATM   19  C18 UNL     1      36.858 -20.914  26.198  1.00  0.00    -0.025 C 
HETATM   20  C19 UNL     1      37.486 -20.151  25.112  1.00  0.00     0.027 C 
HETATM   21  C20 UNL     1      36.986 -20.314  23.738  1.00  0.00     0.004 C 
HETATM   22  C21 UNL     1      35.525 -20.658  23.630  1.00  0.00     0.006 C 
HETATM   23  C22 UNL     1      35.420 -22.147  23.571  1.00  0.00     0.057 C 
ENDBRANCH  15  17
ENDBRANCH  11  15
ENDBRANCH  10  11
ENDBRANCH   9  10
ENDBRANCH   6   9
BRANCH   8  24
HETATM   24  C25 UNL     1      41.560 -21.929  29.866  1.00  0.00     0.148 C 
BRANCH  24  25
HETATM   25  C26 UNL     1      42.959 -21.955  30.314  1.00  0.00     0.176 C 
HETATM   26  O3  UNL     1      43.628 -20.920  30.477  1.00  0.00    -0.648 OA
HETATM   27  O4  UNL     1      43.564 -23.182  30.568  1.00  0.00    -0.648 OA
ENDBRANCH  24  25
ENDBRANCH   8  24
BRANCH   1  28
HETATM   28  C8  UNL     1      40.938 -19.469  28.356  1.00  0.00     0.028 C 
BRANCH  28  29
HETATM   29  C7  UNL     1      39.464 -19.496  28.546  1.00  0.00     0.104 C 
BRANCH  29  30
HETATM   30  C6  UNL     1      39.081 -18.358  29.423  1.00  0.00     0.219 C 
HETATM   31  N1  UNL     1      38.087 -17.407  29.031  1.00  0.00    -0.352 N 
HETATM   32  C5  UNL     1      37.716 -16.299  29.884  1.00  0.00     0.125 C 
HETATM   33  C27 UNL     1      37.426 -17.543  27.755  1.00  0.00     0.130 C 
HETATM   34  C4  UNL     1      37.385 -15.049  29.106  1.00  0.00     0.020 C 
HETATM   35  C3  UNL     1      38.098 -15.144  27.765  1.00  0.00     0.007 C 
HETATM   36  C2  UNL     1      37.385 -16.241  26.995  1.00  0.00    -0.001 C 
HETATM   37  C1  UNL     1      37.988 -16.397  25.634  1.00  0.00     0.011 C 
HETATM   38  O1  UNL     1      39.626 -18.200  30.540  1.00  0.00    -0.273 OA
ENDBRANCH  29  30
ENDBRANCH  28  29
ENDBRANCH   1  28
TORSDOF 10
ENDMDL
