MODEL 1
REMARK VINA RESULT: -8.989589076      0.000      0.000
REMARK  12 active torsions:
REMARK  status: ('A' for Active; 'I' for Inactive)
REMARK    1  A    between atoms: C3_3  and  C4_4 
REMARK    2  A    between atoms: C4_4  and  O1_5 
REMARK    3  A    between atoms: O1_5  and  C5_6 
REMARK    4  A    between atoms: C8_9  and  N1_10 
REMARK    5  A    between atoms: N1_10  and  C9_12 
REMARK    6  A    between atoms: C10_15  and  N3_16 
REMARK    7  A    between atoms: C13_19  and  C14_20 
REMARK    8  A    between atoms: C14_20  and  O2_21 
REMARK    9  A    between atoms: C17_25  and  O3_26 
REMARK   10  A    between atoms: O3_26  and  C18_27 
REMARK   11  A    between atoms: C23_32  and  C24_33 
REMARK   12  A    between atoms: C25_35  and  O5_36 
ROOT
HETATM    1  C1  UNL     1      -8.553  11.432 -22.098  1.00  0.00     0.112 C 
HETATM    2  C2  UNL     1      -7.388  12.279 -22.337  1.00  0.00    -0.109 C 
HETATM    3  C3  UNL     1      -6.418  12.968 -22.516  1.00  0.00    -0.080 C 
ENDROOT
BRANCH   3   4
HETATM    4  C4  UNL     1      -5.230  13.796 -22.712  1.00  0.00     0.269 C 
BRANCH   4   5
HETATM    5  O1  UNL     1      -4.223  13.495 -21.772  1.00  0.00    -0.338 OA
BRANCH   5   6
HETATM    6  C5  UNL     1      -4.004  12.252 -21.239  1.00  0.00     0.091 A 
HETATM    7  C6  UNL     1      -4.731  11.724 -20.206  1.00  0.00     0.041 A 
HETATM    8  C7  UNL     1      -4.496  10.478 -19.686  1.00  0.00     0.033 A 
HETATM    9  C8  UNL     1      -3.482   9.725 -20.230  1.00  0.00     0.051 A 
HETATM   10  C30 UNL     1      -2.738  10.237 -21.271  1.00  0.00     0.056 A 
HETATM   11  C31 UNL     1      -2.987  11.496 -21.783  1.00  0.00     0.069 A 
HETATM   12 CL1  UNL     1      -1.991  12.077 -23.112  1.00  0.00    -0.081 Cl
BRANCH   9  13
HETATM   13  N1  UNL     1      -3.221   8.438 -19.712  1.00  0.00    -0.192 N 
ATOM     14  H1  UNL     1      -3.996   7.782 -19.619  1.00  0.00     0.184 HD
BRANCH  13  15
HETATM   15  C9  UNL     1      -2.023   8.051 -19.345  1.00  0.00     0.685 A 
HETATM   16  N2  UNL     1      -1.361   7.164 -20.076  1.00  0.00    -0.174 N 
HETATM   17  C10 UNL     1      -0.107   6.718 -19.744  1.00  0.00     0.155 A 
ATOM     18  H2  UNL     1      -1.803   6.799 -20.919  1.00  0.00     0.186 HD
HETATM   19  C17 UNL     1       0.493   7.199 -18.615  1.00  0.00     0.143 A 
HETATM   20  C23 UNL     1      -0.202   8.135 -17.851  1.00  0.00     0.120 A 
HETATM   21  N4  UNL     1      -1.436   8.540 -18.225  1.00  0.00    -0.186 N 
ATOM     22  H4  UNL     1      -1.934   9.224 -17.655  1.00  0.00     0.184 HD
BRANCH  17  23
HETATM   23  N3  UNL     1       0.550   5.803 -20.606  1.00  0.00    -0.364 N 
HETATM   24  C11 UNL     1       1.294   6.188 -21.798  1.00  0.00     0.125 C 
HETATM   25  C12 UNL     1       0.676   5.553 -23.035  1.00  0.00     0.026 C 
HETATM   26  C13 UNL     1       0.089   4.197 -22.706  1.00  0.00     0.012 C 
HETATM   27  C15 UNL     1       0.864   3.615 -21.519  1.00  0.00     0.026 C 
HETATM   28  C16 UNL     1       0.475   4.392 -20.305  1.00  0.00     0.125 C 
BRANCH  26  29
HETATM   29  C14 UNL     1       0.160   3.242 -23.852  1.00  0.00     0.168 C 
BRANCH  29  30
HETATM   30  O2  UNL     1      -0.276   1.994 -23.462  1.00  0.00    -0.400 OA
ATOM     31  H2  UNL     1       0.461   1.403 -23.363  1.00  0.00     0.209 HD
ENDBRANCH  29  30
ENDBRANCH  26  29
ENDBRANCH  17  23
BRANCH  19  32
HETATM   32  O3  UNL     1       1.741   6.786 -18.215  1.00  0.00    -0.340 OA
BRANCH  32  33
HETATM   33  C18 UNL     1       1.940   5.780 -17.239  1.00  0.00     0.129 C 
HETATM   34  C19 UNL     1       0.734   5.117 -16.691  1.00  0.00     0.032 C 
HETATM   35  C20 UNL     1       1.185   4.561 -15.333  1.00  0.00     0.002 C 
HETATM   36  C21 UNL     1       2.008   5.716 -14.820  1.00  0.00     0.002 C 
HETATM   37  C22 UNL     1       2.738   6.242 -16.040  1.00  0.00     0.032 C 
ENDBRANCH  32  33
ENDBRANCH  19  32
BRANCH  20  38
HETATM   38  C24 UNL     1       0.422   8.858 -16.729  1.00  0.00     0.114 A 
HETATM   39  O4  UNL     1       0.052   8.723 -15.474  1.00  0.00    -0.285 OA
HETATM   40  C25 UNL     1       0.755   9.467 -14.700  1.00  0.00     0.185 A 
HETATM   41  C27 UNL     1       1.657  10.152 -15.462  1.00  0.00     0.073 A 
HETATM   42  C28 UNL     1       1.431   9.749 -16.777  1.00  0.00    -0.021 A 
HETATM   43  C29 UNL     1       2.196  10.307 -17.920  1.00  0.00     0.051 C 
BRANCH  40  44
HETATM   44  O5  UNL     1       0.639   9.579 -13.300  1.00  0.00    -0.335 OA
HETATM   45  C26 UNL     1       1.210  10.682 -12.623  1.00  0.00     0.212 C 
ENDBRANCH  40  44
ENDBRANCH  20  38
ENDBRANCH  13  15
ENDBRANCH   9  13
ENDBRANCH   5   6
ENDBRANCH   4   5
ENDBRANCH   3   4
TORSDOF 12
ENDMDL
MODEL 2
REMARK VINA RESULT: -8.802527440      1.399      1.643
REMARK  12 active torsions:
REMARK  status: ('A' for Active; 'I' for Inactive)
REMARK    1  A    between atoms: C3_3  and  C4_4 
REMARK    2  A    between atoms: C4_4  and  O1_5 
REMARK    3  A    between atoms: O1_5  and  C5_6 
REMARK    4  A    between atoms: C8_9  and  N1_10 
REMARK    5  A    between atoms: N1_10  and  C9_12 
REMARK    6  A    between atoms: C10_15  and  N3_16 
REMARK    7  A    between atoms: C13_19  and  C14_20 
REMARK    8  A    between atoms: C14_20  and  O2_21 
REMARK    9  A    between atoms: C17_25  and  O3_26 
REMARK   10  A    between atoms: O3_26  and  C18_27 
REMARK   11  A    between atoms: C23_32  and  C24_33 
REMARK   12  A    between atoms: C25_35  and  O5_36 
ROOT
HETATM    1  C1  UNL     1      -8.526  11.563 -22.164  1.00  0.00     0.112 C 
HETATM    2  C2  UNL     1      -7.252  12.264 -22.289  1.00  0.00    -0.109 C 
HETATM    3  C3  UNL     1      -6.203  12.848 -22.371  1.00  0.00    -0.080 C 
ENDROOT
BRANCH   3   4
HETATM    4  C4  UNL     1      -4.930  13.562 -22.445  1.00  0.00     0.269 C 
BRANCH   4   5
HETATM    5  O1  UNL     1      -3.996  13.064 -21.515  1.00  0.00    -0.338 OA
BRANCH   5   6
HETATM    6  C5  UNL     1      -3.519  11.779 -21.504  1.00  0.00     0.091 A 
HETATM    7  C6  UNL     1      -2.606  11.295 -22.401  1.00  0.00     0.041 A 
HETATM    8  C7  UNL     1      -2.140  10.006 -22.374  1.00  0.00     0.033 A 
HETATM    9  C8  UNL     1      -2.616   9.162 -21.398  1.00  0.00     0.051 A 
HETATM   10  C30 UNL     1      -3.535   9.629 -20.484  1.00  0.00     0.056 A 
HETATM   11  C31 UNL     1      -3.995  10.931 -20.525  1.00  0.00     0.069 A 
HETATM   12 CL1  UNL     1      -5.170  11.449 -19.323  1.00  0.00    -0.081 Cl
BRANCH   9  13
HETATM   13  N1  UNL     1      -2.151   7.829 -21.348  1.00  0.00    -0.192 N 
ATOM     14  H1  UNL     1      -2.622   7.126 -21.917  1.00  0.00     0.184 HD
BRANCH  13  15
HETATM   15  C9  UNL     1      -1.141   7.458 -20.600  1.00  0.00     0.685 A 
HETATM   16  N2  UNL     1      -0.481   6.344 -20.884  1.00  0.00    -0.174 N 
HETATM   17  C10 UNL     1       0.582   5.901 -20.139  1.00  0.00     0.155 A 
ATOM     18  H2  UNL     1      -0.776   5.793 -21.691  1.00  0.00     0.186 HD
HETATM   19  C17 UNL     1       0.984   6.629 -19.056  1.00  0.00     0.143 A 
HETATM   20  C23 UNL     1       0.292   7.802 -18.761  1.00  0.00     0.120 A 
HETATM   21  N4  UNL     1      -0.748   8.193 -19.530  1.00  0.00    -0.186 N 
ATOM     22  H4  UNL     1      -1.246   9.053 -19.301  1.00  0.00     0.184 HD
BRANCH  17  23
HETATM   23  N3  UNL     1       1.262   4.722 -20.541  1.00  0.00    -0.364 N 
HETATM   24  C11 UNL     1       2.354   4.693 -21.504  1.00  0.00     0.125 C 
HETATM   25  C12 UNL     1       1.981   3.831 -22.702  1.00  0.00     0.026 C 
HETATM   26  C13 UNL     1       1.085   2.686 -22.279  1.00  0.00     0.012 C 
HETATM   27  C15 UNL     1       1.394   2.350 -20.816  1.00  0.00     0.026 C 
HETATM   28  C16 UNL     1       0.848   3.458 -19.977  1.00  0.00     0.125 C 
BRANCH  26  29
HETATM   29  C14 UNL     1       1.279   1.462 -23.113  1.00  0.00     0.168 C 
BRANCH  29  30
HETATM   30  O2  UNL     1       0.849   0.345 -22.430  1.00  0.00    -0.400 OA
ATOM     31  H2  UNL     1      -0.075   0.194 -22.594  1.00  0.00     0.209 HD
ENDBRANCH  29  30
ENDBRANCH  26  29
ENDBRANCH  17  23
BRANCH  19  32
HETATM   32  O3  UNL     1       2.032   6.237 -18.257  1.00  0.00    -0.340 OA
BRANCH  32  33
HETATM   33  C18 UNL     1       1.852   5.501 -17.062  1.00  0.00     0.129 C 
HETATM   34  C19 UNL     1       0.473   5.069 -16.730  1.00  0.00     0.032 C 
HETATM   35  C20 UNL     1       0.495   4.849 -15.212  1.00  0.00     0.002 C 
HETATM   36  C21 UNL     1       1.299   6.045 -14.769  1.00  0.00     0.002 C 
HETATM   37  C22 UNL     1       2.373   6.202 -15.827  1.00  0.00     0.032 C 
ENDBRANCH  32  33
ENDBRANCH  19  32
BRANCH  20  38
HETATM   38  C24 UNL     1       0.758   8.757 -17.740  1.00  0.00     0.114 A 
HETATM   39  O4  UNL     1       0.200   8.893 -16.556  1.00  0.00    -0.285 OA
HETATM   40  C25 UNL     1       0.796   9.794 -15.863  1.00  0.00     0.185 A 
HETATM   41  C27 UNL     1       1.818  10.308 -16.609  1.00  0.00     0.073 A 
HETATM   42  C28 UNL     1       1.783   9.627 -17.825  1.00  0.00    -0.021 A 
HETATM   43  C29 UNL     1       2.723   9.932 -18.931  1.00  0.00     0.051 C 
BRANCH  40  44
HETATM   44  O5  UNL     1       0.473  10.206 -14.554  1.00  0.00    -0.335 OA
HETATM   45  C26 UNL     1       1.041   9.547 -13.439  1.00  0.00     0.212 C 
ENDBRANCH  40  44
ENDBRANCH  20  38
ENDBRANCH  13  15
ENDBRANCH   9  13
ENDBRANCH   5   6
ENDBRANCH   4   5
ENDBRANCH   3   4
TORSDOF 12
ENDMDL
MODEL 3
REMARK VINA RESULT: -8.725157124      2.384      5.456
REMARK  12 active torsions:
REMARK  status: ('A' for Active; 'I' for Inactive)
REMARK    1  A    between atoms: C3_3  and  C4_4 
REMARK    2  A    between atoms: C4_4  and  O1_5 
REMARK    3  A    between atoms: O1_5  and  C5_6 
REMARK    4  A    between atoms: C8_9  and  N1_10 
REMARK    5  A    between atoms: N1_10  and  C9_12 
REMARK    6  A    between atoms: C10_15  and  N3_16 
REMARK    7  A    between atoms: C13_19  and  C14_20 
REMARK    8  A    between atoms: C14_20  and  O2_21 
REMARK    9  A    between atoms: C17_25  and  O3_26 
REMARK   10  A    between atoms: O3_26  and  C18_27 
REMARK   11  A    between atoms: C23_32  and  C24_33 
REMARK   12  A    between atoms: C25_35  and  O5_36 
ROOT
HETATM    1  C1  UNL     1      -8.526  11.706 -22.018  1.00  0.00     0.112 C 
HETATM    2  C2  UNL     1      -7.236  12.354 -22.238  1.00  0.00    -0.109 C 
HETATM    3  C3  UNL     1      -6.163  12.868 -22.416  1.00  0.00    -0.080 C 
ENDROOT
BRANCH   3   4
HETATM    4  C4  UNL     1      -4.849  13.471 -22.627  1.00  0.00     0.269 C 
BRANCH   4   5
HETATM    5  O1  UNL     1      -3.835  12.496 -22.713  1.00  0.00    -0.338 OA
BRANCH   5   6
HETATM    6  C5  UNL     1      -3.455  11.676 -21.683  1.00  0.00     0.091 A 
HETATM    7  C6  UNL     1      -4.235  10.673 -21.176  1.00  0.00     0.041 A 
HETATM    8  C7  UNL     1      -3.836   9.863 -20.144  1.00  0.00     0.033 A 
HETATM    9  C8  UNL     1      -2.593  10.071 -19.596  1.00  0.00     0.051 A 
HETATM   10  C30 UNL     1      -1.790  11.075 -20.092  1.00  0.00     0.056 A 
HETATM   11  C31 UNL     1      -2.207  11.883 -21.132  1.00  0.00     0.069 A 
HETATM   12 CL1  UNL     1      -1.123  13.144 -21.707  1.00  0.00    -0.081 Cl
BRANCH   9  13
HETATM   13  N1  UNL     1      -2.158   9.250 -18.532  1.00  0.00    -0.192 N 
ATOM     14  H1  UNL     1      -2.472   9.468 -17.587  1.00  0.00     0.184 HD
BRANCH  13  15
HETATM   15  C9  UNL     1      -1.369   8.218 -18.710  1.00  0.00     0.685 A 
HETATM   16  N2  UNL     1      -0.758   7.665 -17.672  1.00  0.00    -0.174 N 
HETATM   17  C10 UNL     1       0.082   6.587 -17.793  1.00  0.00     0.155 A 
ATOM     18  H2  UNL     1      -0.919   8.058 -16.744  1.00  0.00     0.186 HD
HETATM   19  C17 UNL     1       0.307   6.056 -19.031  1.00  0.00     0.143 A 
HETATM   20  C23 UNL     1      -0.340   6.635 -20.120  1.00  0.00     0.120 A 
HETATM   21  N4  UNL     1      -1.158   7.696 -19.944  1.00  0.00    -0.186 N 
ATOM     22  H4  UNL     1      -1.624   8.111 -20.751  1.00  0.00     0.184 HD
BRANCH  17  23
HETATM   23  N3  UNL     1       0.658   6.028 -16.623  1.00  0.00    -0.364 N 
HETATM   24  C11 UNL     1       1.920   6.465 -16.041  1.00  0.00     0.125 C 
HETATM   25  C12 UNL     1       2.919   5.318 -16.021  1.00  0.00     0.026 C 
HETATM   26  C13 UNL     1       2.212   3.995 -15.815  1.00  0.00     0.012 C 
HETATM   27  C15 UNL     1       0.919   4.258 -15.036  1.00  0.00     0.026 C 
HETATM   28  C16 UNL     1      -0.031   4.944 -15.961  1.00  0.00     0.125 C 
BRANCH  26  29
HETATM   29  C14 UNL     1       3.043   3.005 -15.065  1.00  0.00     0.168 C 
BRANCH  29  30
HETATM   30  O2  UNL     1       2.322   1.853 -14.837  1.00  0.00    -0.400 OA
ATOM     31  H2  UNL     1       1.806   1.939 -14.044  1.00  0.00     0.209 HD
ENDBRANCH  29  30
ENDBRANCH  26  29
ENDBRANCH  17  23
BRANCH  19  32
HETATM   32  O3  UNL     1       1.146   4.985 -19.227  1.00  0.00    -0.340 OA
BRANCH  32  33
HETATM   33  C18 UNL     1       2.423   5.111 -19.825  1.00  0.00     0.129 C 
HETATM   34  C19 UNL     1       3.440   4.090 -19.480  1.00  0.00     0.032 C 
HETATM   35  C20 UNL     1       4.783   4.773 -19.768  1.00  0.00     0.002 C 
HETATM   36  C21 UNL     1       4.521   6.149 -19.206  1.00  0.00     0.002 C 
HETATM   37  C22 UNL     1       3.083   6.450 -19.579  1.00  0.00     0.032 C 
ENDBRANCH  32  33
ENDBRANCH  19  32
BRANCH  20  38
HETATM   38  C24 UNL     1      -0.322   6.027 -21.463  1.00  0.00     0.114 A 
HETATM   39  O4  UNL     1      -0.515   4.746 -21.689  1.00  0.00    -0.285 OA
HETATM   40  C25 UNL     1      -0.444   4.480 -22.943  1.00  0.00     0.185 A 
HETATM   41  C27 UNL     1      -0.188   5.640 -23.616  1.00  0.00     0.073 A 
HETATM   42  C28 UNL     1      -0.110   6.637 -22.645  1.00  0.00    -0.021 A 
HETATM   43  C29 UNL     1       0.197   8.049 -22.982  1.00  0.00     0.051 C 
BRANCH  40  44
HETATM   44  O5  UNL     1      -0.599   3.218 -23.550  1.00  0.00    -0.335 OA
HETATM   45  C26 UNL     1       0.536   2.454 -23.908  1.00  0.00     0.212 C 
ENDBRANCH  40  44
ENDBRANCH  20  38
ENDBRANCH  13  15
ENDBRANCH   9  13
ENDBRANCH   5   6
ENDBRANCH   4   5
ENDBRANCH   3   4
TORSDOF 12
ENDMDL
MODEL 4
REMARK VINA RESULT: -8.715158120      1.082      1.467
REMARK  12 active torsions:
REMARK  status: ('A' for Active; 'I' for Inactive)
REMARK    1  A    between atoms: C3_3  and  C4_4 
REMARK    2  A    between atoms: C4_4  and  O1_5 
REMARK    3  A    between atoms: O1_5  and  C5_6 
REMARK    4  A    between atoms: C8_9  and  N1_10 
REMARK    5  A    between atoms: N1_10  and  C9_12 
REMARK    6  A    between atoms: C10_15  and  N3_16 
REMARK    7  A    between atoms: C13_19  and  C14_20 
REMARK    8  A    between atoms: C14_20  and  O2_21 
REMARK    9  A    between atoms: C17_25  and  O3_26 
REMARK   10  A    between atoms: O3_26  and  C18_27 
REMARK   11  A    between atoms: C23_32  and  C24_33 
REMARK   12  A    between atoms: C25_35  and  O5_36 
ROOT
HETATM    1  C1  UNL     1      -8.622  11.492 -22.184  1.00  0.00     0.112 C 
HETATM    2  C2  UNL     1      -7.412  12.291 -22.352  1.00  0.00    -0.109 C 
HETATM    3  C3  UNL     1      -6.419  12.952 -22.512  1.00  0.00    -0.080 C 
ENDROOT
BRANCH   3   4
HETATM    4  C4  UNL     1      -5.219  13.757 -22.730  1.00  0.00     0.269 C 
BRANCH   4   5
HETATM    5  O1  UNL     1      -4.231  13.496 -21.759  1.00  0.00    -0.338 OA
BRANCH   5   6
HETATM    6  C5  UNL     1      -3.940  12.253 -21.261  1.00  0.00     0.091 A 
HETATM    7  C6  UNL     1      -4.625  11.661 -20.235  1.00  0.00     0.041 A 
HETATM    8  C7  UNL     1      -4.319  10.416 -19.751  1.00  0.00     0.033 A 
HETATM    9  C8  UNL     1      -3.273   9.733 -20.324  1.00  0.00     0.051 A 
HETATM   10  C30 UNL     1      -2.569  10.310 -21.359  1.00  0.00     0.056 A 
HETATM   11  C31 UNL     1      -2.890  11.566 -21.836  1.00  0.00     0.069 A 
HETATM   12 CL1  UNL     1      -1.943  12.234 -23.159  1.00  0.00    -0.081 Cl
BRANCH   9  13
HETATM   13  N1  UNL     1      -2.937   8.448 -19.843  1.00  0.00    -0.192 N 
ATOM     14  H1  UNL     1      -3.670   7.742 -19.781  1.00  0.00     0.184 HD
BRANCH  13  15
HETATM   15  C9  UNL     1      -1.721   8.126 -19.473  1.00  0.00     0.685 A 
HETATM   16  N2  UNL     1      -1.079   7.144 -20.092  1.00  0.00    -0.174 N 
HETATM   17  C10 UNL     1       0.191   6.758 -19.750  1.00  0.00     0.155 A 
ATOM     18  H2  UNL     1      -1.550   6.656 -20.854  1.00  0.00     0.186 HD
HETATM   19  C17 UNL     1       0.830   7.402 -18.728  1.00  0.00     0.143 A 
HETATM   20  C23 UNL     1       0.155   8.436 -18.082  1.00  0.00     0.120 A 
HETATM   21  N4  UNL     1      -1.096   8.776 -18.461  1.00  0.00    -0.186 N 
ATOM     22  H4  UNL     1      -1.578   9.534 -17.978  1.00  0.00     0.184 HD
BRANCH  17  23
HETATM   23  N3  UNL     1       0.823   5.729 -20.495  1.00  0.00    -0.364 N 
HETATM   24  C11 UNL     1       1.657   5.958 -21.666  1.00  0.00     0.125 C 
HETATM   25  C12 UNL     1       1.062   5.267 -22.884  1.00  0.00     0.026 C 
HETATM   26  C13 UNL     1       0.358   3.988 -22.482  1.00  0.00     0.012 C 
HETATM   27  C15 UNL     1       1.021   3.455 -21.208  1.00  0.00     0.026 C 
HETATM   28  C16 UNL     1       0.627   4.357 -20.086  1.00  0.00     0.125 C 
BRANCH  26  29
HETATM   29  C14 UNL     1       0.419   2.936 -23.542  1.00  0.00     0.168 C 
BRANCH  29  30
HETATM   30  O2  UNL     1      -0.425   1.893 -23.229  1.00  0.00    -0.400 OA
ATOM     31  H2  UNL     1       0.022   1.062 -23.343  1.00  0.00     0.209 HD
ENDBRANCH  29  30
ENDBRANCH  26  29
ENDBRANCH  17  23
BRANCH  19  32
HETATM   32  O3  UNL     1       2.098   7.058 -18.323  1.00  0.00    -0.340 OA
BRANCH  32  33
HETATM   33  C18 UNL     1       2.345   6.138 -17.277  1.00  0.00     0.129 C 
HETATM   34  C19 UNL     1       1.168   5.539 -16.605  1.00  0.00     0.032 C 
HETATM   35  C20 UNL     1       1.692   5.097 -15.232  1.00  0.00     0.002 C 
HETATM   36  C21 UNL     1       2.552   6.281 -14.869  1.00  0.00     0.002 C 
HETATM   37  C22 UNL     1       3.215   6.691 -16.170  1.00  0.00     0.032 C 
ENDBRANCH  32  33
ENDBRANCH  19  32
BRANCH  20  38
HETATM   38  C24 UNL     1       0.816   9.319 -17.105  1.00  0.00     0.114 A 
HETATM   39  O4  UNL     1       1.757  10.183 -17.417  1.00  0.00    -0.285 OA
HETATM   40  C25 UNL     1       2.164  10.821 -16.381  1.00  0.00     0.185 A 
HETATM   41  C27 UNL     1       1.466  10.374 -15.296  1.00  0.00     0.073 A 
HETATM   42  C28 UNL     1       0.595   9.398 -15.778  1.00  0.00    -0.021 A 
HETATM   43  C29 UNL     1      -0.315   8.639 -14.886  1.00  0.00     0.051 C 
BRANCH  40  44
HETATM   44  O5  UNL     1       3.159  11.819 -16.338  1.00  0.00    -0.335 OA
HETATM   45  C26 UNL     1       4.523  11.472 -16.464  1.00  0.00     0.212 C 
ENDBRANCH  40  44
ENDBRANCH  20  38
ENDBRANCH  13  15
ENDBRANCH   9  13
ENDBRANCH   5   6
ENDBRANCH   4   5
ENDBRANCH   3   4
TORSDOF 12
ENDMDL
MODEL 5
REMARK VINA RESULT: -8.695644797      1.691      5.641
REMARK  12 active torsions:
REMARK  status: ('A' for Active; 'I' for Inactive)
REMARK    1  A    between atoms: C3_3  and  C4_4 
REMARK    2  A    between atoms: C4_4  and  O1_5 
REMARK    3  A    between atoms: O1_5  and  C5_6 
REMARK    4  A    between atoms: C8_9  and  N1_10 
REMARK    5  A    between atoms: N1_10  and  C9_12 
REMARK    6  A    between atoms: C10_15  and  N3_16 
REMARK    7  A    between atoms: C13_19  and  C14_20 
REMARK    8  A    between atoms: C14_20  and  O2_21 
REMARK    9  A    between atoms: C17_25  and  O3_26 
REMARK   10  A    between atoms: O3_26  and  C18_27 
REMARK   11  A    between atoms: C23_32  and  C24_33 
REMARK   12  A    between atoms: C25_35  and  O5_36 
ROOT
HETATM    1  C1  UNL     1      -8.504  11.574 -22.245  1.00  0.00     0.112 C 
HETATM    2  C2  UNL     1      -7.250  12.313 -22.353  1.00  0.00    -0.109 C 
HETATM    3  C3  UNL     1      -6.211  12.916 -22.421  1.00  0.00    -0.080 C 
ENDROOT
BRANCH   3   4
HETATM    4  C4  UNL     1      -4.943  13.641 -22.481  1.00  0.00     0.269 C 
BRANCH   4   5
HETATM    5  O1  UNL     1      -4.032  13.179 -21.509  1.00  0.00    -0.338 OA
BRANCH   5   6
HETATM    6  C5  UNL     1      -3.637  11.874 -21.371  1.00  0.00     0.091 A 
HETATM    7  C6  UNL     1      -2.693  11.273 -22.158  1.00  0.00     0.041 A 
HETATM    8  C7  UNL     1      -2.312   9.966 -22.005  1.00  0.00     0.033 A 
HETATM    9  C8  UNL     1      -2.908   9.226 -21.011  1.00  0.00     0.051 A 
HETATM   10  C30 UNL     1      -3.861   9.811 -20.206  1.00  0.00     0.056 A 
HETATM   11  C31 UNL     1      -4.235  11.130 -20.375  1.00  0.00     0.069 A 
HETATM   12 CL1  UNL     1      -5.460  11.803 -19.306  1.00  0.00    -0.081 Cl
BRANCH   9  13
HETATM   13  N1  UNL     1      -2.533   7.876 -20.832  1.00  0.00    -0.192 N 
ATOM     14  H1  UNL     1      -3.111   7.148 -21.250  1.00  0.00     0.184 HD
BRANCH  13  15
HETATM   15  C9  UNL     1      -1.472   7.521 -20.149  1.00  0.00     0.685 A 
HETATM   16  N2  UNL     1      -1.148   8.174 -19.042  1.00  0.00    -0.174 N 
HETATM   17  C10 UNL     1      -0.049   7.853 -18.285  1.00  0.00     0.155 A 
ATOM     18  H2  UNL     1      -1.740   8.948 -18.740  1.00  0.00     0.186 HD
HETATM   19  C17 UNL     1       0.752   6.821 -18.683  1.00  0.00     0.143 A 
HETATM   20  C23 UNL     1       0.408   6.132 -19.844  1.00  0.00     0.120 A 
HETATM   21  N4  UNL     1      -0.687   6.491 -20.551  1.00  0.00    -0.186 N 
ATOM     22  H4  UNL     1      -0.926   5.979 -21.400  1.00  0.00     0.184 HD
BRANCH  17  23
HETATM   23  N3  UNL     1       0.199   8.574 -17.089  1.00  0.00    -0.364 N 
HETATM   24  C11 UNL     1       1.225   9.598 -16.946  1.00  0.00     0.125 C 
HETATM   25  C12 UNL     1       2.227   9.196 -15.874  1.00  0.00     0.026 C 
HETATM   26  C13 UNL     1       1.550   8.403 -14.777  1.00  0.00     0.012 C 
HETATM   27  C15 UNL     1       0.080   8.830 -14.714  1.00  0.00     0.026 C 
HETATM   28  C16 UNL     1      -0.600   8.276 -15.923  1.00  0.00     0.125 C 
BRANCH  26  29
HETATM   29  C14 UNL     1       2.178   8.613 -13.438  1.00  0.00     0.168 C 
BRANCH  29  30
HETATM   30  O2  UNL     1       1.705   7.684 -12.537  1.00  0.00    -0.400 OA
ATOM     31  H2  UNL     1       2.202   6.876 -12.605  1.00  0.00     0.209 HD
ENDBRANCH  29  30
ENDBRANCH  26  29
ENDBRANCH  17  23
BRANCH  19  32
HETATM   32  O3  UNL     1       1.876   6.454 -17.981  1.00  0.00    -0.340 OA
BRANCH  32  33
HETATM   33  C18 UNL     1       1.936   5.284 -17.186  1.00  0.00     0.129 C 
HETATM   34  C19 UNL     1       0.737   4.944 -16.385  1.00  0.00     0.032 C 
HETATM   35  C20 UNL     1       1.270   4.052 -15.256  1.00  0.00     0.002 C 
HETATM   36  C21 UNL     1       2.535   4.788 -14.893  1.00  0.00     0.002 C 
HETATM   37  C22 UNL     1       3.099   5.262 -16.219  1.00  0.00     0.032 C 
ENDBRANCH  32  33
ENDBRANCH  19  32
BRANCH  20  38
HETATM   38  C24 UNL     1       1.086   4.890 -20.255  1.00  0.00     0.114 A 
HETATM   39  O4  UNL     1       0.584   3.688 -20.076  1.00  0.00    -0.285 OA
HETATM   40  C25 UNL     1       1.377   2.783 -20.521  1.00  0.00     0.185 A 
HETATM   41  C27 UNL     1       2.486   3.393 -21.034  1.00  0.00     0.073 A 
HETATM   42  C28 UNL     1       2.285   4.761 -20.855  1.00  0.00    -0.021 A 
HETATM   43  C29 UNL     1       3.298   5.768 -21.254  1.00  0.00     0.051 C 
BRANCH  40  44
HETATM   44  O5  UNL     1       1.168   1.389 -20.498  1.00  0.00    -0.335 OA
HETATM   45  C26 UNL     1       1.516   0.597 -21.616  1.00  0.00     0.212 C 
ENDBRANCH  40  44
ENDBRANCH  20  38
ENDBRANCH  13  15
ENDBRANCH   9  13
ENDBRANCH   5   6
ENDBRANCH   4   5
ENDBRANCH   3   4
TORSDOF 12
ENDMDL
