MODEL 1
REMARK VINA RESULT: -8.269715920      0.000      0.000
REMARK  11 active torsions:
REMARK  status: ('A' for Active; 'I' for Inactive)
REMARK    1  A    between atoms: C2_2  and  C3_3 
REMARK    2  A    between atoms: C3_3  and  C4_4 
REMARK    3  A    between atoms: C5_5  and  O1_6 
REMARK    4  A    between atoms: O1_6  and  C6_7 
REMARK    5  A    between atoms: C6_7  and  C7_8 
REMARK    6  A    between atoms: C7_8  and  C8_9 
REMARK    7  A    between atoms: C8_9  and  N1_10 
REMARK    8  A    between atoms: C14_16  and  C15_17 
REMARK       I    between atoms: C15_17  and  N2_19 
REMARK    9  A    between atoms: N2_19  and  C16_21 
REMARK   10  A    between atoms: C22_33  and  N5_34 
REMARK   11  A    between atoms: N5_34  and  C23_36 
ROOT
HETATM    1  C4  UNL     1      -0.404   6.905 -19.214  1.00  0.00     0.004 A 
HETATM    2  C5  UNL     1      -0.962   8.024 -18.576  1.00  0.00     0.093 A 
HETATM    3  C14 UNL     1      -1.813   8.828 -19.287  1.00  0.00     0.067 A 
HETATM    4  C19 UNL     1      -2.132   8.537 -20.623  1.00  0.00     0.035 A 
HETATM    5  C20 UNL     1      -1.577   7.431 -21.229  1.00  0.00     0.009 A 
HETATM    6  C21 UNL     1      -1.870   7.116 -22.539  1.00  0.00     0.120 A 
HETATM    7  N4  UNL     1      -1.318   6.041 -23.086  1.00  0.00    -0.201 N 
ATOM      8  H4  UNL     1      -1.538   5.810 -24.055  1.00  0.00     0.183 HD
HETATM    9  C22 UNL     1      -0.468   5.240 -22.393  1.00  0.00     0.684 A 
HETATM   10  N7  UNL     1      -0.191   5.549 -21.136  1.00  0.00    -0.190 N 
ATOM     11  H7  UNL     1       0.446   4.950 -20.612  1.00  0.00     0.184 HD
HETATM   12  C27 UNL     1      -0.723   6.632 -20.521  1.00  0.00     0.070 A 
ENDROOT
BRANCH   3  13
HETATM   13  C15 UNL     1      -2.333  10.092 -18.789  1.00  0.00     0.260 C 
HETATM   14  O2  UNL     1      -2.892  10.107 -17.645  1.00  0.00    -0.267 OA
HETATM   15  N2  UNL     1      -2.239  11.286 -19.550  1.00  0.00    -0.303 N 
ATOM     16  H2  UNL     1      -1.378  11.828 -19.619  1.00  0.00     0.171 HD
BRANCH  15  17
HETATM   17  C16 UNL     1      -3.354  11.638 -20.158  1.00  0.00     0.152 A 
HETATM   18  N3  UNL     1      -4.597  11.536 -19.687  1.00  0.00    -0.344 N 
HETATM   19  C17 UNL     1      -5.585  11.935 -20.434  1.00  0.00     0.121 A 
ATOM     20  H3  UNL     1      -4.770  11.151 -18.758  1.00  0.00     0.167 HD
HETATM   21  C18 UNL     1      -5.286  12.441 -21.672  1.00  0.00     0.093 A 
HETATM   22 CL1  UNL     1      -6.410  13.056 -22.897  1.00  0.00    -0.075 Cl
HETATM   23  S1  UNL     1      -3.584  12.320 -21.705  1.00  0.00    -0.040 SA
ENDBRANCH  15  17
ENDBRANCH   3  13
BRANCH   2  24
HETATM   24  O1  UNL     1      -0.665   8.307 -17.255  1.00  0.00    -0.349 OA
BRANCH  24  25
HETATM   25  C6  UNL     1       0.311   9.159 -16.765  1.00  0.00     0.177 C 
BRANCH  25  26
HETATM   26  C7  UNL     1       1.068   8.541 -15.577  1.00  0.00     0.057 C 
BRANCH  26  27
HETATM   27  C8  UNL     1       0.228   7.412 -15.104  1.00  0.00     0.274 C 
BRANCH  27  28
HETATM   28  N1  UNL     1       0.927   6.225 -14.705  1.00  0.00     0.088 N 
HETATM   29  C9  UNL     1       2.317   6.245 -15.120  1.00  0.00     0.272 C 
HETATM   30  C10 UNL     1       3.122   5.141 -14.518  1.00  0.00     0.030 C 
HETATM   31  C11 UNL     1       2.485   3.825 -14.914  1.00  0.00     0.003 C 
HETATM   32  C12 UNL     1       1.196   4.028 -15.661  1.00  0.00     0.030 C 
HETATM   33  C13 UNL     1       0.264   5.008 -14.974  1.00  0.00     0.272 C 
ENDBRANCH  27  28
ENDBRANCH  26  27
ENDBRANCH  25  26
ENDBRANCH  24  25
ENDBRANCH   2  24
BRANCH   1  34
HETATM   34  C3  UNL     1       0.554   6.133 -18.414  1.00  0.00     0.043 C 
BRANCH  34  35
HETATM   35  C2  UNL     1       1.950   6.661 -18.820  1.00  0.00     0.000 C 
HETATM   36  C1  UNL     1       2.951   5.565 -18.817  1.00  0.00     0.005 C 
ENDBRANCH  34  35
ENDBRANCH   1  34
BRANCH   9  37
HETATM   37  N5  UNL     1       0.018   4.259 -22.995  1.00  0.00    -0.170 N 
ATOM     38  H5  UNL     1      -0.205   4.188 -23.988  1.00  0.00     0.186 HD
BRANCH  37  39
HETATM   39  C23 UNL     1       0.851   3.221 -22.460  1.00  0.00     0.164 A 
HETATM   40  N6  UNL     1       0.445   2.049 -21.962  1.00  0.00    -0.340 N 
HETATM   41  C24 UNL     1       1.312   1.211 -21.511  1.00  0.00     0.014 A 
ATOM     42  H6  UNL     1      -0.548   1.819 -21.940  1.00  0.00     0.168 HD
HETATM   43  C25 UNL     1       0.913  -0.135 -20.928  1.00  0.00     0.068 C 
HETATM   44  C26 UNL     1       2.640   1.566 -21.561  1.00  0.00     0.077 A 
HETATM   45  S2  UNL     1       2.544   3.116 -22.271  1.00  0.00    -0.063 SA
ENDBRANCH  37  39
ENDBRANCH   9  37
TORSDOF 11
ENDMDL
MODEL 2
REMARK VINA RESULT: -8.190020623      1.368      2.493
REMARK  11 active torsions:
REMARK  status: ('A' for Active; 'I' for Inactive)
REMARK    1  A    between atoms: C2_2  and  C3_3 
REMARK    2  A    between atoms: C3_3  and  C4_4 
REMARK    3  A    between atoms: C5_5  and  O1_6 
REMARK    4  A    between atoms: O1_6  and  C6_7 
REMARK    5  A    between atoms: C6_7  and  C7_8 
REMARK    6  A    between atoms: C7_8  and  C8_9 
REMARK    7  A    between atoms: C8_9  and  N1_10 
REMARK    8  A    between atoms: C14_16  and  C15_17 
REMARK       I    between atoms: C15_17  and  N2_19 
REMARK    9  A    between atoms: N2_19  and  C16_21 
REMARK   10  A    between atoms: C22_33  and  N5_34 
REMARK   11  A    between atoms: N5_34  and  C23_36 
ROOT
HETATM    1  C4  UNL     1      -0.186   6.766 -19.149  1.00  0.00     0.004 A 
HETATM    2  C5  UNL     1      -0.723   7.875 -18.474  1.00  0.00     0.093 A 
HETATM    3  C14 UNL     1      -1.653   8.647 -19.116  1.00  0.00     0.067 A 
HETATM    4  C19 UNL     1      -2.073   8.336 -20.419  1.00  0.00     0.035 A 
HETATM    5  C20 UNL     1      -1.538   7.242 -21.062  1.00  0.00     0.009 A 
HETATM    6  C21 UNL     1      -1.928   6.907 -22.342  1.00  0.00     0.120 A 
HETATM    7  N4  UNL     1      -1.392   5.845 -22.927  1.00  0.00    -0.201 N 
ATOM      8  H4  UNL     1      -1.684   5.599 -23.873  1.00  0.00     0.183 HD
HETATM    9  C22 UNL     1      -0.464   5.074 -22.302  1.00  0.00     0.684 A 
HETATM   10  N7  UNL     1      -0.093   5.401 -21.074  1.00  0.00    -0.190 N 
ATOM     11  H7  UNL     1       0.603   4.825 -20.601  1.00  0.00     0.184 HD
HETATM   12  C27 UNL     1      -0.604   6.474 -20.423  1.00  0.00     0.070 A 
ENDROOT
BRANCH   3  13
HETATM   13  C15 UNL     1      -2.168   9.899 -18.584  1.00  0.00     0.260 C 
HETATM   14  O2  UNL     1      -2.733   9.884 -17.444  1.00  0.00    -0.267 OA
HETATM   15  N2  UNL     1      -2.060  11.115 -19.308  1.00  0.00    -0.303 N 
ATOM     16  H2  UNL     1      -1.195  11.653 -19.356  1.00  0.00     0.171 HD
BRANCH  15  17
HETATM   17  C16 UNL     1      -3.169  11.493 -19.913  1.00  0.00     0.152 A 
HETATM   18  N3  UNL     1      -4.420  11.311 -19.491  1.00  0.00    -0.344 N 
HETATM   19  C17 UNL     1      -5.399  11.752 -20.225  1.00  0.00     0.121 A 
ATOM     20  H3  UNL     1      -4.606  10.833 -18.609  1.00  0.00     0.167 HD
HETATM   21  C18 UNL     1      -5.084  12.384 -21.399  1.00  0.00     0.093 A 
HETATM   22 CL1  UNL     1      -6.193  13.083 -22.593  1.00  0.00    -0.075 Cl
HETATM   23  S1  UNL     1      -3.378  12.314 -21.394  1.00  0.00    -0.040 SA
ENDBRANCH  15  17
ENDBRANCH   3  13
BRANCH   2  24
HETATM   24  O1  UNL     1      -0.326   8.176 -17.184  1.00  0.00    -0.349 OA
BRANCH  24  25
HETATM   25  C6  UNL     1      -0.702   7.546 -16.008  1.00  0.00     0.177 C 
BRANCH  25  26
HETATM   26  C7  UNL     1       0.467   7.448 -15.012  1.00  0.00     0.057 C 
BRANCH  26  27
HETATM   27  C8  UNL     1       1.487   8.416 -15.486  1.00  0.00     0.274 C 
BRANCH  27  28
HETATM   28  N1  UNL     1       1.881   9.432 -14.553  1.00  0.00     0.088 N 
HETATM   29  C9  UNL     1       0.904   9.606 -13.494  1.00  0.00     0.272 C 
HETATM   30  C10 UNL     1       1.394  10.479 -12.386  1.00  0.00     0.030 C 
HETATM   31  C11 UNL     1       1.760  11.826 -12.977  1.00  0.00     0.003 C 
HETATM   32  C12 UNL     1       1.648  11.830 -14.476  1.00  0.00     0.030 C 
HETATM   33  C13 UNL     1       2.334  10.641 -15.122  1.00  0.00     0.272 C 
ENDBRANCH  27  28
ENDBRANCH  26  27
ENDBRANCH  25  26
ENDBRANCH  24  25
ENDBRANCH   2  24
BRANCH   1  34
HETATM   34  C3  UNL     1       0.857   6.029 -18.426  1.00  0.00     0.043 C 
BRANCH  34  35
HETATM   35  C2  UNL     1       2.188   6.719 -18.809  1.00  0.00     0.000 C 
HETATM   36  C1  UNL     1       3.298   6.236 -17.950  1.00  0.00     0.005 C 
ENDBRANCH  34  35
ENDBRANCH   1  34
BRANCH   9  37
HETATM   37  N5  UNL     1      -0.000   4.103 -22.936  1.00  0.00    -0.170 N 
ATOM     38  H5  UNL     1      -0.255   4.050 -23.923  1.00  0.00     0.186 HD
BRANCH  37  39
HETATM   39  C23 UNL     1       0.847   3.053 -22.447  1.00  0.00     0.164 A 
HETATM   40  N6  UNL     1       0.454   1.880 -21.944  1.00  0.00    -0.340 N 
HETATM   41  C24 UNL     1       1.333   1.032 -21.537  1.00  0.00     0.014 A 
ATOM     42  H6  UNL     1      -0.540   1.657 -21.882  1.00  0.00     0.168 HD
HETATM   43  C25 UNL     1       0.948  -0.318 -20.951  1.00  0.00     0.068 C 
HETATM   44  C26 UNL     1       2.660   1.377 -21.641  1.00  0.00     0.077 A 
HETATM   45  S2  UNL     1       2.545   2.935 -22.331  1.00  0.00    -0.063 SA
ENDBRANCH  37  39
ENDBRANCH   9  37
TORSDOF 11
ENDMDL
MODEL 3
REMARK VINA RESULT: -8.043358046      3.212      6.710
REMARK  11 active torsions:
REMARK  status: ('A' for Active; 'I' for Inactive)
REMARK    1  A    between atoms: C2_2  and  C3_3 
REMARK    2  A    between atoms: C3_3  and  C4_4 
REMARK    3  A    between atoms: C5_5  and  O1_6 
REMARK    4  A    between atoms: O1_6  and  C6_7 
REMARK    5  A    between atoms: C6_7  and  C7_8 
REMARK    6  A    between atoms: C7_8  and  C8_9 
REMARK    7  A    between atoms: C8_9  and  N1_10 
REMARK    8  A    between atoms: C14_16  and  C15_17 
REMARK       I    between atoms: C15_17  and  N2_19 
REMARK    9  A    between atoms: N2_19  and  C16_21 
REMARK   10  A    between atoms: C22_33  and  N5_34 
REMARK   11  A    between atoms: N5_34  and  C23_36 
ROOT
HETATM    1  C4  UNL     1      -0.925   7.458 -20.658  1.00  0.00     0.004 A 
HETATM    2  C5  UNL     1      -1.387   8.494 -21.487  1.00  0.00     0.093 A 
HETATM    3  C14 UNL     1      -1.195   8.388 -22.838  1.00  0.00     0.067 A 
HETATM    4  C19 UNL     1      -0.560   7.264 -23.390  1.00  0.00     0.035 A 
HETATM    5  C20 UNL     1      -0.119   6.256 -22.561  1.00  0.00     0.009 A 
HETATM    6  C21 UNL     1       0.507   5.138 -23.069  1.00  0.00     0.120 A 
HETATM    7  N4  UNL     1       0.915   4.188 -22.239  1.00  0.00    -0.201 N 
ATOM      8  H4  UNL     1       1.376   3.362 -22.620  1.00  0.00     0.183 HD
HETATM    9  C22 UNL     1       0.735   4.285 -20.897  1.00  0.00     0.684 A 
HETATM   10  N7  UNL     1       0.133   5.361 -20.414  1.00  0.00    -0.190 N 
ATOM     11  H7  UNL     1      -0.004   5.437 -19.406  1.00  0.00     0.184 HD
HETATM   12  C27 UNL     1      -0.306   6.364 -21.210  1.00  0.00     0.070 A 
ENDROOT
BRANCH   3  13
HETATM   13  C15 UNL     1      -1.489   9.456 -23.781  1.00  0.00     0.260 C 
HETATM   14  O2  UNL     1      -1.473   9.185 -25.024  1.00  0.00    -0.267 OA
HETATM   15  N2  UNL     1      -1.779  10.775 -23.344  1.00  0.00    -0.303 N 
ATOM     16  H2  UNL     1      -2.688  11.044 -22.970  1.00  0.00     0.171 HD
BRANCH  15  17
HETATM   17  C16 UNL     1      -0.777  11.624 -23.462  1.00  0.00     0.152 A 
HETATM   18  N3  UNL     1      -0.845  12.910 -23.807  1.00  0.00    -0.344 N 
HETATM   19  C17 UNL     1       0.256  13.599 -23.875  1.00  0.00     0.121 A 
ATOM     20  H3  UNL     1      -1.744  13.344 -24.015  1.00  0.00     0.167 HD
HETATM   21  C18 UNL     1       1.431  12.958 -23.584  1.00  0.00     0.093 A 
HETATM   22 CL1  UNL     1       3.071  13.631 -23.592  1.00  0.00    -0.075 Cl
HETATM   23  S1  UNL     1       0.895  11.378 -23.224  1.00  0.00    -0.040 SA
ENDBRANCH  15  17
ENDBRANCH   3  13
BRANCH   2  24
HETATM   24  O1  UNL     1      -2.028   9.595 -20.950  1.00  0.00    -0.349 OA
BRANCH  24  25
HETATM   25  C6  UNL     1      -3.310   9.664 -20.427  1.00  0.00     0.177 C 
BRANCH  25  26
HETATM   26  C7  UNL     1      -3.499  10.905 -19.537  1.00  0.00     0.057 C 
BRANCH  26  27
HETATM   27  C8  UNL     1      -4.954  11.201 -19.559  1.00  0.00     0.274 C 
BRANCH  27  28
HETATM   28  N1  UNL     1      -5.386  12.186 -20.508  1.00  0.00     0.088 N 
HETATM   29  C9  UNL     1      -6.324  11.640 -21.471  1.00  0.00     0.272 C 
HETATM   30  C10 UNL     1      -6.969  12.688 -22.317  1.00  0.00     0.030 C 
HETATM   31  C11 UNL     1      -5.874  13.449 -23.037  1.00  0.00     0.003 C 
HETATM   32  C12 UNL     1      -4.505  13.018 -22.592  1.00  0.00     0.030 C 
HETATM   33  C13 UNL     1      -4.363  12.970 -21.082  1.00  0.00     0.272 C 
ENDBRANCH  27  28
ENDBRANCH  26  27
ENDBRANCH  25  26
ENDBRANCH  24  25
ENDBRANCH   2  24
BRANCH   1  34
HETATM   34  C3  UNL     1      -1.101   7.674 -19.217  1.00  0.00     0.043 C 
BRANCH  34  35
HETATM   35  C2  UNL     1       0.135   8.489 -18.770  1.00  0.00     0.000 C 
HETATM   36  C1  UNL     1      -0.263   9.602 -17.872  1.00  0.00     0.005 C 
ENDBRANCH  34  35
ENDBRANCH   1  34
BRANCH   9  37
HETATM   37  N5  UNL     1       1.167   3.350 -20.189  1.00  0.00    -0.170 N 
ATOM     38  H5  UNL     1       0.876   2.411 -20.462  1.00  0.00     0.186 HD
BRANCH  37  39
HETATM   39  C23 UNL     1       2.020   3.436 -19.039  1.00  0.00     0.164 A 
HETATM   40  N6  UNL     1       1.636   3.471 -17.761  1.00  0.00    -0.340 N 
HETATM   41  C24 UNL     1       2.520   3.553 -16.829  1.00  0.00     0.014 A 
ATOM     42  H6  UNL     1       0.645   3.433 -17.523  1.00  0.00     0.168 HD
HETATM   43  C25 UNL     1       2.146   3.602 -15.356  1.00  0.00     0.068 C 
HETATM   44  C26 UNL     1       3.844   3.603 -17.198  1.00  0.00     0.077 A 
HETATM   45  S2  UNL     1       3.719   3.526 -18.899  1.00  0.00    -0.063 SA
ENDBRANCH  37  39
ENDBRANCH   9  37
TORSDOF 11
ENDMDL
MODEL 4
REMARK VINA RESULT: -8.020068216      3.413      6.911
REMARK  11 active torsions:
REMARK  status: ('A' for Active; 'I' for Inactive)
REMARK    1  A    between atoms: C2_2  and  C3_3 
REMARK    2  A    between atoms: C3_3  and  C4_4 
REMARK    3  A    between atoms: C5_5  and  O1_6 
REMARK    4  A    between atoms: O1_6  and  C6_7 
REMARK    5  A    between atoms: C6_7  and  C7_8 
REMARK    6  A    between atoms: C7_8  and  C8_9 
REMARK    7  A    between atoms: C8_9  and  N1_10 
REMARK    8  A    between atoms: C14_16  and  C15_17 
REMARK       I    between atoms: C15_17  and  N2_19 
REMARK    9  A    between atoms: N2_19  and  C16_21 
REMARK   10  A    between atoms: C22_33  and  N5_34 
REMARK   11  A    between atoms: N5_34  and  C23_36 
ROOT
HETATM    1  C4  UNL     1       0.207   6.885 -19.075  1.00  0.00     0.004 A 
HETATM    2  C5  UNL     1      -0.306   7.836 -18.177  1.00  0.00     0.093 A 
HETATM    3  C14 UNL     1      -0.221   7.583 -16.835  1.00  0.00     0.067 A 
HETATM    4  C19 UNL     1       0.376   6.405 -16.359  1.00  0.00     0.035 A 
HETATM    5  C20 UNL     1       0.877   5.487 -17.256  1.00  0.00     0.009 A 
HETATM    6  C21 UNL     1       1.471   4.320 -16.823  1.00  0.00     0.120 A 
HETATM    7  N4  UNL     1       1.944   3.462 -17.717  1.00  0.00    -0.201 N 
ATOM      8  H4  UNL     1       2.384   2.601 -17.393  1.00  0.00     0.183 HD
HETATM    9  C22 UNL     1       1.860   3.700 -19.052  1.00  0.00     0.684 A 
HETATM   10  N7  UNL     1       1.288   4.822 -19.461  1.00  0.00    -0.190 N 
ATOM     11  H7  UNL     1       1.223   5.004 -20.462  1.00  0.00     0.184 HD
HETATM   12  C27 UNL     1       0.787   5.736 -18.597  1.00  0.00     0.070 A 
ENDROOT
BRANCH   3  13
HETATM   13  C15 UNL     1      -0.846   8.413 -15.816  1.00  0.00     0.260 C 
HETATM   14  O2  UNL     1      -1.798   9.182 -16.164  1.00  0.00    -0.267 OA
HETATM   15  N2  UNL     1      -0.412   8.385 -14.465  1.00  0.00    -0.303 N 
ATOM     16  H2  UNL     1      -0.670   7.640 -13.818  1.00  0.00     0.171 HD
BRANCH  15  17
HETATM   17  C16 UNL     1       0.351   9.401 -14.114  1.00  0.00     0.152 A 
HETATM   18  N3  UNL     1       0.909  10.307 -14.918  1.00  0.00    -0.344 N 
HETATM   19  C17 UNL     1       1.639  11.246 -14.392  1.00  0.00     0.121 A 
ATOM     20  H3  UNL     1       0.765  10.264 -15.926  1.00  0.00     0.167 HD
HETATM   21  C18 UNL     1       1.794  11.248 -13.030  1.00  0.00     0.093 A 
HETATM   22 CL1  UNL     1       2.722  12.390 -12.041  1.00  0.00    -0.075 Cl
HETATM   23  S1  UNL     1       0.874   9.888 -12.565  1.00  0.00    -0.040 SA
ENDBRANCH  15  17
ENDBRANCH   3  13
BRANCH   2  24
HETATM   24  O1  UNL     1      -0.879   9.007 -18.639  1.00  0.00    -0.349 OA
BRANCH  24  25
HETATM   25  C6  UNL     1      -0.238  10.138 -19.117  1.00  0.00     0.177 C 
BRANCH  25  26
HETATM   26  C7  UNL     1      -1.143  10.957 -20.054  1.00  0.00     0.057 C 
BRANCH  26  27
HETATM   27  C8  UNL     1      -2.537  10.633 -19.657  1.00  0.00     0.274 C 
BRANCH  27  28
HETATM   28  N1  UNL     1      -3.561  11.490 -20.179  1.00  0.00     0.088 N 
HETATM   29  C9  UNL     1      -4.670  10.738 -20.735  1.00  0.00     0.272 C 
HETATM   30  C10 UNL     1      -5.848  11.594 -21.066  1.00  0.00     0.030 C 
HETATM   31  C11 UNL     1      -5.396  12.651 -22.054  1.00  0.00     0.003 C 
HETATM   32  C12 UNL     1      -3.912  12.601 -22.290  1.00  0.00     0.030 C 
HETATM   33  C13 UNL     1      -3.111  12.545 -21.003  1.00  0.00     0.272 C 
ENDBRANCH  27  28
ENDBRANCH  26  27
ENDBRANCH  25  26
ENDBRANCH  24  25
ENDBRANCH   2  24
BRANCH   1  34
HETATM   34  C3  UNL     1       0.015   7.190 -20.497  1.00  0.00     0.043 C 
BRANCH  34  35
HETATM   35  C2  UNL     1      -1.439   6.767 -20.816  1.00  0.00     0.000 C 
HETATM   36  C1  UNL     1      -1.468   5.757 -21.904  1.00  0.00     0.005 C 
ENDBRANCH  34  35
ENDBRANCH   1  34
BRANCH   9  37
HETATM   37  N5  UNL     1       2.317   2.828 -19.822  1.00  0.00    -0.170 N 
ATOM     38  H5  UNL     1       3.177   2.370 -19.519  1.00  0.00     0.186 HD
BRANCH  37  39
HETATM   39  C23 UNL     1       1.779   2.392 -21.078  1.00  0.00     0.164 A 
HETATM   40  N6  UNL     1       1.290   3.168 -22.049  1.00  0.00    -0.340 N 
HETATM   41  C24 UNL     1       0.836   2.633 -23.128  1.00  0.00     0.014 A 
ATOM     42  H6  UNL     1       1.277   4.182 -21.936  1.00  0.00     0.168 HD
HETATM   43  C25 UNL     1       0.262   3.462 -24.266  1.00  0.00     0.068 C 
HETATM   44  C26 UNL     1       0.874   1.263 -23.235  1.00  0.00     0.077 A 
HETATM   45  S2  UNL     1       1.577   0.832 -21.740  1.00  0.00    -0.063 SA
ENDBRANCH  37  39
ENDBRANCH   9  37
TORSDOF 11
ENDMDL
MODEL 5
REMARK VINA RESULT: -8.014061543      3.287      8.647
REMARK  11 active torsions:
REMARK  status: ('A' for Active; 'I' for Inactive)
REMARK    1  A    between atoms: C2_2  and  C3_3 
REMARK    2  A    between atoms: C3_3  and  C4_4 
REMARK    3  A    between atoms: C5_5  and  O1_6 
REMARK    4  A    between atoms: O1_6  and  C6_7 
REMARK    5  A    between atoms: C6_7  and  C7_8 
REMARK    6  A    between atoms: C7_8  and  C8_9 
REMARK    7  A    between atoms: C8_9  and  N1_10 
REMARK    8  A    between atoms: C14_16  and  C15_17 
REMARK       I    between atoms: C15_17  and  N2_19 
REMARK    9  A    between atoms: N2_19  and  C16_21 
REMARK   10  A    between atoms: C22_33  and  N5_34 
REMARK   11  A    between atoms: N5_34  and  C23_36 
ROOT
HETATM    1  C4  UNL     1      -1.422   8.689 -21.984  1.00  0.00     0.004 A 
HETATM    2  C5  UNL     1      -0.636   7.540 -21.793  1.00  0.00     0.093 A 
HETATM    3  C14 UNL     1      -0.411   7.105 -20.515  1.00  0.00     0.067 A 
HETATM    4  C19 UNL     1      -0.960   7.783 -19.414  1.00  0.00     0.035 A 
HETATM    5  C20 UNL     1      -1.732   8.904 -19.624  1.00  0.00     0.009 A 
HETATM    6  C21 UNL     1      -2.288   9.594 -18.567  1.00  0.00     0.120 A 
HETATM    7  N4  UNL     1      -3.027  10.667 -18.809  1.00  0.00    -0.201 N 
ATOM      8  H4  UNL     1      -3.438  11.173 -18.024  1.00  0.00     0.183 HD
HETATM    9  C22 UNL     1      -3.253  11.112 -20.072  1.00  0.00     0.684 A 
HETATM   10  N7  UNL     1      -2.716  10.446 -21.083  1.00  0.00    -0.190 N 
ATOM     11  H7  UNL     1      -2.883  10.777 -22.033  1.00  0.00     0.184 HD
HETATM   12  C27 UNL     1      -1.953   9.343 -20.900  1.00  0.00     0.070 A 
ENDROOT
BRANCH   3  13
HETATM   13  C15 UNL     1       0.504   6.024 -20.180  1.00  0.00     0.260 C 
HETATM   14  O2  UNL     1       0.124   4.827 -20.384  1.00  0.00    -0.267 OA
HETATM   15  N2  UNL     1       1.787   6.280 -19.629  1.00  0.00    -0.303 N 
ATOM     16  H2  UNL     1       2.578   6.587 -20.195  1.00  0.00     0.171 HD
BRANCH  15  17
HETATM   17  C16 UNL     1       1.873   6.087 -18.328  1.00  0.00     0.152 A 
HETATM   18  N3  UNL     1       1.265   5.142 -17.610  1.00  0.00    -0.344 N 
HETATM   19  C17 UNL     1       1.466   5.104 -16.326  1.00  0.00     0.121 A 
ATOM     20  H3  UNL     1       0.654   4.461 -18.061  1.00  0.00     0.167 HD
HETATM   21  C18 UNL     1       2.298   6.047 -15.781  1.00  0.00     0.093 A 
HETATM   22 CL1  UNL     1       2.756   6.244 -14.079  1.00  0.00    -0.075 Cl
HETATM   23  S1  UNL     1       2.757   6.952 -17.153  1.00  0.00    -0.040 SA
ENDBRANCH  15  17
ENDBRANCH   3  13
BRANCH   2  24
HETATM   24  O1  UNL     1      -0.107   6.858 -22.873  1.00  0.00    -0.349 OA
BRANCH  24  25
HETATM   25  C6  UNL     1      -0.653   5.779 -23.550  1.00  0.00     0.177 C 
BRANCH  25  26
HETATM   26  C7  UNL     1       0.432   4.900 -24.197  1.00  0.00     0.057 C 
BRANCH  26  27
HETATM   27  C8  UNL     1       0.177   3.520 -23.714  1.00  0.00     0.274 C 
BRANCH  27  28
HETATM   28  N1  UNL     1       1.310   2.810 -23.194  1.00  0.00     0.088 N 
HETATM   29  C9  UNL     1       0.953   1.961 -22.073  1.00  0.00     0.272 C 
HETATM   30  C10 UNL     1       2.053   1.038 -21.666  1.00  0.00     0.030 C 
HETATM   31  C11 UNL     1       3.265   1.877 -21.313  1.00  0.00     0.003 C 
HETATM   32  C12 UNL     1       3.039   3.336 -21.598  1.00  0.00     0.030 C 
HETATM   33  C13 UNL     1       2.471   3.585 -22.983  1.00  0.00     0.272 C 
ENDBRANCH  27  28
ENDBRANCH  26  27
ENDBRANCH  25  26
ENDBRANCH  24  25
ENDBRANCH   2  24
BRANCH   1  34
HETATM   34  C3  UNL     1      -1.560   9.136 -23.375  1.00  0.00     0.043 C 
BRANCH  34  35
HETATM   35  C2  UNL     1      -0.352  10.070 -23.628  1.00  0.00     0.000 C 
HETATM   36  C1  UNL     1       0.294   9.757 -24.927  1.00  0.00     0.005 C 
ENDBRANCH  34  35
ENDBRANCH   1  34
BRANCH   9  37
HETATM   37  N5  UNL     1      -3.948  12.142 -20.204  1.00  0.00    -0.170 N 
ATOM     38  H5  UNL     1      -3.734  12.911 -19.569  1.00  0.00     0.186 HD
BRANCH  37  39
HETATM   39  C23 UNL     1      -5.009  12.376 -21.141  1.00  0.00     0.164 A 
HETATM   40  N6  UNL     1      -6.207  11.787 -21.152  1.00  0.00    -0.340 N 
HETATM   41  C24 UNL     1      -7.064  12.096 -22.062  1.00  0.00     0.014 A 
ATOM     42  H6  UNL     1      -6.444  11.094 -20.442  1.00  0.00     0.168 HD
HETATM   43  C25 UNL     1      -8.442  11.458 -22.131  1.00  0.00     0.068 C 
HETATM   44  C26 UNL     1      -6.700  13.035 -22.999  1.00  0.00     0.077 A 
HETATM   45  S2  UNL     1      -5.114  13.414 -22.492  1.00  0.00    -0.063 SA
ENDBRANCH  37  39
ENDBRANCH   9  37
TORSDOF 11
ENDMDL
