MODEL 1
REMARK VINA RESULT: -6.314765248      0.000      0.000
REMARK  18 active torsions:
REMARK  status: ('A' for Active; 'I' for Inactive)
REMARK    1  A    between atoms: O1_2  and  C2_3 
REMARK    2  A    between atoms: C2_3  and  C3_5 
REMARK    3  A    between atoms: C3_5  and  O3_6 
REMARK    4  A    between atoms: C3_5  and  C4_8 
REMARK    5  A    between atoms: C5_9  and  O4_10 
REMARK    6  A    between atoms: C6_12  and  O5_13 
REMARK    7  A    between atoms: C7_15  and  C8_16 
REMARK    8  A    between atoms: C9_17  and  O6_18 
REMARK    9  A    between atoms: O6_18  and  C10_19 
REMARK   10  A    between atoms: C13_24  and  O9_25 
REMARK   11  A    between atoms: C14_27  and  C15_28 
REMARK   12  A    between atoms: C15_28  and  O10_29 
REMARK   13  A    between atoms: C15_28  and  O11_31 
REMARK   14  A    between atoms: C17_36  and  O14_37 
REMARK   15  A    between atoms: C18_39  and  N1_40 
REMARK   16  A    between atoms: N1_40  and  C19_42 
REMARK   17  A    between atoms: C19_42  and  N2_43 
REMARK   18  A    between atoms: C19_42  and  O15_47 
ROOT
HETATM    1  C4  UNL     1      19.834 -11.802   1.103  1.00  0.00     0.045 A 
HETATM    2  C5  UNL     1      20.769 -12.609   0.524  1.00  0.00     0.111 A 
HETATM    3  C6  UNL     1      21.872 -13.045   1.290  1.00  0.00     0.113 A 
HETATM    4  C7  UNL     1      22.044 -12.686   2.599  1.00  0.00     0.054 A 
HETATM    5  C17 UNL     1      21.098 -11.868   3.182  1.00  0.00     0.107 A 
HETATM    6  C18 UNL     1      20.015 -11.432   2.455  1.00  0.00     0.078 A 
ENDROOT
BRANCH   4   7
HETATM    7  C8  UNL     1      23.167 -13.112   3.386  1.00  0.00     0.093 C 
HETATM    8  C9  UNL     1      23.029 -14.340   3.984  1.00  0.00     0.149 C 
HETATM    9  C12 UNL     1      23.824 -14.926   4.963  1.00  0.00     0.242 C 
HETATM   10  O8  UNL     1      23.358 -15.934   5.529  1.00  0.00    -0.282 OA
HETATM   11  C13 UNL     1      25.085 -14.487   5.360  1.00  0.00     0.154 C 
HETATM   12  C14 UNL     1      25.705 -13.287   5.070  1.00  0.00     0.148 C 
HETATM   13  O12 UNL     1      25.343 -12.373   4.220  1.00  0.00    -0.271 OA
HETATM   14  C16 UNL     1      24.264 -12.245   3.459  1.00  0.00     0.302 C 
HETATM   15  O13 UNL     1      24.178 -11.251   2.703  1.00  0.00    -0.259 OA
BRANCH   8  16
HETATM   16  O6  UNL     1      21.946 -15.067   3.534  1.00  0.00    -0.274 OA
BRANCH  16  17
HETATM   17  C10 UNL     1      22.181 -16.279   2.905  1.00  0.00     0.260 C 
HETATM   18  C11 UNL     1      21.415 -17.511   3.253  1.00  0.00     0.126 C 
HETATM   19  O7  UNL     1      23.050 -16.422   2.005  1.00  0.00    -0.265 OA
ENDBRANCH  16  17
ENDBRANCH   8  16
BRANCH  11  20
HETATM   20  O9  UNL     1      25.811 -15.367   6.148  1.00  0.00    -0.355 OA
ATOM     21  H9  UNL     1      26.708 -15.115   6.331  1.00  0.00     0.218 HD
ENDBRANCH  11  20
BRANCH  12  22
HETATM   22  C15 UNL     1      26.966 -13.000   5.836  1.00  0.00     0.316 C 
BRANCH  22  23
HETATM   23  O10 UNL     1      26.741 -13.114   7.209  1.00  0.00    -0.365 OA
ATOM     24  H10 UNL     1      26.719 -12.256   7.616  1.00  0.00     0.213 HD
ENDBRANCH  22  23
BRANCH  22  25
HETATM   25  O11 UNL     1      27.978 -13.894   5.510  1.00  0.00    -0.365 OA
ATOM     26  H11 UNL     1      28.383 -13.676   4.678  1.00  0.00     0.213 HD
ENDBRANCH  22  25
ENDBRANCH  12  22
ENDBRANCH   4   7
BRANCH   3  27
HETATM   27  O5  UNL     1      22.782 -13.869   0.630  1.00  0.00    -0.357 OA
ATOM     28  H5  UNL     1      22.712 -14.797   0.819  1.00  0.00     0.217 HD
ENDBRANCH   3  27
BRANCH   5  29
HETATM   29  O14 UNL     1      21.220 -11.478   4.508  1.00  0.00    -0.357 OA
ATOM     30  H14 UNL     1      20.710 -10.752   4.848  1.00  0.00     0.217 HD
ENDBRANCH   5  29
BRANCH   2  31
HETATM   31  O4  UNL     1      20.675 -13.012  -0.791  1.00  0.00    -0.357 OA
ATOM     32  H4  UNL     1      21.009 -12.483  -1.506  1.00  0.00     0.217 HD
ENDBRANCH   2  31
BRANCH   6  33
HETATM   33  N1  UNL     1      19.047 -10.571   3.094  1.00  0.00    -0.339 N 
ATOM     34  H1  UNL     1      18.155 -10.960   3.400  1.00  0.00     0.164 HD
BRANCH  33  35
HETATM   35  C19 UNL     1      19.322  -9.181   3.306  1.00  0.00     0.424 C 
BRANCH  35  36
HETATM   36  N2  UNL     1      19.655  -8.824   4.648  1.00  0.00    -0.035 N 
ATOM     37  H23 UNL     1      20.668  -8.751   4.750  1.00  0.00     0.279 HD
ATOM     38  H22 UNL     1      19.388  -7.857   4.830  1.00  0.00     0.279 HD
ATOM     39  H21 UNL     1      19.272  -9.436   5.368  1.00  0.00     0.279 HD
ENDBRANCH  35  36
BRANCH  35  40
HETATM   40  O15 UNL     1      18.195  -8.430   2.917  1.00  0.00    -0.355 OA
ATOM     41  H15 UNL     1      18.186  -7.616   3.406  1.00  0.00     0.213 HD
ENDBRANCH  35  40
ENDBRANCH  33  35
ENDBRANCH   6  33
BRANCH   1  42
HETATM   42  C3  UNL     1      18.594 -11.332   0.448  1.00  0.00     0.256 C 
BRANCH  42  43
HETATM   43  C2  UNL     1      17.528 -12.324   0.533  1.00  0.00     0.292 C 
HETATM   44  O2  UNL     1      17.374 -13.122  -0.434  1.00  0.00    -0.262 OA
BRANCH  43  45
HETATM   45  O1  UNL     1      16.658 -12.475   1.598  1.00  0.00    -0.324 OA
HETATM   46  C1  UNL     1      16.850 -13.522   2.547  1.00  0.00     0.213 C 
ENDBRANCH  43  45
ENDBRANCH  42  43
BRANCH  42  47
HETATM   47  O3  UNL     1      18.855 -10.955  -0.869  1.00  0.00    -0.381 OA
ATOM     48  H3  UNL     1      19.785 -10.842  -1.029  1.00  0.00     0.211 HD
ENDBRANCH  42  47
ENDBRANCH   1  42
TORSDOF 18
ENDMDL
MODEL 2
REMARK VINA RESULT: -6.204781827      1.476      1.879
REMARK  18 active torsions:
REMARK  status: ('A' for Active; 'I' for Inactive)
REMARK    1  A    between atoms: O1_2  and  C2_3 
REMARK    2  A    between atoms: C2_3  and  C3_5 
REMARK    3  A    between atoms: C3_5  and  O3_6 
REMARK    4  A    between atoms: C3_5  and  C4_8 
REMARK    5  A    between atoms: C5_9  and  O4_10 
REMARK    6  A    between atoms: C6_12  and  O5_13 
REMARK    7  A    between atoms: C7_15  and  C8_16 
REMARK    8  A    between atoms: C9_17  and  O6_18 
REMARK    9  A    between atoms: O6_18  and  C10_19 
REMARK   10  A    between atoms: C13_24  and  O9_25 
REMARK   11  A    between atoms: C14_27  and  C15_28 
REMARK   12  A    between atoms: C15_28  and  O10_29 
REMARK   13  A    between atoms: C15_28  and  O11_31 
REMARK   14  A    between atoms: C17_36  and  O14_37 
REMARK   15  A    between atoms: C18_39  and  N1_40 
REMARK   16  A    between atoms: N1_40  and  C19_42 
REMARK   17  A    between atoms: C19_42  and  N2_43 
REMARK   18  A    between atoms: C19_42  and  O15_47 
ROOT
HETATM    1  C4  UNL     1      19.827 -11.841  -0.258  1.00  0.00     0.045 A 
HETATM    2  C5  UNL     1      20.895 -12.579  -0.677  1.00  0.00     0.111 A 
HETATM    3  C6  UNL     1      21.843 -13.020   0.272  1.00  0.00     0.113 A 
HETATM    4  C7  UNL     1      21.733 -12.734   1.605  1.00  0.00     0.054 A 
HETATM    5  C17 UNL     1      20.653 -11.986   2.027  1.00  0.00     0.107 A 
HETATM    6  C18 UNL     1      19.717 -11.545   1.119  1.00  0.00     0.078 A 
ENDROOT
BRANCH   4   7
HETATM    7  C8  UNL     1      22.695 -13.165   2.579  1.00  0.00     0.093 C 
HETATM    8  C9  UNL     1      22.457 -14.401   3.129  1.00  0.00     0.149 C 
HETATM    9  C12 UNL     1      23.062 -14.996   4.229  1.00  0.00     0.242 C 
HETATM   10  O8  UNL     1      22.505 -16.013   4.689  1.00  0.00    -0.282 OA
HETATM   11  C13 UNL     1      24.228 -14.558   4.855  1.00  0.00     0.154 C 
HETATM   12  C14 UNL     1      24.884 -13.353   4.697  1.00  0.00     0.148 C 
HETATM   13  O12 UNL     1      24.678 -12.431   3.805  1.00  0.00    -0.271 OA
HETATM   14  C16 UNL     1      23.757 -12.296   2.861  1.00  0.00     0.302 C 
HETATM   15  O13 UNL     1      23.805 -11.294   2.114  1.00  0.00    -0.259 OA
BRANCH   8  16
HETATM   16  O6  UNL     1      21.478 -15.126   2.479  1.00  0.00    -0.274 OA
BRANCH  16  17
HETATM   17  C10 UNL     1      21.840 -16.304   1.847  1.00  0.00     0.260 C 
HETATM   18  C11 UNL     1      21.103 -17.581   2.073  1.00  0.00     0.126 C 
HETATM   19  O7  UNL     1      22.808 -16.376   1.045  1.00  0.00    -0.265 OA
ENDBRANCH  16  17
ENDBRANCH   8  16
BRANCH  11  20
HETATM   20  O9  UNL     1      24.801 -15.445   5.753  1.00  0.00    -0.355 OA
ATOM     21  H9  UNL     1      25.665 -15.212   6.070  1.00  0.00     0.218 HD
ENDBRANCH  11  20
BRANCH  12  22
HETATM   22  C15 UNL     1      25.982 -13.071   5.684  1.00  0.00     0.316 C 
BRANCH  22  23
HETATM   23  O10 UNL     1      27.214 -13.490   5.179  1.00  0.00    -0.365 OA
ATOM     24  H10 UNL     1      27.764 -13.826   5.877  1.00  0.00     0.213 HD
ENDBRANCH  22  23
BRANCH  22  25
HETATM   25  O11 UNL     1      26.090 -11.713   5.956  1.00  0.00    -0.365 OA
ATOM     26  H11 UNL     1      26.802 -11.532   6.558  1.00  0.00     0.213 HD
ENDBRANCH  22  25
ENDBRANCH  12  22
ENDBRANCH   4   7
BRANCH   3  27
HETATM   27  O5  UNL     1      22.903 -13.771  -0.233  1.00  0.00    -0.357 OA
ATOM     28  H5  UNL     1      23.668 -13.833   0.326  1.00  0.00     0.217 HD
ENDBRANCH   3  27
BRANCH   5  29
HETATM   29  O14 UNL     1      20.491 -11.671   3.369  1.00  0.00    -0.357 OA
ATOM     30  H14 UNL     1      19.623 -11.554   3.737  1.00  0.00     0.217 HD
ENDBRANCH   5  29
BRANCH   2  31
HETATM   31  O4  UNL     1      21.084 -12.906  -2.003  1.00  0.00    -0.357 OA
ATOM     32  H4  UNL     1      21.449 -13.741  -2.270  1.00  0.00     0.217 HD
ENDBRANCH   2  31
BRANCH   6  33
HETATM   33  N1  UNL     1      18.603 -10.759   1.594  1.00  0.00    -0.339 N 
ATOM     34  H1  UNL     1      18.554  -9.767   1.362  1.00  0.00     0.164 HD
BRANCH  33  35
HETATM   35  C19 UNL     1      17.565 -11.352   2.384  1.00  0.00     0.424 C 
BRANCH  35  36
HETATM   36  N2  UNL     1      16.782 -12.342   1.717  1.00  0.00    -0.035 N 
ATOM     37  H23 UNL     1      17.238 -13.252   1.781  1.00  0.00     0.279 HD
ATOM     38  H22 UNL     1      15.930 -12.531   2.245  1.00  0.00     0.279 HD
ATOM     39  H21 UNL     1      16.552 -12.132   0.745  1.00  0.00     0.279 HD
ENDBRANCH  35  36
BRANCH  35  40
HETATM   40  O15 UNL     1      16.700 -10.336   2.835  1.00  0.00    -0.355 OA
ATOM     41  H15 UNL     1      16.144 -10.688   3.520  1.00  0.00     0.213 HD
ENDBRANCH  35  40
ENDBRANCH  33  35
ENDBRANCH   6  33
BRANCH   1  42
HETATM   42  C3  UNL     1      18.722 -11.377  -1.125  1.00  0.00     0.256 C 
BRANCH  42  43
HETATM   43  C2  UNL     1      18.011 -12.493  -1.738  1.00  0.00     0.292 C 
HETATM   44  O2  UNL     1      18.154 -12.686  -2.978  1.00  0.00    -0.262 OA
BRANCH  43  45
HETATM   45  O1  UNL     1      17.181 -13.377  -1.072  1.00  0.00    -0.324 OA
HETATM   46  C1  UNL     1      17.537 -14.753  -0.953  1.00  0.00     0.213 C 
ENDBRANCH  43  45
ENDBRANCH  42  43
BRANCH  42  47
HETATM   47  O3  UNL     1      19.198 -10.474  -2.074  1.00  0.00    -0.381 OA
ATOM     48  H3  UNL     1      19.395  -9.626  -1.693  1.00  0.00     0.211 HD
ENDBRANCH  42  47
ENDBRANCH   1  42
TORSDOF 18
ENDMDL
MODEL 3
REMARK VINA RESULT: -6.158230494      2.172      3.537
REMARK  18 active torsions:
REMARK  status: ('A' for Active; 'I' for Inactive)
REMARK    1  A    between atoms: O1_2  and  C2_3 
REMARK    2  A    between atoms: C2_3  and  C3_5 
REMARK    3  A    between atoms: C3_5  and  O3_6 
REMARK    4  A    between atoms: C3_5  and  C4_8 
REMARK    5  A    between atoms: C5_9  and  O4_10 
REMARK    6  A    between atoms: C6_12  and  O5_13 
REMARK    7  A    between atoms: C7_15  and  C8_16 
REMARK    8  A    between atoms: C9_17  and  O6_18 
REMARK    9  A    between atoms: O6_18  and  C10_19 
REMARK   10  A    between atoms: C13_24  and  O9_25 
REMARK   11  A    between atoms: C14_27  and  C15_28 
REMARK   12  A    between atoms: C15_28  and  O10_29 
REMARK   13  A    between atoms: C15_28  and  O11_31 
REMARK   14  A    between atoms: C17_36  and  O14_37 
REMARK   15  A    between atoms: C18_39  and  N1_40 
REMARK   16  A    between atoms: N1_40  and  C19_42 
REMARK   17  A    between atoms: C19_42  and  N2_43 
REMARK   18  A    between atoms: C19_42  and  O15_47 
ROOT
HETATM    1  C4  UNL     1      19.798 -11.657  -0.060  1.00  0.00     0.045 A 
HETATM    2  C5  UNL     1      19.642 -11.401   1.270  1.00  0.00     0.111 A 
HETATM    3  C6  UNL     1      20.615 -11.868   2.181  1.00  0.00     0.113 A 
HETATM    4  C7  UNL     1      21.716 -12.574   1.779  1.00  0.00     0.054 A 
HETATM    5  C17 UNL     1      21.871 -12.833   0.433  1.00  0.00     0.107 A 
HETATM    6  C18 UNL     1      20.935 -12.388  -0.472  1.00  0.00     0.078 A 
ENDROOT
BRANCH   4   7
HETATM    7  C8  UNL     1      22.706 -13.066   2.695  1.00  0.00     0.093 C 
HETATM    8  C9  UNL     1      22.459 -14.315   3.208  1.00  0.00     0.149 C 
HETATM    9  C12 UNL     1      23.093 -14.967   4.259  1.00  0.00     0.242 C 
HETATM   10  O8  UNL     1      22.530 -15.986   4.704  1.00  0.00    -0.282 OA
HETATM   11  C13 UNL     1      24.295 -14.582   4.850  1.00  0.00     0.154 C 
HETATM   12  C14 UNL     1      24.975 -13.388   4.709  1.00  0.00     0.148 C 
HETATM   13  O12 UNL     1      24.757 -12.427   3.862  1.00  0.00    -0.271 OA
HETATM   14  C16 UNL     1      23.801 -12.235   2.963  1.00  0.00     0.302 C 
HETATM   15  O13 UNL     1      23.844 -11.206   2.252  1.00  0.00    -0.259 OA
BRANCH   8  16
HETATM   16  O6  UNL     1      21.435 -14.991   2.575  1.00  0.00    -0.274 OA
BRANCH  16  17
HETATM   17  C10 UNL     1      21.748 -16.122   1.838  1.00  0.00     0.260 C 
HETATM   18  C11 UNL     1      21.112 -17.443   2.112  1.00  0.00     0.126 C 
HETATM   19  O7  UNL     1      22.583 -16.111   0.896  1.00  0.00    -0.265 OA
ENDBRANCH  16  17
ENDBRANCH   8  16
BRANCH  11  20
HETATM   20  O9  UNL     1      24.882 -15.516   5.690  1.00  0.00    -0.355 OA
ATOM     21  H9  UNL     1      25.464 -15.168   6.354  1.00  0.00     0.218 HD
ENDBRANCH  11  20
BRANCH  12  22
HETATM   22  C15 UNL     1      26.121 -13.171   5.659  1.00  0.00     0.316 C 
BRANCH  22  23
HETATM   23  O10 UNL     1      27.319 -13.605   5.088  1.00  0.00    -0.365 OA
ATOM     24  H10 UNL     1      28.000 -12.954   5.209  1.00  0.00     0.213 HD
ENDBRANCH  22  23
BRANCH  22  25
HETATM   25  O11 UNL     1      26.278 -11.827   5.972  1.00  0.00    -0.365 OA
ATOM     26  H11 UNL     1      25.581 -11.515   6.536  1.00  0.00     0.213 HD
ENDBRANCH  22  25
ENDBRANCH  12  22
ENDBRANCH   4   7
BRANCH   3  27
HETATM   27  O5  UNL     1      20.387 -11.564   3.522  1.00  0.00    -0.357 OA
ATOM     28  H5  UNL     1      21.024 -11.906   4.137  1.00  0.00     0.217 HD
ENDBRANCH   3  27
BRANCH   5  29
HETATM   29  O14 UNL     1      22.972 -13.541  -0.029  1.00  0.00    -0.357 OA
ATOM     30  H14 UNL     1      22.922 -14.481  -0.163  1.00  0.00     0.217 HD
ENDBRANCH   5  29
BRANCH   2  31
HETATM   31  O4  UNL     1      18.559 -10.702   1.760  1.00  0.00    -0.357 OA
ATOM     32  H4  UNL     1      18.633 -10.109   2.498  1.00  0.00     0.217 HD
ENDBRANCH   2  31
BRANCH   6  33
HETATM   33  N1  UNL     1      21.125 -12.683  -1.873  1.00  0.00    -0.339 N 
ATOM     34  H1  UNL     1      21.253 -11.916  -2.534  1.00  0.00     0.164 HD
BRANCH  33  35
HETATM   35  C19 UNL     1      21.137 -14.035  -2.347  1.00  0.00     0.424 C 
BRANCH  35  36
HETATM   36  N2  UNL     1      20.557 -14.995  -1.464  1.00  0.00    -0.035 N 
ATOM     37  H23 UNL     1      20.397 -14.576  -0.547  1.00  0.00     0.279 HD
ATOM     38  H22 UNL     1      19.596 -15.191  -1.741  1.00  0.00     0.279 HD
ATOM     39  H21 UNL     1      21.078 -15.866  -1.365  1.00  0.00     0.279 HD
ENDBRANCH  35  36
BRANCH  35  40
HETATM   40  O15 UNL     1      22.469 -14.416  -2.600  1.00  0.00    -0.355 OA
ATOM     41  H15 UNL     1      22.815 -14.849  -1.828  1.00  0.00     0.213 HD
ENDBRANCH  35  40
ENDBRANCH  33  35
ENDBRANCH   6  33
BRANCH   1  42
HETATM   42  C3  UNL     1      18.903 -11.167  -1.131  1.00  0.00     0.256 C 
BRANCH  42  43
HETATM   43  C2  UNL     1      18.258 -12.266  -1.841  1.00  0.00     0.292 C 
HETATM   44  O2  UNL     1      17.800 -13.230  -1.166  1.00  0.00    -0.262 OA
BRANCH  43  45
HETATM   45  O1  UNL     1      18.096 -12.347  -3.213  1.00  0.00    -0.324 OA
HETATM   46  C1  UNL     1      17.726 -13.580  -3.827  1.00  0.00     0.213 C 
ENDBRANCH  43  45
ENDBRANCH  42  43
BRANCH  42  47
HETATM   47  O3  UNL     1      19.597 -10.321  -1.994  1.00  0.00    -0.381 OA
ATOM     48  H3  UNL     1      19.043  -9.992  -2.692  1.00  0.00     0.211 HD
ENDBRANCH  42  47
ENDBRANCH   1  42
TORSDOF 18
ENDMDL
MODEL 4
REMARK VINA RESULT: -6.144845297      1.587      2.890
REMARK  18 active torsions:
REMARK  status: ('A' for Active; 'I' for Inactive)
REMARK    1  A    between atoms: O1_2  and  C2_3 
REMARK    2  A    between atoms: C2_3  and  C3_5 
REMARK    3  A    between atoms: C3_5  and  O3_6 
REMARK    4  A    between atoms: C3_5  and  C4_8 
REMARK    5  A    between atoms: C5_9  and  O4_10 
REMARK    6  A    between atoms: C6_12  and  O5_13 
REMARK    7  A    between atoms: C7_15  and  C8_16 
REMARK    8  A    between atoms: C9_17  and  O6_18 
REMARK    9  A    between atoms: O6_18  and  C10_19 
REMARK   10  A    between atoms: C13_24  and  O9_25 
REMARK   11  A    between atoms: C14_27  and  C15_28 
REMARK   12  A    between atoms: C15_28  and  O10_29 
REMARK   13  A    between atoms: C15_28  and  O11_31 
REMARK   14  A    between atoms: C17_36  and  O14_37 
REMARK   15  A    between atoms: C18_39  and  N1_40 
REMARK   16  A    between atoms: N1_40  and  C19_42 
REMARK   17  A    between atoms: C19_42  and  N2_43 
REMARK   18  A    between atoms: C19_42  and  O15_47 
ROOT
HETATM    1  C4  UNL     1      19.816 -11.840   1.301  1.00  0.00     0.045 A 
HETATM    2  C5  UNL     1      20.048 -11.319   2.541  1.00  0.00     0.111 A 
HETATM    3  C6  UNL     1      21.178 -11.750   3.269  1.00  0.00     0.113 A 
HETATM    4  C7  UNL     1      22.056 -12.678   2.778  1.00  0.00     0.054 A 
HETATM    5  C17 UNL     1      21.819 -13.203   1.525  1.00  0.00     0.107 A 
HETATM    6  C18 UNL     1      20.724 -12.798   0.798  1.00  0.00     0.078 A 
ENDROOT
BRANCH   4   7
HETATM    7  C8  UNL     1      23.202 -13.134   3.512  1.00  0.00     0.093 C 
HETATM    8  C9  UNL     1      23.070 -14.372   4.092  1.00  0.00     0.149 C 
HETATM    9  C12 UNL     1      23.893 -14.988   5.028  1.00  0.00     0.242 C 
HETATM   10  O8  UNL     1      23.434 -16.001   5.592  1.00  0.00    -0.282 OA
HETATM   11  C13 UNL     1      25.175 -14.575   5.383  1.00  0.00     0.154 C 
HETATM   12  C14 UNL     1      25.801 -13.378   5.092  1.00  0.00     0.148 C 
HETATM   13  O12 UNL     1      25.419 -12.443   4.275  1.00  0.00    -0.271 OA
HETATM   14  C16 UNL     1      24.314 -12.285   3.559  1.00  0.00     0.302 C 
HETATM   15  O13 UNL     1      24.213 -11.275   2.827  1.00  0.00    -0.259 OA
BRANCH   8  16
HETATM   16  O6  UNL     1      21.959 -15.075   3.670  1.00  0.00    -0.274 OA
BRANCH  16  17
HETATM   17  C10 UNL     1      22.144 -16.338   3.133  1.00  0.00     0.260 C 
HETATM   18  C11 UNL     1      21.237 -17.476   3.463  1.00  0.00     0.126 C 
HETATM   19  O7  UNL     1      23.080 -16.609   2.337  1.00  0.00    -0.265 OA
ENDBRANCH  16  17
ENDBRANCH   8  16
BRANCH  11  20
HETATM   20  O9  UNL     1      25.917 -15.480   6.126  1.00  0.00    -0.355 OA
ATOM     21  H9  UNL     1      26.091 -16.315   5.708  1.00  0.00     0.218 HD
ENDBRANCH  11  20
BRANCH  12  22
HETATM   22  C15 UNL     1      27.095 -13.124   5.815  1.00  0.00     0.316 C 
BRANCH  22  23
HETATM   23  O10 UNL     1      26.919 -13.256   7.194  1.00  0.00    -0.365 OA
ATOM     24  H10 UNL     1      27.127 -14.140   7.472  1.00  0.00     0.213 HD
ENDBRANCH  22  23
BRANCH  22  25
HETATM   25  O11 UNL     1      28.078 -14.030   5.437  1.00  0.00    -0.365 OA
ATOM     26  H11 UNL     1      28.359 -13.887   4.541  1.00  0.00     0.213 HD
ENDBRANCH  22  25
ENDBRANCH  12  22
ENDBRANCH   4   7
BRANCH   3  27
HETATM   27  O5  UNL     1      21.348 -11.171   4.525  1.00  0.00    -0.357 OA
ATOM     28  H5  UNL     1      21.672 -10.278   4.527  1.00  0.00     0.217 HD
ENDBRANCH   3  27
BRANCH   5  29
HETATM   29  O14 UNL     1      22.681 -14.143   0.977  1.00  0.00    -0.357 OA
ATOM     30  H14 UNL     1      22.926 -14.919   1.468  1.00  0.00     0.217 HD
ENDBRANCH   5  29
BRANCH   2  31
HETATM   31  O4  UNL     1      19.209 -10.386   3.111  1.00  0.00    -0.357 OA
ATOM     32  H4  UNL     1      19.080  -9.524   2.733  1.00  0.00     0.217 HD
ENDBRANCH   2  31
BRANCH   6  33
HETATM   33  N1  UNL     1      20.502 -13.374  -0.508  1.00  0.00    -0.339 N 
ATOM     34  H1  UNL     1      19.865 -14.165  -0.606  1.00  0.00     0.164 HD
BRANCH  33  35
HETATM   35  C19 UNL     1      21.163 -12.850  -1.667  1.00  0.00     0.424 C 
BRANCH  35  36
HETATM   36  N2  UNL     1      20.315 -12.596  -2.788  1.00  0.00    -0.035 N 
ATOM     37  H23 UNL     1      19.530 -12.009  -2.508  1.00  0.00     0.279 HD
ATOM     38  H22 UNL     1      20.780 -11.971  -3.445  1.00  0.00     0.279 HD
ATOM     39  H21 UNL     1      19.976 -13.427  -3.274  1.00  0.00     0.279 HD
ENDBRANCH  35  36
BRANCH  35  40
HETATM   40  O15 UNL     1      22.163 -13.757  -2.068  1.00  0.00    -0.355 OA
ATOM     41  H15 UNL     1      22.613 -13.401  -2.825  1.00  0.00     0.213 HD
ENDBRANCH  35  40
ENDBRANCH  33  35
ENDBRANCH   6  33
BRANCH   1  42
HETATM   42  C3  UNL     1      18.719 -11.428   0.398  1.00  0.00     0.256 C 
BRANCH  42  43
HETATM   43  C2  UNL     1      17.816 -12.536   0.104  1.00  0.00     0.292 C 
HETATM   44  O2  UNL     1      17.672 -12.887  -1.100  1.00  0.00    -0.262 OA
BRANCH  43  45
HETATM   45  O1  UNL     1      17.094 -13.251   1.043  1.00  0.00    -0.324 OA
HETATM   46  C1  UNL     1      16.375 -12.575   2.072  1.00  0.00     0.213 C 
ENDBRANCH  43  45
ENDBRANCH  42  43
BRANCH  42  47
HETATM   47  O3  UNL     1      19.236 -10.852  -0.761  1.00  0.00    -0.381 OA
ATOM     48  H3  UNL     1      19.176  -9.904  -0.745  1.00  0.00     0.211 HD
ENDBRANCH  42  47
ENDBRANCH   1  42
TORSDOF 18
ENDMDL
MODEL 5
REMARK VINA RESULT: -6.140684323      2.196      7.496
REMARK  18 active torsions:
REMARK  status: ('A' for Active; 'I' for Inactive)
REMARK    1  A    between atoms: O1_2  and  C2_3 
REMARK    2  A    between atoms: C2_3  and  C3_5 
REMARK    3  A    between atoms: C3_5  and  O3_6 
REMARK    4  A    between atoms: C3_5  and  C4_8 
REMARK    5  A    between atoms: C5_9  and  O4_10 
REMARK    6  A    between atoms: C6_12  and  O5_13 
REMARK    7  A    between atoms: C7_15  and  C8_16 
REMARK    8  A    between atoms: C9_17  and  O6_18 
REMARK    9  A    between atoms: O6_18  and  C10_19 
REMARK   10  A    between atoms: C13_24  and  O9_25 
REMARK   11  A    between atoms: C14_27  and  C15_28 
REMARK   12  A    between atoms: C15_28  and  O10_29 
REMARK   13  A    between atoms: C15_28  and  O11_31 
REMARK   14  A    between atoms: C17_36  and  O14_37 
REMARK   15  A    between atoms: C18_39  and  N1_40 
REMARK   16  A    between atoms: N1_40  and  C19_42 
REMARK   17  A    between atoms: C19_42  and  N2_43 
REMARK   18  A    between atoms: C19_42  and  O15_47 
ROOT
HETATM    1  C4  UNL     1      24.548 -13.788   4.586  1.00  0.00     0.045 A 
HETATM    2  C5  UNL     1      23.578 -14.662   4.191  1.00  0.00     0.111 A 
HETATM    3  C6  UNL     1      22.593 -14.231   3.276  1.00  0.00     0.113 A 
HETATM    4  C7  UNL     1      22.571 -12.961   2.766  1.00  0.00     0.054 A 
HETATM    5  C17 UNL     1      23.552 -12.079   3.168  1.00  0.00     0.107 A 
HETATM    6  C18 UNL     1      24.522 -12.477   4.059  1.00  0.00     0.078 A 
ENDROOT
BRANCH   4   7
HETATM    7  C8  UNL     1      21.568 -12.506   1.845  1.00  0.00     0.093 C 
HETATM    8  C9  UNL     1      20.466 -11.925   2.421  1.00  0.00     0.149 C 
HETATM    9  C12 UNL     1      19.251 -11.587   1.834  1.00  0.00     0.242 C 
HETATM   10  O8  UNL     1      18.317 -11.305   2.610  1.00  0.00    -0.282 OA
HETATM   11  C13 UNL     1      18.994 -11.537   0.466  1.00  0.00     0.154 C 
HETATM   12  C14 UNL     1      19.767 -12.025  -0.570  1.00  0.00     0.148 C 
HETATM   13  O12 UNL     1      20.984 -12.476  -0.528  1.00  0.00    -0.271 OA
HETATM   14  C16 UNL     1      21.816 -12.699   0.481  1.00  0.00     0.302 C 
HETATM   15  O13 UNL     1      22.963 -13.130   0.229  1.00  0.00    -0.259 OA
BRANCH   8  16
HETATM   16  O6  UNL     1      20.612 -11.651   3.767  1.00  0.00    -0.274 OA
BRANCH  16  17
HETATM   17  C10 UNL     1      20.781 -10.333   4.157  1.00  0.00     0.260 C 
HETATM   18  C11 UNL     1      19.664  -9.345   4.103  1.00  0.00     0.126 C 
HETATM   19  O7  UNL     1      21.878  -9.883   4.579  1.00  0.00    -0.265 OA
ENDBRANCH  16  17
ENDBRANCH   8  16
BRANCH  11  20
HETATM   20  O9  UNL     1      17.809 -10.919   0.097  1.00  0.00    -0.355 OA
ATOM     21  H9  UNL     1      17.894 -10.049  -0.274  1.00  0.00     0.218 HD
ENDBRANCH  11  20
BRANCH  12  22
HETATM   22  C15 UNL     1      19.114 -12.036  -1.924  1.00  0.00     0.316 C 
BRANCH  22  23
HETATM   23  O10 UNL     1      17.911 -12.744  -1.882  1.00  0.00    -0.365 OA
ATOM     24  H10 UNL     1      17.330 -12.454  -2.575  1.00  0.00     0.213 HD
ENDBRANCH  22  23
BRANCH  22  25
HETATM   25  O11 UNL     1      18.819 -10.751  -2.360  1.00  0.00    -0.365 OA
ATOM     26  H11 UNL     1      18.564 -10.741  -3.275  1.00  0.00     0.213 HD
ENDBRANCH  22  25
ENDBRANCH  12  22
ENDBRANCH   4   7
BRANCH   3  27
HETATM   27  O5  UNL     1      21.638 -15.182   2.919  1.00  0.00    -0.357 OA
ATOM     28  H5  UNL     1      20.789 -14.840   2.665  1.00  0.00     0.217 HD
ENDBRANCH   3  27
BRANCH   5  29
HETATM   29  O14 UNL     1      23.580 -10.780   2.678  1.00  0.00    -0.357 OA
ATOM     30  H14 UNL     1      23.088 -10.090   3.108  1.00  0.00     0.217 HD
ENDBRANCH   5  29
BRANCH   2  31
HETATM   31  O4  UNL     1      23.523 -15.956   4.661  1.00  0.00    -0.357 OA
ATOM     32  H4  UNL     1      22.907 -16.224   5.334  1.00  0.00     0.217 HD
ENDBRANCH   2  31
BRANCH   6  33
HETATM   33  N1  UNL     1      25.530 -11.526   4.463  1.00  0.00    -0.339 N 
ATOM     34  H1  UNL     1      26.451 -11.553   4.025  1.00  0.00     0.164 HD
BRANCH  33  35
HETATM   35  C19 UNL     1      25.256 -10.543   5.470  1.00  0.00     0.424 C 
BRANCH  35  36
HETATM   36  N2  UNL     1      26.197 -10.494   6.543  1.00  0.00    -0.035 N 
ATOM     37  H23 UNL     1      25.880 -11.082   7.314  1.00  0.00     0.279 HD
ATOM     38  H22 UNL     1      27.052 -10.984   6.283  1.00  0.00     0.279 HD
ATOM     39  H21 UNL     1      26.419  -9.558   6.884  1.00  0.00     0.279 HD
ENDBRANCH  35  36
BRANCH  35  40
HETATM   40  O15 UNL     1      23.981 -10.793   6.013  1.00  0.00    -0.355 OA
ATOM     41  H15 UNL     1      23.923 -10.374   6.864  1.00  0.00     0.213 HD
ENDBRANCH  35  40
ENDBRANCH  33  35
ENDBRANCH   6  33
BRANCH   1  42
HETATM   42  C3  UNL     1      25.681 -14.121   5.476  1.00  0.00     0.256 C 
BRANCH  42  43
HETATM   43  C2  UNL     1      25.344 -13.915   6.880  1.00  0.00     0.292 C 
HETATM   44  O2  UNL     1      26.234 -14.136   7.749  1.00  0.00    -0.262 OA
BRANCH  43  45
HETATM   45  O1  UNL     1      24.117 -13.487   7.355  1.00  0.00    -0.324 OA
HETATM   46  C1  UNL     1      23.955 -13.132   8.727  1.00  0.00     0.213 C 
ENDBRANCH  43  45
ENDBRANCH  42  43
BRANCH  42  47
HETATM   47  O3  UNL     1      26.819 -13.408   5.100  1.00  0.00    -0.381 OA
ATOM     48  H3  UNL     1      27.533 -13.529   5.714  1.00  0.00     0.211 HD
ENDBRANCH  42  47
ENDBRANCH   1  42
TORSDOF 18
ENDMDL
