MODEL 1
REMARK VINA RESULT: -9.810819246      0.000      0.000
REMARK  16 active torsions:
REMARK  status: ('A' for Active; 'I' for Inactive)
REMARK    1  A    between atoms: O1_2  and  C2_3 
REMARK    2  A    between atoms: C2_3  and  C3_5 
REMARK    3  A    between atoms: C4_8  and  C5_9 
REMARK    4  A    between atoms: C5_9  and  O3_10 
REMARK    5  A    between atoms: C5_9  and  C6_12 
REMARK    6  A    between atoms: C6_12  and  O4_13 
REMARK    7  A    between atoms: C6_12  and  C7_15 
REMARK    8  A    between atoms: C7_15  and  N2_16 
REMARK    9  A    between atoms: C7_15  and  C12_34 
REMARK   10  A    between atoms: N2_16  and  C8_18 
REMARK   11  A    between atoms: C9_19  and  O5_20 
REMARK   12  A    between atoms: C10_24  and  N4_25 
REMARK   13  A    between atoms: C11_30  and  N6_31 
REMARK   14  A    between atoms: C17_47  and  C18_48 
REMARK   15  A    between atoms: C18_48  and  O8_49 
REMARK   16  A    between atoms: C18_48  and  O9_51 
ROOT
HETATM    1  C12 UNL     1      18.842  -5.783   6.723  1.00  0.00     0.057 A 
HETATM    2  C13 UNL     1      18.871  -5.218   7.981  1.00  0.00     0.064 A 
HETATM    3  C14 UNL     1      19.853  -5.778   8.765  1.00  0.00     0.105 A 
HETATM    4  N7  UNL     1      20.461  -5.789   9.961  1.00  0.00    -0.238 N 
ATOM      5  H7  UNL     1      20.234  -5.198  10.761  1.00  0.00     0.197 HD
HETATM    6  O6  UNL     1      21.406  -6.707   9.908  1.00  0.00    -0.155 OA
HETATM    7  N8  UNL     1      21.413  -7.268   8.730  1.00  0.00    -0.222 N 
ATOM      8  H8  UNL     1      22.053  -8.008   8.441  1.00  0.00     0.198 HD
HETATM    9  C15 UNL     1      20.451  -6.727   7.949  1.00  0.00     0.172 A 
HETATM   10  N9  UNL     1      19.847  -6.718   6.756  1.00  0.00    -0.232 N 
HETATM   11  C16 UNL     1      20.185  -7.540   5.684  1.00  0.00     0.191 C 
HETATM   12  N10 UNL     1      20.468  -8.228   4.809  1.00  0.00    -0.171 NA
ENDROOT
BRANCH   1  13
HETATM   13  C7  UNL     1      17.964  -5.487   5.588  1.00  0.00     0.165 C 
BRANCH  13  14
HETATM   14  C6  UNL     1      18.618  -4.363   4.788  1.00  0.00     0.183 C 
BRANCH  14  15
HETATM   15  C5  UNL     1      18.751  -4.655   3.335  1.00  0.00     0.224 C 
BRANCH  15  16
HETATM   16  C4  UNL     1      18.964  -3.353   2.641  1.00  0.00     0.156 A 
HETATM   17  N1  UNL     1      19.893  -2.461   3.013  1.00  0.00    -0.331 N 
HETATM   18  C3  UNL     1      19.851  -1.364   2.190  1.00  0.00     0.145 A 
ATOM     19  H1  UNL     1      20.537  -2.580   3.795  1.00  0.00     0.168 HD
HETATM   20  C17 UNL     1      18.860  -1.636   1.309  1.00  0.00     0.142 A 
HETATM   21  O7  UNL     1      18.361  -2.840   1.624  1.00  0.00    -0.292 OA
BRANCH  18  22
HETATM   22  C2  UNL     1      20.730  -0.233   2.360  1.00  0.00     0.312 C 
HETATM   23  O2  UNL     1      21.777  -0.244   3.031  1.00  0.00    -0.258 OA
BRANCH  22  24
HETATM   24  O1  UNL     1      20.435   0.999   1.748  1.00  0.00    -0.321 OA
HETATM   25  C1  UNL     1      20.263   2.184   2.521  1.00  0.00     0.213 C 
ENDBRANCH  22  24
ENDBRANCH  18  22
BRANCH  20  26
HETATM   26  C18 UNL     1      18.401  -0.776   0.196  1.00  0.00     0.315 C 
BRANCH  26  27
HETATM   27  O8  UNL     1      19.464  -0.290  -0.545  1.00  0.00    -0.365 OA
ATOM     28  H8  UNL     1      19.432   0.656  -0.626  1.00  0.00     0.213 HD
ENDBRANCH  26  27
BRANCH  26  29
HETATM   29  O9  UNL     1      17.782   0.352   0.775  1.00  0.00    -0.365 OA
ATOM     30  H9  UNL     1      16.868   0.129   0.908  1.00  0.00     0.213 HD
ENDBRANCH  26  29
ENDBRANCH  20  26
ENDBRANCH  15  16
BRANCH  15  31
HETATM   31  O3  UNL     1      19.799  -5.475   2.988  1.00  0.00    -0.385 OA
ATOM     32  H3  UNL     1      19.493  -6.370   3.072  1.00  0.00     0.210 HD
ENDBRANCH  15  31
ENDBRANCH  14  15
BRANCH  14  33
HETATM   33  O4  UNL     1      19.799  -3.917   5.314  1.00  0.00    -0.390 OA
ATOM     34  H4  UNL     1      19.748  -3.843   6.260  1.00  0.00     0.210 HD
ENDBRANCH  14  33
ENDBRANCH  13  14
BRANCH  13  35
HETATM   35  N2  UNL     1      17.511  -6.541   4.768  1.00  0.00    -0.371 N 
ATOM     36  H2  UNL     1      17.971  -6.607   3.860  1.00  0.00     0.160 HD
BRANCH  35  37
HETATM   37  C8  UNL     1      16.527  -7.512   5.006  1.00  0.00     0.125 A 
HETATM   38  C9  UNL     1      16.585  -8.650   4.190  1.00  0.00     0.185 A 
HETATM   39  N3  UNL     1      15.703  -9.648   4.360  1.00  0.00    -0.168 N 
HETATM   40  C10 UNL     1      14.749  -9.595   5.299  1.00  0.00     0.679 A 
ATOM     41  H3  UNL     1      15.761 -10.469   3.757  1.00  0.00     0.186 HD
HETATM   42  N5  UNL     1      14.660  -8.522   6.100  1.00  0.00    -0.175 N 
HETATM   43  C11 UNL     1      15.545  -7.493   5.950  1.00  0.00     0.145 A 
ATOM     44  H5  UNL     1      13.936  -8.475   6.817  1.00  0.00     0.186 HD
BRANCH  38  45
HETATM   45  O5  UNL     1      17.565  -8.754   3.191  1.00  0.00    -0.344 OA
ATOM     46  H5  UNL     1      17.567  -8.149   2.458  1.00  0.00     0.219 HD
ENDBRANCH  38  45
BRANCH  40  47
HETATM   47  N4  UNL     1      13.892 -10.575   5.456  1.00  0.00    -0.234 N 
ATOM     48  H42 UNL     1      13.982 -11.406   4.873  1.00  0.00     0.174 HD
ATOM     49  H41 UNL     1      13.143 -10.519   6.147  1.00  0.00     0.174 HD
ENDBRANCH  40  47
BRANCH  43  50
HETATM   50  N6  UNL     1      15.451  -6.511   6.745  1.00  0.00    -0.383 N 
ATOM     51  H62 UNL     1      15.694  -5.586   6.390  1.00  0.00     0.157 HD
ATOM     52  H61 UNL     1      15.118  -6.658   7.698  1.00  0.00     0.157 HD
ENDBRANCH  43  50
ENDBRANCH  35  37
ENDBRANCH  13  35
ENDBRANCH   1  13
TORSDOF 16
ENDMDL
MODEL 2
REMARK VINA RESULT: -9.705713989      0.884      1.349
REMARK  16 active torsions:
REMARK  status: ('A' for Active; 'I' for Inactive)
REMARK    1  A    between atoms: O1_2  and  C2_3 
REMARK    2  A    between atoms: C2_3  and  C3_5 
REMARK    3  A    between atoms: C4_8  and  C5_9 
REMARK    4  A    between atoms: C5_9  and  O3_10 
REMARK    5  A    between atoms: C5_9  and  C6_12 
REMARK    6  A    between atoms: C6_12  and  O4_13 
REMARK    7  A    between atoms: C6_12  and  C7_15 
REMARK    8  A    between atoms: C7_15  and  N2_16 
REMARK    9  A    between atoms: C7_15  and  C12_34 
REMARK   10  A    between atoms: N2_16  and  C8_18 
REMARK   11  A    between atoms: C9_19  and  O5_20 
REMARK   12  A    between atoms: C10_24  and  N4_25 
REMARK   13  A    between atoms: C11_30  and  N6_31 
REMARK   14  A    between atoms: C17_47  and  C18_48 
REMARK   15  A    between atoms: C18_48  and  O8_49 
REMARK   16  A    between atoms: C18_48  and  O9_51 
ROOT
HETATM    1  C12 UNL     1      18.817  -5.838   6.782  1.00  0.00     0.057 A 
HETATM    2  C13 UNL     1      18.849  -5.282   8.044  1.00  0.00     0.064 A 
HETATM    3  C14 UNL     1      19.853  -5.824   8.811  1.00  0.00     0.105 A 
HETATM    4  N7  UNL     1      20.476  -5.829   9.999  1.00  0.00    -0.238 N 
ATOM      5  H7  UNL     1      20.246  -5.249  10.806  1.00  0.00     0.197 HD
HETATM    6  O6  UNL     1      21.442  -6.726   9.929  1.00  0.00    -0.155 OA
HETATM    7  N8  UNL     1      21.446  -7.278   8.747  1.00  0.00    -0.222 N 
ATOM      8  H8  UNL     1      22.098  -8.001   8.444  1.00  0.00     0.198 HD
HETATM    9  C15 UNL     1      20.462  -6.754   7.981  1.00  0.00     0.172 A 
HETATM   10  N9  UNL     1      19.843  -6.750   6.796  1.00  0.00    -0.232 N 
HETATM   11  C16 UNL     1      20.186  -7.558   5.714  1.00  0.00     0.191 C 
HETATM   12  N10 UNL     1      20.474  -8.233   4.830  1.00  0.00    -0.171 NA
ENDROOT
BRANCH   1  13
HETATM   13  C7  UNL     1      17.918  -5.555   5.661  1.00  0.00     0.165 C 
BRANCH  13  14
HETATM   14  C6  UNL     1      18.547  -4.426   4.847  1.00  0.00     0.183 C 
BRANCH  14  15
HETATM   15  C5  UNL     1      18.709  -4.740   3.403  1.00  0.00     0.224 C 
BRANCH  15  16
HETATM   16  C4  UNL     1      18.928  -3.448   2.692  1.00  0.00     0.156 A 
HETATM   17  N1  UNL     1      19.871  -2.562   3.044  1.00  0.00    -0.331 N 
HETATM   18  C3  UNL     1      19.832  -1.474   2.210  1.00  0.00     0.145 A 
ATOM     19  H1  UNL     1      20.522  -2.680   3.820  1.00  0.00     0.168 HD
HETATM   20  C17 UNL     1      18.829  -1.745   1.342  1.00  0.00     0.142 A 
HETATM   21  O7  UNL     1      18.320  -2.940   1.675  1.00  0.00    -0.292 OA
BRANCH  18  22
HETATM   22  C2  UNL     1      20.725  -0.350   2.358  1.00  0.00     0.312 C 
HETATM   23  O2  UNL     1      21.797  -0.376   2.988  1.00  0.00    -0.258 OA
BRANCH  22  24
HETATM   24  O1  UNL     1      20.415   0.890   1.770  1.00  0.00    -0.321 OA
HETATM   25  C1  UNL     1      20.258   2.063   2.565  1.00  0.00     0.213 C 
ENDBRANCH  22  24
ENDBRANCH  18  22
BRANCH  20  26
HETATM   26  C18 UNL     1      18.368  -0.893   0.224  1.00  0.00     0.315 C 
BRANCH  26  27
HETATM   27  O8  UNL     1      19.428  -0.423  -0.531  1.00  0.00    -0.365 OA
ATOM     28  H8  UNL     1      19.294  -0.581  -1.459  1.00  0.00     0.213 HD
ENDBRANCH  26  27
BRANCH  26  29
HETATM   29  O9  UNL     1      17.763   0.247   0.797  1.00  0.00    -0.365 OA
ATOM     30  H9  UNL     1      18.436   0.914   0.862  1.00  0.00     0.213 HD
ENDBRANCH  26  29
ENDBRANCH  20  26
ENDBRANCH  15  16
BRANCH  15  31
HETATM   31  O3  UNL     1      19.767  -5.559   3.088  1.00  0.00    -0.385 OA
ATOM     32  H3  UNL     1      20.526  -5.229   3.555  1.00  0.00     0.210 HD
ENDBRANCH  15  31
ENDBRANCH  14  15
BRANCH  14  33
HETATM   33  O4  UNL     1      19.706  -3.932   5.381  1.00  0.00    -0.390 OA
ATOM     34  H4  UNL     1      19.627  -3.006   5.580  1.00  0.00     0.210 HD
ENDBRANCH  14  33
ENDBRANCH  13  14
BRANCH  13  35
HETATM   35  N2  UNL     1      17.465  -6.615   4.850  1.00  0.00    -0.371 N 
ATOM     36  H2  UNL     1      17.884  -6.657   3.921  1.00  0.00     0.160 HD
BRANCH  35  37
HETATM   37  C8  UNL     1      16.527  -7.623   5.121  1.00  0.00     0.125 A 
HETATM   38  C9  UNL     1      15.641  -7.364   6.176  1.00  0.00     0.185 A 
HETATM   39  N3  UNL     1      14.689  -8.256   6.493  1.00  0.00    -0.168 N 
HETATM   40  C10 UNL     1      14.551  -9.410   5.825  1.00  0.00     0.679 A 
ATOM     41  H3  UNL     1      14.053  -8.049   7.264  1.00  0.00     0.186 HD
HETATM   42  N5  UNL     1      15.381  -9.695   4.809  1.00  0.00    -0.175 N 
HETATM   43  C11 UNL     1      16.357  -8.806   4.465  1.00  0.00     0.145 A 
ATOM     44  H5  UNL     1      15.282 -10.572   4.297  1.00  0.00     0.186 HD
BRANCH  38  45
HETATM   45  O5  UNL     1      15.743  -6.170   6.906  1.00  0.00    -0.344 OA
ATOM     46  H5  UNL     1      15.705  -5.331   6.459  1.00  0.00     0.219 HD
ENDBRANCH  38  45
BRANCH  40  47
HETATM   47  N4  UNL     1      13.619 -10.274   6.144  1.00  0.00    -0.234 N 
ATOM     48  H42 UNL     1      13.610 -10.664   7.086  1.00  0.00     0.174 HD
ATOM     49  H41 UNL     1      12.909 -10.561   5.470  1.00  0.00     0.174 HD
ENDBRANCH  40  47
BRANCH  43  50
HETATM   50  N6  UNL     1      17.100  -9.094   3.480  1.00  0.00    -0.383 N 
ATOM     51  H62 UNL     1      16.669  -9.544   2.673  1.00  0.00     0.157 HD
ATOM     52  H61 UNL     1      18.091  -8.853   3.504  1.00  0.00     0.157 HD
ENDBRANCH  43  50
ENDBRANCH  35  37
ENDBRANCH  13  35
ENDBRANCH   1  13
TORSDOF 16
ENDMDL
MODEL 3
REMARK VINA RESULT: -9.598396364      0.761      1.787
REMARK  16 active torsions:
REMARK  status: ('A' for Active; 'I' for Inactive)
REMARK    1  A    between atoms: O1_2  and  C2_3 
REMARK    2  A    between atoms: C2_3  and  C3_5 
REMARK    3  A    between atoms: C4_8  and  C5_9 
REMARK    4  A    between atoms: C5_9  and  O3_10 
REMARK    5  A    between atoms: C5_9  and  C6_12 
REMARK    6  A    between atoms: C6_12  and  O4_13 
REMARK    7  A    between atoms: C6_12  and  C7_15 
REMARK    8  A    between atoms: C7_15  and  N2_16 
REMARK    9  A    between atoms: C7_15  and  C12_34 
REMARK   10  A    between atoms: N2_16  and  C8_18 
REMARK   11  A    between atoms: C9_19  and  O5_20 
REMARK   12  A    between atoms: C10_24  and  N4_25 
REMARK   13  A    between atoms: C11_30  and  N6_31 
REMARK   14  A    between atoms: C17_47  and  C18_48 
REMARK   15  A    between atoms: C18_48  and  O8_49 
REMARK   16  A    between atoms: C18_48  and  O9_51 
ROOT
HETATM    1  C12 UNL     1      18.827  -5.800   6.631  1.00  0.00     0.057 A 
HETATM    2  C13 UNL     1      18.851  -5.200   7.873  1.00  0.00     0.064 A 
HETATM    3  C14 UNL     1      19.826  -5.741   8.678  1.00  0.00     0.105 A 
HETATM    4  N7  UNL     1      20.427  -5.720   9.877  1.00  0.00    -0.238 N 
ATOM      5  H7  UNL     1      20.199  -5.106  10.658  1.00  0.00     0.197 HD
HETATM    6  O6  UNL     1      21.371  -6.643   9.855  1.00  0.00    -0.155 OA
HETATM    7  N8  UNL     1      21.382  -7.236   8.694  1.00  0.00    -0.222 N 
ATOM      8  H8  UNL     1      22.020  -7.986   8.429  1.00  0.00     0.198 HD
HETATM    9  C15 UNL     1      20.426  -6.715   7.892  1.00  0.00     0.172 A 
HETATM   10  N9  UNL     1      19.829  -6.737   6.696  1.00  0.00    -0.232 N 
HETATM   11  C16 UNL     1      20.169  -7.591   5.650  1.00  0.00     0.191 C 
HETATM   12  N10 UNL     1      20.455  -8.304   4.796  1.00  0.00    -0.171 NA
ENDROOT
BRANCH   1  13
HETATM   13  C7  UNL     1      17.957  -5.534   5.484  1.00  0.00     0.165 C 
BRANCH  13  14
HETATM   14  C6  UNL     1      18.607  -4.419   4.668  1.00  0.00     0.183 C 
BRANCH  14  15
HETATM   15  C5  UNL     1      18.810  -4.759   3.234  1.00  0.00     0.224 C 
BRANCH  15  16
HETATM   16  C4  UNL     1      19.133  -3.490   2.520  1.00  0.00     0.156 A 
HETATM   17  N1  UNL     1      18.503  -3.089   1.407  1.00  0.00    -0.331 N 
HETATM   18  C3  UNL     1      19.014  -1.889   0.981  1.00  0.00     0.145 A 
ATOM     19  H1  UNL     1      17.753  -3.602   0.943  1.00  0.00     0.168 HD
HETATM   20  C17 UNL     1      19.975  -1.588   1.887  1.00  0.00     0.142 A 
HETATM   21  O7  UNL     1      20.005  -2.580   2.788  1.00  0.00    -0.292 OA
BRANCH  18  22
HETATM   22  C2  UNL     1      18.538  -1.220  -0.204  1.00  0.00     0.312 C 
HETATM   23  O2  UNL     1      18.391  -1.762  -1.313  1.00  0.00    -0.258 OA
BRANCH  22  24
HETATM   24  O1  UNL     1      18.199   0.146  -0.165  1.00  0.00    -0.321 OA
HETATM   25  C1  UNL     1      18.757   1.070  -1.097  1.00  0.00     0.213 C 
ENDBRANCH  22  24
ENDBRANCH  18  22
BRANCH  20  26
HETATM   26  C18 UNL     1      20.839  -0.387   1.897  1.00  0.00     0.315 C 
BRANCH  26  27
HETATM   27  O8  UNL     1      21.856  -0.497   2.829  1.00  0.00    -0.365 OA
ATOM     28  H8  UNL     1      22.573  -1.029   2.503  1.00  0.00     0.213 HD
ENDBRANCH  26  27
BRANCH  26  29
HETATM   29  O9  UNL     1      20.037   0.693   2.323  1.00  0.00    -0.365 OA
ATOM     30  H9  UNL     1      20.565   1.479   2.244  1.00  0.00     0.213 HD
ENDBRANCH  26  29
ENDBRANCH  20  26
ENDBRANCH  15  16
BRANCH  15  31
HETATM   31  O3  UNL     1      19.830  -5.642   2.972  1.00  0.00    -0.385 OA
ATOM     32  H3  UNL     1      20.226  -5.377   2.150  1.00  0.00     0.210 HD
ENDBRANCH  15  31
ENDBRANCH  14  15
BRANCH  14  33
HETATM   33  O4  UNL     1      19.750  -3.914   5.225  1.00  0.00    -0.390 OA
ATOM     34  H4  UNL     1      19.968  -3.067   4.854  1.00  0.00     0.210 HD
ENDBRANCH  14  33
ENDBRANCH  13  14
BRANCH  13  35
HETATM   35  N2  UNL     1      17.521  -6.607   4.679  1.00  0.00    -0.371 N 
ATOM     36  H2  UNL     1      17.997  -6.693   3.781  1.00  0.00     0.160 HD
BRANCH  35  37
HETATM   37  C8  UNL     1      16.535  -7.575   4.920  1.00  0.00     0.125 A 
HETATM   38  C9  UNL     1      16.577  -8.707   4.094  1.00  0.00     0.185 A 
HETATM   39  N3  UNL     1      15.692  -9.702   4.267  1.00  0.00    -0.168 N 
HETATM   40  C10 UNL     1      14.750  -9.653   5.218  1.00  0.00     0.679 A 
ATOM     41  H3  UNL     1      15.738 -10.518   3.656  1.00  0.00     0.186 HD
HETATM   42  N5  UNL     1      14.676  -8.586   6.030  1.00  0.00    -0.175 N 
HETATM   43  C11 UNL     1      15.564  -7.560   5.877  1.00  0.00     0.145 A 
ATOM     44  H5  UNL     1      13.962  -8.541   6.756  1.00  0.00     0.186 HD
BRANCH  38  45
HETATM   45  O5  UNL     1      17.544  -8.807   3.083  1.00  0.00    -0.344 OA
ATOM     46  H5  UNL     1      18.317  -8.254   3.104  1.00  0.00     0.219 HD
ENDBRANCH  38  45
BRANCH  40  47
HETATM   47  N4  UNL     1      13.890 -10.629   5.378  1.00  0.00    -0.234 N 
ATOM     48  H42 UNL     1      14.054 -11.314   6.115  1.00  0.00     0.174 HD
ATOM     49  H41 UNL     1      13.067 -10.714   4.781  1.00  0.00     0.174 HD
ENDBRANCH  40  47
BRANCH  43  50
HETATM   50  N6  UNL     1      15.485  -6.584   6.681  1.00  0.00    -0.383 N 
ATOM     51  H62 UNL     1      16.325  -6.321   7.195  1.00  0.00     0.157 HD
ATOM     52  H61 UNL     1      14.606  -6.075   6.778  1.00  0.00     0.157 HD
ENDBRANCH  43  50
ENDBRANCH  35  37
ENDBRANCH  13  35
ENDBRANCH   1  13
TORSDOF 16
ENDMDL
MODEL 4
REMARK VINA RESULT: -9.319222288      1.565      4.736
REMARK  16 active torsions:
REMARK  status: ('A' for Active; 'I' for Inactive)
REMARK    1  A    between atoms: O1_2  and  C2_3 
REMARK    2  A    between atoms: C2_3  and  C3_5 
REMARK    3  A    between atoms: C4_8  and  C5_9 
REMARK    4  A    between atoms: C5_9  and  O3_10 
REMARK    5  A    between atoms: C5_9  and  C6_12 
REMARK    6  A    between atoms: C6_12  and  O4_13 
REMARK    7  A    between atoms: C6_12  and  C7_15 
REMARK    8  A    between atoms: C7_15  and  N2_16 
REMARK    9  A    between atoms: C7_15  and  C12_34 
REMARK   10  A    between atoms: N2_16  and  C8_18 
REMARK   11  A    between atoms: C9_19  and  O5_20 
REMARK   12  A    between atoms: C10_24  and  N4_25 
REMARK   13  A    between atoms: C11_30  and  N6_31 
REMARK   14  A    between atoms: C17_47  and  C18_48 
REMARK   15  A    between atoms: C18_48  and  O8_49 
REMARK   16  A    between atoms: C18_48  and  O9_51 
ROOT
HETATM    1  C12 UNL     1      16.804  -7.142   5.585  1.00  0.00     0.057 A 
HETATM    2  C13 UNL     1      15.730  -6.978   6.434  1.00  0.00     0.064 A 
HETATM    3  C14 UNL     1      14.829  -8.011   6.316  1.00  0.00     0.105 A 
HETATM    4  N7  UNL     1      13.669  -8.538   6.735  1.00  0.00    -0.238 N 
ATOM      5  H7  UNL     1      13.045  -8.146   7.439  1.00  0.00     0.197 HD
HETATM    6  O6  UNL     1      13.487  -9.661   6.065  1.00  0.00    -0.155 OA
HETATM    7  N8  UNL     1      14.486  -9.854   5.248  1.00  0.00    -0.222 N 
ATOM      8  H8  UNL     1      14.579 -10.653   4.620  1.00  0.00     0.198 HD
HETATM    9  C15 UNL     1      15.379  -8.844   5.352  1.00  0.00     0.172 A 
HETATM   10  N9  UNL     1      16.536  -8.321   4.933  1.00  0.00    -0.232 N 
HETATM   11  C16 UNL     1      17.365  -8.887   3.968  1.00  0.00     0.191 C 
HETATM   12  N10 UNL     1      18.038  -9.360   3.167  1.00  0.00    -0.171 NA
ENDROOT
BRANCH   1  13
HETATM   13  C7  UNL     1      17.977  -6.287   5.390  1.00  0.00     0.165 C 
BRANCH  13  14
HETATM   14  C6  UNL     1      17.717  -5.429   4.154  1.00  0.00     0.183 C 
BRANCH  14  15
HETATM   15  C5  UNL     1      18.831  -5.435   3.169  1.00  0.00     0.224 C 
BRANCH  15  16
HETATM   16  C4  UNL     1      19.022  -4.029   2.710  1.00  0.00     0.156 A 
HETATM   17  N1  UNL     1      19.815  -3.149   3.338  1.00  0.00    -0.331 N 
HETATM   18  C3  UNL     1      19.790  -1.942   2.687  1.00  0.00     0.145 A 
ATOM     19  H1  UNL     1      20.359  -3.349   4.178  1.00  0.00     0.168 HD
HETATM   20  C17 UNL     1      18.950  -2.136   1.643  1.00  0.00     0.142 A 
HETATM   21  O7  UNL     1      18.518  -3.403   1.703  1.00  0.00    -0.292 OA
BRANCH  18  22
HETATM   22  C2  UNL     1      20.540  -0.798   3.145  1.00  0.00     0.312 C 
HETATM   23  O2  UNL     1      21.734  -0.581   2.877  1.00  0.00    -0.258 OA
BRANCH  22  24
HETATM   24  O1  UNL     1      19.931   0.176   3.958  1.00  0.00    -0.321 OA
HETATM   25  C1  UNL     1      20.252   1.558   3.818  1.00  0.00     0.213 C 
ENDBRANCH  22  24
ENDBRANCH  18  22
BRANCH  20  26
HETATM   26  C18 UNL     1      18.571  -1.143   0.614  1.00  0.00     0.315 C 
BRANCH  26  27
HETATM   27  O8  UNL     1      19.646  -0.803  -0.189  1.00  0.00    -0.365 OA
ATOM     28  H8  UNL     1      19.974   0.065   0.013  1.00  0.00     0.213 HD
ENDBRANCH  26  27
BRANCH  26  29
HETATM   29  O9  UNL     1      18.206   0.038   1.295  1.00  0.00    -0.365 OA
ATOM     30  H9  UNL     1      18.613   0.762   0.833  1.00  0.00     0.213 HD
ENDBRANCH  26  29
ENDBRANCH  20  26
ENDBRANCH  15  16
BRANCH  15  31
HETATM   31  O3  UNL     1      20.044  -5.873   3.646  1.00  0.00    -0.385 OA
ATOM     32  H3  UNL     1      20.265  -6.662   3.165  1.00  0.00     0.210 HD
ENDBRANCH  15  31
ENDBRANCH  14  15
BRANCH  14  33
HETATM   33  O4  UNL     1      17.310  -4.154   4.435  1.00  0.00    -0.390 OA
ATOM     34  H4  UNL     1      16.379  -4.124   4.625  1.00  0.00     0.210 HD
ENDBRANCH  14  33
ENDBRANCH  13  14
BRANCH  13  35
HETATM   35  N2  UNL     1      18.475  -5.534   6.474  1.00  0.00    -0.371 N 
ATOM     36  H2  UNL     1      18.122  -4.578   6.531  1.00  0.00     0.160 HD
BRANCH  35  37
HETATM   37  C8  UNL     1      19.378  -5.893   7.485  1.00  0.00     0.125 A 
HETATM   38  C9  UNL     1      19.282  -5.161   8.677  1.00  0.00     0.185 A 
HETATM   39  N3  UNL     1      20.085  -5.450   9.713  1.00  0.00    -0.168 N 
HETATM   40  C10 UNL     1      20.995  -6.432   9.650  1.00  0.00     0.679 A 
ATOM     41  H3  UNL     1      20.000  -4.906  10.572  1.00  0.00     0.186 HD
HETATM   42  N5  UNL     1      21.118  -7.155   8.526  1.00  0.00    -0.175 N 
HETATM   43  C11 UNL     1      20.314  -6.884   7.457  1.00  0.00     0.145 A 
ATOM     44  H5  UNL     1      21.808  -7.904   8.471  1.00  0.00     0.186 HD
BRANCH  38  45
HETATM   45  O5  UNL     1      18.345  -4.123   8.793  1.00  0.00    -0.344 OA
ATOM     46  H5  UNL     1      18.626  -3.216   8.735  1.00  0.00     0.219 HD
ENDBRANCH  38  45
BRANCH  40  47
HETATM   47  N4  UNL     1      21.774  -6.705  10.668  1.00  0.00    -0.234 N 
ATOM     48  H42 UNL     1      22.694  -7.106  10.488  1.00  0.00     0.174 HD
ATOM     49  H41 UNL     1      21.478  -6.523  11.627  1.00  0.00     0.174 HD
ENDBRANCH  40  47
BRANCH  43  50
HETATM   50  N6  UNL     1      20.436  -7.608   6.425  1.00  0.00    -0.383 N 
ATOM     51  H62 UNL     1      20.343  -7.159   5.515  1.00  0.00     0.157 HD
ATOM     52  H61 UNL     1      20.645  -8.602   6.523  1.00  0.00     0.157 HD
ENDBRANCH  43  50
ENDBRANCH  35  37
ENDBRANCH  13  35
ENDBRANCH   1  13
TORSDOF 16
ENDMDL
MODEL 5
REMARK VINA RESULT: -9.071819553      1.656      5.028
REMARK  16 active torsions:
REMARK  status: ('A' for Active; 'I' for Inactive)
REMARK    1  A    between atoms: O1_2  and  C2_3 
REMARK    2  A    between atoms: C2_3  and  C3_5 
REMARK    3  A    between atoms: C4_8  and  C5_9 
REMARK    4  A    between atoms: C5_9  and  O3_10 
REMARK    5  A    between atoms: C5_9  and  C6_12 
REMARK    6  A    between atoms: C6_12  and  O4_13 
REMARK    7  A    between atoms: C6_12  and  C7_15 
REMARK    8  A    between atoms: C7_15  and  N2_16 
REMARK    9  A    between atoms: C7_15  and  C12_34 
REMARK   10  A    between atoms: N2_16  and  C8_18 
REMARK   11  A    between atoms: C9_19  and  O5_20 
REMARK   12  A    between atoms: C10_24  and  N4_25 
REMARK   13  A    between atoms: C11_30  and  N6_31 
REMARK   14  A    between atoms: C17_47  and  C18_48 
REMARK   15  A    between atoms: C18_48  and  O8_49 
REMARK   16  A    between atoms: C18_48  and  O9_51 
ROOT
HETATM    1  C12 UNL     1      16.907  -7.139   5.517  1.00  0.00     0.057 A 
HETATM    2  C13 UNL     1      15.788  -7.003   6.311  1.00  0.00     0.064 A 
HETATM    3  C14 UNL     1      14.921  -8.059   6.151  1.00  0.00     0.105 A 
HETATM    4  N7  UNL     1      13.756  -8.616   6.513  1.00  0.00    -0.238 N 
ATOM      5  H7  UNL     1      13.087  -8.239   7.183  1.00  0.00     0.197 HD
HETATM    6  O6  UNL     1      13.637  -9.743   5.837  1.00  0.00    -0.155 OA
HETATM    7  N8  UNL     1      14.679  -9.911   5.071  1.00  0.00    -0.222 N 
ATOM      8  H8  UNL     1      14.824 -10.708   4.450  1.00  0.00     0.198 HD
HETATM    9  C15 UNL     1      15.540  -8.878   5.218  1.00  0.00     0.172 A 
HETATM   10  N9  UNL     1      16.703  -8.325   4.856  1.00  0.00    -0.232 N 
HETATM   11  C16 UNL     1      17.593  -8.871   3.935  1.00  0.00     0.191 C 
HETATM   12  N10 UNL     1      18.318  -9.327   3.169  1.00  0.00    -0.171 NA
ENDROOT
BRANCH   1  13
HETATM   13  C7  UNL     1      18.066  -6.255   5.380  1.00  0.00     0.165 C 
BRANCH  13  14
HETATM   14  C6  UNL     1      17.817  -5.362   4.166  1.00  0.00     0.183 C 
BRANCH  14  15
HETATM   15  C5  UNL     1      18.896  -5.418   3.143  1.00  0.00     0.224 C 
BRANCH  15  16
HETATM   16  C4  UNL     1      19.110  -4.027   2.651  1.00  0.00     0.156 A 
HETATM   17  N1  UNL     1      18.576  -3.556   1.516  1.00  0.00    -0.331 N 
HETATM   18  C3  UNL     1      18.948  -2.249   1.325  1.00  0.00     0.145 A 
ATOM     19  H1  UNL     1      17.979  -4.091   0.884  1.00  0.00     0.168 HD
HETATM   20  C17 UNL     1      19.726  -1.958   2.394  1.00  0.00     0.142 A 
HETATM   21  O7  UNL     1      19.791  -3.057   3.157  1.00  0.00    -0.292 OA
BRANCH  18  22
HETATM   22  C2  UNL     1      18.531  -1.484   0.175  1.00  0.00     0.312 C 
HETATM   23  O2  UNL     1      18.622  -1.870  -1.003  1.00  0.00    -0.258 OA
BRANCH  22  24
HETATM   24  O1  UNL     1      17.976  -0.201   0.335  1.00  0.00    -0.321 OA
HETATM   25  C1  UNL     1      18.491   0.919  -0.382  1.00  0.00     0.213 C 
ENDBRANCH  22  24
ENDBRANCH  18  22
BRANCH  20  26
HETATM   26  C18 UNL     1      20.387  -0.666   2.683  1.00  0.00     0.315 C 
BRANCH  26  27
HETATM   27  O8  UNL     1      21.763  -0.799   2.745  1.00  0.00    -0.365 OA
ATOM     28  H8  UNL     1      22.154  -0.803   1.879  1.00  0.00     0.213 HD
ENDBRANCH  26  27
BRANCH  26  29
HETATM   29  O9  UNL     1      19.976  -0.273   3.974  1.00  0.00    -0.365 OA
ATOM     30  H9  UNL     1      19.147   0.181   3.875  1.00  0.00     0.213 HD
ENDBRANCH  26  29
ENDBRANCH  20  26
ENDBRANCH  15  16
BRANCH  15  31
HETATM   31  O3  UNL     1      20.111  -5.883   3.587  1.00  0.00    -0.385 OA
ATOM     32  H3  UNL     1      20.056  -5.952   4.532  1.00  0.00     0.210 HD
ENDBRANCH  15  31
ENDBRANCH  14  15
BRANCH  14  33
HETATM   33  O4  UNL     1      17.498  -4.069   4.481  1.00  0.00    -0.390 OA
ATOM     34  H4  UNL     1      18.261  -3.505   4.432  1.00  0.00     0.210 HD
ENDBRANCH  14  33
ENDBRANCH  13  14
BRANCH  13  35
HETATM   35  N2  UNL     1      18.521  -5.528   6.500  1.00  0.00    -0.371 N 
ATOM     36  H2  UNL     1      18.133  -4.589   6.590  1.00  0.00     0.160 HD
BRANCH  35  37
HETATM   37  C8  UNL     1      19.425  -5.894   7.509  1.00  0.00     0.125 A 
HETATM   38  C9  UNL     1      19.336  -5.163   8.701  1.00  0.00     0.185 A 
HETATM   39  N3  UNL     1      20.139  -5.458   9.736  1.00  0.00    -0.168 N 
HETATM   40  C10 UNL     1      21.042  -6.445   9.670  1.00  0.00     0.679 A 
ATOM     41  H3  UNL     1      20.059  -4.914  10.596  1.00  0.00     0.186 HD
HETATM   42  N5  UNL     1      21.158  -7.169   8.545  1.00  0.00    -0.175 N 
HETATM   43  C11 UNL     1      20.354  -6.891   7.478  1.00  0.00     0.145 A 
ATOM     44  H5  UNL     1      21.844  -7.922   8.488  1.00  0.00     0.186 HD
BRANCH  38  45
HETATM   45  O5  UNL     1      18.406  -4.119   8.821  1.00  0.00    -0.344 OA
ATOM     46  H5  UNL     1      17.667  -4.065   8.224  1.00  0.00     0.219 HD
ENDBRANCH  38  45
BRANCH  40  47
HETATM   47  N4  UNL     1      21.822  -6.725  10.685  1.00  0.00    -0.234 N 
ATOM     48  H42 UNL     1      22.016  -5.996  11.372  1.00  0.00     0.174 HD
ATOM     49  H41 UNL     1      22.235  -7.651  10.798  1.00  0.00     0.174 HD
ENDBRANCH  40  47
BRANCH  43  50
HETATM   50  N6  UNL     1      20.469  -7.615   6.445  1.00  0.00    -0.383 N 
ATOM     51  H62 UNL     1      19.709  -8.258   6.226  1.00  0.00     0.157 HD
ATOM     52  H61 UNL     1      21.293  -7.524   5.850  1.00  0.00     0.157 HD
ENDBRANCH  43  50
ENDBRANCH  35  37
ENDBRANCH  13  35
ENDBRANCH   1  13
TORSDOF 16
ENDMDL
