MODEL 1
REMARK VINA RESULT: -6.943175483      0.000      0.000
REMARK  15 active torsions:
REMARK  status: ('A' for Active; 'I' for Inactive)
REMARK       I    between atoms: C1_4  and  N3_6 
REMARK    1  A    between atoms: N3_6  and  N4_8 
REMARK    2  A    between atoms: N5_10  and  O1_11 
REMARK    3  A    between atoms: N5_10  and  N6_13 
REMARK       I    between atoms: N6_13  and  C2_15 
REMARK       I    between atoms: C2_15  and  N8_19 
REMARK    4  A    between atoms: N8_19  and  C3_21 
REMARK    5  A    between atoms: C4_24  and  N10_25 
REMARK    6  A    between atoms: N12_31  and  N13_32 
REMARK    7  A    between atoms: C6_34  and  C7_35 
REMARK    8  A    between atoms: C8_37  and  C9_38 
REMARK    9  A    between atoms: C9_38  and  O3_39 
REMARK   10  A    between atoms: C9_38  and  O4_41 
REMARK   11  A    between atoms: N14_45  and  C12_47 
REMARK   12  A    between atoms: C12_47  and  O5_48 
REMARK   13  A    between atoms: C12_47  and  C13_50 
REMARK   14  A    between atoms: C13_50  and  N15_51 
REMARK   15  A    between atoms: C14_55  and  O6_56 
ROOT
HETATM    1  C3  UNL     1       1.287  -0.625 -25.630  1.00  0.00     0.748 A 
HETATM    2  N9  UNL     1       1.543  -0.298 -26.900  1.00  0.00    -0.019 N 
ATOM      3  H9  UNL     1       2.400  -0.642 -27.331  1.00  0.00     0.203 HD
HETATM    4  C4  UNL     1       0.694   0.485 -27.648  1.00  0.00     0.705 A 
HETATM    5  N11 UNL     1      -0.449   0.936 -27.055  1.00  0.00    -0.018 N 
ATOM      6  H11 UNL     1      -1.100   1.518 -27.581  1.00  0.00     0.203 HD
HETATM    7  C5  UNL     1      -0.714   0.621 -25.805  1.00  0.00     0.755 A 
HETATM    8  N12 UNL     1      -1.779   0.958 -25.038  1.00  0.00    -0.078 N 
HETATM    9  C15 UNL     1      -1.529   0.354 -23.830  1.00  0.00     0.243 A 
HETATM   10  N16 UNL     1      -0.366  -0.301 -23.908  1.00  0.00    -0.258 N 
ATOM     11  H16 UNL     1       0.058  -0.836 -23.151  1.00  0.00     0.189 HD
HETATM   12  N17 UNL     1       0.145  -0.151 -25.102  1.00  0.00     0.094 N 
ENDROOT
BRANCH   8  13
HETATM   13  N13 UNL     1      -2.900   1.710 -25.274  1.00  0.00    -0.287 N 
HETATM   14  C6  UNL     1      -2.972   2.956 -25.386  1.00  0.00     0.148 C 
ATOM     15  H13 UNL     1      -3.776   1.197 -25.371  1.00  0.00     0.187 HD
BRANCH  14  16
HETATM   16  C7  UNL     1      -4.272   3.627 -25.644  1.00  0.00     0.128 A 
HETATM   17  O2  UNL     1      -4.654   4.609 -24.888  1.00  0.00    -0.306 OA
HETATM   18  C8  UNL     1      -5.790   5.251 -25.054  1.00  0.00     0.110 A 
HETATM   19  C10 UNL     1      -6.610   4.850 -26.091  1.00  0.00     0.070 A 
HETATM   20  C11 UNL     1      -6.267   3.820 -26.927  1.00  0.00     0.069 A 
HETATM   21  N14 UNL     1      -7.015   3.441 -27.888  1.00  0.00    -0.360 N 
HETATM   22  C14 UNL     1      -5.054   3.191 -26.688  1.00  0.00     0.128 A 
ATOM     23  H14 UNL     1      -6.724   2.670 -28.489  1.00  0.00     0.162 HD
BRANCH  18  24
HETATM   24  C9  UNL     1      -6.128   6.362 -24.127  1.00  0.00     0.312 C 
BRANCH  24  25
HETATM   25  O3  UNL     1      -6.089   5.809 -22.829  1.00  0.00    -0.365 OA
ATOM     26  H3  UNL     1      -6.995   5.676 -22.575  1.00  0.00     0.213 HD
ENDBRANCH  24  25
BRANCH  24  27
HETATM   27  O4  UNL     1      -5.061   7.281 -24.165  1.00  0.00    -0.365 OA
ATOM     28  H4  UNL     1      -5.429   8.137 -24.351  1.00  0.00     0.213 HD
ENDBRANCH  24  27
ENDBRANCH  18  24
BRANCH  21  29
HETATM   29  C12 UNL     1      -8.286   4.112 -28.126  1.00  0.00     0.243 C 
BRANCH  29  30
HETATM   30  O5  UNL     1      -8.101   4.897 -29.275  1.00  0.00    -0.375 OA
ATOM     31  H5  UNL     1      -8.960   4.988 -29.670  1.00  0.00     0.212 HD
ENDBRANCH  29  30
BRANCH  29  32
HETATM   32  C13 UNL     1      -9.378   3.119 -28.450  1.00  0.00     0.282 C 
BRANCH  32  33
HETATM   33  N15 UNL     1      -9.723   2.468 -27.179  1.00  0.00    -0.075 N 
ATOM     34 3H15 UNL     1     -10.031   3.120 -26.458  1.00  0.00     0.274 HD
ATOM     35 2H15 UNL     1     -10.581   1.919 -27.224  1.00  0.00     0.274 HD
ATOM     36 1H15 UNL     1      -8.904   1.922 -26.912  1.00  0.00     0.274 HD
ENDBRANCH  32  33
ENDBRANCH  29  32
ENDBRANCH  21  29
BRANCH  22  37
HETATM   37  O6  UNL     1      -4.594   2.139 -27.463  1.00  0.00    -0.356 OA
ATOM     38  H6  UNL     1      -4.773   2.152 -28.396  1.00  0.00     0.218 HD
ENDBRANCH  22  37
ENDBRANCH  14  16
ENDBRANCH   8  13
BRANCH   4  39
HETATM   39  N10 UNL     1       1.012   0.728 -28.795  1.00  0.00    -0.234 N 
ATOM     40 2H10 UNL     1       0.980   0.049 -29.557  1.00  0.00     0.174 HD
ATOM     41 1H10 UNL     1       1.334   1.671 -29.010  1.00  0.00     0.174 HD
ENDBRANCH   4  39
BRANCH   1  42
HETATM   42  N8  UNL     1       2.060  -1.348 -24.918  1.00  0.00    -0.018 N 
HETATM   43  C2  UNL     1       2.747  -2.488 -25.352  1.00  0.00     0.708 C 
HETATM   44  N6  UNL     1       4.162  -2.539 -25.551  1.00  0.00    -0.089 N 
HETATM   45  N7  UNL     1       2.085  -3.566 -25.591  1.00  0.00    -0.233 N 
ATOM     46  H6  UNL     1       4.800  -2.028 -24.941  1.00  0.00     0.210 HD
ATOM     47  H72 UNL     1       2.585  -4.396 -25.907  1.00  0.00     0.174 HD
ATOM     48  H71 UNL     1       1.076  -3.529 -25.449  1.00  0.00     0.174 HD
ATOM     49  H8  UNL     1       2.189  -1.070 -23.945  1.00  0.00     0.203 HD
BRANCH  44  50
HETATM   50  N5  UNL     1       4.637  -3.310 -26.603  1.00  0.00    -0.065 N 
HETATM   51  N4  UNL     1       5.253  -2.754 -27.547  1.00  0.00    -0.198 N 
ATOM     52  H4  UNL     1       5.378  -1.744 -27.495  1.00  0.00     0.212 HD
BRANCH  51  53
HETATM   53  N3  UNL     1       5.776  -3.408 -28.654  1.00  0.00    -0.256 N 
HETATM   54  C1  UNL     1       6.841  -2.770 -29.347  1.00  0.00     0.202 C 
HETATM   55  N1  UNL     1       7.953  -2.551 -28.767  1.00  0.00    -0.372 N 
HETATM   56  N2  UNL     1       6.671  -2.371 -30.695  1.00  0.00    -0.062 NA
ATOM     57  H12 UNL     1       8.717  -2.093 -29.264  1.00  0.00     0.158 HD
ATOM     58  H11 UNL     1       8.076  -2.838 -27.796  1.00  0.00     0.158 HD
ATOM     59  H3  UNL     1       5.411  -4.310 -28.959  1.00  0.00     0.191 HD
ENDBRANCH  51  53
BRANCH  50  60
HETATM   60  O1  UNL     1       4.445  -4.659 -26.629  1.00  0.00    -0.252 OA
ATOM     61  H1  UNL     1       3.810  -5.053 -26.041  1.00  0.00     0.248 HD
ENDBRANCH  50  60
ENDBRANCH  44  50
ENDBRANCH   1  42
TORSDOF 15
ENDMDL
MODEL 2
REMARK VINA RESULT: -6.897134038      5.262     12.566
REMARK  15 active torsions:
REMARK  status: ('A' for Active; 'I' for Inactive)
REMARK       I    between atoms: C1_4  and  N3_6 
REMARK    1  A    between atoms: N3_6  and  N4_8 
REMARK    2  A    between atoms: N5_10  and  O1_11 
REMARK    3  A    between atoms: N5_10  and  N6_13 
REMARK       I    between atoms: N6_13  and  C2_15 
REMARK       I    between atoms: C2_15  and  N8_19 
REMARK    4  A    between atoms: N8_19  and  C3_21 
REMARK    5  A    between atoms: C4_24  and  N10_25 
REMARK    6  A    between atoms: N12_31  and  N13_32 
REMARK    7  A    between atoms: C6_34  and  C7_35 
REMARK    8  A    between atoms: C8_37  and  C9_38 
REMARK    9  A    between atoms: C9_38  and  O3_39 
REMARK   10  A    between atoms: C9_38  and  O4_41 
REMARK   11  A    between atoms: N14_45  and  C12_47 
REMARK   12  A    between atoms: C12_47  and  O5_48 
REMARK   13  A    between atoms: C12_47  and  C13_50 
REMARK   14  A    between atoms: C13_50  and  N15_51 
REMARK   15  A    between atoms: C14_55  and  O6_56 
ROOT
HETATM    1  C3  UNL     1      -5.117  -0.282 -23.183  1.00  0.00     0.748 A 
HETATM    2  N9  UNL     1      -4.592  -0.304 -21.955  1.00  0.00    -0.019 N 
ATOM      3  H9  UNL     1      -5.167   0.001 -21.170  1.00  0.00     0.203 HD
HETATM    4  C4  UNL     1      -3.305  -0.723 -21.708  1.00  0.00     0.705 A 
HETATM    5  N11 UNL     1      -2.550  -1.128 -22.770  1.00  0.00    -0.018 N 
ATOM      6  H11 UNL     1      -1.592  -1.444 -22.622  1.00  0.00     0.203 HD
HETATM    7  C5  UNL     1      -3.055  -1.111 -23.984  1.00  0.00     0.755 A 
HETATM    8  N12 UNL     1      -2.484  -1.468 -25.160  1.00  0.00    -0.078 N 
HETATM    9  C15 UNL     1      -3.468  -1.247 -26.093  1.00  0.00     0.243 A 
HETATM   10  N16 UNL     1      -4.555  -0.782 -25.471  1.00  0.00    -0.258 N 
ATOM     11  H16 UNL     1      -5.433  -0.534 -25.928  1.00  0.00     0.189 HD
HETATM   12  N17 UNL     1      -4.324  -0.693 -24.187  1.00  0.00     0.094 N 
ENDROOT
BRANCH   8  13
HETATM   13  N13 UNL     1      -1.242  -1.945 -25.490  1.00  0.00    -0.287 N 
HETATM   14  C6  UNL     1      -0.160  -1.722 -24.900  1.00  0.00     0.148 C 
ATOM     15  H13 UNL     1      -1.194  -2.552 -26.308  1.00  0.00     0.187 HD
BRANCH  14  16
HETATM   16  C7  UNL     1       1.112  -2.319 -25.384  1.00  0.00     0.128 A 
HETATM   17  O2  UNL     1       2.143  -1.560 -25.594  1.00  0.00    -0.306 OA
HETATM   18  C8  UNL     1       3.301  -2.016 -26.023  1.00  0.00     0.110 A 
HETATM   19  C10 UNL     1       3.413  -3.372 -26.257  1.00  0.00     0.070 A 
HETATM   20  C11 UNL     1       2.363  -4.230 -26.055  1.00  0.00     0.069 A 
HETATM   21  N14 UNL     1       2.454  -5.484 -26.267  1.00  0.00    -0.360 N 
HETATM   22  C14 UNL     1       1.174  -3.675 -25.604  1.00  0.00     0.128 A 
ATOM     23  H14 UNL     1       1.649  -6.089 -26.104  1.00  0.00     0.162 HD
BRANCH  18  24
HETATM   24  C9  UNL     1       4.416  -1.055 -26.230  1.00  0.00     0.312 C 
BRANCH  24  25
HETATM   25  O3  UNL     1       3.911  -0.055 -27.088  1.00  0.00    -0.365 OA
ATOM     26  H3  UNL     1       3.581  -0.510 -27.853  1.00  0.00     0.213 HD
ENDBRANCH  24  25
BRANCH  24  27
HETATM   27  O4  UNL     1       4.644  -0.403 -25.001  1.00  0.00    -0.365 OA
ATOM     28  H4  UNL     1       4.924  -1.062 -24.377  1.00  0.00     0.213 HD
ENDBRANCH  24  27
ENDBRANCH  18  24
BRANCH  21  29
HETATM   29  C12 UNL     1       3.710  -6.050 -26.741  1.00  0.00     0.243 C 
BRANCH  29  30
HETATM   30  O5  UNL     1       4.002  -7.118 -25.879  1.00  0.00    -0.375 OA
ATOM     31  H5  UNL     1       4.789  -6.867 -25.409  1.00  0.00     0.212 HD
ENDBRANCH  29  30
BRANCH  29  32
HETATM   32  C13 UNL     1       3.558  -6.638 -28.125  1.00  0.00     0.282 C 
BRANCH  32  33
HETATM   33  N15 UNL     1       3.972  -8.043 -28.015  1.00  0.00    -0.075 N 
ATOM     34 3H15 UNL     1       4.855  -8.169 -27.522  1.00  0.00     0.274 HD
ATOM     35 2H15 UNL     1       3.394  -8.588 -27.376  1.00  0.00     0.274 HD
ATOM     36 1H15 UNL     1       3.981  -8.409 -28.968  1.00  0.00     0.274 HD
ENDBRANCH  32  33
ENDBRANCH  29  32
ENDBRANCH  21  29
BRANCH  22  37
HETATM   37  O6  UNL     1       0.042  -4.436 -25.361  1.00  0.00    -0.356 OA
ATOM     38  H6  UNL     1      -0.440  -4.780 -26.105  1.00  0.00     0.218 HD
ENDBRANCH  22  37
ENDBRANCH  14  16
ENDBRANCH   8  13
BRANCH   4  39
HETATM   39  N10 UNL     1      -2.916  -0.709 -20.557  1.00  0.00    -0.234 N 
ATOM     40 2H10 UNL     1      -3.482  -0.988 -19.755  1.00  0.00     0.174 HD
ATOM     41 1H10 UNL     1      -1.962  -0.397 -20.381  1.00  0.00     0.174 HD
ENDBRANCH   4  39
BRANCH   1  42
HETATM   42  N8  UNL     1      -6.307   0.104 -23.435  1.00  0.00    -0.018 N 
HETATM   43  C2  UNL     1      -7.439  -0.170 -22.658  1.00  0.00     0.708 C 
HETATM   44  N6  UNL     1      -8.121   0.807 -21.868  1.00  0.00    -0.089 N 
HETATM   45  N7  UNL     1      -7.912  -1.368 -22.641  1.00  0.00    -0.233 N 
ATOM     46  H6  UNL     1      -8.210   1.773 -22.184  1.00  0.00     0.210 HD
ATOM     47  H72 UNL     1      -8.738  -1.568 -22.076  1.00  0.00     0.174 HD
ATOM     48  H71 UNL     1      -7.426  -2.065 -23.204  1.00  0.00     0.174 HD
ATOM     49  H8  UNL     1      -6.446   0.662 -24.277  1.00  0.00     0.203 HD
BRANCH  44  50
HETATM   50  N5  UNL     1      -8.658   0.395 -20.656  1.00  0.00    -0.065 N 
HETATM   51  N4  UNL     1      -9.677   0.974 -20.203  1.00  0.00    -0.198 N 
ATOM     52  H4  UNL     1     -10.071   1.734 -20.757  1.00  0.00     0.212 HD
BRANCH  51  53
HETATM   53  N3  UNL     1     -10.308   0.661 -19.008  1.00  0.00    -0.256 N 
HETATM   54  C1  UNL     1     -11.506   1.362 -18.697  1.00  0.00     0.202 C 
HETATM   55  N1  UNL     1     -12.534   1.252 -19.439  1.00  0.00    -0.372 N 
HETATM   56  N2  UNL     1     -11.562   2.194 -17.553  1.00  0.00    -0.062 NA
ATOM     57  H12 UNL     1     -13.392   1.755 -19.217  1.00  0.00     0.158 HD
ATOM     58  H11 UNL     1     -12.493   0.652 -20.263  1.00  0.00     0.158 HD
ATOM     59  H3  UNL     1      -9.929  -0.045 -18.377  1.00  0.00     0.191 HD
ENDBRANCH  51  53
BRANCH  50  60
HETATM   60  O1  UNL     1      -8.096  -0.627 -19.950  1.00  0.00    -0.252 OA
ATOM     61  H1  UNL     1      -8.107  -1.506 -20.310  1.00  0.00     0.248 HD
ENDBRANCH  50  60
ENDBRANCH  44  50
ENDBRANCH   1  42
TORSDOF 15
ENDMDL
MODEL 3
REMARK VINA RESULT: -6.767304813      3.859      4.878
REMARK  15 active torsions:
REMARK  status: ('A' for Active; 'I' for Inactive)
REMARK       I    between atoms: C1_4  and  N3_6 
REMARK    1  A    between atoms: N3_6  and  N4_8 
REMARK    2  A    between atoms: N5_10  and  O1_11 
REMARK    3  A    between atoms: N5_10  and  N6_13 
REMARK       I    between atoms: N6_13  and  C2_15 
REMARK       I    between atoms: C2_15  and  N8_19 
REMARK    4  A    between atoms: N8_19  and  C3_21 
REMARK    5  A    between atoms: C4_24  and  N10_25 
REMARK    6  A    between atoms: N12_31  and  N13_32 
REMARK    7  A    between atoms: C6_34  and  C7_35 
REMARK    8  A    between atoms: C8_37  and  C9_38 
REMARK    9  A    between atoms: C9_38  and  O3_39 
REMARK   10  A    between atoms: C9_38  and  O4_41 
REMARK   11  A    between atoms: N14_45  and  C12_47 
REMARK   12  A    between atoms: C12_47  and  O5_48 
REMARK   13  A    between atoms: C12_47  and  C13_50 
REMARK   14  A    between atoms: C13_50  and  N15_51 
REMARK   15  A    between atoms: C14_55  and  O6_56 
ROOT
HETATM    1  C3  UNL     1       2.099  -1.406 -26.361  1.00  0.00     0.748 A 
HETATM    2  N9  UNL     1       1.683  -2.028 -27.467  1.00  0.00    -0.019 N 
ATOM      3  H9  UNL     1       2.375  -2.311 -28.161  1.00  0.00     0.203 HD
HETATM    4  C4  UNL     1       0.357  -2.304 -27.706  1.00  0.00     0.705 A 
HETATM    5  N11 UNL     1      -0.555  -1.920 -26.767  1.00  0.00    -0.018 N 
ATOM      6  H11 UNL     1      -1.547  -2.109 -26.912  1.00  0.00     0.203 HD
HETATM    7  C5  UNL     1      -0.159  -1.307 -25.673  1.00  0.00     0.755 A 
HETATM    8  N12 UNL     1      -0.889  -0.849 -24.627  1.00  0.00    -0.078 N 
HETATM    9  C15 UNL     1       0.041  -0.302 -23.778  1.00  0.00     0.243 A 
HETATM   10  N16 UNL     1       1.255  -0.445 -24.321  1.00  0.00    -0.258 N 
ATOM     11  H16 UNL     1       2.127  -0.126 -23.900  1.00  0.00     0.189 HD
HETATM   12  N17 UNL     1       1.154  -1.053 -25.473  1.00  0.00     0.094 N 
ENDROOT
BRANCH   8  13
HETATM   13  N13 UNL     1      -2.232  -0.857 -24.351  1.00  0.00    -0.287 N 
HETATM   14  C6  UNL     1      -3.097  -0.047 -24.755  1.00  0.00     0.148 C 
ATOM     15  H13 UNL     1      -2.565  -1.609 -23.748  1.00  0.00     0.187 HD
BRANCH  14  16
HETATM   16  C7  UNL     1      -4.524  -0.193 -24.364  1.00  0.00     0.128 A 
HETATM   17  O2  UNL     1      -5.434  -0.327 -25.279  1.00  0.00    -0.306 OA
HETATM   18  C8  UNL     1      -6.715  -0.461 -25.010  1.00  0.00     0.110 A 
HETATM   19  C10 UNL     1      -7.099  -0.457 -23.683  1.00  0.00     0.070 A 
HETATM   20  C11 UNL     1      -6.189  -0.319 -22.668  1.00  0.00     0.069 A 
HETATM   21  N14 UNL     1      -6.530  -0.316 -21.439  1.00  0.00    -0.360 N 
HETATM   22  C14 UNL     1      -4.857  -0.183 -23.030  1.00  0.00     0.128 A 
ATOM     23  H14 UNL     1      -5.822  -0.211 -20.713  1.00  0.00     0.162 HD
BRANCH  18  24
HETATM   24  C9  UNL     1      -7.672  -0.607 -26.138  1.00  0.00     0.312 C 
BRANCH  24  25
HETATM   25  O3  UNL     1      -6.902  -1.013 -27.249  1.00  0.00    -0.365 OA
ATOM     26  H3  UNL     1      -7.425  -1.659 -27.707  1.00  0.00     0.213 HD
ENDBRANCH  24  25
BRANCH  24  27
HETATM   27  O4  UNL     1      -8.502  -1.707 -25.846  1.00  0.00    -0.365 OA
ATOM     28  H4  UNL     1      -7.938  -2.435 -25.612  1.00  0.00     0.213 HD
ENDBRANCH  24  27
ENDBRANCH  18  24
BRANCH  21  29
HETATM   29  C12 UNL     1      -7.933  -0.461 -21.076  1.00  0.00     0.243 C 
BRANCH  29  30
HETATM   30  O5  UNL     1      -8.001  -1.579 -20.232  1.00  0.00    -0.375 OA
ATOM     31  H5  UNL     1      -8.917  -1.828 -20.200  1.00  0.00     0.212 HD
ENDBRANCH  29  30
BRANCH  29  32
HETATM   32  C13 UNL     1      -8.416   0.722 -20.270  1.00  0.00     0.282 C 
BRANCH  32  33
HETATM   33  N15 UNL     1      -9.319   1.473 -21.152  1.00  0.00    -0.075 N 
ATOM     34 3H15 UNL     1      -8.922   2.350 -21.489  1.00  0.00     0.274 HD
ATOM     35 2H15 UNL     1      -9.449   1.038 -22.065  1.00  0.00     0.274 HD
ATOM     36 1H15 UNL     1     -10.187   1.592 -20.631  1.00  0.00     0.274 HD
ENDBRANCH  32  33
ENDBRANCH  29  32
ENDBRANCH  21  29
BRANCH  22  37
HETATM   37  O6  UNL     1      -3.842  -0.037 -22.098  1.00  0.00    -0.356 OA
ATOM     38  H6  UNL     1      -4.061   0.311 -21.241  1.00  0.00     0.218 HD
ENDBRANCH  22  37
ENDBRANCH  14  16
ENDBRANCH   8  13
BRANCH   4  39
HETATM   39  N10 UNL     1       0.075  -2.876 -28.741  1.00  0.00    -0.234 N 
ATOM     40 2H10 UNL     1       0.720  -3.465 -29.267  1.00  0.00     0.174 HD
ATOM     41 1H10 UNL     1      -0.869  -2.757 -29.108  1.00  0.00     0.174 HD
ENDBRANCH   4  39
BRANCH   1  42
HETATM   42  N8  UNL     1       3.324  -1.140 -26.120  1.00  0.00    -0.018 N 
HETATM   43  C2  UNL     1       4.417  -1.957 -26.429  1.00  0.00     0.708 C 
HETATM   44  N6  UNL     1       5.365  -1.666 -27.460  1.00  0.00    -0.089 N 
HETATM   45  N7  UNL     1       4.600  -3.041 -25.758  1.00  0.00    -0.233 N 
ATOM     46  H6  UNL     1       5.651  -0.707 -27.658  1.00  0.00     0.210 HD
ATOM     47  H72 UNL     1       5.397  -3.636 -25.983  1.00  0.00     0.174 HD
ATOM     48  H71 UNL     1       3.924  -3.248 -25.023  1.00  0.00     0.174 HD
ATOM     49  H8  UNL     1       3.523  -0.251 -25.660  1.00  0.00     0.203 HD
BRANCH  44  50
HETATM   50  N5  UNL     1       5.882  -2.734 -28.180  1.00  0.00    -0.065 N 
HETATM   51  N4  UNL     1       7.041  -2.653 -28.657  1.00  0.00    -0.198 N 
ATOM     52  H4  UNL     1       7.559  -1.791 -28.490  1.00  0.00     0.212 HD
BRANCH  51  53
HETATM   53  N3  UNL     1       7.673  -3.646 -29.394  1.00  0.00    -0.256 N 
HETATM   54  C1  UNL     1       8.958  -3.349 -29.925  1.00  0.00     0.202 C 
HETATM   55  N1  UNL     1       9.937  -3.096 -29.151  1.00  0.00    -0.372 N 
HETATM   56  N2  UNL     1       9.159  -3.332 -31.326  1.00  0.00    -0.062 NA
ATOM     57  H12 UNL     1      10.859  -2.884 -29.531  1.00  0.00     0.158 HD
ATOM     58  H11 UNL     1       9.792  -3.109 -28.141  1.00  0.00     0.158 HD
ATOM     59  H3  UNL     1       7.232  -4.553 -29.549  1.00  0.00     0.191 HD
ENDBRANCH  51  53
BRANCH  50  60
HETATM   60  O1  UNL     1       5.152  -3.868 -28.377  1.00  0.00    -0.252 OA
ATOM     61  H1  UNL     1       4.209  -3.806 -28.479  1.00  0.00     0.248 HD
ENDBRANCH  50  60
ENDBRANCH  44  50
ENDBRANCH   1  42
TORSDOF 15
ENDMDL
MODEL 4
REMARK VINA RESULT: -6.743333620      4.971     12.394
REMARK  15 active torsions:
REMARK  status: ('A' for Active; 'I' for Inactive)
REMARK       I    between atoms: C1_4  and  N3_6 
REMARK    1  A    between atoms: N3_6  and  N4_8 
REMARK    2  A    between atoms: N5_10  and  O1_11 
REMARK    3  A    between atoms: N5_10  and  N6_13 
REMARK       I    between atoms: N6_13  and  C2_15 
REMARK       I    between atoms: C2_15  and  N8_19 
REMARK    4  A    between atoms: N8_19  and  C3_21 
REMARK    5  A    between atoms: C4_24  and  N10_25 
REMARK    6  A    between atoms: N12_31  and  N13_32 
REMARK    7  A    between atoms: C6_34  and  C7_35 
REMARK    8  A    between atoms: C8_37  and  C9_38 
REMARK    9  A    between atoms: C9_38  and  O3_39 
REMARK   10  A    between atoms: C9_38  and  O4_41 
REMARK   11  A    between atoms: N14_45  and  C12_47 
REMARK   12  A    between atoms: C12_47  and  O5_48 
REMARK   13  A    between atoms: C12_47  and  C13_50 
REMARK   14  A    between atoms: C13_50  and  N15_51 
REMARK   15  A    between atoms: C14_55  and  O6_56 
ROOT
HETATM    1  C3  UNL     1      -5.386  -0.424 -23.106  1.00  0.00     0.748 A 
HETATM    2  N9  UNL     1      -4.839  -0.294 -21.895  1.00  0.00    -0.019 N 
ATOM      3  H9  UNL     1      -5.420   0.045 -21.129  1.00  0.00     0.203 HD
HETATM    4  C4  UNL     1      -3.522  -0.599 -21.641  1.00  0.00     0.705 A 
HETATM    5  N11 UNL     1      -2.760  -1.052 -22.679  1.00  0.00    -0.018 N 
ATOM      6  H11 UNL     1      -1.780  -1.288 -22.525  1.00  0.00     0.203 HD
HETATM    7  C5  UNL     1      -3.286  -1.186 -23.877  1.00  0.00     0.755 A 
HETATM    8  N12 UNL     1      -2.713  -1.614 -25.027  1.00  0.00    -0.078 N 
HETATM    9  C15 UNL     1      -3.726  -1.550 -25.953  1.00  0.00     0.243 A 
HETATM   10  N16 UNL     1      -4.832  -1.102 -25.350  1.00  0.00    -0.258 N 
ATOM     11  H16 UNL     1      -5.732  -0.959 -25.807  1.00  0.00     0.189 HD
HETATM   12  N17 UNL     1      -4.585  -0.875 -24.087  1.00  0.00     0.094 N 
ENDROOT
BRANCH   8  13
HETATM   13  N13 UNL     1      -1.447  -2.036 -25.340  1.00  0.00    -0.287 N 
HETATM   14  C6  UNL     1      -0.395  -1.835 -24.691  1.00  0.00     0.148 C 
ATOM     15  H13 UNL     1      -1.350  -2.575 -26.200  1.00  0.00     0.187 HD
BRANCH  14  16
HETATM   16  C7  UNL     1       0.910  -2.363 -25.166  1.00  0.00     0.128 A 
HETATM   17  O2  UNL     1       1.941  -1.578 -25.226  1.00  0.00    -0.306 OA
HETATM   18  C8  UNL     1       3.128  -1.973 -25.636  1.00  0.00     0.110 A 
HETATM   19  C10 UNL     1       3.271  -3.292 -26.019  1.00  0.00     0.070 A 
HETATM   20  C11 UNL     1       2.222  -4.174 -25.980  1.00  0.00     0.069 A 
HETATM   21  N14 UNL     1       2.342  -5.394 -26.330  1.00  0.00    -0.360 N 
HETATM   22  C14 UNL     1       1.003  -3.684 -25.537  1.00  0.00     0.128 A 
ATOM     23  H14 UNL     1       1.537  -6.020 -26.286  1.00  0.00     0.162 HD
BRANCH  18  24
HETATM   24  C9  UNL     1       4.240  -0.987 -25.665  1.00  0.00     0.312 C 
BRANCH  24  25
HETATM   25  O3  UNL     1       4.022  -0.191 -26.810  1.00  0.00    -0.365 OA
ATOM     26  H3  UNL     1       4.394   0.660 -26.610  1.00  0.00     0.213 HD
ENDBRANCH  24  25
BRANCH  24  27
HETATM   27  O4  UNL     1       4.059  -0.116 -24.573  1.00  0.00    -0.365 OA
ATOM     28  H4  UNL     1       3.710   0.699 -24.914  1.00  0.00     0.213 HD
ENDBRANCH  24  27
ENDBRANCH  18  24
BRANCH  21  29
HETATM   29  C12 UNL     1       3.630  -5.893 -26.793  1.00  0.00     0.243 C 
BRANCH  29  30
HETATM   30  O5  UNL     1       4.007  -6.893 -25.884  1.00  0.00    -0.375 OA
ATOM     31  H5  UNL     1       4.796  -6.577 -25.460  1.00  0.00     0.212 HD
ENDBRANCH  29  30
BRANCH  29  32
HETATM   32  C13 UNL     1       3.507  -6.559 -28.144  1.00  0.00     0.282 C 
BRANCH  32  33
HETATM   33  N15 UNL     1       4.045  -7.915 -27.978  1.00  0.00    -0.075 N 
ATOM     34 3H15 UNL     1       4.638  -8.019 -27.154  1.00  0.00     0.274 HD
ATOM     35 2H15 UNL     1       3.340  -8.602 -27.710  1.00  0.00     0.274 HD
ATOM     36 1H15 UNL     1       4.519  -8.139 -28.852  1.00  0.00     0.274 HD
ENDBRANCH  32  33
ENDBRANCH  29  32
ENDBRANCH  21  29
BRANCH  22  37
HETATM   37  O6  UNL     1      -0.132  -4.474 -25.451  1.00  0.00    -0.356 OA
ATOM     38  H6  UNL     1      -0.023  -5.417 -25.395  1.00  0.00     0.218 HD
ENDBRANCH  22  37
ENDBRANCH  14  16
ENDBRANCH   8  13
BRANCH   4  39
HETATM   39  N10 UNL     1      -3.115  -0.450 -20.506  1.00  0.00    -0.234 N 
ATOM     40 2H10 UNL     1      -3.640  -0.703 -19.668  1.00  0.00     0.174 HD
ATOM     41 1H10 UNL     1      -2.187  -0.043 -20.384  1.00  0.00     0.174 HD
ENDBRANCH   4  39
BRANCH   1  42
HETATM   42  N8  UNL     1      -6.604  -0.146 -23.365  1.00  0.00    -0.018 N 
HETATM   43  C2  UNL     1      -7.576   0.230 -22.429  1.00  0.00     0.708 C 
HETATM   44  N6  UNL     1      -8.108   1.552 -22.319  1.00  0.00    -0.089 N 
HETATM   45  N7  UNL     1      -8.031  -0.652 -21.609  1.00  0.00    -0.233 N 
ATOM     46  H6  UNL     1      -8.259   2.131 -23.145  1.00  0.00     0.210 HD
ATOM     47  H72 UNL     1      -8.738  -0.378 -20.927  1.00  0.00     0.174 HD
ATOM     48  H71 UNL     1      -7.651  -1.595 -21.687  1.00  0.00     0.174 HD
ATOM     49  H8  UNL     1      -6.897  -0.202 -24.340  1.00  0.00     0.203 HD
BRANCH  44  50
HETATM   50  N5  UNL     1      -8.413   2.021 -21.048  1.00  0.00    -0.065 N 
HETATM   51  N4  UNL     1      -9.610   2.260 -20.749  1.00  0.00    -0.198 N 
ATOM     52  H4  UNL     1     -10.315   2.096 -21.466  1.00  0.00     0.212 HD
BRANCH  51  53
HETATM   53  N3  UNL     1     -10.047   2.730 -19.518  1.00  0.00    -0.256 N 
HETATM   54  C1  UNL     1      -9.750   4.082 -19.192  1.00  0.00     0.202 C 
HETATM   55  N1  UNL     1     -10.223   5.036 -19.889  1.00  0.00    -0.372 N 
HETATM   56  N2  UNL     1      -8.922   4.377 -18.082  1.00  0.00    -0.062 NA
ATOM     57  H12 UNL     1     -10.010   6.006 -19.655  1.00  0.00     0.158 HD
ATOM     58  H11 UNL     1     -10.820   4.824 -20.688  1.00  0.00     0.158 HD
ATOM     59  H3  UNL     1     -10.561   2.129 -18.873  1.00  0.00     0.191 HD
ENDBRANCH  51  53
BRANCH  50  60
HETATM   60  O1  UNL     1      -7.435   2.224 -20.121  1.00  0.00    -0.252 OA
ATOM     61  H1  UNL     1      -7.321   3.088 -19.742  1.00  0.00     0.248 HD
ENDBRANCH  50  60
ENDBRANCH  44  50
ENDBRANCH   1  42
TORSDOF 15
ENDMDL
MODEL 5
REMARK VINA RESULT: -6.632886637      3.597     11.642
REMARK  15 active torsions:
REMARK  status: ('A' for Active; 'I' for Inactive)
REMARK       I    between atoms: C1_4  and  N3_6 
REMARK    1  A    between atoms: N3_6  and  N4_8 
REMARK    2  A    between atoms: N5_10  and  O1_11 
REMARK    3  A    between atoms: N5_10  and  N6_13 
REMARK       I    between atoms: N6_13  and  C2_15 
REMARK       I    between atoms: C2_15  and  N8_19 
REMARK    4  A    between atoms: N8_19  and  C3_21 
REMARK    5  A    between atoms: C4_24  and  N10_25 
REMARK    6  A    between atoms: N12_31  and  N13_32 
REMARK    7  A    between atoms: C6_34  and  C7_35 
REMARK    8  A    between atoms: C8_37  and  C9_38 
REMARK    9  A    between atoms: C9_38  and  O3_39 
REMARK   10  A    between atoms: C9_38  and  O4_41 
REMARK   11  A    between atoms: N14_45  and  C12_47 
REMARK   12  A    between atoms: C12_47  and  O5_48 
REMARK   13  A    between atoms: C12_47  and  C13_50 
REMARK   14  A    between atoms: C13_50  and  N15_51 
REMARK   15  A    between atoms: C14_55  and  O6_56 
ROOT
HETATM    1  C3  UNL     1      -5.659  -0.498 -23.277  1.00  0.00     0.748 A 
HETATM    2  N9  UNL     1      -5.142  -0.298 -22.062  1.00  0.00    -0.019 N 
ATOM      3  H9  UNL     1      -5.751   0.050 -21.322  1.00  0.00     0.203 HD
HETATM    4  C4  UNL     1      -3.821  -0.544 -21.771  1.00  0.00     0.705 A 
HETATM    5  N11 UNL     1      -3.021  -1.010 -22.774  1.00  0.00    -0.018 N 
ATOM      6  H11 UNL     1      -2.037  -1.203 -22.592  1.00  0.00     0.203 HD
HETATM    7  C5  UNL     1      -3.518  -1.211 -23.975  1.00  0.00     0.755 A 
HETATM    8  N12 UNL     1      -2.906  -1.665 -25.096  1.00  0.00    -0.078 N 
HETATM    9  C15 UNL     1      -3.901  -1.676 -26.042  1.00  0.00     0.243 A 
HETATM   10  N16 UNL     1      -5.035  -1.245 -25.480  1.00  0.00    -0.258 N 
ATOM     11  H16 UNL     1      -5.930  -1.154 -25.960  1.00  0.00     0.189 HD
HETATM   12  N17 UNL     1      -4.822  -0.958 -24.223  1.00  0.00     0.094 N 
ENDROOT
BRANCH   8  13
HETATM   13  N13 UNL     1      -1.619  -2.051 -25.367  1.00  0.00    -0.287 N 
HETATM   14  C6  UNL     1      -0.607  -1.890 -24.646  1.00  0.00     0.148 C 
ATOM     15  H13 UNL     1      -1.468  -2.526 -26.257  1.00  0.00     0.187 HD
BRANCH  14  16
HETATM   16  C7  UNL     1       0.729  -2.370 -25.084  1.00  0.00     0.128 A 
HETATM   17  O2  UNL     1       1.743  -1.562 -25.069  1.00  0.00    -0.306 OA
HETATM   18  C8  UNL     1       2.955  -1.914 -25.441  1.00  0.00     0.110 A 
HETATM   19  C10 UNL     1       3.144  -3.214 -25.870  1.00  0.00     0.070 A 
HETATM   20  C11 UNL     1       2.116  -4.119 -25.911  1.00  0.00     0.069 A 
HETATM   21  N14 UNL     1       2.278  -5.321 -26.303  1.00  0.00    -0.360 N 
HETATM   22  C14 UNL     1       0.868  -3.673 -25.503  1.00  0.00     0.128 A 
ATOM     23  H14 UNL     1       1.488  -5.965 -26.319  1.00  0.00     0.162 HD
BRANCH  18  24
HETATM   24  C9  UNL     1       4.044  -0.905 -25.383  1.00  0.00     0.312 C 
BRANCH  24  25
HETATM   25  O3  UNL     1       3.975  -0.190 -26.598  1.00  0.00    -0.365 OA
ATOM     26  H3  UNL     1       3.119  -0.378 -26.964  1.00  0.00     0.213 HD
ENDBRANCH  24  25
BRANCH  24  27
HETATM   27  O4  UNL     1       3.699   0.030 -24.387  1.00  0.00    -0.365 OA
ATOM     28  H4  UNL     1       4.241   0.799 -24.519  1.00  0.00     0.213 HD
ENDBRANCH  24  27
ENDBRANCH  18  24
BRANCH  21  29
HETATM   29  C12 UNL     1       3.596  -5.773 -26.728  1.00  0.00     0.243 C 
BRANCH  29  30
HETATM   30  O5  UNL     1       3.945  -6.819 -25.860  1.00  0.00    -0.375 OA
ATOM     31  H5  UNL     1       4.747  -7.191 -26.208  1.00  0.00     0.212 HD
ENDBRANCH  29  30
BRANCH  29  32
HETATM   32  C13 UNL     1       3.552  -6.361 -28.120  1.00  0.00     0.282 C 
BRANCH  32  33
HETATM   33  N15 UNL     1       3.971  -7.762 -27.982  1.00  0.00    -0.075 N 
ATOM     34 3H15 UNL     1       4.526  -7.939 -27.145  1.00  0.00     0.274 HD
ATOM     35 2H15 UNL     1       3.204  -8.395 -27.758  1.00  0.00     0.274 HD
ATOM     36 1H15 UNL     1       4.454  -7.998 -28.849  1.00  0.00     0.274 HD
ENDBRANCH  32  33
ENDBRANCH  29  32
ENDBRANCH  21  29
BRANCH  22  37
HETATM   37  O6  UNL     1      -0.251  -4.490 -25.497  1.00  0.00    -0.356 OA
ATOM     38  H6  UNL     1      -1.074  -4.129 -25.187  1.00  0.00     0.218 HD
ENDBRANCH  22  37
ENDBRANCH  14  16
ENDBRANCH   8  13
BRANCH   4  39
HETATM   39  N10 UNL     1      -3.443  -0.334 -20.635  1.00  0.00    -0.234 N 
ATOM     40 2H10 UNL     1      -3.778   0.432 -20.050  1.00  0.00     0.174 HD
ATOM     41 1H10 UNL     1      -2.743  -0.963 -20.243  1.00  0.00     0.174 HD
ENDBRANCH   4  39
BRANCH   1  42
HETATM   42  N8  UNL     1      -6.881  -0.275 -23.570  1.00  0.00    -0.018 N 
HETATM   43  C2  UNL     1      -7.496   0.981 -23.622  1.00  0.00     0.708 C 
HETATM   44  N6  UNL     1      -7.898   1.624 -24.834  1.00  0.00    -0.089 N 
HETATM   45  N7  UNL     1      -7.723   1.614 -22.523  1.00  0.00    -0.233 N 
ATOM     46  H6  UNL     1      -8.264   1.087 -25.620  1.00  0.00     0.210 HD
ATOM     47  H72 UNL     1      -8.172   2.529 -22.561  1.00  0.00     0.174 HD
ATOM     48  H71 UNL     1      -7.437   1.156 -21.659  1.00  0.00     0.174 HD
ATOM     49  H8  UNL     1      -7.462  -1.086 -23.785  1.00  0.00     0.203 HD
BRANCH  44  50
HETATM   50  N5  UNL     1      -7.772   3.004 -24.904  1.00  0.00    -0.065 N 
HETATM   51  N4  UNL     1      -8.700   3.684 -25.409  1.00  0.00    -0.198 N 
ATOM     52  H4  UNL     1      -9.519   3.182 -25.751  1.00  0.00     0.212 HD
BRANCH  51  53
HETATM   53  N3  UNL     1      -8.699   5.067 -25.539  1.00  0.00    -0.256 N 
HETATM   54  C1  UNL     1      -7.868   5.628 -26.547  1.00  0.00     0.202 C 
HETATM   55  N1  UNL     1      -8.072   5.366 -27.775  1.00  0.00    -0.372 N 
HETATM   56  N2  UNL     1      -6.801   6.487 -26.187  1.00  0.00    -0.062 NA
ATOM     57  H12 UNL     1      -7.476   5.769 -28.499  1.00  0.00     0.158 HD
ATOM     58  H11 UNL     1      -8.840   4.748 -28.034  1.00  0.00     0.158 HD
ATOM     59  H3  UNL     1      -9.271   5.656 -24.934  1.00  0.00     0.191 HD
ENDBRANCH  51  53
BRANCH  50  60
HETATM   60  O1  UNL     1      -6.658   3.634 -24.433  1.00  0.00    -0.252 OA
ATOM     61  H1  UNL     1      -6.306   3.390 -23.585  1.00  0.00     0.248 HD
ENDBRANCH  50  60
ENDBRANCH  44  50
ENDBRANCH   1  42
TORSDOF 15
ENDMDL
