MODEL 1
REMARK VINA RESULT: -5.996622346      0.000      0.000
REMARK  16 active torsions:
REMARK  status: ('A' for Active; 'I' for Inactive)
REMARK    1  A    between atoms: C2_2  and  O1_3 
REMARK    2  A    between atoms: O1_3  and  C3_4 
REMARK    3  A    between atoms: C3_4  and  C4_6 
REMARK    4  A    between atoms: C4_6  and  O3_7 
REMARK    5  A    between atoms: C6_11  and  C7_12 
REMARK    6  A    between atoms: C7_12  and  O5_13 
REMARK    7  A    between atoms: C7_12  and  C8_15 
REMARK    8  A    between atoms: C8_15  and  O6_16 
REMARK    9  A    between atoms: C9_19  and  O8_20 
REMARK   10  A    between atoms: O8_20  and  C10_21 
REMARK   11  A    between atoms: C11_25  and  O9_26 
REMARK   12  A    between atoms: C12_28  and  C13_29 
REMARK   13  A    between atoms: C13_29  and  O10_30 
REMARK   14  A    between atoms: C15_34  and  O12_35 
REMARK   15  A    between atoms: O12_35  and  C16_36 
REMARK   16  A    between atoms: C19_45  and  O13_47 
ROOT
HETATM    1  C4  UNL     1      -0.704  -0.197 -25.520  1.00  0.00     0.281 C 
HETATM    2  O4  UNL     1      -1.895  -0.871 -25.695  1.00  0.00    -0.336 OA
HETATM    3  C5  UNL     1      -1.655  -2.165 -26.047  1.00  0.00     0.169 C 
HETATM    4  C6  UNL     1      -1.732  -2.358 -27.534  1.00  0.00     0.185 C 
HETATM    5  O7  UNL     1      -0.679  -3.134 -27.935  1.00  0.00    -0.350 OA
HETATM    6  C9  UNL     1       0.112  -3.439 -26.859  1.00  0.00     0.274 C 
HETATM    7  C14 UNL     1      -0.162  -2.420 -25.793  1.00  0.00     0.108 C 
HETATM    8  C15 UNL     1       0.403  -1.052 -26.110  1.00  0.00     0.208 C 
ENDROOT
BRANCH   8   9
HETATM    9  O12 UNL     1       1.535  -0.756 -25.442  1.00  0.00    -0.350 OA
BRANCH   9  10
HETATM   10  C16 UNL     1       2.691  -0.516 -26.072  1.00  0.00     0.278 C 
HETATM   11  N2  UNL     1       2.437  -0.541 -27.502  1.00  0.00    -0.346 N 
HETATM   12  C17 UNL     1       2.896  -1.511 -28.413  1.00  0.00     0.120 A 
ATOM     13  H2  UNL     1       1.872   0.218 -27.883  1.00  0.00     0.163 HD
HETATM   14  C18 UNL     1       4.209  -1.963 -28.111  1.00  0.00     0.249 A 
HETATM   15  N3  UNL     1       3.512  -2.492 -29.232  1.00  0.00    -0.349 N 
HETATM   16  N4  UNL     1       4.737  -1.309 -26.944  1.00  0.00    -0.362 N 
HETATM   17  C19 UNL     1       3.894  -1.284 -25.756  1.00  0.00     0.170 C 
ATOM     18  H4  UNL     1       5.662  -0.881 -26.948  1.00  0.00     0.158 HD
HETATM   19  C20 UNL     1       3.660  -2.729 -25.388  1.00  0.00     0.075 C 
ATOM     20  H3  UNL     1       3.479  -3.119 -30.036  1.00  0.00     0.163 HD
BRANCH  17  21
HETATM   21  O13 UNL     1       4.696  -0.736 -24.750  1.00  0.00    -0.367 OA
ATOM     22  H13 UNL     1       5.187  -1.369 -24.240  1.00  0.00     0.212 HD
ENDBRANCH  17  21
ENDBRANCH   9  10
ENDBRANCH   8   9
BRANCH   1  23
HETATM   23  C3  UNL     1      -0.532   0.028 -24.064  1.00  0.00     0.325 C 
HETATM   24  O2  UNL     1       0.321   0.815 -23.585  1.00  0.00    -0.259 OA
BRANCH  23  25
HETATM   25  O1  UNL     1      -1.337  -0.650 -23.161  1.00  0.00    -0.318 OA
BRANCH  25  26
HETATM   26  C2  UNL     1      -2.388   0.014 -22.523  1.00  0.00     0.174 C 
HETATM   27  C1  UNL     1      -2.894  -0.684 -21.302  1.00  0.00     0.034 C 
ENDBRANCH  25  26
ENDBRANCH  23  25
ENDBRANCH   1  23
BRANCH   1  28
HETATM   28  O3  UNL     1      -0.825   1.027 -26.164  1.00  0.00    -0.356 OA
ATOM     29  H3  UNL     1      -1.549   0.991 -26.778  1.00  0.00     0.213 HD
ENDBRANCH   1  28
BRANCH   6  30
HETATM   30  O8  UNL     1      -0.338  -4.671 -26.348  1.00  0.00    -0.308 OA
BRANCH  30  31
HETATM   31  C10 UNL     1       0.444  -5.731 -26.804  1.00  0.00     0.475 C 
HETATM   32  N1  UNL     1       0.303  -5.899 -28.214  1.00  0.00     0.004 N 
HETATM   33  C11 UNL     1       1.620  -5.894 -28.801  1.00  0.00     0.355 C 
ATOM     34  H12 UNL     1      -0.234  -6.731 -28.460  1.00  0.00     0.286 HD
ATOM     35  H11 UNL     1      -0.317  -5.207 -28.633  1.00  0.00     0.286 HD
HETATM   36  C12 UNL     1       2.526  -5.710 -27.628  1.00  0.00     0.206 C 
HETATM   37  O11 UNL     1       1.765  -5.409 -26.531  1.00  0.00    -0.327 OA
BRANCH  33  38
HETATM   38  O9  UNL     1       1.781  -4.854 -29.713  1.00  0.00    -0.368 OA
ATOM     39  H9  UNL     1       2.653  -4.843 -30.089  1.00  0.00     0.212 HD
ENDBRANCH  33  38
BRANCH  36  40
HETATM   40  C13 UNL     1       3.384  -6.939 -27.371  1.00  0.00     0.200 C 
BRANCH  40  41
HETATM   41  O10 UNL     1       4.086  -6.800 -26.180  1.00  0.00    -0.398 OA
ATOM     42  H10 UNL     1       4.589  -7.586 -25.998  1.00  0.00     0.209 HD
ENDBRANCH  40  41
ENDBRANCH  36  40
ENDBRANCH  30  31
ENDBRANCH   6  30
BRANCH   4  43
HETATM   43  C7  UNL     1      -3.074  -2.822 -28.014  1.00  0.00     0.173 C 
BRANCH  43  44
HETATM   44  O5  UNL     1      -3.958  -2.866 -26.960  1.00  0.00    -0.391 OA
ATOM     45  H5  UNL     1      -4.257  -3.758 -26.826  1.00  0.00     0.210 HD
ENDBRANCH  43  44
BRANCH  43  46
HETATM   46  C8  UNL     1      -3.006  -4.125 -28.774  1.00  0.00     0.198 C 
BRANCH  46  47
HETATM   47  O6  UNL     1      -2.823  -5.135 -27.800  1.00  0.00    -0.398 OA
ATOM     48  H6  UNL     1      -2.724  -5.947 -28.281  1.00  0.00     0.209 HD
ENDBRANCH  46  47
ENDBRANCH  43  46
ENDBRANCH   4  43
TORSDOF 16
ENDMDL
MODEL 2
REMARK VINA RESULT: -5.700139057      1.824      2.082
REMARK  16 active torsions:
REMARK  status: ('A' for Active; 'I' for Inactive)
REMARK    1  A    between atoms: C2_2  and  O1_3 
REMARK    2  A    between atoms: O1_3  and  C3_4 
REMARK    3  A    between atoms: C3_4  and  C4_6 
REMARK    4  A    between atoms: C4_6  and  O3_7 
REMARK    5  A    between atoms: C6_11  and  C7_12 
REMARK    6  A    between atoms: C7_12  and  O5_13 
REMARK    7  A    between atoms: C7_12  and  C8_15 
REMARK    8  A    between atoms: C8_15  and  O6_16 
REMARK    9  A    between atoms: C9_19  and  O8_20 
REMARK   10  A    between atoms: O8_20  and  C10_21 
REMARK   11  A    between atoms: C11_25  and  O9_26 
REMARK   12  A    between atoms: C12_28  and  C13_29 
REMARK   13  A    between atoms: C13_29  and  O10_30 
REMARK   14  A    between atoms: C15_34  and  O12_35 
REMARK   15  A    between atoms: O12_35  and  C16_36 
REMARK   16  A    between atoms: C19_45  and  O13_47 
ROOT
HETATM    1  C4  UNL     1      -0.091  -0.802 -26.106  1.00  0.00     0.281 C 
HETATM    2  O4  UNL     1      -1.446  -1.023 -26.238  1.00  0.00    -0.336 OA
HETATM    3  C5  UNL     1      -1.680  -2.315 -26.598  1.00  0.00     0.169 C 
HETATM    4  C6  UNL     1      -1.869  -2.451 -28.082  1.00  0.00     0.185 C 
HETATM    5  O7  UNL     1      -1.163  -3.537 -28.521  1.00  0.00    -0.350 OA
HETATM    6  C9  UNL     1      -0.490  -4.110 -27.475  1.00  0.00     0.274 C 
HETATM    7  C14 UNL     1      -0.359  -3.072 -26.400  1.00  0.00     0.108 C 
HETATM    8  C15 UNL     1       0.633  -1.979 -26.737  1.00  0.00     0.208 C 
ENDROOT
BRANCH   8   9
HETATM    9  O12 UNL     1       1.819  -2.100 -26.110  1.00  0.00    -0.350 OA
BRANCH   9  10
HETATM   10  C16 UNL     1       2.931  -2.473 -26.756  1.00  0.00     0.278 C 
HETATM   11  N2  UNL     1       2.608  -2.601 -28.167  1.00  0.00    -0.346 N 
HETATM   12  C17 UNL     1       2.561  -3.798 -28.906  1.00  0.00     0.120 A 
ATOM     13  H2  UNL     1       2.396  -1.740 -28.671  1.00  0.00     0.163 HD
HETATM   14  C18 UNL     1       3.575  -4.716 -28.519  1.00  0.00     0.249 A 
HETATM   15  N3  UNL     1       2.657  -5.058 -29.550  1.00  0.00    -0.349 N 
HETATM   16  N4  UNL     1       4.395  -4.183 -27.466  1.00  0.00    -0.362 N 
HETATM   17  C19 UNL     1       3.712  -3.624 -26.307  1.00  0.00     0.170 C 
ATOM     18  H4  UNL     1       5.413  -4.196 -27.527  1.00  0.00     0.158 HD
HETATM   19  C20 UNL     1       2.909  -4.758 -25.717  1.00  0.00     0.075 C 
ATOM     20  H3  UNL     1       2.316  -5.723 -30.245  1.00  0.00     0.163 HD
BRANCH  17  21
HETATM   21  O13 UNL     1       4.726  -3.327 -25.392  1.00  0.00    -0.367 OA
ATOM     22  H13 UNL     1       5.578  -3.687 -25.607  1.00  0.00     0.212 HD
ENDBRANCH  17  21
ENDBRANCH   9  10
ENDBRANCH   8   9
BRANCH   1  23
HETATM   23  C3  UNL     1       0.197  -0.669 -24.658  1.00  0.00     0.325 C 
HETATM   24  O2  UNL     1       1.195  -0.052 -24.208  1.00  0.00    -0.259 OA
BRANCH  23  25
HETATM   25  O1  UNL     1      -0.656  -1.243 -23.728  1.00  0.00    -0.318 OA
BRANCH  25  26
HETATM   26  C2  UNL     1      -1.386  -0.435 -22.853  1.00  0.00     0.174 C 
HETATM   27  C1  UNL     1      -2.809  -0.858 -22.680  1.00  0.00     0.034 C 
ENDBRANCH  25  26
ENDBRANCH  23  25
ENDBRANCH   1  23
BRANCH   1  28
HETATM   28  O3  UNL     1       0.196   0.396 -26.745  1.00  0.00    -0.356 OA
ATOM     29  H3  UNL     1       1.136   0.478 -26.856  1.00  0.00     0.213 HD
ENDBRANCH   1  28
BRANCH   6  30
HETATM   30  O8  UNL     1      -1.319  -5.118 -26.948  1.00  0.00    -0.308 OA
BRANCH  30  31
HETATM   31  C10 UNL     1      -0.617  -6.304 -26.744  1.00  0.00     0.475 C 
HETATM   32  N1  UNL     1      -1.472  -7.437 -26.897  1.00  0.00     0.004 N 
HETATM   33  C11 UNL     1      -0.866  -8.331 -27.852  1.00  0.00     0.355 C 
ATOM     34  H12 UNL     1      -1.683  -7.893 -26.009  1.00  0.00     0.286 HD
ATOM     35  H11 UNL     1      -2.426  -7.178 -27.149  1.00  0.00     0.286 HD
HETATM   36  C12 UNL     1       0.396  -7.630 -28.236  1.00  0.00     0.206 C 
HETATM   37  O11 UNL     1       0.370  -6.365 -27.717  1.00  0.00    -0.327 OA
BRANCH  33  38
HETATM   38  O9  UNL     1      -1.675  -8.530 -28.967  1.00  0.00    -0.368 OA
ATOM     39  H9  UNL     1      -1.170  -8.767 -29.735  1.00  0.00     0.212 HD
ENDBRANCH  33  38
BRANCH  36  40
HETATM   40  C13 UNL     1       1.632  -8.383 -27.767  1.00  0.00     0.200 C 
BRANCH  40  41
HETATM   41  O10 UNL     1       1.292  -9.311 -26.790  1.00  0.00    -0.398 OA
ATOM     42  H10 UNL     1       0.393  -9.598 -26.904  1.00  0.00     0.209 HD
ENDBRANCH  40  41
ENDBRANCH  36  40
ENDBRANCH  30  31
ENDBRANCH   6  30
BRANCH   4  43
HETATM   43  C7  UNL     1      -3.305  -2.418 -28.513  1.00  0.00     0.173 C 
BRANCH  43  44
HETATM   44  O5  UNL     1      -4.118  -2.237 -27.418  1.00  0.00    -0.391 OA
ATOM     45  H5  UNL     1      -4.221  -1.309 -27.242  1.00  0.00     0.210 HD
ENDBRANCH  43  44
BRANCH  43  46
HETATM   46  C8  UNL     1      -3.697  -3.619 -29.339  1.00  0.00     0.198 C 
BRANCH  46  47
HETATM   47  O6  UNL     1      -3.869  -4.682 -28.422  1.00  0.00    -0.398 OA
ATOM     48  H6  UNL     1      -4.711  -5.071 -28.629  1.00  0.00     0.209 HD
ENDBRANCH  46  47
ENDBRANCH  43  46
ENDBRANCH   4  43
TORSDOF 16
ENDMDL
MODEL 3
REMARK VINA RESULT: -5.692002998      3.726      7.273
REMARK  16 active torsions:
REMARK  status: ('A' for Active; 'I' for Inactive)
REMARK    1  A    between atoms: C2_2  and  O1_3 
REMARK    2  A    between atoms: O1_3  and  C3_4 
REMARK    3  A    between atoms: C3_4  and  C4_6 
REMARK    4  A    between atoms: C4_6  and  O3_7 
REMARK    5  A    between atoms: C6_11  and  C7_12 
REMARK    6  A    between atoms: C7_12  and  O5_13 
REMARK    7  A    between atoms: C7_12  and  C8_15 
REMARK    8  A    between atoms: C8_15  and  O6_16 
REMARK    9  A    between atoms: C9_19  and  O8_20 
REMARK   10  A    between atoms: O8_20  and  C10_21 
REMARK   11  A    between atoms: C11_25  and  O9_26 
REMARK   12  A    between atoms: C12_28  and  C13_29 
REMARK   13  A    between atoms: C13_29  and  O10_30 
REMARK   14  A    between atoms: C15_34  and  O12_35 
REMARK   15  A    between atoms: O12_35  and  C16_36 
REMARK   16  A    between atoms: C19_45  and  O13_47 
ROOT
HETATM    1  C4  UNL     1      -0.548  -0.231 -23.793  1.00  0.00     0.281 C 
HETATM    2  O4  UNL     1      -1.056  -0.694 -22.597  1.00  0.00    -0.336 OA
HETATM    3  C5  UNL     1      -2.367  -1.033 -22.742  1.00  0.00     0.169 C 
HETATM    4  C6  UNL     1      -3.278   0.074 -22.298  1.00  0.00     0.185 C 
HETATM    5  O7  UNL     1      -4.280   0.219 -23.217  1.00  0.00    -0.350 OA
HETATM    6  C9  UNL     1      -4.095  -0.660 -24.252  1.00  0.00     0.274 C 
HETATM    7  C14 UNL     1      -2.649  -1.060 -24.251  1.00  0.00     0.108 C 
HETATM    8  C15 UNL     1      -1.721   0.041 -24.719  1.00  0.00     0.208 C 
ENDROOT
BRANCH   8   9
HETATM    9  O12 UNL     1      -1.277  -0.115 -25.982  1.00  0.00    -0.350 OA
BRANCH   9  10
HETATM   10  C16 UNL     1      -0.777   0.906 -26.691  1.00  0.00     0.278 C 
HETATM   11  N2  UNL     1      -1.860   1.834 -26.966  1.00  0.00    -0.346 N 
HETATM   12  C17 UNL     1      -2.434   2.095 -28.224  1.00  0.00     0.120 A 
ATOM     13  H2  UNL     1      -2.241   2.346 -26.170  1.00  0.00     0.163 HD
HETATM   14  C18 UNL     1      -1.473   2.092 -29.272  1.00  0.00     0.249 A 
HETATM   15  N3  UNL     1      -2.843   2.341 -29.560  1.00  0.00    -0.349 N 
HETATM   16  N4  UNL     1      -0.152   1.822 -28.774  1.00  0.00    -0.362 N 
HETATM   17  C19 UNL     1       0.009   0.667 -27.901  1.00  0.00     0.170 C 
ATOM     18  H4  UNL     1       0.641   2.414 -29.023  1.00  0.00     0.158 HD
HETATM   19  C20 UNL     1      -0.413  -0.529 -28.719  1.00  0.00     0.075 C 
ATOM     20  H3  UNL     1      -3.581   2.546 -30.234  1.00  0.00     0.163 HD
BRANCH  17  21
HETATM   21  O13 UNL     1       1.386   0.552 -27.694  1.00  0.00    -0.367 OA
ATOM     22  H13 UNL     1       1.912   0.570 -28.485  1.00  0.00     0.212 HD
ENDBRANCH  17  21
ENDBRANCH   9  10
ENDBRANCH   8   9
BRANCH   1  23
HETATM   23  C3  UNL     1       0.361  -1.275 -24.322  1.00  0.00     0.325 C 
HETATM   24  O2  UNL     1       0.102  -2.503 -24.274  1.00  0.00    -0.259 OA
BRANCH  23  25
HETATM   25  O1  UNL     1       1.565  -0.912 -24.906  1.00  0.00    -0.318 OA
BRANCH  25  26
HETATM   26  C2  UNL     1       2.433  -1.893 -25.393  1.00  0.00     0.174 C 
HETATM   27  C1  UNL     1       3.873  -1.491 -25.375  1.00  0.00     0.034 C 
ENDBRANCH  25  26
ENDBRANCH  23  25
ENDBRANCH   1  23
BRANCH   1  28
HETATM   28  O3  UNL     1       0.180   0.918 -23.516  1.00  0.00    -0.356 OA
ATOM     29  H3  UNL     1       0.039   1.171 -22.612  1.00  0.00     0.213 HD
ENDBRANCH   1  28
BRANCH   6  30
HETATM   30  O8  UNL     1      -4.824  -1.825 -23.943  1.00  0.00    -0.308 OA
BRANCH  30  31
HETATM   31  C10 UNL     1      -6.143  -1.734 -24.386  1.00  0.00     0.475 C 
HETATM   32  N1  UNL     1      -6.923  -0.930 -23.503  1.00  0.00     0.004 N 
HETATM   33  C11 UNL     1      -7.572   0.094 -24.284  1.00  0.00     0.355 C 
ATOM     34  H12 UNL     1      -7.582  -1.478 -22.949  1.00  0.00     0.286 HD
ATOM     35  H11 UNL     1      -6.377  -0.549 -22.730  1.00  0.00     0.286 HD
HETATM   36  C12 UNL     1      -7.106  -0.180 -25.677  1.00  0.00     0.206 C 
HETATM   37  O11 UNL     1      -6.114  -1.121 -25.629  1.00  0.00    -0.327 OA
BRANCH  33  38
HETATM   38  O9  UNL     1      -7.194   1.373 -23.884  1.00  0.00    -0.368 OA
ATOM     39  H9  UNL     1      -7.943   1.904 -23.640  1.00  0.00     0.212 HD
ENDBRANCH  33  38
BRANCH  36  40
HETATM   40  C13 UNL     1      -8.243  -0.638 -26.578  1.00  0.00     0.200 C 
BRANCH  40  41
HETATM   41  O10 UNL     1      -8.866  -1.759 -26.043  1.00  0.00    -0.398 OA
ATOM     42  H10 UNL     1      -9.236  -1.557 -25.191  1.00  0.00     0.209 HD
ENDBRANCH  40  41
ENDBRANCH  36  40
ENDBRANCH  30  31
ENDBRANCH   6  30
BRANCH   4  43
HETATM   43  C7  UNL     1      -3.743  -0.059 -20.878  1.00  0.00     0.173 C 
BRANCH  43  44
HETATM   44  O5  UNL     1      -2.901  -0.901 -20.188  1.00  0.00    -0.391 OA
ATOM     45  H5  UNL     1      -2.635  -1.621 -20.747  1.00  0.00     0.210 HD
ENDBRANCH  43  44
BRANCH  43  46
HETATM   46  C8  UNL     1      -5.192  -0.467 -20.771  1.00  0.00     0.198 C 
BRANCH  46  47
HETATM   47  O6  UNL     1      -5.945   0.677 -21.131  1.00  0.00    -0.398 OA
ATOM     48  H6  UNL     1      -6.234   1.066 -20.314  1.00  0.00     0.209 HD
ENDBRANCH  46  47
ENDBRANCH  43  46
ENDBRANCH   4  43
TORSDOF 16
ENDMDL
MODEL 4
REMARK VINA RESULT: -5.576721115      3.216      6.855
REMARK  16 active torsions:
REMARK  status: ('A' for Active; 'I' for Inactive)
REMARK    1  A    between atoms: C2_2  and  O1_3 
REMARK    2  A    between atoms: O1_3  and  C3_4 
REMARK    3  A    between atoms: C3_4  and  C4_6 
REMARK    4  A    between atoms: C4_6  and  O3_7 
REMARK    5  A    between atoms: C6_11  and  C7_12 
REMARK    6  A    between atoms: C7_12  and  O5_13 
REMARK    7  A    between atoms: C7_12  and  C8_15 
REMARK    8  A    between atoms: C8_15  and  O6_16 
REMARK    9  A    between atoms: C9_19  and  O8_20 
REMARK   10  A    between atoms: O8_20  and  C10_21 
REMARK   11  A    between atoms: C11_25  and  O9_26 
REMARK   12  A    between atoms: C12_28  and  C13_29 
REMARK   13  A    between atoms: C13_29  and  O10_30 
REMARK   14  A    between atoms: C15_34  and  O12_35 
REMARK   15  A    between atoms: O12_35  and  C16_36 
REMARK   16  A    between atoms: C19_45  and  O13_47 
ROOT
HETATM    1  C4  UNL     1       0.230  -0.190 -26.476  1.00  0.00     0.281 C 
HETATM    2  O4  UNL     1      -0.239   1.068 -26.160  1.00  0.00    -0.336 OA
HETATM    3  C5  UNL     1      -1.457   0.979 -25.558  1.00  0.00     0.169 C 
HETATM    4  C6  UNL     1      -2.576   1.192 -26.537  1.00  0.00     0.185 C 
HETATM    5  O7  UNL     1      -3.544   0.252 -26.315  1.00  0.00    -0.350 OA
HETATM    6  C9  UNL     1      -3.153  -0.591 -25.307  1.00  0.00     0.274 C 
HETATM    7  C14 UNL     1      -1.660  -0.498 -25.195  1.00  0.00     0.108 C 
HETATM    8  C15 UNL     1      -0.929  -1.163 -26.342  1.00  0.00     0.208 C 
ENDROOT
BRANCH   8   9
HETATM    9  O12 UNL     1      -0.407  -2.367 -26.038  1.00  0.00    -0.350 OA
BRANCH   9  10
HETATM   10  C16 UNL     1      -0.119  -3.275 -26.978  1.00  0.00     0.278 C 
HETATM   11  N2  UNL     1      -1.291  -4.113 -27.166  1.00  0.00    -0.346 N 
HETATM   12  C17 UNL     1      -1.409  -5.471 -26.816  1.00  0.00     0.120 A 
ATOM     13  H2  UNL     1      -2.108  -3.675 -27.593  1.00  0.00     0.163 HD
HETATM   14  C18 UNL     1      -0.209  -6.198 -27.045  1.00  0.00     0.249 A 
HETATM   15  N3  UNL     1      -1.353  -6.857 -26.517  1.00  0.00    -0.349 N 
HETATM   16  N4  UNL     1       0.825  -5.354 -27.578  1.00  0.00    -0.362 N 
HETATM   17  C19 UNL     1       1.085  -4.099 -26.886  1.00  0.00     0.170 C 
ATOM     18  H4  UNL     1       1.355  -5.623 -28.407  1.00  0.00     0.158 HD
HETATM   19  C20 UNL     1       1.500  -4.481 -25.486  1.00  0.00     0.075 C 
ATOM     20  H3  UNL     1      -1.805  -7.705 -26.174  1.00  0.00     0.163 HD
BRANCH  17  21
HETATM   21  O13 UNL     1       2.215  -3.563 -27.510  1.00  0.00    -0.367 OA
ATOM     22  H13 UNL     1       2.995  -4.102 -27.458  1.00  0.00     0.212 HD
ENDBRANCH  17  21
ENDBRANCH   9  10
ENDBRANCH   8   9
BRANCH   1  23
HETATM   23  C3  UNL     1       1.339  -0.498 -25.542  1.00  0.00     0.325 C 
HETATM   24  O2  UNL     1       1.254  -0.342 -24.298  1.00  0.00    -0.259 OA
BRANCH  23  25
HETATM   25  O1  UNL     1       2.541  -0.984 -26.032  1.00  0.00    -0.318 OA
BRANCH  25  26
HETATM   26  C2  UNL     1       3.610  -1.218 -25.163  1.00  0.00     0.174 C 
HETATM   27  C1  UNL     1       4.555  -0.067 -25.040  1.00  0.00     0.034 C 
ENDBRANCH  25  26
ENDBRANCH  23  25
ENDBRANCH   1  23
BRANCH   1  28
HETATM   28  O3  UNL     1       0.721  -0.134 -27.773  1.00  0.00    -0.356 OA
ATOM     29  H3  UNL     1       0.296   0.573 -28.242  1.00  0.00     0.213 HD
ENDBRANCH   1  28
BRANCH   6  30
HETATM   30  O8  UNL     1      -3.670  -0.070 -24.106  1.00  0.00    -0.308 OA
BRANCH  30  31
HETATM   31  C10 UNL     1      -4.581  -0.945 -23.518  1.00  0.00     0.475 C 
HETATM   32  N1  UNL     1      -5.021  -0.453 -22.253  1.00  0.00     0.004 N 
HETATM   33  C11 UNL     1      -6.462  -0.430 -22.256  1.00  0.00     0.355 C 
ATOM     34  H12 UNL     1      -4.636  -0.982 -21.469  1.00  0.00     0.286 HD
ATOM     35  H11 UNL     1      -4.613   0.453 -22.020  1.00  0.00     0.286 HD
HETATM   36  C12 UNL     1      -6.818  -0.944 -23.612  1.00  0.00     0.206 C 
HETATM   37  O11 UNL     1      -5.678  -1.020 -24.364  1.00  0.00    -0.327 OA
BRANCH  33  38
HETATM   38  O9  UNL     1      -6.964   0.855 -22.071  1.00  0.00    -0.368 OA
ATOM     39  H9  UNL     1      -7.913   0.866 -22.054  1.00  0.00     0.212 HD
ENDBRANCH  33  38
BRANCH  36  40
HETATM   40  C13 UNL     1      -7.514  -2.295 -23.546  1.00  0.00     0.200 C 
BRANCH  40  41
HETATM   41  O10 UNL     1      -8.482  -2.293 -22.550  1.00  0.00    -0.398 OA
ATOM     42  H10 UNL     1      -8.797  -3.176 -22.392  1.00  0.00     0.209 HD
ENDBRANCH  40  41
ENDBRANCH  36  40
ENDBRANCH  30  31
ENDBRANCH   6  30
BRANCH   4  43
HETATM   43  C7  UNL     1      -3.072   2.606 -26.589  1.00  0.00     0.173 C 
BRANCH  43  44
HETATM   44  O5  UNL     1      -2.333   3.393 -25.737  1.00  0.00    -0.391 OA
ATOM     45  H5  UNL     1      -1.919   4.096 -26.223  1.00  0.00     0.210 HD
ENDBRANCH  43  44
BRANCH  43  46
HETATM   46  C8  UNL     1      -4.558   2.714 -26.345  1.00  0.00     0.198 C 
BRANCH  46  47
HETATM   47  O6  UNL     1      -4.739   2.514 -24.956  1.00  0.00    -0.398 OA
ATOM     48  H6  UNL     1      -5.675   2.554 -24.806  1.00  0.00     0.209 HD
ENDBRANCH  46  47
ENDBRANCH  43  46
ENDBRANCH   4  43
TORSDOF 16
ENDMDL
MODEL 5
REMARK VINA RESULT: -5.574678634      2.828      6.938
REMARK  16 active torsions:
REMARK  status: ('A' for Active; 'I' for Inactive)
REMARK    1  A    between atoms: C2_2  and  O1_3 
REMARK    2  A    between atoms: O1_3  and  C3_4 
REMARK    3  A    between atoms: C3_4  and  C4_6 
REMARK    4  A    between atoms: C4_6  and  O3_7 
REMARK    5  A    between atoms: C6_11  and  C7_12 
REMARK    6  A    between atoms: C7_12  and  O5_13 
REMARK    7  A    between atoms: C7_12  and  C8_15 
REMARK    8  A    between atoms: C8_15  and  O6_16 
REMARK    9  A    between atoms: C9_19  and  O8_20 
REMARK   10  A    between atoms: O8_20  and  C10_21 
REMARK   11  A    between atoms: C11_25  and  O9_26 
REMARK   12  A    between atoms: C12_28  and  C13_29 
REMARK   13  A    between atoms: C13_29  and  O10_30 
REMARK   14  A    between atoms: C15_34  and  O12_35 
REMARK   15  A    between atoms: O12_35  and  C16_36 
REMARK   16  A    between atoms: C19_45  and  O13_47 
ROOT
HETATM    1  C4  UNL     1       0.276  -0.636 -27.161  1.00  0.00     0.281 C 
HETATM    2  O4  UNL     1       0.336   0.300 -26.149  1.00  0.00    -0.336 OA
HETATM    3  C5  UNL     1      -0.623   0.046 -25.216  1.00  0.00     0.169 C 
HETATM    4  C6  UNL     1      -1.849   0.883 -25.440  1.00  0.00     0.185 C 
HETATM    5  O7  UNL     1      -2.956   0.093 -25.295  1.00  0.00    -0.350 OA
HETATM    6  C9  UNL     1      -2.578  -1.198 -25.037  1.00  0.00     0.274 C 
HETATM    7  C14 UNL     1      -1.165  -1.358 -25.514  1.00  0.00     0.108 C 
HETATM    8  C15 UNL     1      -1.040  -1.383 -27.023  1.00  0.00     0.208 C 
ENDROOT
BRANCH   8   9
HETATM    9  O12 UNL     1      -0.856  -2.613 -27.540  1.00  0.00    -0.350 OA
BRANCH   9  10
HETATM   10  C16 UNL     1      -1.425  -3.701 -27.006  1.00  0.00     0.278 C 
HETATM   11  N2  UNL     1      -0.397  -4.448 -26.304  1.00  0.00    -0.346 N 
HETATM   12  C17 UNL     1       0.123  -5.702 -26.675  1.00  0.00     0.120 A 
ATOM     13  H2  UNL     1      -0.013  -4.022 -25.460  1.00  0.00     0.163 HD
HETATM   14  C18 UNL     1      -0.872  -6.566 -27.210  1.00  0.00     0.249 A 
HETATM   15  N3  UNL     1       0.475  -7.009 -27.100  1.00  0.00    -0.349 N 
HETATM   16  N4  UNL     1      -2.162  -5.932 -27.235  1.00  0.00    -0.362 N 
HETATM   17  C19 UNL     1      -2.240  -4.601 -27.822  1.00  0.00     0.170 C 
ATOM     18  H4  UNL     1      -2.989  -6.396 -26.859  1.00  0.00     0.158 HD
HETATM   19  C20 UNL     1      -1.791  -4.757 -29.255  1.00  0.00     0.075 C 
ATOM     20  H3  UNL     1       1.180  -7.735 -27.232  1.00  0.00     0.163 HD
BRANCH  17  21
HETATM   21  O13 UNL     1      -3.603  -4.294 -27.856  1.00  0.00    -0.367 OA
ATOM     22  H13 UNL     1      -4.163  -4.994 -28.169  1.00  0.00     0.212 HD
ENDBRANCH  17  21
ENDBRANCH   9  10
ENDBRANCH   8   9
BRANCH   1  23
HETATM   23  C3  UNL     1       1.451  -1.527 -27.010  1.00  0.00     0.325 C 
HETATM   24  O2  UNL     1       2.136  -1.934 -27.982  1.00  0.00    -0.259 OA
BRANCH  23  25
HETATM   25  O1  UNL     1       1.841  -1.950 -25.749  1.00  0.00    -0.318 OA
BRANCH  25  26
HETATM   26  C2  UNL     1       3.197  -2.027 -25.422  1.00  0.00     0.174 C 
HETATM   27  C1  UNL     1       3.813  -0.710 -25.074  1.00  0.00     0.034 C 
ENDBRANCH  25  26
ENDBRANCH  23  25
ENDBRANCH   1  23
BRANCH   1  28
HETATM   28  O3  UNL     1       0.368   0.049 -28.364  1.00  0.00    -0.356 OA
ATOM     29  H3  UNL     1       1.265   0.329 -28.501  1.00  0.00     0.213 HD
ENDBRANCH   1  28
BRANCH   6  30
HETATM   30  O8  UNL     1      -2.539  -1.347 -23.637  1.00  0.00    -0.308 OA
BRANCH  30  31
HETATM   31  C10 UNL     1      -3.815  -1.526 -23.106  1.00  0.00     0.475 C 
HETATM   32  N1  UNL     1      -4.389  -0.277 -22.724  1.00  0.00     0.004 N 
HETATM   33  C11 UNL     1      -5.680  -0.165 -23.355  1.00  0.00     0.355 C 
ATOM     34  H12 UNL     1      -4.434  -0.158 -21.711  1.00  0.00     0.286 HD
ATOM     35  H11 UNL     1      -3.780   0.515 -22.929  1.00  0.00     0.286 HD
HETATM   36  C12 UNL     1      -5.806  -1.437 -24.126  1.00  0.00     0.206 C 
HETATM   37  O11 UNL     1      -4.599  -2.081 -24.107  1.00  0.00    -0.327 OA
BRANCH  33  38
HETATM   38  O9  UNL     1      -5.750   0.935 -24.206  1.00  0.00    -0.368 OA
ATOM     39  H9  UNL     1      -6.070   0.696 -25.068  1.00  0.00     0.212 HD
ENDBRANCH  33  38
BRANCH  36  40
HETATM   40  C13 UNL     1      -6.906  -2.332 -23.577  1.00  0.00     0.200 C 
BRANCH  40  41
HETATM   41  O10 UNL     1      -8.033  -1.580 -23.268  1.00  0.00    -0.398 OA
ATOM     42  H10 UNL     1      -8.799  -1.937 -23.704  1.00  0.00     0.209 HD
ENDBRANCH  40  41
ENDBRANCH  36  40
ENDBRANCH  30  31
ENDBRANCH   6  30
BRANCH   4  43
HETATM   43  C7  UNL     1      -1.871   2.150 -24.639  1.00  0.00     0.173 C 
BRANCH  43  44
HETATM   44  O5  UNL     1      -2.330   1.892 -23.368  1.00  0.00    -0.391 OA
ATOM     45  H5  UNL     1      -3.250   2.119 -23.305  1.00  0.00     0.210 HD
ENDBRANCH  43  44
BRANCH  43  46
HETATM   46  C8  UNL     1      -2.633   3.261 -25.321  1.00  0.00     0.198 C 
BRANCH  46  47
HETATM   47  O6  UNL     1      -3.990   3.074 -24.970  1.00  0.00    -0.398 OA
ATOM     48  H6  UNL     1      -4.338   3.942 -24.802  1.00  0.00     0.209 HD
ENDBRANCH  46  47
ENDBRANCH  43  46
ENDBRANCH   4  43
TORSDOF 16
ENDMDL
