MODEL 1
REMARK VINA RESULT: -6.725280445      0.000      0.000
REMARK  15 active torsions:
REMARK  status: ('A' for Active; 'I' for Inactive)
REMARK    1  A    between atoms: N1_1  and  C1_4 
REMARK    2  A    between atoms: N4_9  and  C2_10 
REMARK    3  A    between atoms: C2_10  and  C3_11 
REMARK    4  A    between atoms: C3_11  and  O1_12 
REMARK    5  A    between atoms: C4_14  and  N5_15 
REMARK    6  A    between atoms: N5_15  and  O2_17 
REMARK    7  A    between atoms: N6_20  and  C6_21 
REMARK    8  A    between atoms: C9_31  and  S1_32 
REMARK    9  A    between atoms: S1_32  and  C10_33 
REMARK   10  A    between atoms: C10_33  and  C11_34 
REMARK   11  A    between atoms: C11_34  and  N10_35 
REMARK   12  A    between atoms: C11_34  and  C12_39 
REMARK   13  A    between atoms: C14_47  and  C15_48 
REMARK   14  A    between atoms: C15_48  and  O5_49 
REMARK   15  A    between atoms: C16_51  and  O6_52 
ROOT
HETATM    1  C3  UNL     1       2.796  -3.059 -26.644  1.00  0.00     0.146 C 
HETATM    2  C4  UNL     1       2.542  -1.805 -25.919  1.00  0.00     0.067 C 
HETATM    3  C5  UNL     1       1.273  -1.104 -26.340  1.00  0.00     0.200 C 
HETATM    4  N6  UNL     1       0.234  -2.091 -26.079  1.00  0.00    -0.203 N 
HETATM    5  C14 UNL     1       0.334  -3.485 -26.309  1.00  0.00     0.158 C 
HETATM    6  C16 UNL     1       1.697  -4.061 -26.416  1.00  0.00     0.185 C 
ENDROOT
BRANCH   4   7
HETATM    7  C6  UNL     1      -0.985  -1.584 -25.541  1.00  0.00     0.683 A 
HETATM    8  N7  UNL     1      -1.137  -1.460 -24.189  1.00  0.00    -0.184 N 
HETATM    9  C7  UNL     1      -2.361  -0.962 -23.947  1.00  0.00     0.137 A 
ATOM     10  H7  UNL     1      -0.441  -1.704 -23.484  1.00  0.00     0.184 HD
HETATM   11  C8  UNL     1      -3.010  -0.648 -22.775  1.00  0.00     0.132 A 
HETATM   12  C13 UNL     1      -2.969  -0.778 -25.173  1.00  0.00     0.154 A 
HETATM   13  N8  UNL     1      -2.445  -0.818 -21.631  1.00  0.00    -0.383 N 
HETATM   14  N9  UNL     1      -4.257  -0.157 -22.876  1.00  0.00    -0.321 N 
ATOM     15  H82 UNL     1      -1.499  -1.190 -21.554  1.00  0.00     0.157 HD
ATOM     16  H81 UNL     1      -2.927  -0.585 -20.763  1.00  0.00     0.157 HD
HETATM   17  C9  UNL     1      -4.897   0.041 -24.041  1.00  0.00     0.147 A 
ATOM     18  H9  UNL     1      -4.749   0.081 -22.015  1.00  0.00     0.169 HD
HETATM   19  N11 UNL     1      -4.211  -0.286 -25.183  1.00  0.00    -0.320 N 
ATOM     20  H11 UNL     1      -4.671  -0.146 -26.083  1.00  0.00     0.169 HD
HETATM   21  N12 UNL     1      -2.094  -1.170 -26.133  1.00  0.00    -0.174 N 
ATOM     22  H12 UNL     1      -2.262  -1.150 -27.139  1.00  0.00     0.186 HD
BRANCH  17  23
HETATM   23  S1  UNL     1      -6.543   0.641 -24.203  1.00  0.00    -0.091 SA
BRANCH  23  24
HETATM   24  C10 UNL     1      -7.716   0.028 -23.020  1.00  0.00     0.126 C 
BRANCH  24  25
HETATM   25  C11 UNL     1      -7.525   0.503 -21.606  1.00  0.00     0.293 C 
BRANCH  25  26
HETATM   26  N10 UNL     1      -8.833   1.040 -21.160  1.00  0.00    -0.064 N 
ATOM     27 3H10 UNL     1      -9.551   1.005 -21.883  1.00  0.00     0.275 HD
ATOM     28 2H10 UNL     1      -9.306   0.441 -20.482  1.00  0.00     0.275 HD
ATOM     29 1H10 UNL     1      -8.657   1.982 -20.811  1.00  0.00     0.275 HD
ENDBRANCH  25  26
BRANCH  25  30
HETATM   30  C12 UNL     1      -7.051  -0.440 -20.623  1.00  0.00     0.205 C 
HETATM   31  O3  UNL     1      -7.759  -1.436 -20.296  1.00  0.00    -0.646 OA
HETATM   32  O4  UNL     1      -5.795  -0.278 -19.999  1.00  0.00    -0.646 OA
ENDBRANCH  25  30
ENDBRANCH  24  25
ENDBRANCH  23  24
ENDBRANCH  17  23
ENDBRANCH   4   7
BRANCH   5  33
HETATM   33  C15 UNL     1      -0.446  -3.869 -27.561  1.00  0.00     0.192 C 
BRANCH  33  34
HETATM   34  O5  UNL     1       0.391  -4.650 -28.377  1.00  0.00    -0.399 OA
ATOM     35  H5  UNL     1       0.087  -5.549 -28.337  1.00  0.00     0.209 HD
ENDBRANCH  33  34
ENDBRANCH   5  33
BRANCH   2  36
HETATM   36  N5  UNL     1       3.265  -1.296 -25.016  1.00  0.00    -0.273 N 
ATOM     37  H5  UNL     1       2.949  -1.487 -24.066  1.00  0.00     0.193 HD
BRANCH  36  38
HETATM   38  O2  UNL     1       4.373  -0.550 -25.088  1.00  0.00    -0.290 OA
ATOM     39  H2  UNL     1       5.292  -0.790 -25.074  1.00  0.00     0.244 HD
ENDBRANCH  36  38
ENDBRANCH   2  36
BRANCH   6  40
HETATM   40  O6  UNL     1       2.005  -4.718 -25.203  1.00  0.00    -0.390 OA
ATOM     41  H6  UNL     1       1.978  -4.054 -24.525  1.00  0.00     0.210 HD
ENDBRANCH   6  40
BRANCH   1  42
HETATM   42  C2  UNL     1       4.141  -3.638 -26.363  1.00  0.00     0.218 C 
BRANCH  42  43
HETATM   43  N4  UNL     1       5.013  -3.501 -27.520  1.00  0.00    -0.202 N 
HETATM   44  N3  UNL     1       5.028  -4.222 -28.627  1.00  0.00    -0.211 N 
HETATM   45  N2  UNL     1       5.968  -3.799 -29.451  1.00  0.00    -0.115 N 
ATOM     46  H3  UNL     1       4.396  -5.000 -28.820  1.00  0.00     0.210 HD
HETATM   47  C1  UNL     1       6.594  -2.753 -28.846  1.00  0.00     0.707 A 
ATOM     48  H2  UNL     1       6.186  -4.186 -30.369  1.00  0.00     0.207 HD
HETATM   49  N13 UNL     1       5.974  -2.604 -27.662  1.00  0.00    -0.113 N 
ATOM     50  H13 UNL     1       6.213  -1.896 -26.968  1.00  0.00     0.207 HD
BRANCH  47  51
HETATM   51  N1  UNL     1       7.569  -2.039 -29.285  1.00  0.00    -0.232 N 
ATOM     52  H12 UNL     1       8.554  -2.155 -29.045  1.00  0.00     0.174 HD
ATOM     53  H11 UNL     1       7.540  -1.251 -29.932  1.00  0.00     0.174 HD
ENDBRANCH  47  51
ENDBRANCH  42  43
ENDBRANCH   1  42
BRANCH   1  54
HETATM   54  O1  UNL     1       2.744  -2.715 -28.017  1.00  0.00    -0.379 OA
ATOM     55  H1  UNL     1       3.346  -3.281 -28.486  1.00  0.00     0.211 HD
ENDBRANCH   1  54
TORSDOF 15
ENDMDL
MODEL 2
REMARK VINA RESULT: -6.562141496      1.704      1.966
REMARK  15 active torsions:
REMARK  status: ('A' for Active; 'I' for Inactive)
REMARK    1  A    between atoms: N1_1  and  C1_4 
REMARK    2  A    between atoms: N4_9  and  C2_10 
REMARK    3  A    between atoms: C2_10  and  C3_11 
REMARK    4  A    between atoms: C3_11  and  O1_12 
REMARK    5  A    between atoms: C4_14  and  N5_15 
REMARK    6  A    between atoms: N5_15  and  O2_17 
REMARK    7  A    between atoms: N6_20  and  C6_21 
REMARK    8  A    between atoms: C9_31  and  S1_32 
REMARK    9  A    between atoms: S1_32  and  C10_33 
REMARK   10  A    between atoms: C10_33  and  C11_34 
REMARK   11  A    between atoms: C11_34  and  N10_35 
REMARK   12  A    between atoms: C11_34  and  C12_39 
REMARK   13  A    between atoms: C14_47  and  C15_48 
REMARK   14  A    between atoms: C15_48  and  O5_49 
REMARK   15  A    between atoms: C16_51  and  O6_52 
ROOT
HETATM    1  C3  UNL     1       3.755  -2.716 -27.240  1.00  0.00     0.146 C 
HETATM    2  C4  UNL     1       3.543  -1.682 -26.215  1.00  0.00     0.067 C 
HETATM    3  C5  UNL     1       2.338  -0.809 -26.470  1.00  0.00     0.200 C 
HETATM    4  N6  UNL     1       1.232  -1.756 -26.509  1.00  0.00    -0.203 N 
HETATM    5  C14 UNL     1       1.259  -3.044 -27.098  1.00  0.00     0.158 C 
HETATM    6  C16 UNL     1       2.590  -3.664 -27.316  1.00  0.00     0.185 C 
ENDROOT
BRANCH   4   7
HETATM    7  C6  UNL     1       0.022  -1.326 -25.889  1.00  0.00     0.683 A 
HETATM    8  N7  UNL     1      -0.330  -0.007 -25.917  1.00  0.00    -0.184 N 
HETATM    9  C7  UNL     1      -1.500   0.131 -25.272  1.00  0.00     0.137 A 
ATOM     10  H7  UNL     1       0.204   0.746 -26.352  1.00  0.00     0.184 HD
HETATM   11  C8  UNL     1      -2.285   1.233 -25.016  1.00  0.00     0.132 A 
HETATM   12  C13 UNL     1      -1.871  -1.127 -24.841  1.00  0.00     0.154 A 
HETATM   13  N8  UNL     1      -1.942   2.406 -25.418  1.00  0.00    -0.383 N 
HETATM   14  N9  UNL     1      -3.422   1.030 -24.330  1.00  0.00    -0.321 N 
ATOM     15  H82 UNL     1      -1.078   2.560 -25.938  1.00  0.00     0.157 HD
ATOM     16  H81 UNL     1      -2.523   3.222 -25.227  1.00  0.00     0.157 HD
HETATM   17  C9  UNL     1      -3.831  -0.171 -23.886  1.00  0.00     0.147 A 
ATOM     18  H9  UNL     1      -4.014   1.838 -24.135  1.00  0.00     0.169 HD
HETATM   19  N11 UNL     1      -3.018  -1.239 -24.165  1.00  0.00    -0.320 N 
ATOM     20  H11 UNL     1      -3.302  -2.164 -23.840  1.00  0.00     0.169 HD
HETATM   21  N12 UNL     1      -0.912  -2.001 -25.238  1.00  0.00    -0.174 N 
ATOM     22  H12 UNL     1      -0.911  -3.007 -25.064  1.00  0.00     0.186 HD
BRANCH  17  23
HETATM   23  S1  UNL     1      -5.293  -0.461 -22.950  1.00  0.00    -0.091 SA
BRANCH  23  24
HETATM   24  C10 UNL     1      -6.289  -1.835 -23.467  1.00  0.00     0.126 C 
BRANCH  24  25
HETATM   25  C11 UNL     1      -7.707  -1.838 -22.965  1.00  0.00     0.293 C 
BRANCH  25  26
HETATM   26  N10 UNL     1      -8.087  -3.260 -22.777  1.00  0.00    -0.064 N 
ATOM     27 3H10 UNL     1      -7.808  -3.857 -23.555  1.00  0.00     0.275 HD
ATOM     28 2H10 UNL     1      -7.543  -3.731 -22.053  1.00  0.00     0.275 HD
ATOM     29 1H10 UNL     1      -9.091  -3.271 -22.599  1.00  0.00     0.275 HD
ENDBRANCH  25  26
BRANCH  25  30
HETATM   30  C12 UNL     1      -8.008  -1.115 -21.753  1.00  0.00     0.205 C 
HETATM   31  O3  UNL     1      -8.563   0.020 -21.805  1.00  0.00    -0.646 OA
HETATM   32  O4  UNL     1      -7.690  -1.648 -20.485  1.00  0.00    -0.646 OA
ENDBRANCH  25  30
ENDBRANCH  24  25
ENDBRANCH  23  24
ENDBRANCH  17  23
ENDBRANCH   4   7
BRANCH   5  33
HETATM   33  C15 UNL     1       0.515  -3.031 -28.427  1.00  0.00     0.192 C 
BRANCH  33  34
HETATM   34  O5  UNL     1       1.336  -3.632 -29.396  1.00  0.00    -0.399 OA
ATOM     35  H5  UNL     1       1.074  -4.541 -29.484  1.00  0.00     0.209 HD
ENDBRANCH  33  34
ENDBRANCH   5  33
BRANCH   2  36
HETATM   36  N5  UNL     1       4.254  -1.479 -25.190  1.00  0.00    -0.273 N 
ATOM     37  H5  UNL     1       4.447  -2.316 -24.640  1.00  0.00     0.193 HD
BRANCH  36  38
HETATM   38  O2  UNL     1       4.798  -0.360 -24.700  1.00  0.00    -0.290 OA
ATOM     39  H2  UNL     1       5.492  -0.225 -24.066  1.00  0.00     0.244 HD
ENDBRANCH  36  38
ENDBRANCH   2  36
BRANCH   6  40
HETATM   40  O6  UNL     1       2.803  -4.637 -26.313  1.00  0.00    -0.390 OA
ATOM     41  H6  UNL     1       3.021  -5.443 -26.766  1.00  0.00     0.210 HD
ENDBRANCH   6  40
BRANCH   1  42
HETATM   42  C2  UNL     1       5.049  -3.439 -27.086  1.00  0.00     0.218 C 
BRANCH  42  43
HETATM   43  N4  UNL     1       5.912  -3.201 -28.233  1.00  0.00    -0.202 N 
HETATM   44  N3  UNL     1       5.879  -3.782 -29.420  1.00  0.00    -0.211 N 
HETATM   45  N2  UNL     1       6.828  -3.305 -30.203  1.00  0.00    -0.115 N 
ATOM     46  H3  UNL     1       5.210  -4.501 -29.694  1.00  0.00     0.210 HD
HETATM   47  C1  UNL     1       7.509  -2.368 -29.487  1.00  0.00     0.707 A 
ATOM     48  H2  UNL     1       7.016  -3.586 -31.165  1.00  0.00     0.207 HD
HETATM   49  N13 UNL     1       6.912  -2.338 -28.283  1.00  0.00    -0.113 N 
ATOM     50  H13 UNL     1       7.192  -1.731 -27.513  1.00  0.00     0.207 HD
BRANCH  47  51
HETATM   51  N1  UNL     1       8.511  -1.651 -29.854  1.00  0.00    -0.232 N 
ATOM     52  H12 UNL     1       9.464  -1.982 -30.004  1.00  0.00     0.174 HD
ATOM     53  H11 UNL     1       8.538  -0.651 -30.055  1.00  0.00     0.174 HD
ENDBRANCH  47  51
ENDBRANCH  42  43
ENDBRANCH   1  42
BRANCH   1  54
HETATM   54  O1  UNL     1       3.785  -2.020 -28.473  1.00  0.00    -0.379 OA
ATOM     55  H1  UNL     1       3.338  -1.190 -28.354  1.00  0.00     0.211 HD
ENDBRANCH   1  54
TORSDOF 15
ENDMDL
MODEL 3
REMARK VINA RESULT: -6.470276017      1.637      2.048
REMARK  15 active torsions:
REMARK  status: ('A' for Active; 'I' for Inactive)
REMARK    1  A    between atoms: N1_1  and  C1_4 
REMARK    2  A    between atoms: N4_9  and  C2_10 
REMARK    3  A    between atoms: C2_10  and  C3_11 
REMARK    4  A    between atoms: C3_11  and  O1_12 
REMARK    5  A    between atoms: C4_14  and  N5_15 
REMARK    6  A    between atoms: N5_15  and  O2_17 
REMARK    7  A    between atoms: N6_20  and  C6_21 
REMARK    8  A    between atoms: C9_31  and  S1_32 
REMARK    9  A    between atoms: S1_32  and  C10_33 
REMARK   10  A    between atoms: C10_33  and  C11_34 
REMARK   11  A    between atoms: C11_34  and  N10_35 
REMARK   12  A    between atoms: C11_34  and  C12_39 
REMARK   13  A    between atoms: C14_47  and  C15_48 
REMARK   14  A    between atoms: C15_48  and  O5_49 
REMARK   15  A    between atoms: C16_51  and  O6_52 
ROOT
HETATM    1  C3  UNL     1       3.797  -2.409 -27.319  1.00  0.00     0.146 C 
HETATM    2  C4  UNL     1       2.841  -1.375 -27.742  1.00  0.00     0.067 C 
HETATM    3  C5  UNL     1       1.415  -1.863 -27.830  1.00  0.00     0.200 C 
HETATM    4  N6  UNL     1       1.130  -2.333 -26.481  1.00  0.00    -0.203 N 
HETATM    5  C14 UNL     1       2.026  -3.037 -25.639  1.00  0.00     0.158 C 
HETATM    6  C16 UNL     1       3.473  -2.932 -25.946  1.00  0.00     0.185 C 
ENDROOT
BRANCH   4   7
HETATM    7  C6  UNL     1      -0.175  -2.044 -25.983  1.00  0.00     0.683 A 
HETATM    8  N7  UNL     1      -0.331  -1.551 -24.719  1.00  0.00    -0.184 N 
HETATM    9  C7  UNL     1      -1.642  -1.364 -24.499  1.00  0.00     0.137 A 
ATOM     10  H7  UNL     1       0.420  -1.358 -24.055  1.00  0.00     0.184 HD
HETATM   11  C8  UNL     1      -2.334  -0.893 -23.406  1.00  0.00     0.132 A 
HETATM   12  C13 UNL     1      -2.302  -1.750 -25.649  1.00  0.00     0.154 A 
HETATM   13  N8  UNL     1      -1.722  -0.531 -22.333  1.00  0.00    -0.383 N 
HETATM   14  N9  UNL     1      -3.672  -0.826 -23.508  1.00  0.00    -0.321 N 
ATOM     15  H82 UNL     1      -0.706  -0.581 -22.256  1.00  0.00     0.157 HD
ATOM     16  H81 UNL     1      -2.235  -0.182 -21.523  1.00  0.00     0.157 HD
HETATM   17  C9  UNL     1      -4.364  -1.190 -24.601  1.00  0.00     0.147 A 
ATOM     18  H9  UNL     1      -4.196  -0.478 -22.705  1.00  0.00     0.169 HD
HETATM   19  N11 UNL     1      -3.633  -1.652 -25.665  1.00  0.00    -0.320 N 
ATOM     20  H11 UNL     1      -4.132  -1.936 -26.510  1.00  0.00     0.169 HD
HETATM   21  N12 UNL     1      -1.367  -2.163 -26.543  1.00  0.00    -0.174 N 
ATOM     22  H12 UNL     1      -1.553  -2.507 -27.486  1.00  0.00     0.186 HD
BRANCH  17  23
HETATM   23  S1  UNL     1      -6.117  -1.155 -24.748  1.00  0.00    -0.091 SA
BRANCH  23  24
HETATM   24  C10 UNL     1      -6.975  -0.110 -23.598  1.00  0.00     0.126 C 
BRANCH  24  25
HETATM   25  C11 UNL     1      -7.701  -0.819 -22.488  1.00  0.00     0.293 C 
BRANCH  25  26
HETATM   26  N10 UNL     1      -7.660  -2.266 -22.813  1.00  0.00    -0.064 N 
ATOM     27 3H10 UNL     1      -7.108  -2.477 -23.644  1.00  0.00     0.275 HD
ATOM     28 2H10 UNL     1      -7.109  -2.813 -22.152  1.00  0.00     0.275 HD
ATOM     29 1H10 UNL     1      -8.630  -2.575 -22.883  1.00  0.00     0.275 HD
ENDBRANCH  25  26
BRANCH  25  30
HETATM   30  C12 UNL     1      -7.235  -0.635 -21.136  1.00  0.00     0.205 C 
HETATM   31  O3  UNL     1      -7.676  -1.363 -20.200  1.00  0.00    -0.646 OA
HETATM   32  O4  UNL     1      -6.283   0.359 -20.819  1.00  0.00    -0.646 OA
ENDBRANCH  25  30
ENDBRANCH  24  25
ENDBRANCH  23  24
ENDBRANCH  17  23
ENDBRANCH   4   7
BRANCH   5  33
HETATM   33  C15 UNL     1       1.653  -4.514 -25.592  1.00  0.00     0.192 C 
BRANCH  33  34
HETATM   34  O5  UNL     1       2.830  -5.268 -25.736  1.00  0.00    -0.399 OA
ATOM     35  H5  UNL     1       2.781  -6.009 -25.144  1.00  0.00     0.209 HD
ENDBRANCH  33  34
ENDBRANCH   5  33
BRANCH   2  36
HETATM   36  N5  UNL     1       3.106  -0.171 -28.021  1.00  0.00    -0.273 N 
ATOM     37  H5  UNL     1       2.904   0.489 -27.271  1.00  0.00     0.193 HD
BRANCH  36  38
HETATM   38  O2  UNL     1       3.607   0.388 -29.128  1.00  0.00    -0.290 OA
ATOM     39  H2  UNL     1       3.242   1.028 -29.727  1.00  0.00     0.244 HD
ENDBRANCH  36  38
ENDBRANCH   2  36
BRANCH   6  40
HETATM   40  O6  UNL     1       4.065  -2.034 -25.030  1.00  0.00    -0.390 OA
ATOM     41  H6  UNL     1       4.304  -2.549 -24.268  1.00  0.00     0.210 HD
ENDBRANCH   6  40
BRANCH   1  42
HETATM   42  C2  UNL     1       5.219  -1.974 -27.425  1.00  0.00     0.218 C 
BRANCH  42  43
HETATM   43  N4  UNL     1       5.799  -2.411 -28.686  1.00  0.00    -0.202 N 
HETATM   44  N3  UNL     1       5.700  -1.845 -29.876  1.00  0.00    -0.211 N 
HETATM   45  N2  UNL     1       6.360  -2.539 -30.783  1.00  0.00    -0.115 N 
ATOM     46  H3  UNL     1       5.182  -0.987 -30.067  1.00  0.00     0.210 HD
HETATM   47  C1  UNL     1       6.915  -3.608 -30.149  1.00  0.00     0.707 A 
ATOM     48  H2  UNL     1       6.440  -2.316 -31.775  1.00  0.00     0.207 HD
HETATM   49  N13 UNL     1       6.544  -3.489 -28.862  1.00  0.00    -0.113 N 
ATOM     50  H13 UNL     1       6.803  -4.141 -28.122  1.00  0.00     0.207 HD
BRANCH  47  51
HETATM   51  N1  UNL     1       7.642  -4.546 -30.644  1.00  0.00    -0.232 N 
ATOM     52  H12 UNL     1       7.476  -5.033 -31.525  1.00  0.00     0.174 HD
ATOM     53  H11 UNL     1       8.490  -4.964 -30.261  1.00  0.00     0.174 HD
ENDBRANCH  47  51
ENDBRANCH  42  43
ENDBRANCH   1  42
BRANCH   1  54
HETATM   54  O1  UNL     1       3.601  -3.489 -28.214  1.00  0.00    -0.379 OA
ATOM     55  H1  UNL     1       2.679  -3.719 -28.201  1.00  0.00     0.211 HD
ENDBRANCH   1  54
TORSDOF 15
ENDMDL
MODEL 4
REMARK VINA RESULT: -6.426137017      1.136      2.280
REMARK  15 active torsions:
REMARK  status: ('A' for Active; 'I' for Inactive)
REMARK    1  A    between atoms: N1_1  and  C1_4 
REMARK    2  A    between atoms: N4_9  and  C2_10 
REMARK    3  A    between atoms: C2_10  and  C3_11 
REMARK    4  A    between atoms: C3_11  and  O1_12 
REMARK    5  A    between atoms: C4_14  and  N5_15 
REMARK    6  A    between atoms: N5_15  and  O2_17 
REMARK    7  A    between atoms: N6_20  and  C6_21 
REMARK    8  A    between atoms: C9_31  and  S1_32 
REMARK    9  A    between atoms: S1_32  and  C10_33 
REMARK   10  A    between atoms: C10_33  and  C11_34 
REMARK   11  A    between atoms: C11_34  and  N10_35 
REMARK   12  A    between atoms: C11_34  and  C12_39 
REMARK   13  A    between atoms: C14_47  and  C15_48 
REMARK   14  A    between atoms: C15_48  and  O5_49 
REMARK   15  A    between atoms: C16_51  and  O6_52 
ROOT
HETATM    1  C3  UNL     1       2.561  -3.742 -26.816  1.00  0.00     0.146 C 
HETATM    2  C4  UNL     1       1.508  -4.373 -26.005  1.00  0.00     0.067 C 
HETATM    3  C5  UNL     1       0.931  -3.465 -24.946  1.00  0.00     0.200 C 
HETATM    4  N6  UNL     1       0.414  -2.335 -25.706  1.00  0.00    -0.203 N 
HETATM    5  C14 UNL     1       1.034  -1.737 -26.831  1.00  0.00     0.158 C 
HETATM    6  C16 UNL     1       2.041  -2.544 -27.562  1.00  0.00     0.185 C 
ENDROOT
BRANCH   4   7
HETATM    7  C6  UNL     1      -0.830  -1.801 -25.260  1.00  0.00     0.683 A 
HETATM    8  N7  UNL     1      -1.031  -1.551 -23.933  1.00  0.00    -0.184 N 
HETATM    9  C7  UNL     1      -2.269  -1.054 -23.781  1.00  0.00     0.137 A 
ATOM     10  H7  UNL     1      -0.356  -1.713 -23.185  1.00  0.00     0.184 HD
HETATM   11  C8  UNL     1      -2.964  -0.641 -22.666  1.00  0.00     0.132 A 
HETATM   12  C13 UNL     1      -2.838  -1.000 -25.038  1.00  0.00     0.154 A 
HETATM   13  N8  UNL     1      -2.437  -0.689 -21.493  1.00  0.00    -0.383 N 
HETATM   14  N9  UNL     1      -4.214  -0.184 -22.856  1.00  0.00    -0.321 N 
ATOM     15  H82 UNL     1      -1.488  -1.035 -21.349  1.00  0.00     0.157 HD
ATOM     16  H81 UNL     1      -2.952  -0.383 -20.668  1.00  0.00     0.157 HD
HETATM   17  C9  UNL     1      -4.815  -0.111 -24.055  1.00  0.00     0.147 A 
ATOM     18  H9  UNL     1      -4.739   0.126 -22.039  1.00  0.00     0.169 HD
HETATM   19  N11 UNL     1      -4.085  -0.534 -25.137  1.00  0.00    -0.320 N 
ATOM     20  H11 UNL     1      -4.516  -0.489 -26.061  1.00  0.00     0.169 HD
HETATM   21  N12 UNL     1      -1.924  -1.467 -25.926  1.00  0.00    -0.174 N 
ATOM     22  H12 UNL     1      -2.057  -1.547 -26.935  1.00  0.00     0.186 HD
BRANCH  17  23
HETATM   23  S1  UNL     1      -6.464   0.441 -24.330  1.00  0.00    -0.091 SA
BRANCH  23  24
HETATM   24  C10 UNL     1      -7.666  -0.070 -23.128  1.00  0.00     0.126 C 
BRANCH  24  25
HETATM   25  C11 UNL     1      -7.472   0.473 -21.739  1.00  0.00     0.293 C 
BRANCH  25  26
HETATM   26  N10 UNL     1      -8.770   1.062 -21.329  1.00  0.00    -0.064 N 
ATOM     27 3H10 UNL     1      -9.507   0.367 -21.208  1.00  0.00     0.275 HD
ATOM     28 2H10 UNL     1      -8.769   1.415 -20.372  1.00  0.00     0.275 HD
ATOM     29 1H10 UNL     1      -8.997   1.775 -22.022  1.00  0.00     0.275 HD
ENDBRANCH  25  26
BRANCH  25  30
HETATM   30  C12 UNL     1      -7.025  -0.429 -20.706  1.00  0.00     0.205 C 
HETATM   31  O3  UNL     1      -5.915  -0.245 -20.129  1.00  0.00    -0.646 OA
HETATM   32  O4  UNL     1      -7.807  -1.538 -20.315  1.00  0.00    -0.646 OA
ENDBRANCH  25  30
ENDBRANCH  24  25
ENDBRANCH  23  24
ENDBRANCH  17  23
ENDBRANCH   4   7
BRANCH   5  33
HETATM   33  C15 UNL     1       1.677  -0.414 -26.436  1.00  0.00     0.192 C 
BRANCH  33  34
HETATM   34  O5  UNL     1       3.019  -0.436 -26.854  1.00  0.00    -0.399 OA
ATOM     35  H5  UNL     1       3.435  -1.201 -26.474  1.00  0.00     0.209 HD
ENDBRANCH  33  34
ENDBRANCH   5  33
BRANCH   2  36
HETATM   36  N5  UNL     1       1.070  -5.552 -26.122  1.00  0.00    -0.273 N 
ATOM     37  H5  UNL     1       1.754  -6.278 -25.909  1.00  0.00     0.193 HD
BRANCH  36  38
HETATM   38  O2  UNL     1      -0.133  -6.015 -26.477  1.00  0.00    -0.290 OA
ATOM     39  H2  UNL     1      -0.898  -6.236 -25.959  1.00  0.00     0.244 HD
ENDBRANCH  36  38
ENDBRANCH   2  36
BRANCH   6  40
HETATM   40  O6  UNL     1       1.449  -3.040 -28.746  1.00  0.00    -0.390 OA
ATOM     41  H6  UNL     1       0.611  -3.407 -28.492  1.00  0.00     0.210 HD
ENDBRANCH   6  40
BRANCH   1  42
HETATM   42  C2  UNL     1       3.257  -4.701 -27.722  1.00  0.00     0.218 C 
BRANCH  42  43
HETATM   43  N4  UNL     1       4.345  -4.042 -28.430  1.00  0.00    -0.202 N 
HETATM   44  N3  UNL     1       4.452  -3.793 -29.723  1.00  0.00    -0.211 N 
HETATM   45  N2  UNL     1       5.590  -3.182 -29.992  1.00  0.00    -0.115 N 
ATOM     46  H3  UNL     1       3.749  -4.039 -30.420  1.00  0.00     0.210 HD
HETATM   47  C1  UNL     1       6.253  -3.028 -28.813  1.00  0.00     0.707 A 
ATOM     48  H2  UNL     1       5.912  -2.881 -30.911  1.00  0.00     0.207 HD
HETATM   49  N13 UNL     1       5.452  -3.571 -27.881  1.00  0.00    -0.113 N 
ATOM     50  H13 UNL     1       5.668  -3.613 -26.885  1.00  0.00     0.207 HD
BRANCH  47  51
HETATM   51  N1  UNL     1       7.400  -2.485 -28.603  1.00  0.00    -0.232 N 
ATOM     52  H12 UNL     1       8.211  -2.537 -29.219  1.00  0.00     0.174 HD
ATOM     53  H11 UNL     1       7.701  -1.921 -27.808  1.00  0.00     0.174 HD
ENDBRANCH  47  51
ENDBRANCH  42  43
ENDBRANCH   1  42
BRANCH   1  54
HETATM   54  O1  UNL     1       3.509  -3.252 -25.884  1.00  0.00    -0.379 OA
ATOM     55  H1  UNL     1       3.109  -2.535 -25.407  1.00  0.00     0.211 HD
ENDBRANCH   1  54
TORSDOF 15
ENDMDL
MODEL 5
REMARK VINA RESULT: -6.346761025      1.260      1.448
REMARK  15 active torsions:
REMARK  status: ('A' for Active; 'I' for Inactive)
REMARK    1  A    between atoms: N1_1  and  C1_4 
REMARK    2  A    between atoms: N4_9  and  C2_10 
REMARK    3  A    between atoms: C2_10  and  C3_11 
REMARK    4  A    between atoms: C3_11  and  O1_12 
REMARK    5  A    between atoms: C4_14  and  N5_15 
REMARK    6  A    between atoms: N5_15  and  O2_17 
REMARK    7  A    between atoms: N6_20  and  C6_21 
REMARK    8  A    between atoms: C9_31  and  S1_32 
REMARK    9  A    between atoms: S1_32  and  C10_33 
REMARK   10  A    between atoms: C10_33  and  C11_34 
REMARK   11  A    between atoms: C11_34  and  N10_35 
REMARK   12  A    between atoms: C11_34  and  C12_39 
REMARK   13  A    between atoms: C14_47  and  C15_48 
REMARK   14  A    between atoms: C15_48  and  O5_49 
REMARK   15  A    between atoms: C16_51  and  O6_52 
ROOT
HETATM    1  C3  UNL     1       2.825  -3.121 -26.769  1.00  0.00     0.146 C 
HETATM    2  C4  UNL     1       2.601  -1.885 -26.003  1.00  0.00     0.067 C 
HETATM    3  C5  UNL     1       1.355  -1.135 -26.408  1.00  0.00     0.200 C 
HETATM    4  N6  UNL     1       0.286  -2.100 -26.188  1.00  0.00    -0.203 N 
HETATM    5  C14 UNL     1       0.349  -3.488 -26.466  1.00  0.00     0.158 C 
HETATM    6  C16 UNL     1       1.696  -4.098 -26.583  1.00  0.00     0.185 C 
ENDROOT
BRANCH   4   7
HETATM    7  C6  UNL     1      -0.922  -1.578 -25.641  1.00  0.00     0.683 A 
HETATM    8  N7  UNL     1      -1.052  -1.424 -24.290  1.00  0.00    -0.184 N 
HETATM    9  C7  UNL     1      -2.269  -0.918 -24.038  1.00  0.00     0.137 A 
ATOM     10  H7  UNL     1      -0.344  -1.656 -23.592  1.00  0.00     0.184 HD
HETATM   11  C8  UNL     1      -2.898  -0.576 -22.862  1.00  0.00     0.132 A 
HETATM   12  C13 UNL     1      -2.898  -0.758 -25.257  1.00  0.00     0.154 A 
HETATM   13  N8  UNL     1      -2.315  -0.723 -21.725  1.00  0.00    -0.383 N 
HETATM   14  N9  UNL     1      -4.145  -0.084 -22.954  1.00  0.00    -0.321 N 
ATOM     15  H82 UNL     1      -1.368  -1.097 -21.656  1.00  0.00     0.157 HD
ATOM     16  H81 UNL     1      -2.781  -0.470 -20.854  1.00  0.00     0.157 HD
HETATM   17  C9  UNL     1      -4.804   0.091 -24.112  1.00  0.00     0.147 A 
ATOM     18  H9  UNL     1      -4.622   0.174 -22.090  1.00  0.00     0.169 HD
HETATM   19  N11 UNL     1      -4.138  -0.262 -25.258  1.00  0.00    -0.320 N 
ATOM     20  H11 UNL     1      -4.613  -0.140 -26.153  1.00  0.00     0.169 HD
HETATM   21  N12 UNL     1      -2.040  -1.174 -26.224  1.00  0.00    -0.174 N 
ATOM     22  H12 UNL     1      -2.225  -1.175 -27.227  1.00  0.00     0.186 HD
BRANCH  17  23
HETATM   23  S1  UNL     1      -6.451   0.693 -24.260  1.00  0.00    -0.091 SA
BRANCH  23  24
HETATM   24  C10 UNL     1      -7.642  -0.016 -23.151  1.00  0.00     0.126 C 
BRANCH  24  25
HETATM   25  C11 UNL     1      -7.369  -1.431 -22.719  1.00  0.00     0.293 C 
BRANCH  25  26
HETATM   26  N10 UNL     1      -7.722  -1.509 -21.281  1.00  0.00    -0.064 N 
ATOM     27 3H10 UNL     1      -7.954  -0.604 -20.873  1.00  0.00     0.275 HD
ATOM     28 2H10 UNL     1      -8.621  -1.960 -21.109  1.00  0.00     0.275 HD
ATOM     29 1H10 UNL     1      -6.943  -1.974 -20.815  1.00  0.00     0.275 HD
ENDBRANCH  25  26
BRANCH  25  30
HETATM   30  C12 UNL     1      -8.034  -2.503 -23.418  1.00  0.00     0.205 C 
HETATM   31  O3  UNL     1      -8.340  -2.380 -24.639  1.00  0.00    -0.646 OA
HETATM   32  O4  UNL     1      -8.365  -3.709 -22.763  1.00  0.00    -0.646 OA
ENDBRANCH  25  30
ENDBRANCH  24  25
ENDBRANCH  23  24
ENDBRANCH  17  23
ENDBRANCH   4   7
BRANCH   5  33
HETATM   33  C15 UNL     1      -0.432  -3.806 -27.736  1.00  0.00     0.192 C 
BRANCH  33  34
HETATM   34  O5  UNL     1       0.052  -2.982 -28.766  1.00  0.00    -0.399 OA
ATOM     35  H5  UNL     1      -0.338  -3.271 -29.583  1.00  0.00     0.209 HD
ENDBRANCH  33  34
ENDBRANCH   5  33
BRANCH   2  36
HETATM   36  N5  UNL     1       3.330  -1.429 -25.078  1.00  0.00    -0.273 N 
ATOM     37  H5  UNL     1       3.116  -1.798 -24.151  1.00  0.00     0.193 HD
BRANCH  36  38
HETATM   38  O2  UNL     1       4.336  -0.547 -25.101  1.00  0.00    -0.290 OA
ATOM     39  H2  UNL     1       5.227  -0.604 -24.778  1.00  0.00     0.244 HD
ENDBRANCH  36  38
ENDBRANCH   2  36
BRANCH   6  40
HETATM   40  O6  UNL     1       1.976  -4.806 -25.393  1.00  0.00    -0.390 OA
ATOM     41  H6  UNL     1       1.137  -4.979 -24.982  1.00  0.00     0.210 HD
ENDBRANCH   6  40
BRANCH   1  42
HETATM   42  C2  UNL     1       4.151  -3.747 -26.499  1.00  0.00     0.218 C 
BRANCH  42  43
HETATM   43  N4  UNL     1       5.047  -3.563 -27.631  1.00  0.00    -0.202 N 
HETATM   44  N3  UNL     1       5.081  -4.233 -28.769  1.00  0.00    -0.211 N 
HETATM   45  N2  UNL     1       6.040  -3.780 -29.553  1.00  0.00    -0.115 N 
ATOM     46  H3  UNL     1       4.449  -4.998 -29.009  1.00  0.00     0.210 HD
HETATM   47  C1  UNL     1       6.658  -2.766 -28.889  1.00  0.00     0.707 A 
ATOM     48  H2  UNL     1       6.275  -4.126 -30.484  1.00  0.00     0.207 HD
HETATM   49  N13 UNL     1       6.015  -2.667 -27.713  1.00  0.00    -0.113 N 
ATOM     50  H13 UNL     1       6.243  -1.992 -26.983  1.00  0.00     0.207 HD
BRANCH  47  51
HETATM   51  N1  UNL     1       7.646  -2.039 -29.276  1.00  0.00    -0.232 N 
ATOM     52  H12 UNL     1       7.873  -1.104 -28.936  1.00  0.00     0.174 HD
ATOM     53  H11 UNL     1       8.362  -2.254 -29.970  1.00  0.00     0.174 HD
ENDBRANCH  47  51
ENDBRANCH  42  43
ENDBRANCH   1  42
BRANCH   1  54
HETATM   54  O1  UNL     1       2.793  -2.728 -28.130  1.00  0.00    -0.379 OA
ATOM     55  H1  UNL     1       2.811  -1.779 -28.163  1.00  0.00     0.211 HD
ENDBRANCH   1  54
TORSDOF 15
ENDMDL
