MODEL 1
REMARK VINA RESULT: -8.949015912      0.000      0.000
REMARK  11 active torsions:
REMARK  status: ('A' for Active; 'I' for Inactive)
REMARK    1  A    between atoms: N1_1  and  C1_4 
REMARK    2  A    between atoms: C4_10  and  N4_11 
REMARK    3  A    between atoms: C6_14  and  N6_15 
REMARK    4  A    between atoms: C7_18  and  N7_19 
REMARK    5  A    between atoms: C8_24  and  N9_25 
REMARK    6  A    between atoms: N9_25  and  C9_27 
REMARK    7  A    between atoms: C9_27  and  C10_28 
REMARK    8  A    between atoms: C10_28  and  N10_29 
REMARK       I    between atoms: N10_29  and  C11_31 
REMARK    9  A    between atoms: C11_31  and  C12_33 
REMARK   10  A    between atoms: C13_38  and  C14_39 
REMARK   11  A    between atoms: C15_43  and  N13_44 
ROOT
HETATM    1  N4  UNL     1      16.118 -12.310   2.048  1.00  0.00    -0.265 N 
HETATM    2  C5  UNL     1      16.177 -13.599   2.431  1.00  0.00     0.163 C 
HETATM    3  N5  UNL     1      17.470 -14.212   2.519  1.00  0.00    -0.079 NA
HETATM    4  C6  UNL     1      15.074 -14.398   2.752  1.00  0.00     0.187 C 
HETATM    5  C7  UNL     1      13.766 -14.024   2.988  1.00  0.00     0.137 C 
HETATM    6  N8  UNL     1      13.350 -12.746   3.253  1.00  0.00    -0.324 N 
ATOM      7  H8  UNL     1      12.422 -12.660   3.668  1.00  0.00     0.169 HD
HETATM    8  C8  UNL     1      14.004 -11.590   3.039  1.00  0.00     0.148 C 
HETATM    9  C15 UNL     1      15.133 -11.413   2.249  1.00  0.00     0.153 C 
ENDROOT
BRANCH   8  10
HETATM   10  N9  UNL     1      13.474 -10.469   3.706  1.00  0.00    -0.372 N 
ATOM     11  H9  UNL     1      13.226  -9.652   3.149  1.00  0.00     0.161 HD
BRANCH  10  12
HETATM   12  C9  UNL     1      13.262 -10.410   5.134  1.00  0.00     0.141 C 
BRANCH  12  13
HETATM   13  C10 UNL     1      14.413  -9.856   5.908  1.00  0.00     0.142 C 
BRANCH  13  14
HETATM   14  N10 UNL     1      15.055  -8.771   5.192  1.00  0.00    -0.354 N 
HETATM   15  C11 UNL     1      15.049  -7.442   5.637  1.00  0.00     0.276 C 
HETATM   16  O3  UNL     1      14.509  -7.025   6.668  1.00  0.00    -0.265 OA
ATOM     17  H10 UNL     1      15.537  -8.986   4.319  1.00  0.00     0.162 HD
BRANCH  15  18
HETATM   18  C12 UNL     1      15.741  -6.416   4.823  1.00  0.00     0.159 A 
HETATM   19  N11 UNL     1      16.603  -6.608   3.829  1.00  0.00    -0.288 N 
HETATM   20  N12 UNL     1      17.108  -5.616   3.234  1.00  0.00    -0.287 N 
ATOM     21  H11 UNL     1      16.856  -7.555   3.548  1.00  0.00     0.188 HD
HETATM   22  C13 UNL     1      16.774  -4.384   3.606  1.00  0.00     0.168 A 
ATOM     23  H12 UNL     1      17.770  -5.758   2.472  1.00  0.00     0.188 HD
HETATM   24  S1  UNL     1      15.676  -4.710   4.878  1.00  0.00    -0.040 SA
BRANCH  22  25
HETATM   25  C14 UNL     1      17.243  -3.097   3.052  1.00  0.00     0.235 C 
HETATM   26  O4  UNL     1      18.150  -2.448   3.586  1.00  0.00    -0.642 OA
HETATM   27  O5  UNL     1      16.633  -2.642   1.911  1.00  0.00    -0.642 OA
ENDBRANCH  22  25
ENDBRANCH  15  18
ENDBRANCH  13  14
ENDBRANCH  12  13
ENDBRANCH  10  12
ENDBRANCH   8  10
BRANCH   9  28
HETATM   28  N13 UNL     1      15.215 -10.269   1.664  1.00  0.00    -0.382 N 
ATOM     29 2H13 UNL     1      16.029  -9.710   1.920  1.00  0.00     0.157 HD
ATOM     30 1H13 UNL     1      14.482 -10.006   1.006  1.00  0.00     0.157 HD
ENDBRANCH   9  28
BRANCH   5  31
HETATM   31  N7  UNL     1      12.870 -14.949   2.955  1.00  0.00    -0.383 N 
ATOM     32  H72 UNL     1      12.094 -14.878   3.613  1.00  0.00     0.157 HD
ATOM     33  H71 UNL     1      12.991 -15.695   2.271  1.00  0.00     0.157 HD
ENDBRANCH   5  31
BRANCH   1  34
HETATM   34  C4  UNL     1      17.236 -11.857   1.349  1.00  0.00     0.133 A 
HETATM   35  C3  UNL     1      17.209 -11.774  -0.027  1.00  0.00     0.095 A 
HETATM   36  C2  UNL     1      18.341 -11.318  -0.668  1.00  0.00     0.135 A 
HETATM   37  N2  UNL     1      19.424 -10.973   0.072  1.00  0.00    -0.179 N 
HETATM   38  N3  UNL     1      18.340 -11.220  -2.085  1.00  0.00    -0.082 NA
HETATM   39  C1  UNL     1      19.419 -11.067   1.415  1.00  0.00     0.678 A 
ATOM     40  H2  UNL     1      20.262 -10.635  -0.400  1.00  0.00     0.185 HD
HETATM   41  N14 UNL     1      18.324 -11.508   2.054  1.00  0.00    -0.176 N 
ATOM     42  H14 UNL     1      18.320 -11.578   3.071  1.00  0.00     0.186 HD
BRANCH  39  43
HETATM   43  N1  UNL     1      20.487 -10.720   2.051  1.00  0.00    -0.234 N 
ATOM     44  H12 UNL     1      20.898  -9.792   1.948  1.00  0.00     0.174 HD
ATOM     45  H11 UNL     1      20.920 -11.406   2.670  1.00  0.00     0.174 HD
ENDBRANCH  39  43
ENDBRANCH   1  34
BRANCH   4  46
HETATM   46  N6  UNL     1      15.355 -15.779   2.844  1.00  0.00    -0.108 N 
HETATM   47  O1  UNL     1      15.394 -16.453   1.807  1.00  0.00    -0.532 OA
HETATM   48  O2  UNL     1      15.584 -16.393   4.042  1.00  0.00    -0.532 OA
ENDBRANCH   4  46
TORSDOF 11
ENDMDL
MODEL 2
REMARK VINA RESULT: -8.569320512      1.917      3.016
REMARK  11 active torsions:
REMARK  status: ('A' for Active; 'I' for Inactive)
REMARK    1  A    between atoms: N1_1  and  C1_4 
REMARK    2  A    between atoms: C4_10  and  N4_11 
REMARK    3  A    between atoms: C6_14  and  N6_15 
REMARK    4  A    between atoms: C7_18  and  N7_19 
REMARK    5  A    between atoms: C8_24  and  N9_25 
REMARK    6  A    between atoms: N9_25  and  C9_27 
REMARK    7  A    between atoms: C9_27  and  C10_28 
REMARK    8  A    between atoms: C10_28  and  N10_29 
REMARK       I    between atoms: N10_29  and  C11_31 
REMARK    9  A    between atoms: C11_31  and  C12_33 
REMARK   10  A    between atoms: C13_38  and  C14_39 
REMARK   11  A    between atoms: C15_43  and  N13_44 
ROOT
HETATM    1  N4  UNL     1      16.136 -10.672   2.711  1.00  0.00    -0.265 N 
HETATM    2  C5  UNL     1      15.401 -11.799   2.671  1.00  0.00     0.163 C 
HETATM    3  N5  UNL     1      16.021 -12.983   2.151  1.00  0.00    -0.079 NA
HETATM    4  C6  UNL     1      14.073 -11.915   3.098  1.00  0.00     0.187 C 
HETATM    5  C7  UNL     1      13.319 -11.033   3.847  1.00  0.00     0.137 C 
HETATM    6  N8  UNL     1      13.825  -9.996   4.585  1.00  0.00    -0.324 N 
ATOM      7  H8  UNL     1      13.199  -9.606   5.289  1.00  0.00     0.169 HD
HETATM    8  C8  UNL     1      15.040  -9.424   4.504  1.00  0.00     0.148 C 
HETATM    9  C15 UNL     1      15.957  -9.573   3.471  1.00  0.00     0.153 C 
ENDROOT
BRANCH   8  10
HETATM   10  N9  UNL     1      15.394  -8.610   5.597  1.00  0.00    -0.372 N 
ATOM     11  H9  UNL     1      16.229  -8.856   6.129  1.00  0.00     0.161 HD
BRANCH  10  12
HETATM   12  C9  UNL     1      14.642  -7.448   6.009  1.00  0.00     0.141 C 
BRANCH  12  13
HETATM   13  C10 UNL     1      15.480  -6.301   6.472  1.00  0.00     0.142 C 
BRANCH  13  14
HETATM   14  N10 UNL     1      16.264  -5.749   5.384  1.00  0.00    -0.354 N 
HETATM   15  C11 UNL     1      15.771  -4.793   4.485  1.00  0.00     0.276 C 
HETATM   16  O3  UNL     1      14.634  -4.307   4.494  1.00  0.00    -0.265 OA
ATOM     17  H10 UNL     1      17.224  -6.072   5.267  1.00  0.00     0.162 HD
BRANCH  15  18
HETATM   18  C12 UNL     1      16.665  -4.299   3.412  1.00  0.00     0.159 A 
HETATM   19  N11 UNL     1      17.736  -4.898   2.902  1.00  0.00    -0.288 N 
HETATM   20  N12 UNL     1      18.394  -4.333   1.984  1.00  0.00    -0.287 N 
ATOM     21  H11 UNL     1      18.026  -5.811   3.251  1.00  0.00     0.188 HD
HETATM   22  C13 UNL     1      18.011  -3.143   1.534  1.00  0.00     0.168 A 
ATOM     23  H12 UNL     1      19.217  -4.789   1.589  1.00  0.00     0.188 HD
HETATM   24  S1  UNL     1      16.631  -2.853   2.503  1.00  0.00    -0.040 SA
BRANCH  22  25
HETATM   25  C14 UNL     1      18.632  -2.315   0.479  1.00  0.00     0.235 C 
HETATM   26  O4  UNL     1      18.559  -1.080   0.489  1.00  0.00    -0.642 OA
HETATM   27  O5  UNL     1      19.301  -2.970  -0.523  1.00  0.00    -0.642 OA
ENDBRANCH  22  25
ENDBRANCH  15  18
ENDBRANCH  13  14
ENDBRANCH  12  13
ENDBRANCH  10  12
ENDBRANCH   8  10
BRANCH   9  28
HETATM   28  N13 UNL     1      16.692  -8.541   3.240  1.00  0.00    -0.382 N 
ATOM     29 2H13 UNL     1      16.214  -7.765   2.782  1.00  0.00     0.157 HD
ATOM     30 1H13 UNL     1      17.672  -8.569   3.520  1.00  0.00     0.157 HD
ENDBRANCH   9  28
BRANCH   5  31
HETATM   31  N7  UNL     1      12.042 -11.201   3.851  1.00  0.00    -0.383 N 
ATOM     32  H72 UNL     1      11.636 -11.756   3.098  1.00  0.00     0.157 HD
ATOM     33  H71 UNL     1      11.515 -10.767   4.609  1.00  0.00     0.157 HD
ENDBRANCH   5  31
BRANCH   1  34
HETATM   34  C4  UNL     1      17.224 -10.654   1.842  1.00  0.00     0.133 A 
HETATM   35  C3  UNL     1      18.502 -10.847   2.323  1.00  0.00     0.095 A 
HETATM   36  C2  UNL     1      19.543 -10.821   1.419  1.00  0.00     0.135 A 
HETATM   37  N2  UNL     1      19.271 -10.608   0.108  1.00  0.00    -0.179 N 
HETATM   38  N3  UNL     1      20.869 -11.019   1.888  1.00  0.00    -0.082 NA
HETATM   39  C1  UNL     1      18.013 -10.422  -0.331  1.00  0.00     0.678 A 
ATOM     40  H2  UNL     1      20.040 -10.589  -0.563  1.00  0.00     0.185 HD
HETATM   41  N14 UNL     1      16.988 -10.445   0.536  1.00  0.00    -0.176 N 
ATOM     42  H14 UNL     1      16.035 -10.305   0.204  1.00  0.00     0.186 HD
BRANCH  39  43
HETATM   43  N1  UNL     1      17.833 -10.225  -1.594  1.00  0.00    -0.234 N 
ATOM     44  H12 UNL     1      18.319 -10.778  -2.300  1.00  0.00     0.174 HD
ATOM     45  H11 UNL     1      17.184  -9.491  -1.877  1.00  0.00     0.174 HD
ENDBRANCH  39  43
ENDBRANCH   1  34
BRANCH   4  46
HETATM   46  N6  UNL     1      13.427 -13.104   2.697  1.00  0.00    -0.108 N 
HETATM   47  O1  UNL     1      12.780 -13.110   1.643  1.00  0.00    -0.532 OA
HETATM   48  O2  UNL     1      13.495 -14.250   3.438  1.00  0.00    -0.532 OA
ENDBRANCH   4  46
TORSDOF 11
ENDMDL
MODEL 3
REMARK VINA RESULT: -8.427140094      0.725      1.566
REMARK  11 active torsions:
REMARK  status: ('A' for Active; 'I' for Inactive)
REMARK    1  A    between atoms: N1_1  and  C1_4 
REMARK    2  A    between atoms: C4_10  and  N4_11 
REMARK    3  A    between atoms: C6_14  and  N6_15 
REMARK    4  A    between atoms: C7_18  and  N7_19 
REMARK    5  A    between atoms: C8_24  and  N9_25 
REMARK    6  A    between atoms: N9_25  and  C9_27 
REMARK    7  A    between atoms: C9_27  and  C10_28 
REMARK    8  A    between atoms: C10_28  and  N10_29 
REMARK       I    between atoms: N10_29  and  C11_31 
REMARK    9  A    between atoms: C11_31  and  C12_33 
REMARK   10  A    between atoms: C13_38  and  C14_39 
REMARK   11  A    between atoms: C15_43  and  N13_44 
ROOT
HETATM    1  N4  UNL     1      16.578 -12.534   2.327  1.00  0.00    -0.265 N 
HETATM    2  C5  UNL     1      16.494 -13.823   2.707  1.00  0.00     0.163 C 
HETATM    3  N5  UNL     1      17.718 -14.528   2.953  1.00  0.00    -0.079 NA
HETATM    4  C6  UNL     1      15.304 -14.537   2.882  1.00  0.00     0.187 C 
HETATM    5  C7  UNL     1      14.007 -14.067   2.954  1.00  0.00     0.137 C 
HETATM    6  N8  UNL     1      13.656 -12.761   3.172  1.00  0.00    -0.324 N 
ATOM      7  H8  UNL     1      12.692 -12.605   3.468  1.00  0.00     0.169 HD
HETATM    8  C8  UNL     1      14.415 -11.657   3.048  1.00  0.00     0.148 C 
HETATM    9  C15 UNL     1      15.644 -11.566   2.407  1.00  0.00     0.153 C 
ENDROOT
BRANCH   8  10
HETATM   10  N9  UNL     1      13.889 -10.498   3.650  1.00  0.00    -0.372 N 
ATOM     11  H9  UNL     1      13.799  -9.658   3.078  1.00  0.00     0.161 HD
BRANCH  10  12
HETATM   12  C9  UNL     1      13.469 -10.429   5.030  1.00  0.00     0.141 C 
BRANCH  12  13
HETATM   13  C10 UNL     1      14.393  -9.666   5.921  1.00  0.00     0.142 C 
BRANCH  13  14
HETATM   14  N10 UNL     1      15.058  -8.598   5.200  1.00  0.00    -0.354 N 
HETATM   15  C11 UNL     1      15.089  -7.269   5.645  1.00  0.00     0.276 C 
HETATM   16  O3  UNL     1      14.568  -6.838   6.681  1.00  0.00    -0.265 OA
ATOM     17  H10 UNL     1      15.526  -8.825   4.323  1.00  0.00     0.162 HD
BRANCH  15  18
HETATM   18  C12 UNL     1      15.801  -6.261   4.825  1.00  0.00     0.159 A 
HETATM   19  N11 UNL     1      16.781  -6.466   3.951  1.00  0.00    -0.288 N 
HETATM   20  N12 UNL     1      17.284  -5.488   3.331  1.00  0.00    -0.287 N 
ATOM     21  H11 UNL     1      17.127  -7.410   3.782  1.00  0.00     0.188 HD
HETATM   22  C13 UNL     1      16.829  -4.260   3.557  1.00  0.00     0.168 A 
ATOM     23  H12 UNL     1      18.036  -5.639   2.660  1.00  0.00     0.188 HD
HETATM   24  S1  UNL     1      15.617  -4.566   4.725  1.00  0.00    -0.040 SA
BRANCH  22  25
HETATM   25  C14 UNL     1      17.272  -2.988   2.947  1.00  0.00     0.235 C 
HETATM   26  O4  UNL     1      16.834  -2.597   1.858  1.00  0.00    -0.642 OA
HETATM   27  O5  UNL     1      18.197  -2.247   3.638  1.00  0.00    -0.642 OA
ENDBRANCH  22  25
ENDBRANCH  15  18
ENDBRANCH  13  14
ENDBRANCH  12  13
ENDBRANCH  10  12
ENDBRANCH   8  10
BRANCH   9  28
HETATM   28  N13 UNL     1      15.882 -10.434   1.843  1.00  0.00    -0.382 N 
ATOM     29 2H13 UNL     1      15.136 -10.086   1.241  1.00  0.00     0.157 HD
ATOM     30 1H13 UNL     1      16.774  -9.975   2.029  1.00  0.00     0.157 HD
ENDBRANCH   9  28
BRANCH   5  31
HETATM   31  N7  UNL     1      13.057 -14.924   2.804  1.00  0.00    -0.383 N 
ATOM     32  H72 UNL     1      13.295 -15.912   2.889  1.00  0.00     0.157 HD
ATOM     33  H71 UNL     1      12.125 -14.560   2.609  1.00  0.00     0.157 HD
ENDBRANCH   5  31
BRANCH   1  34
HETATM   34  C4  UNL     1      17.805 -12.167   1.776  1.00  0.00     0.133 A 
HETATM   35  C3  UNL     1      18.743 -11.508   2.543  1.00  0.00     0.095 A 
HETATM   36  C2  UNL     1      19.939 -11.170   1.949  1.00  0.00     0.135 A 
HETATM   37  N2  UNL     1      20.144 -11.494   0.648  1.00  0.00    -0.179 N 
HETATM   38  N3  UNL     1      20.925 -10.493   2.718  1.00  0.00    -0.082 NA
HETATM   39  C1  UNL     1      19.208 -12.136  -0.074  1.00  0.00     0.678 A 
ATOM     40  H2  UNL     1      21.029 -11.245   0.207  1.00  0.00     0.185 HD
HETATM   41  N14 UNL     1      18.038 -12.473   0.489  1.00  0.00    -0.176 N 
ATOM     42  H14 UNL     1      17.329 -12.961  -0.057  1.00  0.00     0.186 HD
BRANCH  39  43
HETATM   43  N1  UNL     1      19.476 -12.411  -1.307  1.00  0.00    -0.234 N 
ATOM     44  H12 UNL     1      19.547 -13.372  -1.641  1.00  0.00     0.174 HD
ATOM     45  H11 UNL     1      19.618 -11.633  -1.952  1.00  0.00     0.174 HD
ENDBRANCH  39  43
ENDBRANCH   1  34
BRANCH   4  46
HETATM   46  N6  UNL     1      15.469 -15.935   3.001  1.00  0.00    -0.108 N 
HETATM   47  O1  UNL     1      15.486 -16.626   1.975  1.00  0.00    -0.532 OA
HETATM   48  O2  UNL     1      15.609 -16.547   4.214  1.00  0.00    -0.532 OA
ENDBRANCH   4  46
TORSDOF 11
ENDMDL
MODEL 4
REMARK VINA RESULT: -8.423874390      1.924      4.697
REMARK  11 active torsions:
REMARK  status: ('A' for Active; 'I' for Inactive)
REMARK    1  A    between atoms: N1_1  and  C1_4 
REMARK    2  A    between atoms: C4_10  and  N4_11 
REMARK    3  A    between atoms: C6_14  and  N6_15 
REMARK    4  A    between atoms: C7_18  and  N7_19 
REMARK    5  A    between atoms: C8_24  and  N9_25 
REMARK    6  A    between atoms: N9_25  and  C9_27 
REMARK    7  A    between atoms: C9_27  and  C10_28 
REMARK    8  A    between atoms: C10_28  and  N10_29 
REMARK       I    between atoms: N10_29  and  C11_31 
REMARK    9  A    between atoms: C11_31  and  C12_33 
REMARK   10  A    between atoms: C13_38  and  C14_39 
REMARK   11  A    between atoms: C15_43  and  N13_44 
ROOT
HETATM    1  N4  UNL     1      14.315 -13.299   2.226  1.00  0.00    -0.265 N 
HETATM    2  C5  UNL     1      15.169 -13.142   1.197  1.00  0.00     0.163 C 
HETATM    3  N5  UNL     1      14.998 -13.987   0.052  1.00  0.00    -0.079 NA
HETATM    4  C6  UNL     1      16.219 -12.218   1.152  1.00  0.00     0.187 C 
HETATM    5  C7  UNL     1      16.468 -11.140   1.979  1.00  0.00     0.137 C 
HETATM    6  N8  UNL     1      15.556 -10.579   2.835  1.00  0.00    -0.324 N 
ATOM      7  H8  UNL     1      15.783  -9.644   3.173  1.00  0.00     0.169 HD
HETATM    8  C8  UNL     1      14.401 -11.099   3.287  1.00  0.00     0.148 C 
HETATM    9  C15 UNL     1      14.004 -12.429   3.207  1.00  0.00     0.153 C 
ENDROOT
BRANCH   8  10
HETATM   10  N9  UNL     1      13.521 -10.176   3.883  1.00  0.00    -0.372 N 
ATOM     11  H9  UNL     1      13.012  -9.535   3.275  1.00  0.00     0.161 HD
BRANCH  10  12
HETATM   12  C9  UNL     1      13.298 -10.084   5.308  1.00  0.00     0.141 C 
BRANCH  12  13
HETATM   13  C10 UNL     1      14.420  -9.459   6.071  1.00  0.00     0.142 C 
BRANCH  13  14
HETATM   14  N10 UNL     1      15.054  -8.403   5.305  1.00  0.00    -0.354 N 
HETATM   15  C11 UNL     1      15.175  -7.084   5.764  1.00  0.00     0.276 C 
HETATM   16  O3  UNL     1      14.768  -6.652   6.849  1.00  0.00    -0.265 OA
ATOM     17  H10 UNL     1      15.431  -8.631   4.386  1.00  0.00     0.162 HD
BRANCH  15  18
HETATM   18  C12 UNL     1      15.844  -6.088   4.894  1.00  0.00     0.159 A 
HETATM   19  N11 UNL     1      16.830  -6.294   4.027  1.00  0.00    -0.288 N 
HETATM   20  N12 UNL     1      17.292  -5.327   3.360  1.00  0.00    -0.287 N 
ATOM     21  H11 UNL     1      17.212  -7.231   3.900  1.00  0.00     0.188 HD
HETATM   22  C13 UNL     1      16.790  -4.109   3.531  1.00  0.00     0.168 A 
ATOM     23  H12 UNL     1      18.048  -5.480   2.693  1.00  0.00     0.188 HD
HETATM   24  S1  UNL     1      15.594  -4.408   4.718  1.00  0.00    -0.040 SA
BRANCH  22  25
HETATM   25  C14 UNL     1      17.182  -2.850   2.861  1.00  0.00     0.235 C 
HETATM   26  O4  UNL     1      16.588  -2.431   1.860  1.00  0.00    -0.642 OA
HETATM   27  O5  UNL     1      18.237  -2.156   3.393  1.00  0.00    -0.642 OA
ENDBRANCH  22  25
ENDBRANCH  15  18
ENDBRANCH  13  14
ENDBRANCH  12  13
ENDBRANCH  10  12
ENDBRANCH   8  10
BRANCH   9  28
HETATM   28  N13 UNL     1      13.272 -12.839   4.183  1.00  0.00    -0.382 N 
ATOM     29 2H13 UNL     1      12.682 -13.644   3.972  1.00  0.00     0.157 HD
ATOM     30 1H13 UNL     1      13.327 -12.345   5.074  1.00  0.00     0.157 HD
ENDBRANCH   9  28
BRANCH   5  31
HETATM   31  N7  UNL     1      17.647 -10.625   1.942  1.00  0.00    -0.383 N 
ATOM     32  H72 UNL     1      17.892 -10.064   1.126  1.00  0.00     0.157 HD
ATOM     33  H71 UNL     1      18.264 -10.809   2.733  1.00  0.00     0.157 HD
ENDBRANCH   5  31
BRANCH   1  34
HETATM   34  C4  UNL     1      13.672 -14.534   2.268  1.00  0.00     0.133 A 
HETATM   35  C3  UNL     1      14.277 -15.613   2.878  1.00  0.00     0.095 A 
HETATM   36  C2  UNL     1      13.596 -16.811   2.892  1.00  0.00     0.135 A 
HETATM   37  N2  UNL     1      12.373 -16.881   2.312  1.00  0.00    -0.179 N 
HETATM   38  N3  UNL     1      14.196 -17.939   3.516  1.00  0.00    -0.082 NA
HETATM   39  C1  UNL     1      11.809 -15.810   1.724  1.00  0.00     0.678 A 
ATOM     40  H2  UNL     1      11.867 -17.767   2.322  1.00  0.00     0.185 HD
HETATM   41  N14 UNL     1      12.458 -14.636   1.702  1.00  0.00    -0.176 N 
ATOM     42  H14 UNL     1      12.031 -13.824   1.257  1.00  0.00     0.186 HD
BRANCH  39  43
HETATM   43  N1  UNL     1      10.641 -15.954   1.192  1.00  0.00    -0.234 N 
ATOM     44  H12 UNL     1      10.338 -15.389   0.399  1.00  0.00     0.174 HD
ATOM     45  H11 UNL     1      10.016 -16.655   1.591  1.00  0.00     0.174 HD
ENDBRANCH  39  43
ENDBRANCH   1  34
BRANCH   4  46
HETATM   46  N6  UNL     1      17.146 -12.431   0.109  1.00  0.00    -0.108 N 
HETATM   47  O1  UNL     1      18.099 -13.197   0.301  1.00  0.00    -0.532 OA
HETATM   48  O2  UNL     1      17.024 -11.817  -1.105  1.00  0.00    -0.532 OA
ENDBRANCH   4  46
TORSDOF 11
ENDMDL
MODEL 5
REMARK VINA RESULT: -8.377779174      1.844      4.556
REMARK  11 active torsions:
REMARK  status: ('A' for Active; 'I' for Inactive)
REMARK    1  A    between atoms: N1_1  and  C1_4 
REMARK    2  A    between atoms: C4_10  and  N4_11 
REMARK    3  A    between atoms: C6_14  and  N6_15 
REMARK    4  A    between atoms: C7_18  and  N7_19 
REMARK    5  A    between atoms: C8_24  and  N9_25 
REMARK    6  A    between atoms: N9_25  and  C9_27 
REMARK    7  A    between atoms: C9_27  and  C10_28 
REMARK    8  A    between atoms: C10_28  and  N10_29 
REMARK       I    between atoms: N10_29  and  C11_31 
REMARK    9  A    between atoms: C11_31  and  C12_33 
REMARK   10  A    between atoms: C13_38  and  C14_39 
REMARK   11  A    between atoms: C15_43  and  N13_44 
ROOT
HETATM    1  N4  UNL     1      14.292 -13.327   2.322  1.00  0.00    -0.265 N 
HETATM    2  C5  UNL     1      15.212 -13.229   1.344  1.00  0.00     0.163 C 
HETATM    3  N5  UNL     1      15.044 -14.054   0.183  1.00  0.00    -0.079 NA
HETATM    4  C6  UNL     1      16.327 -12.384   1.364  1.00  0.00     0.187 C 
HETATM    5  C7  UNL     1      16.607 -11.331   2.213  1.00  0.00     0.137 C 
HETATM    6  N8  UNL     1      15.693 -10.709   3.022  1.00  0.00    -0.324 N 
ATOM      7  H8  UNL     1      15.968  -9.794   3.380  1.00  0.00     0.169 HD
HETATM    8  C8  UNL     1      14.479 -11.145   3.405  1.00  0.00     0.148 C 
HETATM    9  C15 UNL     1      13.992 -12.441   3.292  1.00  0.00     0.153 C 
ENDROOT
BRANCH   8  10
HETATM   10  N9  UNL     1      13.637 -10.162   3.960  1.00  0.00    -0.372 N 
ATOM     11  H9  UNL     1      13.194  -9.496   3.327  1.00  0.00     0.161 HD
BRANCH  10  12
HETATM   12  C9  UNL     1      13.366 -10.042   5.374  1.00  0.00     0.141 C 
BRANCH  12  13
HETATM   13  C10 UNL     1      14.429  -9.336   6.151  1.00  0.00     0.142 C 
BRANCH  13  14
HETATM   14  N10 UNL     1      15.066  -8.306   5.354  1.00  0.00    -0.354 N 
HETATM   15  C11 UNL     1      15.177  -6.971   5.766  1.00  0.00     0.276 C 
HETATM   16  O3  UNL     1      14.758  -6.502   6.830  1.00  0.00    -0.265 OA
ATOM     17  H10 UNL     1      15.454  -8.566   4.447  1.00  0.00     0.162 HD
BRANCH  15  18
HETATM   18  C12 UNL     1      15.852  -6.004   4.868  1.00  0.00     0.159 A 
HETATM   19  N11 UNL     1      16.846  -6.237   4.016  1.00  0.00    -0.288 N 
HETATM   20  N12 UNL     1      17.311  -5.293   3.320  1.00  0.00    -0.287 N 
ATOM     21  H11 UNL     1      17.231  -7.177   3.926  1.00  0.00     0.188 HD
HETATM   22  C13 UNL     1      16.805  -4.071   3.444  1.00  0.00     0.168 A 
ATOM     23  H12 UNL     1      18.073  -5.467   2.666  1.00  0.00     0.188 HD
HETATM   24  S1  UNL     1      15.599  -4.332   4.631  1.00  0.00    -0.040 SA
BRANCH  22  25
HETATM   25  C14 UNL     1      17.199  -2.835   2.734  1.00  0.00     0.235 C 
HETATM   26  O4  UNL     1      16.693  -2.513   1.653  1.00  0.00    -0.642 OA
HETATM   27  O5  UNL     1      18.156  -2.049   3.323  1.00  0.00    -0.642 OA
ENDBRANCH  22  25
ENDBRANCH  15  18
ENDBRANCH  13  14
ENDBRANCH  12  13
ENDBRANCH  10  12
ENDBRANCH   8  10
BRANCH   9  28
HETATM   28  N13 UNL     1      13.178 -12.801   4.222  1.00  0.00    -0.382 N 
ATOM     29 2H13 UNL     1      12.833 -12.042   4.811  1.00  0.00     0.157 HD
ATOM     30 1H13 UNL     1      12.943 -13.789   4.308  1.00  0.00     0.157 HD
ENDBRANCH   9  28
BRANCH   5  31
HETATM   31  N7  UNL     1      17.821 -10.903   2.246  1.00  0.00    -0.383 N 
ATOM     32  H72 UNL     1      18.552 -11.574   2.484  1.00  0.00     0.157 HD
ATOM     33  H71 UNL     1      17.977  -9.918   2.031  1.00  0.00     0.157 HD
ENDBRANCH   5  31
BRANCH   1  34
HETATM   34  C4  UNL     1      13.560 -14.512   2.318  1.00  0.00     0.133 A 
HETATM   35  C3  UNL     1      12.289 -14.543   1.784  1.00  0.00     0.095 A 
HETATM   36  C2  UNL     1      11.609 -15.742   1.804  1.00  0.00     0.135 A 
HETATM   37  N2  UNL     1      12.211 -16.832   2.342  1.00  0.00    -0.179 N 
HETATM   38  N3  UNL     1      10.298 -15.802   1.259  1.00  0.00    -0.082 NA
HETATM   39  C1  UNL     1      13.453 -16.769   2.856  1.00  0.00     0.678 A 
ATOM     40  H2  UNL     1      11.710 -17.720   2.358  1.00  0.00     0.185 HD
HETATM   41  N14 UNL     1      14.128 -15.609   2.844  1.00  0.00    -0.176 N 
ATOM     42  H14 UNL     1      15.070 -15.562   3.232  1.00  0.00     0.186 HD
BRANCH  39  43
HETATM   43  N1  UNL     1      13.960 -17.848   3.351  1.00  0.00    -0.234 N 
ATOM     44  H12 UNL     1      14.771 -18.304   2.932  1.00  0.00     0.174 HD
ATOM     45  H11 UNL     1      13.525 -18.244   4.185  1.00  0.00     0.174 HD
ENDBRANCH  39  43
ENDBRANCH   1  34
BRANCH   4  46
HETATM   46  N6  UNL     1      17.293 -12.660   0.372  1.00  0.00    -0.108 N 
HETATM   47  O1  UNL     1      18.124 -13.553   0.577  1.00  0.00    -0.532 OA
HETATM   48  O2  UNL     1      17.338 -11.970  -0.806  1.00  0.00    -0.532 OA
ENDBRANCH   4  46
TORSDOF 11
ENDMDL
