MODEL 1
REMARK VINA RESULT: -7.577123970      0.000      0.000
REMARK  14 active torsions:
REMARK  status: ('A' for Active; 'I' for Inactive)
REMARK    1  A    between atoms: C3_7  and  C4_8 
REMARK    2  A    between atoms: C4_8  and  C5_9 
REMARK    3  A    between atoms: C5_9  and  C6_10 
REMARK    4  A    between atoms: C6_10  and  S1_11 
REMARK    5  A    between atoms: S1_11  and  C7_12 
REMARK    6  A    between atoms: C7_12  and  C8_13 
REMARK    7  A    between atoms: C8_13  and  C9_14 
REMARK    8  A    between atoms: C10_19  and  N5_20 
REMARK    9  A    between atoms: N6_23  and  O1_24 
REMARK   10  A    between atoms: C11_26  and  C12_27 
REMARK   11  A    between atoms: C12_27  and  O2_28 
REMARK   12  A    between atoms: C14_35  and  N9_36 
REMARK   13  A    between atoms: C15_41  and  N11_42 
REMARK   14  A    between atoms: C16_46  and  N13_47 
ROOT
HETATM    1  C4  UNL     1      19.402 -12.238   2.022  1.00  0.00     0.187 C 
HETATM    2  N7  UNL     1      19.953 -11.341   3.057  1.00  0.00    -0.190 N 
ATOM      3  H7  UNL     1      19.344 -10.694   3.557  1.00  0.00     0.180 HD
HETATM    4  C13 UNL     1      21.324 -11.389   3.343  1.00  0.00     0.715 A 
HETATM    5  N8  UNL     1      22.062 -10.307   3.645  1.00  0.00    -0.021 N 
ATOM      6  H8  UNL     1      21.614  -9.389   3.659  1.00  0.00     0.203 HD
HETATM    7  C14 UNL     1      23.368 -10.397   3.928  1.00  0.00     0.705 A 
HETATM    8  N10 UNL     1      23.928 -11.614   3.902  1.00  0.00    -0.022 N 
ATOM      9  H10 UNL     1      24.922 -11.700   4.115  1.00  0.00     0.203 HD
HETATM   10  C15 UNL     1      23.223 -12.744   3.602  1.00  0.00     0.710 A 
HETATM   11  N12 UNL     1      21.917 -12.596   3.325  1.00  0.00     0.034 N 
HETATM   12  C16 UNL     1      21.065 -13.719   2.980  1.00  0.00     0.425 C 
HETATM   13  N14 UNL     1      20.242 -13.337   1.837  1.00  0.00    -0.346 N 
ATOM     14  H14 UNL     1      20.278 -13.844   0.953  1.00  0.00     0.160 HD
ENDROOT
BRANCH   1  15
HETATM   15  C3  UNL     1      19.262 -11.304   0.836  1.00  0.00     0.190 A 
HETATM   16  N2  UNL     1      18.242 -10.402   0.850  1.00  0.00    -0.278 N 
HETATM   17  N1  UNL     1      18.305  -9.703  -0.273  1.00  0.00    -0.282 N 
ATOM     18  H2  UNL     1      17.552 -10.286   1.592  1.00  0.00     0.189 HD
HETATM   19  C2  UNL     1      19.368 -10.203  -0.940  1.00  0.00     0.136 A 
ATOM     20  H1  UNL     1      17.685  -8.949  -0.570  1.00  0.00     0.189 HD
HETATM   21  C1  UNL     1      19.813  -9.703  -2.275  1.00  0.00     0.099 C 
HETATM   22  O3  UNL     1      19.931 -11.172  -0.243  1.00  0.00    -0.278 OA
ENDBRANCH   1  15
BRANCH   1  23
HETATM   23  C5  UNL     1      17.931 -12.537   2.365  1.00  0.00     0.073 C 
BRANCH  23  24
HETATM   24  C6  UNL     1      17.554 -13.811   1.624  1.00  0.00     0.078 C 
BRANCH  24  25
HETATM   25  S1  UNL     1      15.813 -14.050   1.416  1.00  0.00    -0.169 SA
BRANCH  25  26
HETATM   26  C7  UNL     1      14.854 -13.404   2.846  1.00  0.00     0.080 C 
BRANCH  26  27
HETATM   27  C8  UNL     1      14.138 -12.129   2.519  1.00  0.00     0.071 C 
BRANCH  27  28
HETATM   28  C9  UNL     1      13.793 -11.286   3.677  1.00  0.00     0.055 A 
HETATM   29  N3  UNL     1      12.819 -11.592   4.549  1.00  0.00    -0.288 N 
HETATM   30  N4  UNL     1      12.569 -10.788   5.601  1.00  0.00    -0.130 N 
ATOM     31  H3  UNL     1      12.265 -12.439   4.416  1.00  0.00     0.187 HD
HETATM   32  C10 UNL     1      13.255  -9.662   5.845  1.00  0.00     0.717 A 
ATOM     33  H4  UNL     1      11.820 -11.048   6.244  1.00  0.00     0.205 HD
HETATM   34  N6  UNL     1      14.238  -9.327   4.990  1.00  0.00    -0.052 N 
HETATM   35  C11 UNL     1      14.497 -10.129   3.926  1.00  0.00     0.106 A 
BRANCH  32  36
HETATM   36  N5  UNL     1      13.024  -8.893   6.839  1.00  0.00    -0.231 N 
ATOM     37  H52 UNL     1      13.359  -9.175   7.760  1.00  0.00     0.174 HD
ATOM     38  H51 UNL     1      12.524  -8.007   6.764  1.00  0.00     0.174 HD
ENDBRANCH  32  36
BRANCH  34  39
HETATM   39  O1  UNL     1      14.959  -8.187   5.217  1.00  0.00    -0.269 OA
ATOM     40  H1  UNL     1      15.611  -7.918   4.581  1.00  0.00     0.245 HD
ENDBRANCH  34  39
BRANCH  35  41
HETATM   41  C12 UNL     1      15.562  -9.707   2.970  1.00  0.00     0.226 C 
BRANCH  41  42
HETATM   42  O2  UNL     1      16.783  -9.531   3.596  1.00  0.00    -0.395 OA
ATOM     43  H2  UNL     1      17.495  -9.444   2.972  1.00  0.00     0.209 HD
ENDBRANCH  41  42
ENDBRANCH  35  41
ENDBRANCH  27  28
ENDBRANCH  26  27
ENDBRANCH  25  26
ENDBRANCH  24  25
ENDBRANCH  23  24
ENDBRANCH   1  23
BRANCH  12  44
HETATM   44  N13 UNL     1      20.288 -14.052   4.143  1.00  0.00    -0.039 N 
ATOM     45 3H13 UNL     1      20.582 -13.541   4.976  1.00  0.00     0.279 HD
ATOM     46 2H13 UNL     1      19.334 -13.696   4.098  1.00  0.00     0.279 HD
ATOM     47 1H13 UNL     1      20.328 -15.063   4.264  1.00  0.00     0.279 HD
ENDBRANCH  12  44
BRANCH   7  48
HETATM   48  N9  UNL     1      24.069  -9.327   4.219  1.00  0.00    -0.234 N 
ATOM     49  H92 UNL     1      23.620  -8.430   4.402  1.00  0.00     0.174 HD
ATOM     50  H91 UNL     1      25.087  -9.368   4.270  1.00  0.00     0.174 HD
ENDBRANCH   7  48
BRANCH  10  51
HETATM   51  N11 UNL     1      23.791 -13.916   3.596  1.00  0.00    -0.233 N 
ATOM     52 2H11 UNL     1      24.281 -14.275   4.415  1.00  0.00     0.174 HD
ATOM     53 1H11 UNL     1      23.772 -14.511   2.767  1.00  0.00     0.174 HD
ENDBRANCH  10  51
TORSDOF 14
ENDMDL
MODEL 2
REMARK VINA RESULT: -7.452513324      2.555      4.482
REMARK  14 active torsions:
REMARK  status: ('A' for Active; 'I' for Inactive)
REMARK    1  A    between atoms: C3_7  and  C4_8 
REMARK    2  A    between atoms: C4_8  and  C5_9 
REMARK    3  A    between atoms: C5_9  and  C6_10 
REMARK    4  A    between atoms: C6_10  and  S1_11 
REMARK    5  A    between atoms: S1_11  and  C7_12 
REMARK    6  A    between atoms: C7_12  and  C8_13 
REMARK    7  A    between atoms: C8_13  and  C9_14 
REMARK    8  A    between atoms: C10_19  and  N5_20 
REMARK    9  A    between atoms: N6_23  and  O1_24 
REMARK   10  A    between atoms: C11_26  and  C12_27 
REMARK   11  A    between atoms: C12_27  and  O2_28 
REMARK   12  A    between atoms: C14_35  and  N9_36 
REMARK   13  A    between atoms: C15_41  and  N11_42 
REMARK   14  A    between atoms: C16_46  and  N13_47 
ROOT
HETATM    1  C4  UNL     1      20.211 -11.367   1.852  1.00  0.00     0.187 C 
HETATM    2  N7  UNL     1      20.020 -12.822   2.010  1.00  0.00    -0.190 N 
ATOM      3  H7  UNL     1      19.265 -13.183   2.593  1.00  0.00     0.180 HD
HETATM    4  C13 UNL     1      20.887 -13.701   1.350  1.00  0.00     0.715 A 
HETATM    5  N8  UNL     1      21.316 -14.863   1.874  1.00  0.00    -0.021 N 
ATOM      6  H8  UNL     1      21.009 -15.126   2.811  1.00  0.00     0.203 HD
HETATM    7  C14 UNL     1      22.134 -15.683   1.204  1.00  0.00     0.705 A 
HETATM    8  N10 UNL     1      22.520 -15.311  -0.024  1.00  0.00    -0.022 N 
ATOM      9  H10 UNL     1      23.144 -15.925  -0.548  1.00  0.00     0.203 HD
HETATM   10  C15 UNL     1      22.114 -14.143  -0.603  1.00  0.00     0.710 A 
HETATM   11  N12 UNL     1      21.295 -13.357   0.115  1.00  0.00     0.034 N 
HETATM   12  C16 UNL     1      20.804 -12.086  -0.386  1.00  0.00     0.425 C 
HETATM   13  N14 UNL     1      20.920 -11.096   0.681  1.00  0.00    -0.346 N 
ATOM     14  H14 UNL     1      21.487 -10.255   0.576  1.00  0.00     0.160 HD
ENDROOT
BRANCH   1  15
HETATM   15  C3  UNL     1      20.907 -10.998   3.147  1.00  0.00     0.190 A 
HETATM   16  N2  UNL     1      21.885 -10.052   3.099  1.00  0.00    -0.278 N 
HETATM   17  N1  UNL     1      22.356  -9.893   4.327  1.00  0.00    -0.282 N 
ATOM     18  H2  UNL     1      22.200  -9.554   2.266  1.00  0.00     0.189 HD
HETATM   19  C2  UNL     1      21.645 -10.752   5.090  1.00  0.00     0.136 A 
ATOM     20  H1  UNL     1      23.095  -9.259   4.632  1.00  0.00     0.189 HD
HETATM   21  C1  UNL     1      21.847 -10.908   6.561  1.00  0.00     0.099 C 
HETATM   22  O3  UNL     1      20.772 -11.408   4.349  1.00  0.00    -0.278 OA
ENDBRANCH   1  15
BRANCH   1  23
HETATM   23  C5  UNL     1      18.848 -10.671   2.016  1.00  0.00     0.073 C 
BRANCH  23  24
HETATM   24  C6  UNL     1      17.805 -11.769   2.161  1.00  0.00     0.078 C 
BRANCH  24  25
HETATM   25  S1  UNL     1      16.354 -11.537   1.175  1.00  0.00    -0.169 SA
BRANCH  25  26
HETATM   26  C7  UNL     1      15.053 -10.600   2.075  1.00  0.00     0.080 C 
BRANCH  26  27
HETATM   27  C8  UNL     1      15.375 -10.436   3.529  1.00  0.00     0.071 C 
BRANCH  27  28
HETATM   28  C9  UNL     1      15.623  -9.052   3.968  1.00  0.00     0.055 A 
HETATM   29  N3  UNL     1      16.430  -8.203   3.312  1.00  0.00    -0.288 N 
HETATM   30  N4  UNL     1      16.597  -6.941   3.755  1.00  0.00    -0.130 N 
ATOM     31  H3  UNL     1      16.920  -8.514   2.473  1.00  0.00     0.187 HD
HETATM   32  C10 UNL     1      15.985  -6.459   4.847  1.00  0.00     0.717 A 
ATOM     33  H4  UNL     1      17.218  -6.322   3.235  1.00  0.00     0.205 HD
HETATM   34  N6  UNL     1      15.169  -7.285   5.527  1.00  0.00    -0.052 N 
HETATM   35  C11 UNL     1      14.997  -8.558   5.090  1.00  0.00     0.106 A 
BRANCH  32  36
HETATM   36  N5  UNL     1      16.138  -5.265   5.275  1.00  0.00    -0.231 N 
ATOM     37  H52 UNL     1      16.240  -4.513   4.593  1.00  0.00     0.174 HD
ATOM     38  H51 UNL     1      16.161  -5.018   6.265  1.00  0.00     0.174 HD
ENDBRANCH  32  36
BRANCH  34  39
HETATM   39  O1  UNL     1      14.528  -6.819   6.641  1.00  0.00    -0.269 OA
ATOM     40  H1  UNL     1      13.735  -7.252   6.934  1.00  0.00     0.245 HD
ENDBRANCH  34  39
BRANCH  35  41
HETATM   41  C12 UNL     1      14.122  -9.464   5.891  1.00  0.00     0.226 C 
BRANCH  41  42
HETATM   42  O2  UNL     1      12.800  -9.058   5.875  1.00  0.00    -0.395 OA
ATOM     43  H2  UNL     1      12.249  -9.613   6.416  1.00  0.00     0.209 HD
ENDBRANCH  41  42
ENDBRANCH  35  41
ENDBRANCH  27  28
ENDBRANCH  26  27
ENDBRANCH  25  26
ENDBRANCH  24  25
ENDBRANCH  23  24
ENDBRANCH   1  23
BRANCH  12  44
HETATM   44  N13 UNL     1      19.448 -12.282  -0.823  1.00  0.00    -0.039 N 
ATOM     45 3H13 UNL     1      19.349 -12.243  -1.837  1.00  0.00     0.279 HD
ATOM     46 2H13 UNL     1      19.125 -13.240  -0.692  1.00  0.00     0.279 HD
ATOM     47 1H13 UNL     1      18.865 -11.598  -0.341  1.00  0.00     0.279 HD
ENDBRANCH  12  44
BRANCH   7  48
HETATM   48  N9  UNL     1      22.541 -16.811   1.736  1.00  0.00    -0.234 N 
ATOM     49  H92 UNL     1      23.326 -17.332   1.344  1.00  0.00     0.174 HD
ATOM     50  H91 UNL     1      22.080 -17.197   2.560  1.00  0.00     0.174 HD
ENDBRANCH   7  48
BRANCH  10  51
HETATM   51  N11 UNL     1      22.496 -13.812  -1.802  1.00  0.00    -0.233 N 
ATOM     52 2H11 UNL     1      23.064 -14.439  -2.373  1.00  0.00     0.174 HD
ATOM     53 1H11 UNL     1      22.247 -12.910  -2.209  1.00  0.00     0.174 HD
ENDBRANCH  10  51
TORSDOF 14
ENDMDL
MODEL 3
REMARK VINA RESULT: -7.416991664      1.753      2.272
REMARK  14 active torsions:
REMARK  status: ('A' for Active; 'I' for Inactive)
REMARK    1  A    between atoms: C3_7  and  C4_8 
REMARK    2  A    between atoms: C4_8  and  C5_9 
REMARK    3  A    between atoms: C5_9  and  C6_10 
REMARK    4  A    between atoms: C6_10  and  S1_11 
REMARK    5  A    between atoms: S1_11  and  C7_12 
REMARK    6  A    between atoms: C7_12  and  C8_13 
REMARK    7  A    between atoms: C8_13  and  C9_14 
REMARK    8  A    between atoms: C10_19  and  N5_20 
REMARK    9  A    between atoms: N6_23  and  O1_24 
REMARK   10  A    between atoms: C11_26  and  C12_27 
REMARK   11  A    between atoms: C12_27  and  O2_28 
REMARK   12  A    between atoms: C14_35  and  N9_36 
REMARK   13  A    between atoms: C15_41  and  N11_42 
REMARK   14  A    between atoms: C16_46  and  N13_47 
ROOT
HETATM    1  C4  UNL     1      19.368 -12.894   1.238  1.00  0.00     0.187 C 
HETATM    2  N7  UNL     1      19.460 -12.283   2.579  1.00  0.00    -0.190 N 
ATOM      3  H7  UNL     1      18.619 -11.974   3.064  1.00  0.00     0.180 HD
HETATM    4  C13 UNL     1      20.718 -12.133   3.176  1.00  0.00     0.715 A 
HETATM    5  N8  UNL     1      21.065 -11.077   3.932  1.00  0.00    -0.021 N 
ATOM      6  H8  UNL     1      20.388 -10.328   4.078  1.00  0.00     0.203 HD
HETATM    7  C14 UNL     1      22.275 -10.979   4.499  1.00  0.00     0.705 A 
HETATM    8  N10 UNL     1      23.143 -11.977   4.289  1.00  0.00    -0.022 N 
ATOM      9  H10 UNL     1      24.069 -11.918   4.714  1.00  0.00     0.203 HD
HETATM   10  C15 UNL     1      22.841 -13.071   3.530  1.00  0.00     0.710 A 
HETATM   11  N12 UNL     1      21.615 -13.118   2.985  1.00  0.00     0.034 N 
HETATM   12  C16 UNL     1      21.179 -14.222   2.150  1.00  0.00     0.425 C 
HETATM   13  N14 UNL     1      20.497 -13.673   0.982  1.00  0.00    -0.346 N 
ATOM     14  H14 UNL     1      20.826 -13.850   0.033  1.00  0.00     0.160 HD
ENDROOT
BRANCH   1  15
HETATM   15  C3  UNL     1      19.187 -11.679   0.349  1.00  0.00     0.190 A 
HETATM   16  N2  UNL     1      18.289 -10.732   0.736  1.00  0.00    -0.278 N 
HETATM   17  N1  UNL     1      18.289  -9.775  -0.179  1.00  0.00    -0.282 N 
ATOM     18  H2  UNL     1      17.717 -10.756   1.580  1.00  0.00     0.189 HD
HETATM   19  C2  UNL     1      19.193 -10.170  -1.101  1.00  0.00     0.136 A 
ATOM     20  H1  UNL     1      17.727  -8.923  -0.187  1.00  0.00     0.189 HD
HETATM   21  C1  UNL     1      19.520  -9.381  -2.327  1.00  0.00     0.099 C 
HETATM   22  O3  UNL     1      19.725 -11.328  -0.755  1.00  0.00    -0.278 OA
ENDBRANCH   1  15
BRANCH   1  23
HETATM   23  C5  UNL     1      18.000 -13.587   1.107  1.00  0.00     0.073 C 
BRANCH  23  24
HETATM   24  C6  UNL     1      17.324 -13.493   2.467  1.00  0.00     0.078 C 
BRANCH  24  25
HETATM   25  S1  UNL     1      15.582 -13.189   2.399  1.00  0.00    -0.169 SA
BRANCH  25  26
HETATM   26  C7  UNL     1      15.196 -11.392   2.378  1.00  0.00     0.080 C 
BRANCH  26  27
HETATM   27  C8  UNL     1      14.839 -10.873   3.738  1.00  0.00     0.071 C 
BRANCH  27  28
HETATM   28  C9  UNL     1      15.293  -9.503   4.029  1.00  0.00     0.055 A 
HETATM   29  N3  UNL     1      16.173  -8.837   3.263  1.00  0.00    -0.288 N 
HETATM   30  N4  UNL     1      16.530  -7.575   3.573  1.00  0.00    -0.130 N 
ATOM     31  H3  UNL     1      16.573  -9.290   2.440  1.00  0.00     0.187 HD
HETATM   32  C10 UNL     1      16.045  -6.915   4.634  1.00  0.00     0.717 A 
ATOM     33  H4  UNL     1      17.202  -7.099   2.972  1.00  0.00     0.205 HD
HETATM   34  N6  UNL     1      15.161  -7.553   5.422  1.00  0.00    -0.052 N 
HETATM   35  C11 UNL     1      14.796  -8.825   5.119  1.00  0.00     0.106 A 
BRANCH  32  36
HETATM   36  N5  UNL     1      16.379  -5.719   4.937  1.00  0.00    -0.231 N 
ATOM     37  H52 UNL     1      15.873  -4.948   4.500  1.00  0.00     0.174 HD
ATOM     38  H51 UNL     1      17.123  -5.489   5.596  1.00  0.00     0.174 HD
ENDBRANCH  32  36
BRANCH  34  39
HETATM   39  O1  UNL     1      14.645  -6.901   6.508  1.00  0.00    -0.269 OA
ATOM     40  H1  UNL     1      13.718  -6.986   6.702  1.00  0.00     0.245 HD
ENDBRANCH  34  39
BRANCH  35  41
HETATM   41  C12 UNL     1      13.849  -9.522   6.038  1.00  0.00     0.226 C 
BRANCH  41  42
HETATM   42  O2  UNL     1      12.556  -9.047   5.911  1.00  0.00    -0.395 OA
ATOM     43  H2  UNL     1      12.509  -8.105   6.021  1.00  0.00     0.209 HD
ENDBRANCH  41  42
ENDBRANCH  35  41
ENDBRANCH  27  28
ENDBRANCH  26  27
ENDBRANCH  25  26
ENDBRANCH  24  25
ENDBRANCH  23  24
ENDBRANCH   1  23
BRANCH  12  44
HETATM   44  N13 UNL     1      20.332 -15.066   2.948  1.00  0.00    -0.039 N 
ATOM     45 3H13 UNL     1      20.857 -15.719   3.530  1.00  0.00     0.279 HD
ATOM     46 2H13 UNL     1      19.864 -14.561   3.700  1.00  0.00     0.279 HD
ATOM     47 1H13 UNL     1      19.679 -15.533   2.319  1.00  0.00     0.279 HD
ENDBRANCH  12  44
BRANCH   7  48
HETATM   48  N9  UNL     1      22.592  -9.938   5.231  1.00  0.00    -0.234 N 
ATOM     49  H92 UNL     1      21.884  -9.278   5.553  1.00  0.00     0.174 HD
ATOM     50  H91 UNL     1      23.561  -9.764   5.500  1.00  0.00     0.174 HD
ENDBRANCH   7  48
BRANCH  10  51
HETATM   51  N11 UNL     1      23.701 -14.032   3.354  1.00  0.00    -0.233 N 
ATOM     52 2H11 UNL     1      24.595 -13.869   2.890  1.00  0.00     0.174 HD
ATOM     53 1H11 UNL     1      23.506 -14.984   3.665  1.00  0.00     0.174 HD
ENDBRANCH  10  51
TORSDOF 14
ENDMDL
MODEL 4
REMARK VINA RESULT: -7.403508911      3.533      7.866
REMARK  14 active torsions:
REMARK  status: ('A' for Active; 'I' for Inactive)
REMARK    1  A    between atoms: C3_7  and  C4_8 
REMARK    2  A    between atoms: C4_8  and  C5_9 
REMARK    3  A    between atoms: C5_9  and  C6_10 
REMARK    4  A    between atoms: C6_10  and  S1_11 
REMARK    5  A    between atoms: S1_11  and  C7_12 
REMARK    6  A    between atoms: C7_12  and  C8_13 
REMARK    7  A    between atoms: C8_13  and  C9_14 
REMARK    8  A    between atoms: C10_19  and  N5_20 
REMARK    9  A    between atoms: N6_23  and  O1_24 
REMARK   10  A    between atoms: C11_26  and  C12_27 
REMARK   11  A    between atoms: C12_27  and  O2_28 
REMARK   12  A    between atoms: C14_35  and  N9_36 
REMARK   13  A    between atoms: C15_41  and  N11_42 
REMARK   14  A    between atoms: C16_46  and  N13_47 
ROOT
HETATM    1  C4  UNL     1      13.674 -14.384   2.232  1.00  0.00     0.187 C 
HETATM    2  N7  UNL     1      13.567 -13.865   3.611  1.00  0.00    -0.190 N 
ATOM      3  H7  UNL     1      13.412 -14.503   4.391  1.00  0.00     0.180 HD
HETATM    4  C13 UNL     1      13.682 -12.487   3.833  1.00  0.00     0.715 A 
HETATM    5  N8  UNL     1      12.966 -11.816   4.752  1.00  0.00    -0.021 N 
ATOM      6  H8  UNL     1      12.287 -12.325   5.320  1.00  0.00     0.203 HD
HETATM    7  C14 UNL     1      13.116 -10.500   4.944  1.00  0.00     0.705 A 
HETATM    8  N10 UNL     1      14.015  -9.858   4.185  1.00  0.00    -0.022 N 
ATOM      9  H10 UNL     1      14.141  -8.855   4.319  1.00  0.00     0.203 HD
HETATM   10  C15 UNL     1      14.767 -10.492   3.238  1.00  0.00     0.710 A 
HETATM   11  N12 UNL     1      14.574 -11.813   3.086  1.00  0.00     0.034 N 
HETATM   12  C16 UNL     1      15.305 -12.595   2.106  1.00  0.00     0.425 C 
HETATM   13  N14 UNL     1      14.361 -13.476   1.426  1.00  0.00    -0.346 N 
ATOM     14  H14 UNL     1      14.212 -13.430   0.418  1.00  0.00     0.160 HD
ENDROOT
BRANCH   1  15
HETATM   15  C3  UNL     1      12.221 -14.622   1.871  1.00  0.00     0.190 A 
HETATM   16  N2  UNL     1      11.714 -15.873   2.053  1.00  0.00    -0.278 N 
HETATM   17  N1  UNL     1      10.446 -15.856   1.671  1.00  0.00    -0.282 N 
ATOM     18  H2  UNL     1      12.221 -16.680   2.417  1.00  0.00     0.189 HD
HETATM   19  C2  UNL     1      10.218 -14.587   1.267  1.00  0.00     0.136 A 
ATOM     20  H1  UNL     1       9.784 -16.632   1.680  1.00  0.00     0.189 HD
HETATM   21  C1  UNL     1       8.900 -14.112   0.748  1.00  0.00     0.099 C 
HETATM   22  O3  UNL     1      11.311 -13.860   1.401  1.00  0.00    -0.278 OA
ENDBRANCH   1  15
BRANCH   1  23
HETATM   23  C5  UNL     1      14.226 -15.819   2.289  1.00  0.00     0.073 C 
BRANCH  23  24
HETATM   24  C6  UNL     1      14.936 -16.073   0.968  1.00  0.00     0.078 C 
BRANCH  24  25
HETATM   25  S1  UNL     1      16.290 -17.208   1.071  1.00  0.00    -0.169 SA
BRANCH  25  26
HETATM   26  C7  UNL     1      17.914 -16.349   1.025  1.00  0.00     0.080 C 
BRANCH  26  27
HETATM   27  C8  UNL     1      18.105 -15.562  -0.235  1.00  0.00     0.071 C 
BRANCH  27  28
HETATM   28  C9  UNL     1      18.200 -14.103  -0.059  1.00  0.00     0.055 A 
HETATM   29  N3  UNL     1      19.126 -13.511   0.713  1.00  0.00    -0.288 N 
HETATM   30  N4  UNL     1      19.173 -12.168   0.813  1.00  0.00    -0.130 N 
ATOM     31  H3  UNL     1      19.799 -14.081   1.226  1.00  0.00     0.187 HD
HETATM   32  C10 UNL     1      18.327 -11.354   0.167  1.00  0.00     0.717 A 
ATOM     33  H4  UNL     1      19.887 -11.750   1.410  1.00  0.00     0.205 HD
HETATM   34  N6  UNL     1      17.387 -11.914  -0.615  1.00  0.00    -0.052 N 
HETATM   35  C11 UNL     1      17.330 -13.266  -0.721  1.00  0.00     0.106 A 
BRANCH  32  36
HETATM   36  N5  UNL     1      18.363 -10.079   0.257  1.00  0.00    -0.231 N 
ATOM     37  H52 UNL     1      19.212  -9.595  -0.035  1.00  0.00     0.174 HD
ATOM     38  H51 UNL     1      17.586  -9.515   0.603  1.00  0.00     0.174 HD
ENDBRANCH  32  36
BRANCH  34  39
HETATM   39  O1  UNL     1      16.514 -11.107  -1.291  1.00  0.00    -0.269 OA
ATOM     40  H1  UNL     1      16.125 -11.420  -2.099  1.00  0.00     0.245 HD
ENDBRANCH  34  39
BRANCH  35  41
HETATM   41  C12 UNL     1      16.248 -13.861  -1.560  1.00  0.00     0.226 C 
BRANCH  41  42
HETATM   42  O2  UNL     1      16.444 -13.621  -2.908  1.00  0.00    -0.395 OA
ATOM     43  H2  UNL     1      15.673 -13.829  -3.423  1.00  0.00     0.209 HD
ENDBRANCH  41  42
ENDBRANCH  35  41
ENDBRANCH  27  28
ENDBRANCH  26  27
ENDBRANCH  25  26
ENDBRANCH  24  25
ENDBRANCH  23  24
ENDBRANCH   1  23
BRANCH  12  44
HETATM   44  N13 UNL     1      16.339 -13.313   2.802  1.00  0.00    -0.039 N 
ATOM     45 3H13 UNL     1      17.037 -12.697   3.218  1.00  0.00     0.279 HD
ATOM     46 2H13 UNL     1      16.009 -13.746   3.664  1.00  0.00     0.279 HD
ATOM     47 1H13 UNL     1      16.742 -13.985   2.150  1.00  0.00     0.279 HD
ENDBRANCH  12  44
BRANCH   7  48
HETATM   48  N9  UNL     1      12.406  -9.866   5.846  1.00  0.00    -0.234 N 
ATOM     49  H92 UNL     1      11.408 -10.047   5.961  1.00  0.00     0.174 HD
ATOM     50  H91 UNL     1      12.836  -9.172   6.459  1.00  0.00     0.174 HD
ENDBRANCH   7  48
BRANCH  10  51
HETATM   51  N11 UNL     1      15.641  -9.845   2.522  1.00  0.00    -0.233 N 
ATOM     52 2H11 UNL     1      16.059  -8.974   2.850  1.00  0.00     0.174 HD
ATOM     53 1H11 UNL     1      15.931 -10.183   1.604  1.00  0.00     0.174 HD
ENDBRANCH  10  51
TORSDOF 14
ENDMDL
MODEL 5
REMARK VINA RESULT: -7.380192118      2.677      6.981
REMARK  14 active torsions:
REMARK  status: ('A' for Active; 'I' for Inactive)
REMARK    1  A    between atoms: C3_7  and  C4_8 
REMARK    2  A    between atoms: C4_8  and  C5_9 
REMARK    3  A    between atoms: C5_9  and  C6_10 
REMARK    4  A    between atoms: C6_10  and  S1_11 
REMARK    5  A    between atoms: S1_11  and  C7_12 
REMARK    6  A    between atoms: C7_12  and  C8_13 
REMARK    7  A    between atoms: C8_13  and  C9_14 
REMARK    8  A    between atoms: C10_19  and  N5_20 
REMARK    9  A    between atoms: N6_23  and  O1_24 
REMARK   10  A    between atoms: C11_26  and  C12_27 
REMARK   11  A    between atoms: C12_27  and  O2_28 
REMARK   12  A    between atoms: C14_35  and  N9_36 
REMARK   13  A    between atoms: C15_41  and  N11_42 
REMARK   14  A    between atoms: C16_46  and  N13_47 
ROOT
HETATM    1  C4  UNL     1      15.143 -14.599   2.535  1.00  0.00     0.187 C 
HETATM    2  N7  UNL     1      15.536 -13.313   1.927  1.00  0.00    -0.190 N 
ATOM      3  H7  UNL     1      16.027 -13.293   1.033  1.00  0.00     0.180 HD
HETATM    4  C13 UNL     1      15.227 -12.119   2.591  1.00  0.00     0.715 A 
HETATM    5  N8  UNL     1      16.032 -11.043   2.609  1.00  0.00    -0.021 N 
ATOM      6  H8  UNL     1      16.929 -11.088   2.124  1.00  0.00     0.203 HD
HETATM    7  C14 UNL     1      15.692  -9.915   3.244  1.00  0.00     0.705 A 
HETATM    8  N10 UNL     1      14.509  -9.886   3.872  1.00  0.00    -0.022 N 
ATOM      9  H10 UNL     1      14.235  -9.033   4.361  1.00  0.00     0.203 HD
HETATM   10  C15 UNL     1      13.654 -10.951   3.885  1.00  0.00     0.710 A 
HETATM   11  N12 UNL     1      14.046 -12.057   3.233  1.00  0.00     0.034 N 
HETATM   12  C16 UNL     1      13.231 -13.258   3.184  1.00  0.00     0.425 C 
HETATM   13  N14 UNL     1      14.093 -14.408   3.434  1.00  0.00    -0.346 N 
ATOM     14  H14 UNL     1      13.937 -15.038   4.222  1.00  0.00     0.160 HD
ENDROOT
BRANCH   1  15
HETATM   15  C3  UNL     1      16.451 -15.077   3.135  1.00  0.00     0.190 A 
HETATM   16  N2  UNL     1      16.472 -16.305   3.724  1.00  0.00    -0.278 N 
HETATM   17  N1  UNL     1      17.698 -16.513   4.181  1.00  0.00    -0.282 N 
ATOM     18  H2  UNL     1      15.685 -16.949   3.799  1.00  0.00     0.189 HD
HETATM   19  C2  UNL     1      18.389 -15.399   3.855  1.00  0.00     0.136 A 
ATOM     20  H1  UNL     1      18.045 -17.337   4.673  1.00  0.00     0.189 HD
HETATM   21  C1  UNL     1      19.832 -15.199   4.184  1.00  0.00     0.099 C 
HETATM   22  O3  UNL     1      17.608 -14.545   3.220  1.00  0.00    -0.278 OA
ENDBRANCH   1  15
BRANCH   1  23
HETATM   23  C5  UNL     1      14.917 -15.626   1.410  1.00  0.00     0.073 C 
BRANCH  23  24
HETATM   24  C6  UNL     1      15.221 -14.919   0.098  1.00  0.00     0.078 C 
BRANCH  24  25
HETATM   25  S1  UNL     1      16.283 -15.821  -0.992  1.00  0.00    -0.169 SA
BRANCH  25  26
HETATM   26  C7  UNL     1      18.044 -15.723  -0.474  1.00  0.00     0.080 C 
BRANCH  26  27
HETATM   27  C8  UNL     1      18.718 -14.486  -0.986  1.00  0.00     0.071 C 
BRANCH  27  28
HETATM   28  C9  UNL     1      19.003 -13.458   0.028  1.00  0.00     0.055 A 
HETATM   29  N3  UNL     1      19.841 -13.650   1.060  1.00  0.00    -0.288 N 
HETATM   30  N4  UNL     1      20.076 -12.658   1.942  1.00  0.00    -0.130 N 
ATOM     31  H3  UNL     1      20.303 -14.552   1.178  1.00  0.00     0.187 HD
HETATM   32  C10 UNL     1      19.510 -11.447   1.852  1.00  0.00     0.717 A 
ATOM     33  H4  UNL     1      20.716 -12.838   2.716  1.00  0.00     0.205 HD
HETATM   34  N6  UNL     1      18.666 -11.220   0.829  1.00  0.00    -0.052 N 
HETATM   35  C11 UNL     1      18.421 -12.213  -0.063  1.00  0.00     0.106 A 
BRANCH  32  36
HETATM   36  N5  UNL     1      19.725 -10.500   2.684  1.00  0.00    -0.231 N 
ATOM     37  H52 UNL     1      20.676 -10.365   3.030  1.00  0.00     0.174 HD
ATOM     38  H51 UNL     1      18.999  -9.868   3.021  1.00  0.00     0.174 HD
ENDBRANCH  32  36
BRANCH  34  39
HETATM   39  O1  UNL     1      18.078  -9.991   0.709  1.00  0.00    -0.269 OA
ATOM     40  H1  UNL     1      18.373  -9.403   0.023  1.00  0.00     0.245 HD
ENDBRANCH  34  39
BRANCH  35  41
HETATM   41  C12 UNL     1      17.445 -11.948  -1.160  1.00  0.00     0.226 C 
BRANCH  41  42
HETATM   42  O2  UNL     1      16.220 -11.526  -0.676  1.00  0.00    -0.395 OA
ATOM     43  H2  UNL     1      15.559 -11.491  -1.357  1.00  0.00     0.209 HD
ENDBRANCH  41  42
ENDBRANCH  35  41
ENDBRANCH  27  28
ENDBRANCH  26  27
ENDBRANCH  25  26
ENDBRANCH  24  25
ENDBRANCH  23  24
ENDBRANCH   1  23
BRANCH  12  44
HETATM   44  N13 UNL     1      12.597 -13.303   1.894  1.00  0.00    -0.039 N 
ATOM     45 3H13 UNL     1      12.923 -12.569   1.266  1.00  0.00     0.279 HD
ATOM     46 2H13 UNL     1      12.894 -14.102   1.334  1.00  0.00     0.279 HD
ATOM     47 1H13 UNL     1      11.589 -13.279   2.044  1.00  0.00     0.279 HD
ENDBRANCH  12  44
BRANCH   7  48
HETATM   48  N9  UNL     1      16.495  -8.877   3.249  1.00  0.00    -0.234 N 
ATOM     49  H92 UNL     1      17.231  -8.770   2.550  1.00  0.00     0.174 HD
ATOM     50  H91 UNL     1      16.401  -8.147   3.955  1.00  0.00     0.174 HD
ENDBRANCH   7  48
BRANCH  10  51
HETATM   51  N11 UNL     1      12.505 -10.890   4.494  1.00  0.00    -0.233 N 
ATOM     52 2H11 UNL     1      12.003 -10.008   4.597  1.00  0.00     0.174 HD
ATOM     53 1H11 UNL     1      12.073 -11.722   4.895  1.00  0.00     0.174 HD
ENDBRANCH  10  51
TORSDOF 14
ENDMDL
