MODEL 1
REMARK VINA RESULT: -7.319453609      0.000      0.000
REMARK  14 active torsions:
REMARK  status: ('A' for Active; 'I' for Inactive)
REMARK    1  A    between atoms: O1_2  and  C2_3 
REMARK    2  A    between atoms: C2_3  and  O2_4 
REMARK    3  A    between atoms: C2_3  and  C3_6 
REMARK    4  A    between atoms: C5_14  and  N3_15 
REMARK    5  A    between atoms: N3_15  and  C6_17 
REMARK    6  A    between atoms: C6_17  and  O3_18 
REMARK    7  A    between atoms: C6_17  and  C7_20 
REMARK    8  A    between atoms: C9_24  and  O4_25 
REMARK    9  A    between atoms: C10_28  and  N5_29 
REMARK   10  A    between atoms: C11_31  and  C13_33 
REMARK   11  A    between atoms: C13_33  and  C14_35 
REMARK   12  A    between atoms: C14_35  and  O7_36 
REMARK   13  A    between atoms: C14_35  and  O8_38 
REMARK   14  A    between atoms: C16_43  and  O9_44 
ROOT
HETATM    1  C7  UNL     1      19.305 -11.773  -0.544  1.00  0.00     0.112 A 
HETATM    2  N4  UNL     1      19.619 -11.332   0.699  1.00  0.00    -0.347 N 
ATOM      3  H4  UNL     1      20.546 -11.529   1.076  1.00  0.00     0.166 HD
HETATM    4  C8  UNL     1      18.751 -10.648   1.438  1.00  0.00     0.121 A 
HETATM    5  C9  UNL     1      19.080 -10.207   2.694  1.00  0.00     0.216 A 
HETATM    6  O5  UNL     1      18.190  -9.539   3.381  1.00  0.00    -0.253 OA
HETATM    7  C10 UNL     1      16.982  -9.264   2.926  1.00  0.00     0.231 A 
HETATM    8  N6  UNL     1      16.581  -9.665   1.697  1.00  0.00    -0.317 N 
ATOM      9  H6  UNL     1      15.643  -9.444   1.362  1.00  0.00     0.169 HD
HETATM   10  C15 UNL     1      17.430 -10.354   0.926  1.00  0.00     0.104 A 
HETATM   11  C16 UNL     1      17.117 -10.805  -0.334  1.00  0.00     0.147 A 
HETATM   12  C17 UNL     1      18.052 -11.508  -1.061  1.00  0.00     0.234 A 
HETATM   13  O10 UNL     1      17.765 -11.918  -2.212  1.00  0.00    -0.283 OA
ENDROOT
BRANCH   1  14
HETATM   14  C6  UNL     1      20.322 -12.520  -1.292  1.00  0.00     0.274 C 
BRANCH  14  15
HETATM   15  N3  UNL     1      21.496 -12.795  -0.499  1.00  0.00    -0.344 N 
ATOM     16  H3  UNL     1      22.007 -12.008  -0.098  1.00  0.00     0.164 HD
BRANCH  15  17
HETATM   17  C5  UNL     1      21.980 -14.137  -0.245  1.00  0.00     0.123 A 
HETATM   18  C3  UNL     1      21.768 -14.737   0.970  1.00  0.00     0.084 A 
HETATM   19  S1  UNL     1      22.513 -16.259   0.757  1.00  0.00    -0.050 SA
HETATM   20  C4  UNL     1      23.046 -16.050  -0.845  1.00  0.00     0.144 A 
HETATM   21  N1  UNL     1      23.709 -16.888  -1.613  1.00  0.00    -0.380 N 
HETATM   22  N2  UNL     1      22.630 -14.822  -1.150  1.00  0.00    -0.322 N 
ATOM     23  H12 UNL     1      24.028 -17.829  -1.379  1.00  0.00     0.158 HD
ATOM     24  H11 UNL     1      24.028 -16.763  -2.573  1.00  0.00     0.158 HD
ATOM     25  H2  UNL     1      22.815 -14.425  -2.070  1.00  0.00     0.169 HD
BRANCH  18  26
HETATM   26  C2  UNL     1      21.056 -14.181   2.177  1.00  0.00     0.301 C 
BRANCH  26  27
HETATM   27  O1  UNL     1      21.610 -12.932   2.455  1.00  0.00    -0.361 OA
HETATM   28  C1  UNL     1      22.692 -13.022   3.312  1.00  0.00     0.205 C 
ENDBRANCH  26  27
BRANCH  26  29
HETATM   29  O2  UNL     1      19.709 -14.102   1.867  1.00  0.00    -0.366 OA
ATOM     30  H2  UNL     1      19.185 -14.709   2.376  1.00  0.00     0.213 HD
ENDBRANCH  26  29
ENDBRANCH  18  26
ENDBRANCH  15  17
ENDBRANCH  14  15
BRANCH  14  31
HETATM   31  O3  UNL     1      19.810 -13.719  -1.822  1.00  0.00    -0.371 OA
ATOM     32  H3  UNL     1      20.500 -14.195  -2.270  1.00  0.00     0.212 HD
ENDBRANCH  14  31
ENDBRANCH   1  14
BRANCH  11  33
HETATM   33  O9  UNL     1      15.862 -10.548  -0.869  1.00  0.00    -0.355 OA
ATOM     34  H9  UNL     1      15.654  -9.680  -1.193  1.00  0.00     0.218 HD
ENDBRANCH  11  33
BRANCH   5  35
HETATM   35  O4  UNL     1      20.348 -10.457   3.252  1.00  0.00    -0.339 OA
ATOM     36  H4  UNL     1      20.845  -9.771   3.681  1.00  0.00     0.220 HD
ENDBRANCH   5  35
BRANCH   7  37
HETATM   37  N5  UNL     1      16.129  -8.533   3.784  1.00  0.00    -0.322 N 
HETATM   38  C11 UNL     1      16.345  -7.301   4.095  1.00  0.00     0.059 C 
HETATM   39  C12 UNL     1      17.551  -6.650   3.514  1.00  0.00     0.072 C 
ATOM     40  H5  UNL     1      15.309  -8.999   4.172  1.00  0.00     0.169 HD
BRANCH  38  41
HETATM   41  C13 UNL     1      15.469  -6.548   4.978  1.00  0.00     0.225 C 
HETATM   42  O6  UNL     1      14.590  -7.130   5.641  1.00  0.00    -0.286 OA
BRANCH  41  43
HETATM   43  C14 UNL     1      15.627  -5.085   5.085  1.00  0.00     0.332 C 
BRANCH  43  44
HETATM   44  O7  UNL     1      15.548  -4.642   6.394  1.00  0.00    -0.365 OA
ATOM     45  H7  UNL     1      15.445  -3.699   6.450  1.00  0.00     0.213 HD
ENDBRANCH  43  44
BRANCH  43  46
HETATM   46  O8  UNL     1      14.647  -4.498   4.288  1.00  0.00    -0.365 OA
ATOM     47  H8  UNL     1      14.130  -3.927   4.844  1.00  0.00     0.213 HD
ENDBRANCH  43  46
ENDBRANCH  41  43
ENDBRANCH  38  41
ENDBRANCH   7  37
TORSDOF 14
ENDMDL
MODEL 2
REMARK VINA RESULT: -7.180192575      5.949      7.780
REMARK  14 active torsions:
REMARK  status: ('A' for Active; 'I' for Inactive)
REMARK    1  A    between atoms: O1_2  and  C2_3 
REMARK    2  A    between atoms: C2_3  and  O2_4 
REMARK    3  A    between atoms: C2_3  and  C3_6 
REMARK    4  A    between atoms: C5_14  and  N3_15 
REMARK    5  A    between atoms: N3_15  and  C6_17 
REMARK    6  A    between atoms: C6_17  and  O3_18 
REMARK    7  A    between atoms: C6_17  and  C7_20 
REMARK    8  A    between atoms: C9_24  and  O4_25 
REMARK    9  A    between atoms: C10_28  and  N5_29 
REMARK   10  A    between atoms: C11_31  and  C13_33 
REMARK   11  A    between atoms: C13_33  and  C14_35 
REMARK   12  A    between atoms: C14_35  and  O7_36 
REMARK   13  A    between atoms: C14_35  and  O8_38 
REMARK   14  A    between atoms: C16_43  and  O9_44 
ROOT
HETATM    1  C7  UNL     1      13.575 -12.995   3.194  1.00  0.00     0.112 A 
HETATM    2  N4  UNL     1      13.185 -12.381   4.338  1.00  0.00    -0.347 N 
ATOM      3  H4  UNL     1      12.535 -12.860   4.961  1.00  0.00     0.166 HD
HETATM    4  C8  UNL     1      13.627 -11.172   4.669  1.00  0.00     0.121 A 
HETATM    5  C9  UNL     1      13.225 -10.561   5.829  1.00  0.00     0.216 A 
HETATM    6  O5  UNL     1      13.690  -9.371   6.109  1.00  0.00    -0.253 OA
HETATM    7  C10 UNL     1      14.532  -8.721   5.328  1.00  0.00     0.231 A 
HETATM    8  N6  UNL     1      14.975  -9.256   4.166  1.00  0.00    -0.317 N 
ATOM      9  H6  UNL     1      15.625  -8.739   3.575  1.00  0.00     0.169 HD
HETATM   10  C15 UNL     1      14.551 -10.471   3.802  1.00  0.00     0.104 A 
HETATM   11  C16 UNL     1      14.942 -11.098   2.644  1.00  0.00     0.147 A 
HETATM   12  C17 UNL     1      14.456 -12.352   2.346  1.00  0.00     0.234 A 
HETATM   13  O10 UNL     1      14.815 -12.923   1.288  1.00  0.00    -0.283 OA
ENDROOT
BRANCH   1  14
HETATM   14  C6  UNL     1      13.038 -14.328   2.905  1.00  0.00     0.274 C 
BRANCH  14  15
HETATM   15  N3  UNL     1      12.508 -14.429   1.567  1.00  0.00    -0.344 N 
ATOM     16  H3  UNL     1      13.098 -14.139   0.787  1.00  0.00     0.164 HD
BRANCH  15  17
HETATM   17  C5  UNL     1      11.176 -14.924   1.281  1.00  0.00     0.123 A 
HETATM   18  C3  UNL     1      10.995 -16.185   0.773  1.00  0.00     0.084 A 
HETATM   19  S1  UNL     1       9.297 -16.273   0.620  1.00  0.00    -0.050 SA
HETATM   20  C4  UNL     1       8.916 -14.721   1.204  1.00  0.00     0.144 A 
HETATM   21  N1  UNL     1       7.736 -14.156   1.344  1.00  0.00    -0.380 N 
HETATM   22  N2  UNL     1      10.107 -14.200   1.491  1.00  0.00    -0.322 N 
ATOM     23  H12 UNL     1       6.824 -14.555   1.123  1.00  0.00     0.158 HD
ATOM     24  H11 UNL     1       7.508 -13.226   1.693  1.00  0.00     0.158 HD
ATOM     25  H2  UNL     1      10.184 -13.256   1.868  1.00  0.00     0.169 HD
BRANCH  18  26
HETATM   26  C2  UNL     1      12.041 -17.220   0.441  1.00  0.00     0.301 C 
BRANCH  26  27
HETATM   27  O1  UNL     1      12.895 -16.663  -0.510  1.00  0.00    -0.361 OA
HETATM   28  C1  UNL     1      14.222 -16.964  -0.258  1.00  0.00     0.205 C 
ENDBRANCH  26  27
BRANCH  26  29
HETATM   29  O2  UNL     1      12.698 -17.541   1.614  1.00  0.00    -0.366 OA
ATOM     30  H2  UNL     1      13.251 -16.834   1.925  1.00  0.00     0.213 HD
ENDBRANCH  26  29
ENDBRANCH  18  26
ENDBRANCH  15  17
ENDBRANCH  14  15
BRANCH  14  31
HETATM   31  O3  UNL     1      13.994 -15.339   3.119  1.00  0.00    -0.371 OA
ATOM     32  H3  UNL     1      14.683 -15.018   3.688  1.00  0.00     0.212 HD
ENDBRANCH  14  31
ENDBRANCH   1  14
BRANCH  11  33
HETATM   33  O9  UNL     1      15.826 -10.466   1.780  1.00  0.00    -0.355 OA
ATOM     34  H9  UNL     1      16.233 -10.958   1.077  1.00  0.00     0.218 HD
ENDBRANCH  11  33
BRANCH   5  35
HETATM   35  O4  UNL     1      12.330 -11.187   6.717  1.00  0.00    -0.339 OA
ATOM     36  H4  UNL     1      11.460 -11.450   6.441  1.00  0.00     0.220 HD
ENDBRANCH   5  35
BRANCH   7  37
HETATM   37  N5  UNL     1      14.946  -7.441   5.762  1.00  0.00    -0.322 N 
HETATM   38  C11 UNL     1      15.848  -6.756   5.147  1.00  0.00     0.059 C 
HETATM   39  C12 UNL     1      16.460  -7.364   3.933  1.00  0.00     0.072 C 
ATOM     40  H5  UNL     1      14.515  -7.045   6.597  1.00  0.00     0.169 HD
BRANCH  38  41
HETATM   41  C13 UNL     1      16.276  -5.440   5.593  1.00  0.00     0.225 C 
HETATM   42  O6  UNL     1      17.049  -5.324   6.563  1.00  0.00    -0.286 OA
BRANCH  41  43
HETATM   43  C14 UNL     1      15.791  -4.239   4.887  1.00  0.00     0.332 C 
BRANCH  43  44
HETATM   44  O7  UNL     1      14.538  -4.425   4.331  1.00  0.00    -0.365 OA
ATOM     45  H7  UNL     1      14.436  -3.964   3.507  1.00  0.00     0.213 HD
ENDBRANCH  43  44
BRANCH  43  46
HETATM   46  O8  UNL     1      16.736  -3.913   3.917  1.00  0.00    -0.365 OA
ATOM     47  H8  UNL     1      16.406  -3.163   3.437  1.00  0.00     0.213 HD
ENDBRANCH  43  46
ENDBRANCH  41  43
ENDBRANCH  38  41
ENDBRANCH   7  37
TORSDOF 14
ENDMDL
MODEL 3
REMARK VINA RESULT: -7.135523929      4.463      5.903
REMARK  14 active torsions:
REMARK  status: ('A' for Active; 'I' for Inactive)
REMARK    1  A    between atoms: O1_2  and  C2_3 
REMARK    2  A    between atoms: C2_3  and  O2_4 
REMARK    3  A    between atoms: C2_3  and  C3_6 
REMARK    4  A    between atoms: C5_14  and  N3_15 
REMARK    5  A    between atoms: N3_15  and  C6_17 
REMARK    6  A    between atoms: C6_17  and  O3_18 
REMARK    7  A    between atoms: C6_17  and  C7_20 
REMARK    8  A    between atoms: C9_24  and  O4_25 
REMARK    9  A    between atoms: C10_28  and  N5_29 
REMARK   10  A    between atoms: C11_31  and  C13_33 
REMARK   11  A    between atoms: C13_33  and  C14_35 
REMARK   12  A    between atoms: C14_35  and  O7_36 
REMARK   13  A    between atoms: C14_35  and  O8_38 
REMARK   14  A    between atoms: C16_43  and  O9_44 
ROOT
HETATM    1  C7  UNL     1      13.699 -12.685   2.808  1.00  0.00     0.112 A 
HETATM    2  N4  UNL     1      13.262 -12.253   4.016  1.00  0.00    -0.347 N 
ATOM      3  H4  UNL     1      12.592 -12.821   4.534  1.00  0.00     0.166 HD
HETATM    4  C8  UNL     1      13.684 -11.108   4.544  1.00  0.00     0.121 A 
HETATM    5  C9  UNL     1      13.235 -10.681   5.767  1.00  0.00     0.216 A 
HETATM    6  O5  UNL     1      13.681  -9.547   6.243  1.00  0.00    -0.253 OA
HETATM    7  C10 UNL     1      14.547  -8.785   5.602  1.00  0.00     0.231 A 
HETATM    8  N6  UNL     1      15.038  -9.137   4.390  1.00  0.00    -0.317 N 
ATOM      9  H6  UNL     1      15.706  -8.535   3.910  1.00  0.00     0.169 HD
HETATM   10  C15 UNL     1      14.635 -10.283   3.830  1.00  0.00     0.104 A 
HETATM   11  C16 UNL     1      15.073 -10.725   2.606  1.00  0.00     0.147 A 
HETATM   12  C17 UNL     1      14.607 -11.920   2.102  1.00  0.00     0.234 A 
HETATM   13  O10 UNL     1      15.009 -12.323   0.984  1.00  0.00    -0.283 OA
ENDROOT
BRANCH   1  14
HETATM   14  C6  UNL     1      13.182 -13.959   2.299  1.00  0.00     0.274 C 
BRANCH  14  15
HETATM   15  N3  UNL     1      14.237 -14.863   1.909  1.00  0.00    -0.344 N 
ATOM     16  H3  UNL     1      14.597 -14.808   0.956  1.00  0.00     0.164 HD
BRANCH  15  17
HETATM   17  C5  UNL     1      14.808 -15.846   2.809  1.00  0.00     0.123 A 
HETATM   18  C3  UNL     1      16.079 -15.688   3.298  1.00  0.00     0.084 A 
HETATM   19  S1  UNL     1      16.265 -17.073   4.279  1.00  0.00    -0.050 SA
HETATM   20  C4  UNL     1      14.734 -17.767   4.017  1.00  0.00     0.144 A 
HETATM   21  N1  UNL     1      14.236 -18.883   4.506  1.00  0.00    -0.380 N 
HETATM   22  N2  UNL     1      14.145 -16.907   3.188  1.00  0.00    -0.322 N 
ATOM     23  H12 UNL     1      14.688 -19.541   5.141  1.00  0.00     0.158 HD
ATOM     24  H11 UNL     1      13.319 -19.298   4.349  1.00  0.00     0.158 HD
ATOM     25  H2  UNL     1      13.195 -17.074   2.855  1.00  0.00     0.169 HD
BRANCH  18  26
HETATM   26  C2  UNL     1      17.054 -14.569   3.028  1.00  0.00     0.301 C 
BRANCH  26  27
HETATM   27  O1  UNL     1      18.279 -14.936   3.584  1.00  0.00    -0.361 OA
HETATM   28  C1  UNL     1      19.335 -14.239   3.023  1.00  0.00     0.205 C 
ENDBRANCH  26  27
BRANCH  26  29
HETATM   29  O2  UNL     1      17.127 -14.400   1.657  1.00  0.00    -0.366 OA
ATOM     30  H2  UNL     1      17.005 -15.215   1.185  1.00  0.00     0.213 HD
ENDBRANCH  26  29
ENDBRANCH  18  26
ENDBRANCH  15  17
ENDBRANCH  14  15
BRANCH  14  31
HETATM   31  O3  UNL     1      12.329 -14.589   3.224  1.00  0.00    -0.371 OA
ATOM     32  H3  UNL     1      12.459 -14.219   4.089  1.00  0.00     0.212 HD
ENDBRANCH  14  31
ENDBRANCH   1  14
BRANCH  11  33
HETATM   33  O9  UNL     1      15.985  -9.969   1.882  1.00  0.00    -0.355 OA
ATOM     34  H9  UNL     1      16.390 -10.332   1.103  1.00  0.00     0.218 HD
ENDBRANCH  11  33
BRANCH   5  35
HETATM   35  O4  UNL     1      12.311 -11.436   6.515  1.00  0.00    -0.339 OA
ATOM     36  H4  UNL     1      12.575 -12.216   6.989  1.00  0.00     0.220 HD
ENDBRANCH   5  35
BRANCH   7  37
HETATM   37  N5  UNL     1      14.937  -7.586   6.242  1.00  0.00    -0.322 N 
HETATM   38  C11 UNL     1      15.697  -6.712   5.677  1.00  0.00     0.059 C 
HETATM   39  C12 UNL     1      16.169  -7.006   4.296  1.00  0.00     0.072 C 
ATOM     40  H5  UNL     1      14.603  -7.407   7.189  1.00  0.00     0.169 HD
BRANCH  38  41
HETATM   41  C13 UNL     1      16.100  -5.479   6.334  1.00  0.00     0.225 C 
HETATM   42  O6  UNL     1      15.467  -4.424   6.137  1.00  0.00    -0.286 OA
BRANCH  41  43
HETATM   43  C14 UNL     1      17.264  -5.483   7.240  1.00  0.00     0.332 C 
BRANCH  43  44
HETATM   44  O7  UNL     1      17.407  -6.685   7.909  1.00  0.00    -0.365 OA
ATOM     45  H7  UNL     1      16.726  -6.821   8.557  1.00  0.00     0.213 HD
ENDBRANCH  43  44
BRANCH  43  46
HETATM   46  O8  UNL     1      17.108  -4.421   8.128  1.00  0.00    -0.365 OA
ATOM     47  H8  UNL     1      17.937  -4.295   8.573  1.00  0.00     0.213 HD
ENDBRANCH  43  46
ENDBRANCH  41  43
ENDBRANCH  38  41
ENDBRANCH   7  37
TORSDOF 14
ENDMDL
MODEL 4
REMARK VINA RESULT: -7.031080340      3.859      5.214
REMARK  14 active torsions:
REMARK  status: ('A' for Active; 'I' for Inactive)
REMARK    1  A    between atoms: O1_2  and  C2_3 
REMARK    2  A    between atoms: C2_3  and  O2_4 
REMARK    3  A    between atoms: C2_3  and  C3_6 
REMARK    4  A    between atoms: C5_14  and  N3_15 
REMARK    5  A    between atoms: N3_15  and  C6_17 
REMARK    6  A    between atoms: C6_17  and  O3_18 
REMARK    7  A    between atoms: C6_17  and  C7_20 
REMARK    8  A    between atoms: C9_24  and  O4_25 
REMARK    9  A    between atoms: C10_28  and  N5_29 
REMARK   10  A    between atoms: C11_31  and  C13_33 
REMARK   11  A    between atoms: C13_33  and  C14_35 
REMARK   12  A    between atoms: C14_35  and  O7_36 
REMARK   13  A    between atoms: C14_35  and  O8_38 
REMARK   14  A    between atoms: C16_43  and  O9_44 
ROOT
HETATM    1  C7  UNL     1      14.647 -13.339   2.716  1.00  0.00     0.112 A 
HETATM    2  N4  UNL     1      15.799 -12.634   2.600  1.00  0.00    -0.347 N 
ATOM      3  H4  UNL     1      16.623 -13.090   2.209  1.00  0.00     0.166 HD
HETATM    4  C8  UNL     1      15.883 -11.364   2.983  1.00  0.00     0.121 A 
HETATM    5  C9  UNL     1      17.052 -10.660   2.861  1.00  0.00     0.216 A 
HETATM    6  O5  UNL     1      17.083  -9.412   3.253  1.00  0.00    -0.253 OA
HETATM    7  C10 UNL     1      16.037  -8.790   3.764  1.00  0.00     0.231 A 
HETATM    8  N6  UNL     1      14.847  -9.415   3.917  1.00  0.00    -0.317 N 
ATOM      9  H6  UNL     1      14.050  -8.917   4.314  1.00  0.00     0.169 HD
HETATM   10  C15 UNL     1      14.727 -10.693   3.542  1.00  0.00     0.104 A 
HETATM   11  C16 UNL     1      13.563 -11.414   3.657  1.00  0.00     0.147 A 
HETATM   12  C17 UNL     1      13.527 -12.728   3.245  1.00  0.00     0.234 A 
HETATM   13  O10 UNL     1      12.463 -13.384   3.351  1.00  0.00    -0.283 OA
ENDROOT
BRANCH   1  14
HETATM   14  C6  UNL     1      14.642 -14.736   2.270  1.00  0.00     0.274 C 
BRANCH  14  15
HETATM   15  N3  UNL     1      15.776 -15.050   1.434  1.00  0.00    -0.344 N 
ATOM     16  H3  UNL     1      16.692 -15.147   1.872  1.00  0.00     0.164 HD
BRANCH  15  17
HETATM   17  C5  UNL     1      15.671 -15.235  -0.000  1.00  0.00     0.123 A 
HETATM   18  C3  UNL     1      16.308 -14.379  -0.861  1.00  0.00     0.084 A 
HETATM   19  S1  UNL     1      15.878 -15.015  -2.387  1.00  0.00    -0.050 SA
HETATM   20  C4  UNL     1      14.925 -16.318  -1.851  1.00  0.00     0.144 A 
HETATM   21  N1  UNL     1      14.285 -17.222  -2.561  1.00  0.00    -0.380 N 
HETATM   22  N2  UNL     1      14.976 -16.211  -0.525  1.00  0.00    -0.322 N 
ATOM     23  H12 UNL     1      14.246 -17.304  -3.577  1.00  0.00     0.158 HD
ATOM     24  H11 UNL     1      13.714 -18.003  -2.239  1.00  0.00     0.158 HD
ATOM     25  H2  UNL     1      14.483 -16.876   0.070  1.00  0.00     0.169 HD
BRANCH  18  26
HETATM   26  C2  UNL     1      17.167 -13.185  -0.530  1.00  0.00     0.301 C 
BRANCH  26  27
HETATM   27  O1  UNL     1      16.314 -12.123  -0.233  1.00  0.00    -0.361 OA
HETATM   28  C1  UNL     1      16.780 -10.922  -0.740  1.00  0.00     0.205 C 
ENDBRANCH  26  27
BRANCH  26  29
HETATM   29  O2  UNL     1      17.969 -13.531   0.543  1.00  0.00    -0.366 OA
ATOM     30  H2  UNL     1      17.484 -13.975   1.228  1.00  0.00     0.213 HD
ENDBRANCH  26  29
ENDBRANCH  18  26
ENDBRANCH  15  17
ENDBRANCH  14  15
BRANCH  14  31
HETATM   31  O3  UNL     1      14.581 -15.634   3.352  1.00  0.00    -0.371 OA
ATOM     32  H3  UNL     1      13.675 -15.810   3.576  1.00  0.00     0.212 HD
ENDBRANCH  14  31
ENDBRANCH   1  14
BRANCH  11  33
HETATM   33  O9  UNL     1      12.428 -10.815   4.187  1.00  0.00    -0.355 OA
ATOM     34  H9  UNL     1      11.938 -11.253   4.873  1.00  0.00     0.218 HD
ENDBRANCH  11  33
BRANCH   5  35
HETATM   35  O4  UNL     1      18.213 -11.251   2.326  1.00  0.00    -0.339 OA
ATOM     36  H4  UNL     1      18.946 -11.493   2.879  1.00  0.00     0.220 HD
ENDBRANCH   5  35
BRANCH   7  37
HETATM   37  N5  UNL     1      16.222  -7.440   4.142  1.00  0.00    -0.322 N 
HETATM   38  C11 UNL     1      15.625  -6.914   5.157  1.00  0.00     0.059 C 
HETATM   39  C12 UNL     1      14.709  -7.789   5.941  1.00  0.00     0.072 C 
ATOM     40  H5  UNL     1      16.852  -6.859   3.591  1.00  0.00     0.169 HD
BRANCH  38  41
HETATM   41  C13 UNL     1      15.813  -5.526   5.547  1.00  0.00     0.225 C 
HETATM   42  O6  UNL     1      16.099  -5.236   6.725  1.00  0.00    -0.286 OA
BRANCH  41  43
HETATM   43  C14 UNL     1      15.663  -4.460   4.540  1.00  0.00     0.332 C 
BRANCH  43  44
HETATM   44  O7  UNL     1      14.337  -4.168   4.274  1.00  0.00    -0.365 OA
ATOM     45  H7  UNL     1      14.198  -3.245   4.098  1.00  0.00     0.213 HD
ENDBRANCH  43  44
BRANCH  43  46
HETATM   46  O8  UNL     1      16.335  -4.872   3.391  1.00  0.00    -0.365 OA
ATOM     47  H8  UNL     1      16.376  -4.128   2.801  1.00  0.00     0.213 HD
ENDBRANCH  43  46
ENDBRANCH  41  43
ENDBRANCH  38  41
ENDBRANCH   7  37
TORSDOF 14
ENDMDL
MODEL 5
REMARK VINA RESULT: -7.031068927      4.960      6.095
REMARK  14 active torsions:
REMARK  status: ('A' for Active; 'I' for Inactive)
REMARK    1  A    between atoms: O1_2  and  C2_3 
REMARK    2  A    between atoms: C2_3  and  O2_4 
REMARK    3  A    between atoms: C2_3  and  C3_6 
REMARK    4  A    between atoms: C5_14  and  N3_15 
REMARK    5  A    between atoms: N3_15  and  C6_17 
REMARK    6  A    between atoms: C6_17  and  O3_18 
REMARK    7  A    between atoms: C6_17  and  C7_20 
REMARK    8  A    between atoms: C9_24  and  O4_25 
REMARK    9  A    between atoms: C10_28  and  N5_29 
REMARK   10  A    between atoms: C11_31  and  C13_33 
REMARK   11  A    between atoms: C13_33  and  C14_35 
REMARK   12  A    between atoms: C14_35  and  O7_36 
REMARK   13  A    between atoms: C14_35  and  O8_38 
REMARK   14  A    between atoms: C16_43  and  O9_44 
ROOT
HETATM    1  C7  UNL     1      14.667 -13.393   2.523  1.00  0.00     0.112 A 
HETATM    2  N4  UNL     1      15.814 -12.679   2.413  1.00  0.00    -0.347 N 
ATOM      3  H4  UNL     1      16.635 -13.119   1.995  1.00  0.00     0.166 HD
HETATM    4  C8  UNL     1      15.898 -11.421   2.834  1.00  0.00     0.121 A 
HETATM    5  C9  UNL     1      17.063 -10.708   2.717  1.00  0.00     0.216 A 
HETATM    6  O5  UNL     1      17.094  -9.473   3.147  1.00  0.00    -0.253 OA
HETATM    7  C10 UNL     1      16.053  -8.872   3.692  1.00  0.00     0.231 A 
HETATM    8  N6  UNL     1      14.868  -9.507   3.842  1.00  0.00    -0.317 N 
ATOM      9  H6  UNL     1      14.075  -9.026   4.266  1.00  0.00     0.169 HD
HETATM   10  C15 UNL     1      14.748 -10.774   3.429  1.00  0.00     0.104 A 
HETATM   11  C16 UNL     1      13.589 -11.503   3.539  1.00  0.00     0.147 A 
HETATM   12  C17 UNL     1      13.553 -12.804   3.087  1.00  0.00     0.234 A 
HETATM   13  O10 UNL     1      12.493 -13.468   3.188  1.00  0.00    -0.283 OA
ENDROOT
BRANCH   1  14
HETATM   14  C6  UNL     1      14.662 -14.776   2.034  1.00  0.00     0.274 C 
BRANCH  14  15
HETATM   15  N3  UNL     1      14.186 -15.708   3.028  1.00  0.00    -0.344 N 
ATOM     16  H3  UNL     1      13.259 -15.562   3.427  1.00  0.00     0.164 HD
BRANCH  15  17
HETATM   17  C5  UNL     1      14.966 -16.842   3.483  1.00  0.00     0.123 A 
HETATM   18  C3  UNL     1      14.982 -18.010   2.763  1.00  0.00     0.084 A 
HETATM   19  S1  UNL     1      16.016 -18.996   3.699  1.00  0.00    -0.050 SA
HETATM   20  C4  UNL     1      16.366 -17.882   4.936  1.00  0.00     0.144 A 
HETATM   21  N1  UNL     1      17.130 -18.036   5.996  1.00  0.00    -0.380 N 
HETATM   22  N2  UNL     1      15.675 -16.801   4.580  1.00  0.00    -0.322 N 
ATOM     23  H12 UNL     1      17.659 -18.864   6.268  1.00  0.00     0.158 HD
ATOM     24  H11 UNL     1      17.340 -17.368   6.738  1.00  0.00     0.158 HD
ATOM     25  H2  UNL     1      15.698 -15.958   5.153  1.00  0.00     0.169 HD
BRANCH  18  26
HETATM   26  C2  UNL     1      14.266 -18.327   1.475  1.00  0.00     0.301 C 
BRANCH  26  27
HETATM   27  O1  UNL     1      12.954 -17.870   1.601  1.00  0.00    -0.361 OA
HETATM   28  C1  UNL     1      12.270 -17.913   0.398  1.00  0.00     0.205 C 
ENDBRANCH  26  27
BRANCH  26  29
HETATM   29  O2  UNL     1      14.947 -17.693   0.451  1.00  0.00    -0.366 OA
ATOM     30  H2  UNL     1      15.416 -18.305  -0.104  1.00  0.00     0.213 HD
ENDBRANCH  26  29
ENDBRANCH  18  26
ENDBRANCH  15  17
ENDBRANCH  14  15
BRANCH  14  31
HETATM   31  O3  UNL     1      13.913 -14.913   0.850  1.00  0.00    -0.371 OA
ATOM     32  H3  UNL     1      14.139 -14.220   0.242  1.00  0.00     0.212 HD
ENDBRANCH  14  31
ENDBRANCH   1  14
BRANCH  11  33
HETATM   33  O9  UNL     1      12.460 -10.926   4.104  1.00  0.00    -0.355 OA
ATOM     34  H9  UNL     1      12.321 -10.974   5.042  1.00  0.00     0.218 HD
ENDBRANCH  11  33
BRANCH   5  35
HETATM   35  O4  UNL     1      18.219 -11.277   2.147  1.00  0.00    -0.339 OA
ATOM     36  H4  UNL     1      18.515 -11.032   1.278  1.00  0.00     0.220 HD
ENDBRANCH   5  35
BRANCH   7  37
HETATM   37  N5  UNL     1      16.237  -7.534   4.109  1.00  0.00    -0.322 N 
HETATM   38  C11 UNL     1      15.631  -7.034   5.131  1.00  0.00     0.059 C 
HETATM   39  C12 UNL     1      14.705  -7.927   5.881  1.00  0.00     0.072 C 
ATOM     40  H5  UNL     1      16.876  -6.940   3.580  1.00  0.00     0.169 HD
BRANCH  38  41
HETATM   41  C13 UNL     1      15.819  -5.658   5.562  1.00  0.00     0.225 C 
HETATM   42  O6  UNL     1      16.086  -5.401   6.752  1.00  0.00    -0.286 OA
BRANCH  41  43
HETATM   43  C14 UNL     1      15.693  -4.564   4.581  1.00  0.00     0.332 C 
BRANCH  43  44
HETATM   44  O7  UNL     1      14.374  -4.225   4.337  1.00  0.00    -0.365 OA
ATOM     45  H7  UNL     1      13.813  -4.396   5.084  1.00  0.00     0.213 HD
ENDBRANCH  43  44
BRANCH  43  46
HETATM   46  O8  UNL     1      16.339  -4.971   3.415  1.00  0.00    -0.365 OA
ATOM     47  H8  UNL     1      15.682  -5.031   2.731  1.00  0.00     0.213 HD
ENDBRANCH  43  46
ENDBRANCH  41  43
ENDBRANCH  38  41
ENDBRANCH   7  37
TORSDOF 14
ENDMDL
