MODEL 1
REMARK VINA RESULT: -8.622569527      0.000      0.000
REMARK  9 active torsions:
REMARK  status: ('A' for Active; 'I' for Inactive)
REMARK    1  A    between atoms: N1_1  and  N2_4 
REMARK    2  A    between atoms: N2_4  and  C1_6 
REMARK    3  A    between atoms: C1_6  and  C2_7 
REMARK    4  A    between atoms: C3_8  and  N3_9 
REMARK    5  A    between atoms: N3_9  and  C4_12 
REMARK    6  A    between atoms: C6_19  and  N7_20 
REMARK    7  A    between atoms: N7_20  and  C7_22 
REMARK    8  A    between atoms: C10_26  and  N9_27 
REMARK    9  A    between atoms: C12_31  and  N10_32 
ROOT
HETATM    1  C4  UNL     1      14.777 -12.134   1.717  1.00  0.00     0.330 C 
HETATM    2  N4  UNL     1      14.365 -13.504   1.543  1.00  0.00    -0.334 N 
ATOM      3  H4  UNL     1      14.836 -14.188   0.950  1.00  0.00     0.164 HD
HETATM    4  C5  UNL     1      13.328 -13.731   2.239  1.00  0.00     0.187 C 
HETATM    5  N5  UNL     1      12.589 -14.972   2.353  1.00  0.00    -0.064 NA
HETATM    6  N6  UNL     1      12.933 -12.570   2.972  1.00  0.00    -0.340 N 
ATOM      7  H6  UNL     1      12.067 -12.449   3.496  1.00  0.00     0.164 HD
HETATM    8  C6  UNL     1      13.974 -11.616   2.833  1.00  0.00     0.234 C 
ENDROOT
BRANCH   1   9
HETATM    9  N3  UNL     1      16.219 -12.009   1.778  1.00  0.00    -0.036 N 
ATOM     10  H32 UNL     1      16.633 -12.507   2.565  1.00  0.00     0.281 HD
ATOM     11  H31 UNL     1      16.531 -11.073   2.039  1.00  0.00     0.281 HD
BRANCH   9  12
HETATM   12  C3  UNL     1      16.733 -12.443   0.495  1.00  0.00     0.288 C 
HETATM   13  C2  UNL     1      17.986 -13.181   0.441  1.00  0.00     0.033 C 
HETATM   14  C14 UNL     1      18.959 -12.209  -0.145  1.00  0.00     0.186 C 
HETATM   15  N12 UNL     1      18.158 -11.180  -0.690  1.00  0.00    -0.341 N 
HETATM   16  N13 UNL     1      19.815 -12.820  -1.132  1.00  0.00    -0.342 N 
HETATM   17  S1  UNL     1      20.233 -11.594   0.993  1.00  0.00    -0.104 SA
HETATM   18  C13 UNL     1      16.934 -11.255  -0.375  1.00  0.00     0.127 C 
ATOM     19  H12 UNL     1      18.533 -10.442  -1.286  1.00  0.00     0.164 HD
HETATM   20  N11 UNL     1      15.887 -10.334  -0.812  1.00  0.00    -0.085 NA
HETATM   21  C15 UNL     1      20.982 -12.438  -1.252  1.00  0.00     0.101 C 
ATOM     22  H13 UNL     1      19.457 -13.565  -1.728  1.00  0.00     0.164 HD
HETATM   23  N14 UNL     1      21.904 -13.005  -2.224  1.00  0.00    -0.087 NA
HETATM   24  C16 UNL     1      21.464 -11.346  -0.371  1.00  0.00     0.151 C 
BRANCH  13  25
HETATM   25  C1  UNL     1      18.451 -14.041   1.524  1.00  0.00     0.117 C 
BRANCH  25  26
HETATM   26  N2  UNL     1      17.794 -15.200   1.896  1.00  0.00    -0.318 N 
ATOM     27  H2  UNL     1      17.770 -16.044   1.324  1.00  0.00     0.185 HD
BRANCH  26  28
HETATM   28  N1  UNL     1      17.182 -15.094   3.114  1.00  0.00    -0.345 N 
ATOM     29  H12 UNL     1      17.555 -14.522   3.872  1.00  0.00     0.176 HD
ATOM     30  H11 UNL     1      16.325 -15.643   3.174  1.00  0.00     0.176 HD
ENDBRANCH  26  28
ENDBRANCH  25  26
ENDBRANCH  13  25
ENDBRANCH   9  12
ENDBRANCH   1   9
BRANCH   8  31
HETATM   31  N7  UNL     1      14.590 -11.177   4.015  1.00  0.00    -0.363 N 
ATOM     32  H7  UNL     1      14.858 -11.921   4.660  1.00  0.00     0.162 HD
BRANCH  31  33
HETATM   33  C7  UNL     1      14.898  -9.869   4.457  1.00  0.00     0.065 A 
HETATM   34  C8  UNL     1      15.859  -9.064   3.882  1.00  0.00     0.060 A 
HETATM   35  C9  UNL     1      16.112  -7.739   4.270  1.00  0.00     0.081 A 
HETATM   36  N8  UNL     1      17.115  -6.959   3.641  1.00  0.00    -0.100 NA
HETATM   37  C10 UNL     1      15.382  -7.184   5.267  1.00  0.00     0.129 A 
HETATM   38  C11 UNL     1      14.423  -7.931   5.864  1.00  0.00     0.076 A 
HETATM   39  C12 UNL     1      14.159  -9.257   5.488  1.00  0.00     0.131 A 
BRANCH  37  40
HETATM   40  N9  UNL     1      15.578  -5.839   5.727  1.00  0.00    -0.114 N 
HETATM   41  O1  UNL     1      16.342  -5.623   6.703  1.00  0.00    -0.532 OA
HETATM   42  O2  UNL     1      14.973  -4.759   5.155  1.00  0.00    -0.532 OA
ENDBRANCH  37  40
BRANCH  39  43
HETATM   43  N10 UNL     1      13.168  -9.895   6.235  1.00  0.00    -0.113 N 
HETATM   44  O3  UNL     1      12.465  -9.155   7.018  1.00  0.00    -0.532 OA
HETATM   45  O4  UNL     1      12.832 -11.201   6.272  1.00  0.00    -0.532 OA
ENDBRANCH  39  43
ENDBRANCH  31  33
ENDBRANCH   8  31
TORSDOF 9
ENDMDL
MODEL 2
REMARK VINA RESULT: -8.375244323      3.253      5.006
REMARK  9 active torsions:
REMARK  status: ('A' for Active; 'I' for Inactive)
REMARK    1  A    between atoms: N1_1  and  N2_4 
REMARK    2  A    between atoms: N2_4  and  C1_6 
REMARK    3  A    between atoms: C1_6  and  C2_7 
REMARK    4  A    between atoms: C3_8  and  N3_9 
REMARK    5  A    between atoms: N3_9  and  C4_12 
REMARK    6  A    between atoms: C6_19  and  N7_20 
REMARK    7  A    between atoms: N7_20  and  C7_22 
REMARK    8  A    between atoms: C10_26  and  N9_27 
REMARK    9  A    between atoms: C12_31  and  N10_32 
ROOT
HETATM    1  C4  UNL     1      18.502 -10.626   1.174  1.00  0.00     0.330 C 
HETATM    2  N4  UNL     1      18.964 -11.021  -0.133  1.00  0.00    -0.334 N 
ATOM      3  H4  UNL     1      19.899 -11.369  -0.346  1.00  0.00     0.164 HD
HETATM    4  C5  UNL     1      18.029 -10.871  -0.980  1.00  0.00     0.187 C 
HETATM    5  N5  UNL     1      18.068 -11.146  -2.403  1.00  0.00    -0.064 NA
HETATM    6  N6  UNL     1      16.839 -10.385  -0.357  1.00  0.00    -0.340 N 
ATOM      7  H6  UNL     1      15.998 -10.058  -0.829  1.00  0.00     0.164 HD
HETATM    8  C6  UNL     1      17.049 -10.445   1.045  1.00  0.00     0.234 C 
ENDROOT
BRANCH   1   9
HETATM    9  N3  UNL     1      19.007 -11.503   2.211  1.00  0.00    -0.036 N 
ATOM     10  H32 UNL     1      18.731 -12.476   2.084  1.00  0.00     0.281 HD
ATOM     11  H31 UNL     1      18.557 -11.357   3.115  1.00  0.00     0.281 HD
BRANCH   9  12
HETATM   12  C3  UNL     1      20.443 -11.320   2.253  1.00  0.00     0.288 C 
HETATM   13  C2  UNL     1      21.315 -12.471   2.070  1.00  0.00     0.033 C 
HETATM   14  C14 UNL     1      21.884 -12.720   3.429  1.00  0.00     0.186 C 
HETATM   15  N12 UNL     1      21.602 -11.544   4.160  1.00  0.00    -0.341 N 
HETATM   16  N13 UNL     1      23.295 -13.015   3.387  1.00  0.00    -0.342 N 
HETATM   17  S1  UNL     1      21.305 -14.230   4.256  1.00  0.00    -0.104 SA
HETATM   18  C13 UNL     1      20.820 -10.742   3.569  1.00  0.00     0.127 C 
ATOM     19  H12 UNL     1      21.994 -11.357   5.083  1.00  0.00     0.164 HD
HETATM   20  N11 UNL     1      20.378  -9.449   4.088  1.00  0.00    -0.085 NA
HETATM   21  C15 UNL     1      23.781 -13.807   4.198  1.00  0.00     0.101 C 
ATOM     22  H13 UNL     1      23.889 -12.570   2.688  1.00  0.00     0.164 HD
HETATM   23  N14 UNL     1      25.194 -14.153   4.216  1.00  0.00    -0.087 NA
HETATM   24  C16 UNL     1      22.886 -14.429   5.204  1.00  0.00     0.151 C 
BRANCH  13  25
HETATM   25  C1  UNL     1      20.945 -13.630   1.263  1.00  0.00     0.117 C 
BRANCH  25  26
HETATM   26  N2  UNL     1      21.773 -14.164   0.293  1.00  0.00    -0.318 N 
ATOM     27  H2  UNL     1      22.064 -15.142   0.274  1.00  0.00     0.185 HD
BRANCH  26  28
HETATM   28  N1  UNL     1      22.161 -13.241  -0.638  1.00  0.00    -0.345 N 
ATOM     29  H12 UNL     1      22.295 -13.473  -1.622  1.00  0.00     0.176 HD
ATOM     30  H11 UNL     1      22.298 -12.313  -0.241  1.00  0.00     0.176 HD
ENDBRANCH  26  28
ENDBRANCH  25  26
ENDBRANCH  13  25
ENDBRANCH   9  12
ENDBRANCH   1   9
BRANCH   8  31
HETATM   31  N7  UNL     1      16.161 -11.241   1.784  1.00  0.00    -0.363 N 
ATOM     32  H7  UNL     1      16.053 -12.195   1.439  1.00  0.00     0.162 HD
BRANCH  31  33
HETATM   33  C7  UNL     1      15.390 -10.932   2.929  1.00  0.00     0.065 A 
HETATM   34  C8  UNL     1      15.605  -9.833   3.733  1.00  0.00     0.060 A 
HETATM   35  C9  UNL     1      14.793  -9.485   4.824  1.00  0.00     0.081 A 
HETATM   36  N8  UNL     1      15.063  -8.342   5.617  1.00  0.00    -0.100 NA
HETATM   37  C10 UNL     1      13.721 -10.254   5.132  1.00  0.00     0.129 A 
HETATM   38  C11 UNL     1      13.463 -11.345   4.372  1.00  0.00     0.076 A 
HETATM   39  C12 UNL     1      14.266 -11.706   3.278  1.00  0.00     0.131 A 
BRANCH  37  40
HETATM   40  N9  UNL     1      12.843  -9.971   6.231  1.00  0.00    -0.114 N 
HETATM   41  O1  UNL     1      12.338 -10.923   6.881  1.00  0.00    -0.532 OA
HETATM   42  O2  UNL     1      12.518  -8.707   6.622  1.00  0.00    -0.532 OA
ENDBRANCH  37  40
BRANCH  39  43
HETATM   43  N10 UNL     1      13.885 -12.881   2.631  1.00  0.00    -0.113 N 
HETATM   44  O3  UNL     1      14.679 -13.887   2.738  1.00  0.00    -0.532 OA
HETATM   45  O4  UNL     1      12.790 -13.129   1.882  1.00  0.00    -0.532 OA
ENDBRANCH  39  43
ENDBRANCH  31  33
ENDBRANCH   8  31
TORSDOF 9
ENDMDL
MODEL 3
REMARK VINA RESULT: -8.267677400      3.561      5.291
REMARK  9 active torsions:
REMARK  status: ('A' for Active; 'I' for Inactive)
REMARK    1  A    between atoms: N1_1  and  N2_4 
REMARK    2  A    between atoms: N2_4  and  C1_6 
REMARK    3  A    between atoms: C1_6  and  C2_7 
REMARK    4  A    between atoms: C3_8  and  N3_9 
REMARK    5  A    between atoms: N3_9  and  C4_12 
REMARK    6  A    between atoms: C6_19  and  N7_20 
REMARK    7  A    between atoms: N7_20  and  C7_22 
REMARK    8  A    between atoms: C10_26  and  N9_27 
REMARK    9  A    between atoms: C12_31  and  N10_32 
ROOT
HETATM    1  C4  UNL     1      18.888 -11.496   1.171  1.00  0.00     0.330 C 
HETATM    2  N4  UNL     1      18.149 -12.449   0.381  1.00  0.00    -0.334 N 
ATOM      3  H4  UNL     1      18.342 -13.449   0.335  1.00  0.00     0.164 HD
HETATM    4  C5  UNL     1      17.221 -11.853  -0.250  1.00  0.00     0.187 C 
HETATM    5  N5  UNL     1      16.250 -12.433  -1.155  1.00  0.00    -0.064 NA
HETATM    6  N6  UNL     1      17.207 -10.457   0.049  1.00  0.00    -0.340 N 
ATOM      7  H6  UNL     1      16.653  -9.742  -0.422  1.00  0.00     0.164 HD
HETATM    8  C6  UNL     1      18.108 -10.251   1.125  1.00  0.00     0.234 C 
ENDROOT
BRANCH   1   9
HETATM    9  N3  UNL     1      19.259 -12.040   2.461  1.00  0.00    -0.036 N 
ATOM     10  H32 UNL     1      19.024 -13.027   2.564  1.00  0.00     0.281 HD
ATOM     11  H31 UNL     1      18.683 -11.689   3.227  1.00  0.00     0.281 HD
BRANCH   9  12
HETATM   12  C3  UNL     1      20.670 -11.770   2.641  1.00  0.00     0.288 C 
HETATM   13  C2  UNL     1      21.592 -12.881   2.829  1.00  0.00     0.033 C 
HETATM   14  C14 UNL     1      21.980 -12.796   4.269  1.00  0.00     0.186 C 
HETATM   15  N12 UNL     1      21.568 -11.508   4.679  1.00  0.00    -0.341 N 
HETATM   16  N13 UNL     1      23.392 -13.011   4.470  1.00  0.00    -0.342 N 
HETATM   17  S1  UNL     1      21.338 -14.122   5.332  1.00  0.00    -0.104 SA
HETATM   18  C13 UNL     1      20.850 -10.900   3.832  1.00  0.00     0.127 C 
ATOM     19  H12 UNL     1      21.827 -11.103   5.579  1.00  0.00     0.164 HD
HETATM   20  N11 UNL     1      20.305  -9.553   3.992  1.00  0.00    -0.085 NA
HETATM   21  C15 UNL     1      23.787 -13.579   5.491  1.00  0.00     0.101 C 
ATOM     22  H13 UNL     1      24.061 -12.694   3.769  1.00  0.00     0.164 HD
HETATM   23  N14 UNL     1      25.194 -13.831   5.762  1.00  0.00    -0.087 NA
HETATM   24  C16 UNL     1      22.783 -14.019   6.491  1.00  0.00     0.151 C 
BRANCH  13  25
HETATM   25  C1  UNL     1      21.367 -14.206   2.260  1.00  0.00     0.117 C 
BRANCH  25  26
HETATM   26  N2  UNL     1      22.270 -14.822   1.413  1.00  0.00    -0.318 N 
ATOM     27  H2  UNL     1      22.873 -15.595   1.695  1.00  0.00     0.185 HD
BRANCH  26  28
HETATM   28  N1  UNL     1      22.269 -14.284   0.156  1.00  0.00    -0.345 N 
ATOM     29  H12 UNL     1      23.010 -14.460  -0.522  1.00  0.00     0.176 HD
ATOM     30  H11 UNL     1      21.454 -13.696  -0.021  1.00  0.00     0.176 HD
ENDBRANCH  26  28
ENDBRANCH  25  26
ENDBRANCH  13  25
ENDBRANCH   9  12
ENDBRANCH   1   9
BRANCH   8  31
HETATM   31  N7  UNL     1      17.574  -9.697   2.299  1.00  0.00    -0.363 N 
ATOM     32  H7  UNL     1      18.161  -8.991   2.744  1.00  0.00     0.162 HD
BRANCH  31  33
HETATM   33  C7  UNL     1      16.354  -9.961   2.964  1.00  0.00     0.065 A 
HETATM   34  C8  UNL     1      15.644 -11.136   2.841  1.00  0.00     0.060 A 
HETATM   35  C9  UNL     1      14.474 -11.428   3.560  1.00  0.00     0.081 A 
HETATM   36  N8  UNL     1      13.784 -12.655   3.391  1.00  0.00    -0.100 NA
HETATM   37  C10 UNL     1      13.987 -10.522   4.441  1.00  0.00     0.129 A 
HETATM   38  C11 UNL     1      14.649  -9.350   4.602  1.00  0.00     0.076 A 
HETATM   39  C12 UNL     1      15.819  -9.044   3.890  1.00  0.00     0.131 A 
BRANCH  37  40
HETATM   40  N9  UNL     1      12.797 -10.738   5.212  1.00  0.00    -0.114 N 
HETATM   41  O1  UNL     1      11.674 -10.475   4.708  1.00  0.00    -0.532 OA
HETATM   42  O2  UNL     1      12.811 -11.225   6.485  1.00  0.00    -0.532 OA
ENDBRANCH  37  40
BRANCH  39  43
HETATM   43  N10 UNL     1      16.348  -7.779   4.144  1.00  0.00    -0.113 N 
HETATM   44  O3  UNL     1      15.717  -7.046   4.992  1.00  0.00    -0.532 OA
HETATM   45  O4  UNL     1      17.440  -7.186   3.618  1.00  0.00    -0.532 OA
ENDBRANCH  39  43
ENDBRANCH  31  33
ENDBRANCH   8  31
TORSDOF 9
ENDMDL
MODEL 4
REMARK VINA RESULT: -8.145930546      1.331      1.732
REMARK  9 active torsions:
REMARK  status: ('A' for Active; 'I' for Inactive)
REMARK    1  A    between atoms: N1_1  and  N2_4 
REMARK    2  A    between atoms: N2_4  and  C1_6 
REMARK    3  A    between atoms: C1_6  and  C2_7 
REMARK    4  A    between atoms: C3_8  and  N3_9 
REMARK    5  A    between atoms: N3_9  and  C4_12 
REMARK    6  A    between atoms: C6_19  and  N7_20 
REMARK    7  A    between atoms: N7_20  and  C7_22 
REMARK    8  A    between atoms: C10_26  and  N9_27 
REMARK    9  A    between atoms: C12_31  and  N10_32 
ROOT
HETATM    1  C4  UNL     1      15.098 -12.291   1.793  1.00  0.00     0.330 C 
HETATM    2  N4  UNL     1      14.483 -13.576   1.575  1.00  0.00    -0.334 N 
ATOM      3  H4  UNL     1      14.932 -14.374   1.125  1.00  0.00     0.164 HD
HETATM    4  C5  UNL     1      13.296 -13.565   2.028  1.00  0.00     0.187 C 
HETATM    5  N5  UNL     1      12.330 -14.646   2.014  1.00  0.00    -0.064 NA
HETATM    6  N6  UNL     1      12.979 -12.302   2.615  1.00  0.00    -0.340 N 
ATOM      7  H6  UNL     1      12.059 -11.993   2.927  1.00  0.00     0.164 HD
HETATM    8  C6  UNL     1      14.185 -11.559   2.683  1.00  0.00     0.234 C 
ENDROOT
BRANCH   1   9
HETATM    9  N3  UNL     1      16.490 -12.418   2.171  1.00  0.00    -0.036 N 
ATOM     10  H32 UNL     1      16.777 -13.383   2.328  1.00  0.00     0.281 HD
ATOM     11  H31 UNL     1      16.685 -12.071   3.111  1.00  0.00     0.281 HD
BRANCH   9  12
HETATM   12  C3  UNL     1      17.266 -11.752   1.146  1.00  0.00     0.288 C 
HETATM   13  C2  UNL     1      17.743 -12.516   0.002  1.00  0.00     0.033 C 
HETATM   14  C14 UNL     1      19.214 -12.638   0.229  1.00  0.00     0.186 C 
HETATM   15  N12 UNL     1      19.507 -11.680   1.227  1.00  0.00    -0.341 N 
HETATM   16  N13 UNL     1      19.974 -12.422  -0.977  1.00  0.00    -0.342 N 
HETATM   17  S1  UNL     1      19.808 -14.303   0.643  1.00  0.00    -0.104 SA
HETATM   18  C13 UNL     1      18.483 -11.163   1.764  1.00  0.00     0.127 C 
ATOM     19  H12 UNL     1      20.459 -11.427   1.491  1.00  0.00     0.164 HD
HETATM   20  N11 UNL     1      18.497 -10.139   2.806  1.00  0.00    -0.085 NA
HETATM   21  C15 UNL     1      21.022 -13.047  -1.162  1.00  0.00     0.101 C 
ATOM     22  H13 UNL     1      19.646 -11.756  -1.676  1.00  0.00     0.164 HD
HETATM   23  N14 UNL     1      21.841 -12.882  -2.353  1.00  0.00    -0.087 NA
HETATM   24  C16 UNL     1      21.471 -14.002  -0.120  1.00  0.00     0.151 C 
BRANCH  13  25
HETATM   25  C1  UNL     1      17.037 -13.678  -0.529  1.00  0.00     0.117 C 
BRANCH  25  26
HETATM   26  N2  UNL     1      16.810 -13.866  -1.880  1.00  0.00    -0.318 N 
ATOM     27  H2  UNL     1      16.337 -13.184  -2.474  1.00  0.00     0.185 HD
BRANCH  26  28
HETATM   28  N1  UNL     1      17.289 -15.063  -2.336  1.00  0.00    -0.345 N 
ATOM     29  H12 UNL     1      18.279 -15.231  -2.511  1.00  0.00     0.176 HD
ATOM     30  H11 UNL     1      16.553 -15.754  -2.477  1.00  0.00     0.176 HD
ENDBRANCH  26  28
ENDBRANCH  25  26
ENDBRANCH  13  25
ENDBRANCH   9  12
ENDBRANCH   1   9
BRANCH   8  31
HETATM   31  N7  UNL     1      14.605 -11.150   3.958  1.00  0.00    -0.363 N 
ATOM     32  H7  UNL     1      14.735 -11.908   4.629  1.00  0.00     0.162 HD
BRANCH  31  33
HETATM   33  C7  UNL     1      14.876  -9.856   4.462  1.00  0.00     0.065 A 
HETATM   34  C8  UNL     1      15.817  -9.000   3.931  1.00  0.00     0.060 A 
HETATM   35  C9  UNL     1      16.032  -7.689   4.382  1.00  0.00     0.081 A 
HETATM   36  N8  UNL     1      17.017  -6.854   3.797  1.00  0.00    -0.100 NA
HETATM   37  C10 UNL     1      15.284  -7.201   5.400  1.00  0.00     0.129 A 
HETATM   38  C11 UNL     1      14.342  -8.000   5.956  1.00  0.00     0.076 A 
HETATM   39  C12 UNL     1      14.116  -9.314   5.516  1.00  0.00     0.131 A 
BRANCH  37  40
HETATM   40  N9  UNL     1      15.441  -5.874   5.923  1.00  0.00    -0.114 N 
HETATM   41  O1  UNL     1      16.070  -5.704   7.000  1.00  0.00    -0.532 OA
HETATM   42  O2  UNL     1      14.941  -4.765   5.309  1.00  0.00    -0.532 OA
ENDBRANCH  37  40
BRANCH  39  43
HETATM   43  N10 UNL     1      13.139 -10.012   6.226  1.00  0.00    -0.113 N 
HETATM   44  O3  UNL     1      12.425  -9.332   7.053  1.00  0.00    -0.532 OA
HETATM   45  O4  UNL     1      12.827 -11.324   6.188  1.00  0.00    -0.532 OA
ENDBRANCH  39  43
ENDBRANCH  31  33
ENDBRANCH   8  31
TORSDOF 9
ENDMDL
MODEL 5
REMARK VINA RESULT: -8.122114455      2.706      4.506
REMARK  9 active torsions:
REMARK  status: ('A' for Active; 'I' for Inactive)
REMARK    1  A    between atoms: N1_1  and  N2_4 
REMARK    2  A    between atoms: N2_4  and  C1_6 
REMARK    3  A    between atoms: C1_6  and  C2_7 
REMARK    4  A    between atoms: C3_8  and  N3_9 
REMARK    5  A    between atoms: N3_9  and  C4_12 
REMARK    6  A    between atoms: C6_19  and  N7_20 
REMARK    7  A    between atoms: N7_20  and  C7_22 
REMARK    8  A    between atoms: C10_26  and  N9_27 
REMARK    9  A    between atoms: C12_31  and  N10_32 
ROOT
HETATM    1  C4  UNL     1      18.276 -10.719   0.247  1.00  0.00     0.330 C 
HETATM    2  N4  UNL     1      18.280 -11.668  -0.838  1.00  0.00    -0.334 N 
ATOM      3  H4  UNL     1      19.105 -11.956  -1.364  1.00  0.00     0.164 HD
HETATM    4  C5  UNL     1      17.099 -12.092  -1.040  1.00  0.00     0.187 C 
HETATM    5  N5  UNL     1      16.658 -13.051  -2.032  1.00  0.00    -0.064 NA
HETATM    6  N6  UNL     1      16.176 -11.508  -0.119  1.00  0.00    -0.340 N 
ATOM      7  H6  UNL     1      15.160 -11.578  -0.154  1.00  0.00     0.164 HD
HETATM    8  C6  UNL     1      16.941 -10.813   0.853  1.00  0.00     0.234 C 
ENDROOT
BRANCH   1   9
HETATM    9  N3  UNL     1      19.440 -10.868   1.096  1.00  0.00    -0.036 N 
ATOM     10  H32 UNL     1      19.217 -10.853   2.090  1.00  0.00     0.281 HD
ATOM     11  H31 UNL     1      20.051 -10.050   1.088  1.00  0.00     0.281 HD
BRANCH   9  12
HETATM   12  C3  UNL     1      20.110 -12.083   0.681  1.00  0.00     0.288 C 
HETATM   13  C2  UNL     1      20.211 -13.197   1.613  1.00  0.00     0.033 C 
HETATM   14  C14 UNL     1      21.653 -13.218   2.005  1.00  0.00     0.186 C 
HETATM   15  N12 UNL     1      22.300 -12.403   1.048  1.00  0.00    -0.341 N 
HETATM   16  N13 UNL     1      22.191 -14.555   2.041  1.00  0.00    -0.342 N 
HETATM   17  S1  UNL     1      22.005 -12.725   3.717  1.00  0.00    -0.104 SA
HETATM   18  C13 UNL     1      21.510 -11.758   0.298  1.00  0.00     0.127 C 
ATOM     19  H12 UNL     1      23.315 -12.340   0.969  1.00  0.00     0.164 HD
HETATM   20  N11 UNL     1      21.909 -10.859  -0.783  1.00  0.00    -0.085 NA
HETATM   21  C15 UNL     1      23.054 -14.847   2.874  1.00  0.00     0.101 C 
ATOM     22  H13 UNL     1      21.859 -15.257   1.380  1.00  0.00     0.164 HD
HETATM   23  N14 UNL     1      23.642 -16.174   2.970  1.00  0.00    -0.087 NA
HETATM   24  C16 UNL     1      23.516 -13.796   3.813  1.00  0.00     0.151 C 
BRANCH  13  25
HETATM   25  C1  UNL     1      19.218 -13.459   2.649  1.00  0.00     0.117 C 
BRANCH  25  26
HETATM   26  N2  UNL     1      18.110 -14.260   2.442  1.00  0.00    -0.318 N 
ATOM     27  H2  UNL     1      17.530 -14.216   1.604  1.00  0.00     0.185 HD
BRANCH  26  28
HETATM   28  N1  UNL     1      17.874 -15.117   3.481  1.00  0.00    -0.345 N 
ATOM     29  H12 UNL     1      17.174 -14.934   4.199  1.00  0.00     0.176 HD
ATOM     30  H11 UNL     1      18.470 -15.944   3.453  1.00  0.00     0.176 HD
ENDBRANCH  26  28
ENDBRANCH  25  26
ENDBRANCH  13  25
ENDBRANCH   9  12
ENDBRANCH   1   9
BRANCH   8  31
HETATM   31  N7  UNL     1      16.787 -11.220   2.187  1.00  0.00    -0.363 N 
ATOM     32  H7  UNL     1      17.582 -11.730   2.573  1.00  0.00     0.162 HD
BRANCH  31  33
HETATM   33  C7  UNL     1      15.707 -11.037   3.082  1.00  0.00     0.065 A 
HETATM   34  C8  UNL     1      15.512  -9.901   3.839  1.00  0.00     0.060 A 
HETATM   35  C9  UNL     1      14.400  -9.688   4.668  1.00  0.00     0.081 A 
HETATM   36  N8  UNL     1      14.254  -8.498   5.425  1.00  0.00    -0.100 NA
HETATM   37  C10 UNL     1      13.438 -10.637   4.753  1.00  0.00     0.129 A 
HETATM   38  C11 UNL     1      13.579 -11.773   4.027  1.00  0.00     0.076 A 
HETATM   39  C12 UNL     1      14.686 -12.000   3.194  1.00  0.00     0.131 A 
BRANCH  37  40
HETATM   40  N9  UNL     1      12.272 -10.502   5.578  1.00  0.00    -0.114 N 
HETATM   41  O1  UNL     1      11.198 -10.088   5.070  1.00  0.00    -0.532 OA
HETATM   42  O2  UNL     1      12.260 -10.803   6.907  1.00  0.00    -0.532 OA
ENDBRANCH  37  40
BRANCH  39  43
HETATM   43  N10 UNL     1      14.695 -13.239   2.552  1.00  0.00    -0.113 N 
HETATM   44  O3  UNL     1      14.342 -13.254   1.315  1.00  0.00    -0.532 OA
HETATM   45  O4  UNL     1      15.013 -14.455   3.043  1.00  0.00    -0.532 OA
ENDBRANCH  39  43
ENDBRANCH  31  33
ENDBRANCH   8  31
TORSDOF 9
ENDMDL
