MODEL 1
REMARK VINA RESULT: -9.421480279      0.000      0.000
REMARK  6 active torsions:
REMARK  status: ('A' for Active; 'I' for Inactive)
REMARK    1  A    between atoms: C5_6  and  N1_7 
REMARK       I    between atoms: N1_7  and  C6_9 
REMARK       I    between atoms: C6_9  and  N2_11 
REMARK    2  A    between atoms: N2_11  and  C7_13 
REMARK    3  A    between atoms: C18_24  and  N3_25 
REMARK    4  A    between atoms: N3_25  and  C19_27 
REMARK    5  A    between atoms: N4_30  and  C22_31 
REMARK    6  A    between atoms: C22_31  and  C23_32 
ROOT
HETATM    1  C1  UNL     1      35.181  59.314  58.645  1.00  0.00     0.046 C 
HETATM    2  C2  UNL     1      35.832  58.187  58.484  1.00  0.00     0.042 C 
HETATM    3  O1  UNL     1      36.595  57.608  59.476  1.00  0.00    -0.341 OA
HETATM    4  C3  UNL     1      36.670  56.158  59.459  1.00  0.00     0.109 C 
HETATM    5  C4  UNL     1      37.392  55.894  60.793  1.00  0.00     0.051 C 
HETATM    6  C5  UNL     1      35.210  55.760  59.663  1.00  0.00     0.123 C 
HETATM    7  C13 UNL     1      34.705  54.638  58.817  1.00  0.00     0.033 C 
HETATM    8  C14 UNL     1      35.125  54.982  57.402  1.00  0.00    -0.009 C 
HETATM    9  C15 UNL     1      34.779  56.399  57.044  1.00  0.00     0.016 C 
HETATM   10  C16 UNL     1      35.840  57.389  57.229  1.00  0.00     0.044 C 
HETATM   11  C17 UNL     1      37.242  56.856  57.175  1.00  0.00     0.045 C 
HETATM   12  C18 UNL     1      37.341  55.710  58.268  1.00  0.00     0.060 C 
HETATM   13  C28 UNL     1      36.559  54.638  57.425  1.00  0.00     0.038 C 
ENDROOT
BRANCH   6  14
HETATM   14  N1  UNL     1      34.855  55.440  61.004  1.00  0.00    -0.335 N 
HETATM   15  C6  UNL     1      33.892  56.166  61.707  1.00  0.00     0.316 C 
HETATM   16  O2  UNL     1      33.333  57.129  61.097  1.00  0.00    -0.247 OA
HETATM   17  N2  UNL     1      33.518  55.872  63.061  1.00  0.00    -0.339 N 
ATOM     18  H2  UNL     1      33.966  55.109  63.568  1.00  0.00     0.164 HD
ATOM     19  H1  UNL     1      35.318  54.657  61.465  1.00  0.00     0.164 HD
BRANCH  17  20
HETATM   20  C7  UNL     1      32.504  56.669  63.688  1.00  0.00     0.086 C 
HETATM   21  C8  UNL     1      33.028  57.431  64.905  1.00  0.00     0.025 C 
HETATM   22  C9  UNL     1      31.796  58.114  65.509  1.00  0.00     0.002 C 
HETATM   23  C10 UNL     1      30.974  57.031  66.199  1.00  0.00     0.000 C 
HETATM   24  C11 UNL     1      31.257  55.666  65.567  1.00  0.00     0.002 C 
HETATM   25  C12 UNL     1      31.282  55.853  64.060  1.00  0.00     0.025 C 
ENDBRANCH  17  20
ENDBRANCH   6  14
BRANCH  12  26
HETATM   26  N3  UNL     1      38.609  55.214  58.248  1.00  0.00    -0.405 N 
ATOM     27  H3  UNL     1      39.186  55.960  57.861  1.00  0.00     0.154 HD
BRANCH  26  28
HETATM   28  C19 UNL     1      39.436  54.223  58.494  1.00  0.00     0.087 C 
HETATM   29  C20 UNL     1      40.083  53.513  57.383  1.00  0.00     0.069 C 
HETATM   30  C21 UNL     1      41.144  52.499  57.765  1.00  0.00     0.065 C 
HETATM   31  N4  UNL     1      40.904  51.704  58.888  1.00  0.00    -0.373 N 
HETATM   32  C26 UNL     1      40.202  52.363  59.909  1.00  0.00     0.065 C 
HETATM   33  C27 UNL     1      38.965  53.095  59.428  1.00  0.00     0.069 C 
BRANCH  31  34
HETATM   34  C22 UNL     1      40.756  50.307  58.737  1.00  0.00     0.131 C 
BRANCH  34  35
HETATM   35  C23 UNL     1      41.360  49.843  57.429  1.00  0.00     0.004 A 
HETATM   36  C24 UNL     1      41.539  48.313  57.305  1.00  0.00     0.007 A 
HETATM   37  C25 UNL     1      42.722  49.260  57.390  1.00  0.00     0.007 A 
ENDBRANCH  34  35
ENDBRANCH  31  34
ENDBRANCH  26  28
ENDBRANCH  12  26
TORSDOF 6
ENDMDL
MODEL 2
REMARK VINA RESULT: -9.316818246      1.679      9.364
REMARK  6 active torsions:
REMARK  status: ('A' for Active; 'I' for Inactive)
REMARK    1  A    between atoms: C5_6  and  N1_7 
REMARK       I    between atoms: N1_7  and  C6_9 
REMARK       I    between atoms: C6_9  and  N2_11 
REMARK    2  A    between atoms: N2_11  and  C7_13 
REMARK    3  A    between atoms: C18_24  and  N3_25 
REMARK    4  A    between atoms: N3_25  and  C19_27 
REMARK    5  A    between atoms: N4_30  and  C22_31 
REMARK    6  A    between atoms: C22_31  and  C23_32 
ROOT
HETATM    1  C1  UNL     1      34.515  54.664  55.858  1.00  0.00     0.046 C 
HETATM    2  C2  UNL     1      34.519  55.160  57.073  1.00  0.00     0.042 C 
HETATM    3  O1  UNL     1      34.487  54.378  58.207  1.00  0.00    -0.341 OA
HETATM    4  C3  UNL     1      35.164  54.918  59.373  1.00  0.00     0.109 C 
HETATM    5  C4  UNL     1      35.105  53.709  60.323  1.00  0.00     0.051 C 
HETATM    6  C5  UNL     1      36.608  55.023  58.885  1.00  0.00     0.123 C 
HETATM    7  C13 UNL     1      37.343  56.268  59.257  1.00  0.00     0.033 C 
HETATM    8  C14 UNL     1      36.415  57.408  58.888  1.00  0.00    -0.009 C 
HETATM    9  C15 UNL     1      35.865  57.255  57.498  1.00  0.00     0.016 C 
HETATM   10  C16 UNL     1      34.555  56.613  57.390  1.00  0.00     0.044 C 
HETATM   11  C17 UNL     1      33.679  56.716  58.604  1.00  0.00     0.045 C 
HETATM   12  C18 UNL     1      34.504  56.116  59.819  1.00  0.00     0.060 C 
HETATM   13  C28 UNL     1      35.439  57.368  59.992  1.00  0.00     0.038 C 
ENDROOT
BRANCH   6  14
HETATM   14  N1  UNL     1      37.449  53.936  59.256  1.00  0.00    -0.335 N 
HETATM   15  C6  UNL     1      38.547  53.555  58.484  1.00  0.00     0.316 C 
HETATM   16  O2  UNL     1      38.775  54.226  57.430  1.00  0.00    -0.247 OA
HETATM   17  N2  UNL     1      39.410  52.461  58.827  1.00  0.00    -0.339 N 
ATOM     18  H2  UNL     1      39.234  51.906  59.665  1.00  0.00     0.164 HD
ATOM     19  H1  UNL     1      37.244  53.420  60.111  1.00  0.00     0.164 HD
BRANCH  17  20
HETATM   20  C7  UNL     1      40.523  52.162  57.974  1.00  0.00     0.086 C 
HETATM   21  C8  UNL     1      40.091  51.544  56.643  1.00  0.00     0.025 C 
HETATM   22  C9  UNL     1      41.397  51.180  55.930  1.00  0.00     0.002 C 
HETATM   23  C10 UNL     1      41.966  49.950  56.630  1.00  0.00     0.000 C 
HETATM   24  C11 UNL     1      41.463  49.882  58.074  1.00  0.00     0.002 C 
HETATM   25  C12 UNL     1      41.550  51.281  58.658  1.00  0.00     0.025 C 
ENDBRANCH  17  20
ENDBRANCH   6  14
BRANCH  12  26
HETATM   26  N3  UNL     1      33.727  56.188  60.935  1.00  0.00    -0.405 N 
ATOM     27  H3  UNL     1      32.858  55.715  60.692  1.00  0.00     0.154 HD
BRANCH  26  28
HETATM   28  C19 UNL     1      33.575  56.582  62.179  1.00  0.00     0.087 C 
HETATM   29  C20 UNL     1      33.299  55.597  63.233  1.00  0.00     0.069 C 
HETATM   30  C21 UNL     1      33.304  56.122  64.657  1.00  0.00     0.065 C 
HETATM   31  N4  UNL     1      32.736  57.377  64.885  1.00  0.00    -0.373 N 
HETATM   32  C26 UNL     1      32.925  58.284  63.831  1.00  0.00     0.065 C 
HETATM   33  C27 UNL     1      32.580  57.720  62.467  1.00  0.00     0.069 C 
BRANCH  31  34
HETATM   34  C22 UNL     1      31.583  57.486  65.694  1.00  0.00     0.131 C 
BRANCH  34  35
HETATM   35  C23 UNL     1      30.684  56.282  65.511  1.00  0.00     0.004 A 
HETATM   36  C24 UNL     1      29.551  56.155  66.554  1.00  0.00     0.007 A 
HETATM   37  C25 UNL     1      30.704  55.169  66.489  1.00  0.00     0.007 A 
ENDBRANCH  34  35
ENDBRANCH  31  34
ENDBRANCH  26  28
ENDBRANCH  12  26
TORSDOF 6
ENDMDL
MODEL 3
REMARK VINA RESULT: -8.509876079      1.366      1.568
REMARK  6 active torsions:
REMARK  status: ('A' for Active; 'I' for Inactive)
REMARK    1  A    between atoms: C5_6  and  N1_7 
REMARK       I    between atoms: N1_7  and  C6_9 
REMARK       I    between atoms: C6_9  and  N2_11 
REMARK    2  A    between atoms: N2_11  and  C7_13 
REMARK    3  A    between atoms: C18_24  and  N3_25 
REMARK    4  A    between atoms: N3_25  and  C19_27 
REMARK    5  A    between atoms: N4_30  and  C22_31 
REMARK    6  A    between atoms: C22_31  and  C23_32 
ROOT
HETATM    1  C1  UNL     1      35.178  59.352  58.579  1.00  0.00     0.046 C 
HETATM    2  C2  UNL     1      35.924  58.287  58.411  1.00  0.00     0.042 C 
HETATM    3  O1  UNL     1      36.618  57.683  59.438  1.00  0.00    -0.341 OA
HETATM    4  C3  UNL     1      36.801  56.246  59.325  1.00  0.00     0.109 C 
HETATM    5  C4  UNL     1      37.395  55.925  60.708  1.00  0.00     0.051 C 
HETATM    6  C5  UNL     1      35.361  55.739  59.336  1.00  0.00     0.123 C 
HETATM    7  C13 UNL     1      35.034  54.656  58.361  1.00  0.00     0.033 C 
HETATM    8  C14 UNL     1      35.575  55.138  57.029  1.00  0.00    -0.009 C 
HETATM    9  C15 UNL     1      35.164  56.554  56.738  1.00  0.00     0.016 C 
HETATM   10  C16 UNL     1      36.124  57.594  57.110  1.00  0.00     0.044 C 
HETATM   11  C17 UNL     1      37.560  57.160  57.175  1.00  0.00     0.045 C 
HETATM   12  C18 UNL     1      37.626  55.939  58.187  1.00  0.00     0.060 C 
HETATM   13  C28 UNL     1      37.019  54.889  57.188  1.00  0.00     0.038 C 
ENDROOT
BRANCH   6  14
HETATM   14  N1  UNL     1      34.890  55.290  60.603  1.00  0.00    -0.335 N 
HETATM   15  C6  UNL     1      33.994  56.040  61.365  1.00  0.00     0.316 C 
HETATM   16  O2  UNL     1      33.604  57.146  60.879  1.00  0.00    -0.247 OA
HETATM   17  N2  UNL     1      33.507  55.619  62.648  1.00  0.00    -0.339 N 
ATOM     18  H2  UNL     1      33.819  54.738  63.057  1.00  0.00     0.164 HD
ATOM     19  H1  UNL     1      35.218  54.395  60.964  1.00  0.00     0.164 HD
BRANCH  17  20
HETATM   20  C7  UNL     1      32.573  56.456  63.343  1.00  0.00     0.086 C 
HETATM   21  C8  UNL     1      33.197  57.145  64.558  1.00  0.00     0.025 C 
HETATM   22  C9  UNL     1      32.038  57.882  65.237  1.00  0.00     0.002 C 
HETATM   23  C10 UNL     1      31.180  56.830  65.931  1.00  0.00     0.000 C 
HETATM   24  C11 UNL     1      31.348  55.471  65.247  1.00  0.00     0.002 C 
HETATM   25  C12 UNL     1      31.319  55.705  63.747  1.00  0.00     0.025 C 
ENDBRANCH  17  20
ENDBRANCH   6  14
BRANCH  12  26
HETATM   26  N3  UNL     1      38.922  55.530  58.273  1.00  0.00    -0.405 N 
ATOM     27  H3  UNL     1      39.429  56.318  58.675  1.00  0.00     0.154 HD
BRANCH  26  28
HETATM   28  C19 UNL     1      39.825  54.595  58.080  1.00  0.00     0.087 C 
HETATM   29  C20 UNL     1      40.899  54.802  57.100  1.00  0.00     0.069 C 
HETATM   30  C21 UNL     1      41.985  53.744  57.065  1.00  0.00     0.065 C 
HETATM   31  N4  UNL     1      41.594  52.411  57.210  1.00  0.00    -0.373 N 
HETATM   32  C26 UNL     1      40.505  52.232  58.077  1.00  0.00     0.065 C 
HETATM   33  C27 UNL     1      39.341  53.162  57.799  1.00  0.00     0.069 C 
BRANCH  31  34
HETATM   34  C22 UNL     1      41.785  51.506  56.142  1.00  0.00     0.131 C 
BRANCH  34  35
HETATM   35  C23 UNL     1      42.411  52.205  54.954  1.00  0.00     0.004 A 
HETATM   36  C24 UNL     1      41.911  51.714  53.577  1.00  0.00     0.007 A 
HETATM   37  C25 UNL     1      43.334  51.477  54.050  1.00  0.00     0.007 A 
ENDBRANCH  34  35
ENDBRANCH  31  34
ENDBRANCH  26  28
ENDBRANCH  12  26
TORSDOF 6
ENDMDL
MODEL 4
REMARK VINA RESULT: -8.456060147      3.379      7.149
REMARK  6 active torsions:
REMARK  status: ('A' for Active; 'I' for Inactive)
REMARK    1  A    between atoms: C5_6  and  N1_7 
REMARK       I    between atoms: N1_7  and  C6_9 
REMARK       I    between atoms: C6_9  and  N2_11 
REMARK    2  A    between atoms: N2_11  and  C7_13 
REMARK    3  A    between atoms: C18_24  and  N3_25 
REMARK    4  A    between atoms: N3_25  and  C19_27 
REMARK    5  A    between atoms: N4_30  and  C22_31 
REMARK    6  A    between atoms: C22_31  and  C23_32 
ROOT
HETATM    1  C1  UNL     1      34.125  54.983  56.145  1.00  0.00     0.046 C 
HETATM    2  C2  UNL     1      34.924  55.139  57.174  1.00  0.00     0.042 C 
HETATM    3  O1  UNL     1      36.296  55.040  57.085  1.00  0.00    -0.341 OA
HETATM    4  C3  UNL     1      37.056  55.864  58.008  1.00  0.00     0.109 C 
HETATM    5  C4  UNL     1      38.483  55.655  57.470  1.00  0.00     0.051 C 
HETATM    6  C5  UNL     1      36.635  57.274  57.600  1.00  0.00     0.123 C 
HETATM    7  C13 UNL     1      36.357  58.230  58.713  1.00  0.00     0.033 C 
HETATM    8  C14 UNL     1      35.430  57.490  59.656  1.00  0.00    -0.009 C 
HETATM    9  C15 UNL     1      34.287  56.844  58.926  1.00  0.00     0.016 C 
HETATM   10  C16 UNL     1      34.468  55.439  58.557  1.00  0.00     0.044 C 
HETATM   11  C17 UNL     1      35.433  54.664  59.407  1.00  0.00     0.045 C 
HETATM   12  C18 UNL     1      36.814  55.444  59.363  1.00  0.00     0.060 C 
HETATM   13  C28 UNL     1      36.368  56.585  60.346  1.00  0.00     0.038 C 
ENDROOT
BRANCH   6  14
HETATM   14  N1  UNL     1      37.533  57.939  56.718  1.00  0.00    -0.335 N 
HETATM   15  C6  UNL     1      37.130  58.403  55.465  1.00  0.00     0.316 C 
HETATM   16  O2  UNL     1      35.917  58.214  55.140  1.00  0.00    -0.247 OA
HETATM   17  N2  UNL     1      38.013  59.070  54.551  1.00  0.00    -0.339 N 
ATOM     18  H2  UNL     1      38.992  59.219  54.792  1.00  0.00     0.164 HD
ATOM     19  H1  UNL     1      38.500  58.080  57.009  1.00  0.00     0.164 HD
BRANCH  17  20
HETATM   20  C7  UNL     1      37.493  59.524  53.294  1.00  0.00     0.086 C 
HETATM   21  C8  UNL     1      38.436  59.222  52.128  1.00  0.00     0.025 C 
HETATM   22  C9  UNL     1      37.786  59.882  50.907  1.00  0.00     0.002 C 
HETATM   23  C10 UNL     1      37.994  61.386  51.044  1.00  0.00     0.000 C 
HETATM   24  C11 UNL     1      38.173  61.766  52.516  1.00  0.00     0.002 C 
HETATM   25  C12 UNL     1      37.138  60.998  53.318  1.00  0.00     0.025 C 
ENDBRANCH  17  20
ENDBRANCH   6  14
BRANCH  12  26
HETATM   26  N3  UNL     1      37.713  54.755  60.120  1.00  0.00    -0.405 N 
ATOM     27  H3  UNL     1      38.078  55.431  60.790  1.00  0.00     0.154 HD
BRANCH  26  28
HETATM   28  C19 UNL     1      38.330  53.627  60.390  1.00  0.00     0.087 C 
HETATM   29  C20 UNL     1      39.632  53.337  59.777  1.00  0.00     0.069 C 
HETATM   30  C21 UNL     1      40.343  52.092  60.275  1.00  0.00     0.065 C 
HETATM   31  N4  UNL     1      39.564  50.959  60.524  1.00  0.00    -0.373 N 
HETATM   32  C26 UNL     1      38.285  51.251  61.022  1.00  0.00     0.065 C 
HETATM   33  C27 UNL     1      37.546  52.312  60.231  1.00  0.00     0.069 C 
BRANCH  31  34
HETATM   34  C22 UNL     1      39.757  49.794  59.750  1.00  0.00     0.131 C 
BRANCH  34  35
HETATM   35  C23 UNL     1      40.955  49.949  58.836  1.00  0.00     0.004 A 
HETATM   36  C24 UNL     1      40.616  50.026  57.331  1.00  0.00     0.007 A 
HETATM   37  C25 UNL     1      41.363  48.849  57.931  1.00  0.00     0.007 A 
ENDBRANCH  34  35
ENDBRANCH  31  34
ENDBRANCH  26  28
ENDBRANCH  12  26
TORSDOF 6
ENDMDL
MODEL 5
REMARK VINA RESULT: -8.199738385      1.720      9.538
REMARK  6 active torsions:
REMARK  status: ('A' for Active; 'I' for Inactive)
REMARK    1  A    between atoms: C5_6  and  N1_7 
REMARK       I    between atoms: N1_7  and  C6_9 
REMARK       I    between atoms: C6_9  and  N2_11 
REMARK    2  A    between atoms: N2_11  and  C7_13 
REMARK    3  A    between atoms: C18_24  and  N3_25 
REMARK    4  A    between atoms: N3_25  and  C19_27 
REMARK    5  A    between atoms: N4_30  and  C22_31 
REMARK    6  A    between atoms: C22_31  and  C23_32 
ROOT
HETATM    1  C1  UNL     1      34.456  54.696  55.840  1.00  0.00     0.046 C 
HETATM    2  C2  UNL     1      34.708  55.168  57.037  1.00  0.00     0.042 C 
HETATM    3  O1  UNL     1      34.778  54.375  58.162  1.00  0.00    -0.341 OA
HETATM    4  C3  UNL     1      35.689  54.821  59.201  1.00  0.00     0.109 C 
HETATM    5  C4  UNL     1      35.656  53.609  60.149  1.00  0.00     0.051 C 
HETATM    6  C5  UNL     1      37.036  54.783  58.485  1.00  0.00     0.123 C 
HETATM    7  C13 UNL     1      37.950  55.938  58.732  1.00  0.00     0.033 C 
HETATM    8  C14 UNL     1      37.101  57.175  58.517  1.00  0.00    -0.009 C 
HETATM    9  C15 UNL     1      36.320  57.103  57.235  1.00  0.00     0.016 C 
HETATM   10  C16 UNL     1      34.949  56.604  57.343  1.00  0.00     0.044 C 
HETATM   11  C17 UNL     1      34.297  56.778  58.684  1.00  0.00     0.045 C 
HETATM   12  C18 UNL     1      35.240  56.074  59.748  1.00  0.00     0.060 C 
HETATM   13  C28 UNL     1      36.318  57.218  59.766  1.00  0.00     0.038 C 
ENDROOT
BRANCH   6  14
HETATM   14  N1  UNL     1      37.807  53.608  58.714  1.00  0.00    -0.335 N 
HETATM   15  C6  UNL     1      38.970  53.334  57.993  1.00  0.00     0.316 C 
HETATM   16  O2  UNL     1      39.323  54.185  57.119  1.00  0.00    -0.247 OA
HETATM   17  N2  UNL     1      39.764  52.156  58.196  1.00  0.00    -0.339 N 
ATOM     18  H2  UNL     1      39.487  51.458  58.886  1.00  0.00     0.164 HD
ATOM     19  H1  UNL     1      37.501  52.946  59.427  1.00  0.00     0.164 HD
BRANCH  17  20
HETATM   20  C7  UNL     1      40.952  51.978  57.413  1.00  0.00     0.086 C 
HETATM   21  C8  UNL     1      40.645  51.637  55.954  1.00  0.00     0.025 C 
HETATM   22  C9  UNL     1      42.010  51.361  55.314  1.00  0.00     0.002 C 
HETATM   23  C10 UNL     1      42.478  50.001  55.819  1.00  0.00     0.000 C 
HETATM   24  C11 UNL     1      41.830  49.684  57.169  1.00  0.00     0.002 C 
HETATM   25  C12 UNL     1      41.885  50.945  58.013  1.00  0.00     0.025 C 
ENDBRANCH  17  20
ENDBRANCH   6  14
BRANCH  12  26
HETATM   26  N3  UNL     1      34.667  56.209  60.976  1.00  0.00    -0.405 N 
ATOM     27  H3  UNL     1      35.280  56.837  61.495  1.00  0.00     0.154 HD
BRANCH  26  28
HETATM   28  C19 UNL     1      33.692  55.908  61.805  1.00  0.00     0.087 C 
HETATM   29  C20 UNL     1      32.850  56.972  62.366  1.00  0.00     0.069 C 
HETATM   30  C21 UNL     1      31.651  56.517  63.177  1.00  0.00     0.065 C 
HETATM   31  N4  UNL     1      31.822  55.419  64.022  1.00  0.00    -0.373 N 
HETATM   32  C26 UNL     1      32.702  54.449  63.519  1.00  0.00     0.065 C 
HETATM   33  C27 UNL     1      34.015  55.015  63.016  1.00  0.00     0.069 C 
BRANCH  31  34
HETATM   34  C22 UNL     1      31.701  55.586  65.419  1.00  0.00     0.131 C 
BRANCH  34  35
HETATM   35  C23 UNL     1      30.378  56.234  65.769  1.00  0.00     0.004 A 
HETATM   36  C24 UNL     1      30.483  57.452  66.713  1.00  0.00     0.007 A 
HETATM   37  C25 UNL     1      29.835  56.149  67.145  1.00  0.00     0.007 A 
ENDBRANCH  34  35
ENDBRANCH  31  34
ENDBRANCH  26  28
ENDBRANCH  12  26
TORSDOF 6
ENDMDL
