MODEL 1
REMARK VINA RESULT: -5.476959197      0.000      0.000
REMARK  8 active torsions:
REMARK  status: ('A' for Active; 'I' for Inactive)
REMARK    1  A    between atoms: C2_2  and  C4_4 
REMARK    2  A    between atoms: C4_4  and  C5_5 
REMARK    3  A    between atoms: C5_5  and  C6_6 
REMARK    4  A    between atoms: C5_5  and  C8_9 
REMARK    5  A    between atoms: C8_9  and  O1_10 
REMARK    6  A    between atoms: C8_9  and  N2_12 
REMARK    7  A    between atoms: N2_12  and  C10_14 
REMARK    8  A    between atoms: C15_22  and  C16_23 
ROOT
HETATM    1  C6  UNL     1       1.435  26.045   6.513  1.00  0.00     0.162 C 
HETATM    2  C7  UNL     1       2.636  26.029   5.708  1.00  0.00     0.063 C 
HETATM    3  N1  UNL     1       3.594  26.038   5.064  1.00  0.00    -0.197 NA
ENDROOT
BRANCH   1   4
HETATM    4  C5  UNL     1       0.416  27.066   6.146  1.00  0.00    -0.016 C 
BRANCH   4   5
HETATM    5  C4  UNL     1      -0.177  27.027   4.792  1.00  0.00     0.043 C 
BRANCH   5   6
HETATM    6  C2  UNL     1       0.271  28.017   3.787  1.00  0.00    -0.019 C 
HETATM    7  C1  UNL     1      -1.026  28.563   3.136  1.00  0.00     0.010 C 
HETATM    8  C3  UNL     1       1.143  27.591   2.677  1.00  0.00     0.010 C 
ENDBRANCH   5   6
ENDBRANCH   4   5
BRANCH   4   9
HETATM    9  C8  UNL     1      -0.489  27.472   7.250  1.00  0.00     0.141 C 
BRANCH   9  10
HETATM   10  O1  UNL     1      -1.396  28.355   6.914  1.00  0.00    -0.346 OA
ATOM     11  H1  UNL     1      -1.364  29.164   7.412  1.00  0.00     0.219 HD
ENDBRANCH   9  10
BRANCH   9  12
HETATM   12  N2  UNL     1      -0.494  27.039   8.582  1.00  0.00    -0.360 N 
HETATM   13  C9  UNL     1       0.236  27.711   9.610  1.00  0.00     0.152 C 
BRANCH  12  14
HETATM   14  C10 UNL     1      -1.238  25.875   8.959  1.00  0.00     0.101 C 
HETATM   15  C11 UNL     1      -0.174  24.760   9.087  1.00  0.00     0.051 C 
HETATM   16  C12 UNL     1      -0.887  23.481   8.810  1.00  0.00     0.082 C 
HETATM   17  C13 UNL     1       0.049  22.326   8.705  1.00  0.00     0.032 C 
HETATM   18  N3  UNL     1      -1.822  23.336   9.939  1.00  0.00    -0.356 N 
HETATM   19  C14 UNL     1      -2.562  24.480  10.354  1.00  0.00     0.224 C 
ATOM     20  H3  UNL     1      -1.937  22.439  10.411  1.00  0.00     0.162 HD
HETATM   21  O2  UNL     1      -3.707  24.264  10.813  1.00  0.00    -0.273 OA
HETATM   22  C15 UNL     1      -1.969  25.874  10.235  1.00  0.00     0.104 C 
BRANCH  22  23
HETATM   23  C16 UNL     1      -3.093  26.797  10.448  1.00  0.00    -0.008 C 
HETATM   24  C17 UNL     1      -3.563  27.630   9.315  1.00  0.00     0.010 C 
HETATM   25  C18 UNL     1      -2.655  27.792  11.542  1.00  0.00     0.010 C 
ENDBRANCH  22  23
ENDBRANCH  12  14
ENDBRANCH   9  12
ENDBRANCH   4   9
ENDBRANCH   1   4
TORSDOF 8
ENDMDL
MODEL 2
REMARK VINA RESULT: -5.473663203      3.927      7.062
REMARK  8 active torsions:
REMARK  status: ('A' for Active; 'I' for Inactive)
REMARK    1  A    between atoms: C2_2  and  C4_4 
REMARK    2  A    between atoms: C4_4  and  C5_5 
REMARK    3  A    between atoms: C5_5  and  C6_6 
REMARK    4  A    between atoms: C5_5  and  C8_9 
REMARK    5  A    between atoms: C8_9  and  O1_10 
REMARK    6  A    between atoms: C8_9  and  N2_12 
REMARK    7  A    between atoms: N2_12  and  C10_14 
REMARK    8  A    between atoms: C15_22  and  C16_23 
ROOT
HETATM    1  C6  UNL     1       5.342  25.823   2.815  1.00  0.00     0.162 C 
HETATM    2  C7  UNL     1       6.666  25.651   2.261  1.00  0.00     0.063 C 
HETATM    3  N1  UNL     1       7.731  25.512   1.839  1.00  0.00    -0.197 NA
ENDROOT
BRANCH   1   4
HETATM    4  C5  UNL     1       5.261  26.583   4.093  1.00  0.00    -0.016 C 
BRANCH   4   5
HETATM    5  C4  UNL     1       6.167  27.734   4.296  1.00  0.00     0.043 C 
BRANCH   5   6
HETATM    6  C2  UNL     1       7.393  27.545   5.104  1.00  0.00    -0.019 C 
HETATM    7  C1  UNL     1       8.554  28.081   4.226  1.00  0.00     0.010 C 
HETATM    8  C3  UNL     1       7.789  26.191   5.529  1.00  0.00     0.010 C 
ENDBRANCH   5   6
ENDBRANCH   4   5
BRANCH   4   9
HETATM    9  C8  UNL     1       3.896  26.711   4.661  1.00  0.00     0.141 C 
BRANCH   9  10
HETATM   10  O1  UNL     1       3.472  25.650   5.303  1.00  0.00    -0.346 OA
ATOM     11  H1  UNL     1       3.657  24.826   4.869  1.00  0.00     0.219 HD
ENDBRANCH   9  10
BRANCH   9  12
HETATM   12  N2  UNL     1       3.020  27.800   4.595  1.00  0.00    -0.360 N 
HETATM   13  C9  UNL     1       3.477  29.154   4.589  1.00  0.00     0.152 C 
BRANCH  12  14
HETATM   14  C10 UNL     1       1.604  27.585   4.544  1.00  0.00     0.101 C 
HETATM   15  C11 UNL     1       1.048  28.388   5.744  1.00  0.00     0.051 C 
HETATM   16  C12 UNL     1      -0.216  27.706   6.141  1.00  0.00     0.082 C 
HETATM   17  C13 UNL     1      -0.774  28.249   7.411  1.00  0.00     0.032 C 
HETATM   18  N3  UNL     1      -1.121  27.926   4.999  1.00  0.00    -0.356 N 
HETATM   19  C14 UNL     1      -0.604  27.744   3.684  1.00  0.00     0.224 C 
ATOM     20  H3  UNL     1      -2.092  28.201   5.147  1.00  0.00     0.162 HD
HETATM   21  O2  UNL     1      -1.412  27.324   2.824  1.00  0.00    -0.273 OA
HETATM   22  C15 UNL     1       0.851  28.052   3.371  1.00  0.00     0.104 C 
BRANCH  22  23
HETATM   23  C16 UNL     1       1.099  27.463   2.046  1.00  0.00    -0.008 C 
HETATM   24  C17 UNL     1       2.416  27.678   1.401  1.00  0.00     0.010 C 
HETATM   25  C18 UNL     1       0.060  28.073   1.084  1.00  0.00     0.010 C 
ENDBRANCH  22  23
ENDBRANCH  12  14
ENDBRANCH   9  12
ENDBRANCH   4   9
ENDBRANCH   1   4
TORSDOF 8
ENDMDL
MODEL 3
REMARK VINA RESULT: -5.401167304      3.644      6.612
REMARK  8 active torsions:
REMARK  status: ('A' for Active; 'I' for Inactive)
REMARK    1  A    between atoms: C2_2  and  C4_4 
REMARK    2  A    between atoms: C4_4  and  C5_5 
REMARK    3  A    between atoms: C5_5  and  C6_6 
REMARK    4  A    between atoms: C5_5  and  C8_9 
REMARK    5  A    between atoms: C8_9  and  O1_10 
REMARK    6  A    between atoms: C8_9  and  N2_12 
REMARK    7  A    between atoms: N2_12  and  C10_14 
REMARK    8  A    between atoms: C15_22  and  C16_23 
ROOT
HETATM    1  C6  UNL     1       5.758  26.094   5.149  1.00  0.00     0.162 C 
HETATM    2  C7  UNL     1       4.713  25.117   4.938  1.00  0.00     0.063 C 
HETATM    3  N1  UNL     1       3.879  24.342   4.749  1.00  0.00    -0.197 NA
ENDROOT
BRANCH   1   4
HETATM    4  C5  UNL     1       5.723  27.290   4.264  1.00  0.00    -0.016 C 
BRANCH   4   5
HETATM    5  C4  UNL     1       6.894  27.576   3.406  1.00  0.00     0.043 C 
BRANCH   5   6
HETATM    6  C2  UNL     1       7.898  26.511   3.189  1.00  0.00    -0.019 C 
HETATM    7  C1  UNL     1       9.210  27.248   2.817  1.00  0.00     0.010 C 
HETATM    8  C3  UNL     1       7.680  25.500   2.139  1.00  0.00     0.010 C 
ENDBRANCH   5   6
ENDBRANCH   4   5
BRANCH   4   9
HETATM    9  C8  UNL     1       4.393  27.605   3.688  1.00  0.00     0.141 C 
BRANCH   9  10
HETATM   10  O1  UNL     1       4.236  27.229   2.442  1.00  0.00    -0.346 OA
ATOM     11  H1  UNL     1       3.332  27.100   2.180  1.00  0.00     0.219 HD
ENDBRANCH   9  10
BRANCH   9  12
HETATM   12  N2  UNL     1       3.304  28.243   4.295  1.00  0.00    -0.360 N 
HETATM   13  C9  UNL     1       3.373  29.587   4.776  1.00  0.00     0.152 C 
BRANCH  12  14
HETATM   14  C10 UNL     1       2.065  27.547   4.469  1.00  0.00     0.101 C 
HETATM   15  C11 UNL     1       1.981  27.279   5.990  1.00  0.00     0.051 C 
HETATM   16  C12 UNL     1       1.145  26.055   6.144  1.00  0.00     0.082 C 
HETATM   17  C13 UNL     1       1.131  25.556   7.548  1.00  0.00     0.032 C 
HETATM   18  N3  UNL     1      -0.194  26.471   5.690  1.00  0.00    -0.356 N 
HETATM   19  C14 UNL     1      -0.291  27.247   4.499  1.00  0.00     0.224 C 
ATOM     20  H3  UNL     1      -1.028  26.210   6.215  1.00  0.00     0.162 HD
HETATM   21  O2  UNL     1      -1.322  27.074   3.808  1.00  0.00    -0.273 OA
HETATM   22  C15 UNL     1       0.808  28.223   4.115  1.00  0.00     0.104 C 
BRANCH  22  23
HETATM   23  C16 UNL     1       0.531  28.594   2.719  1.00  0.00    -0.008 C 
HETATM   24  C17 UNL     1      -0.853  28.963   2.336  1.00  0.00     0.010 C 
HETATM   25  C18 UNL     1       0.891  27.371   1.851  1.00  0.00     0.010 C 
ENDBRANCH  22  23
ENDBRANCH  12  14
ENDBRANCH   9  12
ENDBRANCH   4   9
ENDBRANCH   1   4
TORSDOF 8
ENDMDL
MODEL 4
REMARK VINA RESULT: -5.364085568      1.272      2.145
REMARK  8 active torsions:
REMARK  status: ('A' for Active; 'I' for Inactive)
REMARK    1  A    between atoms: C2_2  and  C4_4 
REMARK    2  A    between atoms: C4_4  and  C5_5 
REMARK    3  A    between atoms: C5_5  and  C6_6 
REMARK    4  A    between atoms: C5_5  and  C8_9 
REMARK    5  A    between atoms: C8_9  and  O1_10 
REMARK    6  A    between atoms: C8_9  and  N2_12 
REMARK    7  A    between atoms: N2_12  and  C10_14 
REMARK    8  A    between atoms: C15_22  and  C16_23 
ROOT
HETATM    1  C6  UNL     1      -0.266  28.089   4.957  1.00  0.00     0.162 C 
HETATM    2  C7  UNL     1      -0.587  27.424   3.715  1.00  0.00     0.063 C 
HETATM    3  N1  UNL     1      -0.853  26.876   2.734  1.00  0.00    -0.197 NA
ENDROOT
BRANCH   1   4
HETATM    4  C5  UNL     1       0.067  27.203   6.107  1.00  0.00    -0.016 C 
BRANCH   4   5
HETATM    5  C4  UNL     1       1.383  26.530   6.130  1.00  0.00     0.043 C 
BRANCH   5   6
HETATM    6  C2  UNL     1       2.321  26.755   5.007  1.00  0.00    -0.019 C 
HETATM    7  C1  UNL     1       3.455  25.716   5.200  1.00  0.00     0.010 C 
HETATM    8  C3  UNL     1       2.981  28.064   4.855  1.00  0.00     0.010 C 
ENDBRANCH   5   6
ENDBRANCH   4   5
BRANCH   4   9
HETATM    9  C8  UNL     1      -0.468  27.650   7.417  1.00  0.00     0.141 C 
BRANCH   9  10
HETATM   10  O1  UNL     1      -1.096  28.800   7.385  1.00  0.00    -0.346 OA
ATOM     11  H1  UNL     1      -1.214  29.209   8.234  1.00  0.00     0.219 HD
ENDBRANCH   9  10
BRANCH   9  12
HETATM   12  N2  UNL     1      -0.384  27.012   8.661  1.00  0.00    -0.360 N 
HETATM   13  C9  UNL     1       0.445  27.499   9.718  1.00  0.00     0.152 C 
BRANCH  12  14
HETATM   14  C10 UNL     1      -1.134  25.818   8.911  1.00  0.00     0.101 C 
HETATM   15  C11 UNL     1      -0.068  24.699   8.977  1.00  0.00     0.051 C 
HETATM   16  C12 UNL     1      -0.765  23.447   8.567  1.00  0.00     0.082 C 
HETATM   17  C13 UNL     1       0.180  22.308   8.394  1.00  0.00     0.032 C 
HETATM   18  N3  UNL     1      -1.736  23.202   9.647  1.00  0.00    -0.356 N 
HETATM   19  C14 UNL     1      -2.496  24.305  10.134  1.00  0.00     0.224 C 
ATOM     20  H3  UNL     1      -1.862  22.268  10.036  1.00  0.00     0.162 HD
HETATM   21  O2  UNL     1      -3.654  24.047  10.534  1.00  0.00    -0.273 OA
HETATM   22  C15 UNL     1      -1.906  25.706  10.157  1.00  0.00     0.104 C 
BRANCH  22  23
HETATM   23  C16 UNL     1      -3.042  26.604  10.411  1.00  0.00    -0.008 C 
HETATM   24  C17 UNL     1      -3.581  27.414   9.292  1.00  0.00     0.010 C 
HETATM   25  C18 UNL     1      -2.580  27.619  11.475  1.00  0.00     0.010 C 
ENDBRANCH  22  23
ENDBRANCH  12  14
ENDBRANCH   9  12
ENDBRANCH   4   9
ENDBRANCH   1   4
TORSDOF 8
ENDMDL
MODEL 5
REMARK VINA RESULT: -5.279183656      2.393      4.119
REMARK  8 active torsions:
REMARK  status: ('A' for Active; 'I' for Inactive)
REMARK    1  A    between atoms: C2_2  and  C4_4 
REMARK    2  A    between atoms: C4_4  and  C5_5 
REMARK    3  A    between atoms: C5_5  and  C6_6 
REMARK    4  A    between atoms: C5_5  and  C8_9 
REMARK    5  A    between atoms: C8_9  and  O1_10 
REMARK    6  A    between atoms: C8_9  and  N2_12 
REMARK    7  A    between atoms: N2_12  and  C10_14 
REMARK    8  A    between atoms: C15_22  and  C16_23 
ROOT
HETATM    1  C6  UNL     1      -0.301  26.910   4.723  1.00  0.00     0.162 C 
HETATM    2  C7  UNL     1      -0.728  27.842   3.703  1.00  0.00     0.063 C 
HETATM    3  N1  UNL     1      -1.052  28.598   2.892  1.00  0.00    -0.197 NA
ENDROOT
BRANCH   1   4
HETATM    4  C5  UNL     1       0.422  27.498   5.884  1.00  0.00    -0.016 C 
BRANCH   4   5
HETATM    5  C4  UNL     1       1.735  28.139   5.656  1.00  0.00     0.043 C 
BRANCH   5   6
HETATM    6  C2  UNL     1       2.664  27.535   4.675  1.00  0.00    -0.019 C 
HETATM    7  C1  UNL     1       3.210  26.254   5.356  1.00  0.00     0.010 C 
HETATM    8  C3  UNL     1       3.842  28.293   4.217  1.00  0.00     0.010 C 
ENDBRANCH   5   6
ENDBRANCH   4   5
BRANCH   4   9
HETATM    9  C8  UNL     1      -0.447  28.124   6.911  1.00  0.00     0.141 C 
BRANCH   9  10
HETATM   10  O1  UNL     1      -0.884  29.320   6.598  1.00  0.00    -0.346 OA
ATOM     11  H1  UNL     1      -0.351  30.033   6.929  1.00  0.00     0.219 HD
ENDBRANCH   9  10
BRANCH   9  12
HETATM   12  N2  UNL     1      -0.850  27.610   8.149  1.00  0.00    -0.360 N 
HETATM   13  C9  UNL     1      -2.221  27.358   8.466  1.00  0.00     0.152 C 
BRANCH  12  14
HETATM   14  C10 UNL     1       0.121  27.326   9.163  1.00  0.00     0.101 C 
HETATM   15  C11 UNL     1      -0.127  28.400  10.248  1.00  0.00     0.051 C 
HETATM   16  C12 UNL     1       1.179  28.592  10.939  1.00  0.00     0.082 C 
HETATM   17  C13 UNL     1       1.150  29.740  11.889  1.00  0.00     0.032 C 
HETATM   18  N3  UNL     1       1.417  27.311  11.626  1.00  0.00    -0.356 N 
HETATM   19  C14 UNL     1       1.169  26.104  10.910  1.00  0.00     0.224 C 
ATOM     20  H3  UNL     1       1.751  27.288  12.590  1.00  0.00     0.162 HD
HETATM   21  O2  UNL     1       1.900  25.129  11.196  1.00  0.00    -0.273 OA
HETATM   22  C15 UNL     1       0.069  26.034   9.863  1.00  0.00     0.104 C 
BRANCH  22  23
HETATM   23  C16 UNL     1       0.306  24.782   9.130  1.00  0.00    -0.008 C 
HETATM   24  C17 UNL     1       0.663  24.847   7.693  1.00  0.00     0.010 C 
HETATM   25  C18 UNL     1      -1.003  23.970   9.198  1.00  0.00     0.010 C 
ENDBRANCH  22  23
ENDBRANCH  12  14
ENDBRANCH   9  12
ENDBRANCH   4   9
ENDBRANCH   1   4
TORSDOF 8
ENDMDL
