MODEL 1
REMARK VINA RESULT: -7.856198846      0.000      0.000
REMARK  8 active torsions:
REMARK  status: ('A' for Active; 'I' for Inactive)
REMARK    1  A    between atoms: O1_2  and  C2_3 
REMARK    2  A    between atoms: C2_3  and  N1_5 
REMARK       I    between atoms: N1_5  and  C4_7 
REMARK    3  A    between atoms: C4_7  and  C5_9 
REMARK    4  A    between atoms: C5_9  and  N2_10 
REMARK    5  A    between atoms: N2_10  and  C6_11 
REMARK    6  A    between atoms: N2_10  and  C17_24 
REMARK    7  A    between atoms: C6_11  and  O3_12 
REMARK    8  A    between atoms: C6_11  and  C7_14 
ROOT
HETATM    1  N2  UNL     1       3.196  26.665   4.651  1.00  0.00    -0.330 N 
ENDROOT
BRANCH   1   2
HETATM    2  C5  UNL     1       2.719  25.856   5.810  1.00  0.00     0.233 C 
BRANCH   2   3
HETATM    3  C4  UNL     1       1.333  26.137   6.167  1.00  0.00     0.237 C 
HETATM    4  N1  UNL     1       1.042  26.425   7.529  1.00  0.00    -0.334 N 
ATOM      5  H1  UNL     1       1.809  26.424   8.202  1.00  0.00     0.165 HD
HETATM    6  O2  UNL     1       0.347  26.154   5.387  1.00  0.00    -0.272 OA
BRANCH   4   7
HETATM    7  C2  UNL     1      -0.303  26.720   8.006  1.00  0.00     0.218 C 
HETATM    8  C3  UNL     1      -0.703  28.152   7.668  1.00  0.00     0.063 C 
BRANCH   7   9
HETATM    9  O1  UNL     1      -0.344  26.622   9.396  1.00  0.00    -0.372 OA
HETATM   10  C1  UNL     1       0.843  26.032   9.811  1.00  0.00     0.204 C 
ENDBRANCH   7   9
ENDBRANCH   4   7
ENDBRANCH   2   3
ENDBRANCH   1   2
BRANCH   1  11
HETATM   11  C6  UNL     1       4.390  26.284   4.090  1.00  0.00     0.127 C 
BRANCH  11  12
HETATM   12  O3  UNL     1       4.215  25.239   3.259  1.00  0.00    -0.349 OA
ATOM     13  H3  UNL     1       3.733  24.543   3.690  1.00  0.00     0.219 HD
ENDBRANCH  11  12
BRANCH  11  14
HETATM   14  C7  UNL     1       5.784  26.658   4.105  1.00  0.00     0.026 C 
HETATM   15  C8  UNL     1       6.445  26.001   5.351  1.00  0.00     0.022 C 
HETATM   16  C9  UNL     1       7.913  26.116   5.372  1.00  0.00    -0.013 C 
HETATM   17  C10 UNL     1       8.379  27.566   5.279  1.00  0.00     0.009 C 
HETATM   18  C14 UNL     1       8.508  25.377   4.212  1.00  0.00     0.009 C 
HETATM   19  C11 UNL     1       7.758  28.126   4.048  1.00  0.00    -0.013 C 
HETATM   20  C12 UNL     1       8.310  27.434   2.826  1.00  0.00     0.009 C 
HETATM   21  C16 UNL     1       6.225  28.044   4.065  1.00  0.00     0.022 C 
HETATM   22  C13 UNL     1       7.927  25.973   2.948  1.00  0.00    -0.013 C 
HETATM   23  C15 UNL     1       6.428  25.897   2.923  1.00  0.00     0.022 C 
ENDBRANCH  11  14
ENDBRANCH   1  11
BRANCH   1  24
HETATM   24  C17 UNL     1       2.352  27.739   4.284  1.00  0.00    -0.016 C 
HETATM   25  C18 UNL     1       2.796  29.115   4.723  1.00  0.00     0.063 C 
HETATM   26  C19 UNL     1       1.806  27.731   2.886  1.00  0.00     0.063 C 
ENDBRANCH   1  24
TORSDOF 8
ENDMDL
MODEL 2
REMARK VINA RESULT: -7.780152525      4.286      8.734
REMARK  8 active torsions:
REMARK  status: ('A' for Active; 'I' for Inactive)
REMARK    1  A    between atoms: O1_2  and  C2_3 
REMARK    2  A    between atoms: C2_3  and  N1_5 
REMARK       I    between atoms: N1_5  and  C4_7 
REMARK    3  A    between atoms: C4_7  and  C5_9 
REMARK    4  A    between atoms: C5_9  and  N2_10 
REMARK    5  A    between atoms: N2_10  and  C6_11 
REMARK    6  A    between atoms: N2_10  and  C17_24 
REMARK    7  A    between atoms: C6_11  and  O3_12 
REMARK    8  A    between atoms: C6_11  and  C7_14 
ROOT
HETATM    1  N2  UNL     1       9.029  27.679   4.072  1.00  0.00    -0.330 N 
ENDROOT
BRANCH   1   2
HETATM    2  C5  UNL     1       9.356  28.021   2.657  1.00  0.00     0.233 C 
BRANCH   2   3
HETATM    3  C4  UNL     1      10.531  27.314   2.160  1.00  0.00     0.237 C 
HETATM    4  N1  UNL     1      11.763  28.024   2.110  1.00  0.00    -0.334 N 
ATOM      5  H1  UNL     1      11.779  28.996   2.421  1.00  0.00     0.165 HD
HETATM    6  O2  UNL     1      10.576  26.123   1.763  1.00  0.00    -0.272 OA
BRANCH   4   7
HETATM    7  C2  UNL     1      13.002  27.426   1.632  1.00  0.00     0.218 C 
HETATM    8  C3  UNL     1      14.206  27.974   2.391  1.00  0.00     0.063 C 
BRANCH   7   9
HETATM    9  O1  UNL     1      13.202  27.757   0.292  1.00  0.00    -0.372 OA
HETATM   10  C1  UNL     1      14.412  28.433   0.202  1.00  0.00     0.204 C 
ENDBRANCH   7   9
ENDBRANCH   4   7
ENDBRANCH   2   3
ENDBRANCH   1   2
BRANCH   1  11
HETATM   11  C6  UNL     1       8.131  26.658   4.262  1.00  0.00     0.127 C 
BRANCH  11  12
HETATM   12  O3  UNL     1       8.771  25.487   4.441  1.00  0.00    -0.349 OA
ATOM     13  H3  UNL     1       8.164  24.758   4.372  1.00  0.00     0.219 HD
ENDBRANCH  11  12
BRANCH  11  14
HETATM   14  C7  UNL     1       6.705  26.443   4.336  1.00  0.00     0.026 C 
HETATM   15  C8  UNL     1       6.009  27.834   4.360  1.00  0.00     0.022 C 
HETATM   16  C9  UNL     1       4.545  27.766   4.212  1.00  0.00    -0.013 C 
HETATM   17  C10 UNL     1       3.900  26.878   5.272  1.00  0.00     0.009 C 
HETATM   18  C14 UNL     1       4.185  27.200   2.871  1.00  0.00     0.009 C 
HETATM   19  C11 UNL     1       4.569  25.552   5.170  1.00  0.00    -0.013 C 
HETATM   20  C12 UNL     1       4.251  24.911   3.842  1.00  0.00     0.009 C 
HETATM   21  C16 UNL     1       6.088  25.636   5.376  1.00  0.00     0.022 C 
HETATM   22  C13 UNL     1       4.813  25.827   2.774  1.00  0.00    -0.013 C 
HETATM   23  C15 UNL     1       6.302  25.871   2.957  1.00  0.00     0.022 C 
ENDBRANCH  11  14
ENDBRANCH   1  11
BRANCH   1  24
HETATM   24  C17 UNL     1       9.685  28.468   5.045  1.00  0.00    -0.016 C 
HETATM   25  C18 UNL     1       9.090  28.444   6.434  1.00  0.00     0.063 C 
HETATM   26  C19 UNL     1      11.185  28.423   5.062  1.00  0.00     0.063 C 
ENDBRANCH   1  24
TORSDOF 8
ENDMDL
MODEL 3
REMARK VINA RESULT: -7.740826369      2.061      3.642
REMARK  8 active torsions:
REMARK  status: ('A' for Active; 'I' for Inactive)
REMARK    1  A    between atoms: O1_2  and  C2_3 
REMARK    2  A    between atoms: C2_3  and  N1_5 
REMARK       I    between atoms: N1_5  and  C4_7 
REMARK    3  A    between atoms: C4_7  and  C5_9 
REMARK    4  A    between atoms: C5_9  and  N2_10 
REMARK    5  A    between atoms: N2_10  and  C6_11 
REMARK    6  A    between atoms: N2_10  and  C17_24 
REMARK    7  A    between atoms: C6_11  and  O3_12 
REMARK    8  A    between atoms: C6_11  and  C7_14 
ROOT
HETATM    1  N2  UNL     1       3.537  26.998   4.364  1.00  0.00    -0.330 N 
ENDROOT
BRANCH   1   2
HETATM    2  C5  UNL     1       2.765  28.250   4.613  1.00  0.00     0.233 C 
BRANCH   2   3
HETATM    3  C4  UNL     1       1.383  28.165   4.155  1.00  0.00     0.237 C 
HETATM    4  N1  UNL     1       1.154  27.819   2.794  1.00  0.00    -0.334 N 
ATOM      5  H1  UNL     1       1.960  27.645   2.193  1.00  0.00     0.165 HD
HETATM    6  O2  UNL     1       0.351  28.367   4.843  1.00  0.00    -0.272 OA
BRANCH   4   7
HETATM    7  C2  UNL     1      -0.180  27.704   2.220  1.00  0.00     0.218 C 
HETATM    8  C3  UNL     1      -0.113  27.450   0.718  1.00  0.00     0.063 C 
BRANCH   7   9
HETATM    9  O1  UNL     1      -0.870  28.906   2.382  1.00  0.00    -0.372 OA
HETATM   10  C1  UNL     1      -2.010  28.845   1.592  1.00  0.00     0.204 C 
ENDBRANCH   7   9
ENDBRANCH   4   7
ENDBRANCH   2   3
ENDBRANCH   1   2
BRANCH   1  11
HETATM   11  C6  UNL     1       4.640  27.112   3.554  1.00  0.00     0.127 C 
BRANCH  11  12
HETATM   12  O3  UNL     1       4.277  27.190   2.260  1.00  0.00    -0.349 OA
ATOM     13  H3  UNL     1       4.065  26.329   1.917  1.00  0.00     0.219 HD
ENDBRANCH  11  12
BRANCH  11  14
HETATM   14  C7  UNL     1       6.079  27.181   3.655  1.00  0.00     0.026 C 
HETATM   15  C8  UNL     1       6.482  26.762   5.097  1.00  0.00     0.022 C 
HETATM   16  C9  UNL     1       7.932  26.575   5.276  1.00  0.00    -0.013 C 
HETATM   17  C10 UNL     1       8.726  27.818   4.889  1.00  0.00     0.009 C 
HETATM   18  C14 UNL     1       8.418  25.445   4.419  1.00  0.00     0.009 C 
HETATM   19  C11 UNL     1       8.338  28.142   3.488  1.00  0.00    -0.013 C 
HETATM   20  C12 UNL     1       8.798  27.049   2.556  1.00  0.00     0.009 C 
HETATM   21  C16 UNL     1       6.830  28.384   3.330  1.00  0.00     0.022 C 
HETATM   22  C13 UNL     1       8.079  25.785   2.984  1.00  0.00    -0.013 C 
HETATM   23  C15 UNL     1       6.609  26.015   2.788  1.00  0.00     0.022 C 
ENDBRANCH  11  14
ENDBRANCH   1  11
BRANCH   1  24
HETATM   24  C17 UNL     1       3.019  25.841   4.990  1.00  0.00    -0.016 C 
HETATM   25  C18 UNL     1       3.875  24.598   4.906  1.00  0.00     0.063 C 
HETATM   26  C19 UNL     1       2.398  26.019   6.345  1.00  0.00     0.063 C 
ENDBRANCH   1  24
TORSDOF 8
ENDMDL
MODEL 4
REMARK VINA RESULT: -7.732502092      4.397      8.897
REMARK  8 active torsions:
REMARK  status: ('A' for Active; 'I' for Inactive)
REMARK    1  A    between atoms: O1_2  and  C2_3 
REMARK    2  A    between atoms: C2_3  and  N1_5 
REMARK       I    between atoms: N1_5  and  C4_7 
REMARK    3  A    between atoms: C4_7  and  C5_9 
REMARK    4  A    between atoms: C5_9  and  N2_10 
REMARK    5  A    between atoms: N2_10  and  C6_11 
REMARK    6  A    between atoms: N2_10  and  C17_24 
REMARK    7  A    between atoms: C6_11  and  O3_12 
REMARK    8  A    between atoms: C6_11  and  C7_14 
ROOT
HETATM    1  N2  UNL     1       9.238  27.590   3.845  1.00  0.00    -0.330 N 
ENDROOT
BRANCH   1   2
HETATM    2  C5  UNL     1       9.587  27.890   2.426  1.00  0.00     0.233 C 
BRANCH   2   3
HETATM    3  C4  UNL     1      10.850  27.288   2.013  1.00  0.00     0.237 C 
HETATM    4  N1  UNL     1      12.013  28.106   2.031  1.00  0.00    -0.334 N 
ATOM      5  H1  UNL     1      11.922  29.077   2.330  1.00  0.00     0.165 HD
HETATM    6  O2  UNL     1      11.027  26.102   1.637  1.00  0.00    -0.272 OA
BRANCH   4   7
HETATM    7  C2  UNL     1      13.330  27.617   1.641  1.00  0.00     0.218 C 
HETATM    8  C3  UNL     1      14.426  28.261   2.483  1.00  0.00     0.063 C 
BRANCH   7   9
HETATM    9  O1  UNL     1      13.594  27.974   0.318  1.00  0.00    -0.372 OA
HETATM   10  C1  UNL     1      14.791  28.676   0.303  1.00  0.00     0.204 C 
ENDBRANCH   7   9
ENDBRANCH   4   7
ENDBRANCH   2   3
ENDBRANCH   1   2
BRANCH   1  11
HETATM   11  C6  UNL     1       8.277  26.630   4.048  1.00  0.00     0.127 C 
BRANCH  11  12
HETATM   12  O3  UNL     1       8.821  25.512   4.564  1.00  0.00    -0.349 OA
ATOM     13  H3  UNL     1       8.703  25.483   5.506  1.00  0.00     0.219 HD
ENDBRANCH  11  12
BRANCH  11  14
HETATM   14  C7  UNL     1       6.854  26.443   3.888  1.00  0.00     0.026 C 
HETATM   15  C8  UNL     1       6.322  25.697   5.145  1.00  0.00     0.022 C 
HETATM   16  C9  UNL     1       4.852  25.634   5.218  1.00  0.00    -0.013 C 
HETATM   17  C10 UNL     1       4.241  24.995   3.975  1.00  0.00     0.009 C 
HETATM   18  C14 UNL     1       4.279  27.014   5.342  1.00  0.00     0.009 C 
HETATM   19  C11 UNL     1       4.744  25.777   2.812  1.00  0.00    -0.013 C 
HETATM   20  C12 UNL     1       4.206  27.185   2.861  1.00  0.00     0.009 C 
HETATM   21  C16 UNL     1       6.277  25.789   2.723  1.00  0.00     0.022 C 
HETATM   22  C13 UNL     1       4.738  27.806   4.137  1.00  0.00    -0.013 C 
HETATM   23  C15 UNL     1       6.234  27.853   4.025  1.00  0.00     0.022 C 
ENDBRANCH  11  14
ENDBRANCH   1  11
BRANCH   1  24
HETATM   24  C17 UNL     1       9.941  28.351   4.807  1.00  0.00    -0.016 C 
HETATM   25  C18 UNL     1       9.226  28.594   6.117  1.00  0.00     0.063 C 
HETATM   26  C19 UNL     1      11.395  28.033   4.998  1.00  0.00     0.063 C 
ENDBRANCH   1  24
TORSDOF 8
ENDMDL
MODEL 5
REMARK VINA RESULT: -7.707760465      2.047      3.952
REMARK  8 active torsions:
REMARK  status: ('A' for Active; 'I' for Inactive)
REMARK    1  A    between atoms: O1_2  and  C2_3 
REMARK    2  A    between atoms: C2_3  and  N1_5 
REMARK       I    between atoms: N1_5  and  C4_7 
REMARK    3  A    between atoms: C4_7  and  C5_9 
REMARK    4  A    between atoms: C5_9  and  N2_10 
REMARK    5  A    between atoms: N2_10  and  C6_11 
REMARK    6  A    between atoms: N2_10  and  C17_24 
REMARK    7  A    between atoms: C6_11  and  O3_12 
REMARK    8  A    between atoms: C6_11  and  C7_14 
ROOT
HETATM    1  N2  UNL     1       3.522  26.888   4.351  1.00  0.00    -0.330 N 
ENDROOT
BRANCH   1   2
HETATM    2  C5  UNL     1       2.795  28.165   4.608  1.00  0.00     0.233 C 
BRANCH   2   3
HETATM    3  C4  UNL     1       1.406  28.126   4.164  1.00  0.00     0.237 C 
HETATM    4  N1  UNL     1       1.153  27.797   2.803  1.00  0.00    -0.334 N 
ATOM      5  H1  UNL     1       1.946  27.601   2.193  1.00  0.00     0.165 HD
HETATM    6  O2  UNL     1       0.389  28.356   4.864  1.00  0.00    -0.272 OA
BRANCH   4   7
HETATM    7  C2  UNL     1      -0.191  27.727   2.243  1.00  0.00     0.218 C 
HETATM    8  C3  UNL     1      -0.148  27.472   0.740  1.00  0.00     0.063 C 
BRANCH   7   9
HETATM    9  O1  UNL     1      -0.838  28.951   2.413  1.00  0.00    -0.372 OA
HETATM   10  C1  UNL     1      -2.003  28.918   1.659  1.00  0.00     0.204 C 
ENDBRANCH   7   9
ENDBRANCH   4   7
ENDBRANCH   2   3
ENDBRANCH   1   2
BRANCH   1  11
HETATM   11  C6  UNL     1       4.603  26.959   3.507  1.00  0.00     0.127 C 
BRANCH  11  12
HETATM   12  O3  UNL     1       4.214  27.285   2.260  1.00  0.00    -0.349 OA
ATOM     13  H3  UNL     1       4.850  26.987   1.620  1.00  0.00     0.219 HD
ENDBRANCH  11  12
BRANCH  11  14
HETATM   14  C7  UNL     1       6.038  26.799   3.537  1.00  0.00     0.026 C 
HETATM   15  C8  UNL     1       6.682  28.199   3.327  1.00  0.00     0.022 C 
HETATM   16  C9  UNL     1       8.137  28.221   3.554  1.00  0.00    -0.013 C 
HETATM   17  C10 UNL     1       8.872  27.208   2.680  1.00  0.00     0.009 C 
HETATM   18  C14 UNL     1       8.445  27.888   4.983  1.00  0.00     0.009 C 
HETATM   19  C11 UNL     1       8.247  25.886   2.958  1.00  0.00    -0.013 C 
HETATM   20  C12 UNL     1       8.516  25.474   4.384  1.00  0.00     0.009 C 
HETATM   21  C16 UNL     1       6.740  25.867   2.668  1.00  0.00     0.022 C 
HETATM   22  C13 UNL     1       7.863  26.520   5.266  1.00  0.00    -0.013 C 
HETATM   23  C15 UNL     1       6.385  26.468   5.007  1.00  0.00     0.022 C 
ENDBRANCH  11  14
ENDBRANCH   1  11
BRANCH   1  24
HETATM   24  C17 UNL     1       2.990  25.755   5.009  1.00  0.00    -0.016 C 
HETATM   25  C18 UNL     1       3.825  24.496   4.947  1.00  0.00     0.063 C 
HETATM   26  C19 UNL     1       2.383  25.975   6.364  1.00  0.00     0.063 C 
ENDBRANCH   1  24
TORSDOF 8
ENDMDL
