MODEL 1
REMARK VINA RESULT: -7.756849054      0.000      0.000
REMARK  6 active torsions:
REMARK  status: ('A' for Active; 'I' for Inactive)
REMARK    1  A    between atoms: C1_2  and  C2_3 
REMARK       I    between atoms: C1_2  and  N2_16 
REMARK    2  A    between atoms: C2_3  and  N1_4 
REMARK       I    between atoms: N1_4  and  C3_5 
REMARK    3  A    between atoms: N1_4  and  C7_10 
REMARK    4  A    between atoms: C3_5  and  C4_7 
REMARK    5  A    between atoms: N2_16  and  C13_18 
REMARK    6  A    between atoms: C13_18  and  C14_19 
ROOT
HETATM    1  C2  UNL     1       2.854  26.628   3.549  1.00  0.00     0.228 C 
ENDROOT
BRANCH   1   2
HETATM    2  C1  UNL     1       3.953  27.494   3.958  1.00  0.00     0.235 C 
HETATM    3  O1  UNL     1       3.735  28.710   4.233  1.00  0.00    -0.272 OA
HETATM    4  N2  UNL     1       5.256  26.938   4.036  1.00  0.00    -0.357 N 
ATOM      5  H2  UNL     1       5.409  25.956   3.809  1.00  0.00     0.162 HD
BRANCH   4   6
HETATM    6  C13 UNL     1       6.347  27.760   4.432  1.00  0.00     0.154 C 
BRANCH   6   7
HETATM    7  C14 UNL     1       7.528  27.026   4.963  1.00  0.00     0.139 C 
HETATM    8  C15 UNL     1       7.917  25.817   4.188  1.00  0.00     0.034 C 
HETATM    9  C16 UNL     1       8.574  26.101   2.883  1.00  0.00     0.005 C 
HETATM   10  C17 UNL     1       9.043  27.482   2.676  1.00  0.00     0.026 C 
HETATM   11  C18 UNL     1       8.983  28.405   3.821  1.00  0.00     0.168 C 
HETATM   12  O3  UNL     1       8.621  27.866   5.025  1.00  0.00    -0.384 OA
ENDBRANCH   6   7
ENDBRANCH   4   6
ENDBRANCH   1   2
BRANCH   1  13
HETATM   13  N1  UNL     1       1.529  27.096   4.030  1.00  0.00    -0.338 N 
HETATM   14  C3  UNL     1       1.253  26.831   5.378  1.00  0.00     0.224 C 
HETATM   15  O2  UNL     1       2.129  26.267   6.130  1.00  0.00    -0.273 OA
BRANCH  14  16
HETATM   16  C4  UNL     1      -0.007  27.149   6.046  1.00  0.00     0.078 A 
HETATM   17  C5  UNL     1      -0.045  27.300   7.530  1.00  0.00     0.015 A 
HETATM   18  C6  UNL     1      -0.191  28.517   6.656  1.00  0.00     0.015 A 
ENDBRANCH  14  16
BRANCH  13  19
HETATM   19  C7  UNL     1       0.669  27.724   3.092  1.00  0.00     0.087 C 
HETATM   20  C8  UNL     1       1.146  27.597   1.645  1.00  0.00     0.025 C 
HETATM   21  C9  UNL     1       0.004  27.502   0.670  1.00  0.00     0.002 C 
HETATM   22  C10 UNL     1      -0.972  28.602   1.003  1.00  0.00     0.000 C 
HETATM   23  C11 UNL     1      -1.521  28.511   2.385  1.00  0.00     0.002 C 
HETATM   24  C12 UNL     1      -0.797  27.437   3.227  1.00  0.00     0.025 C 
ENDBRANCH  13  19
ENDBRANCH   1  13
TORSDOF 6
ENDMDL
MODEL 2
REMARK VINA RESULT: -7.491400551      1.080      1.532
REMARK  6 active torsions:
REMARK  status: ('A' for Active; 'I' for Inactive)
REMARK    1  A    between atoms: C1_2  and  C2_3 
REMARK       I    between atoms: C1_2  and  N2_16 
REMARK    2  A    between atoms: C2_3  and  N1_4 
REMARK       I    between atoms: N1_4  and  C3_5 
REMARK    3  A    between atoms: N1_4  and  C7_10 
REMARK    4  A    between atoms: C3_5  and  C4_7 
REMARK    5  A    between atoms: N2_16  and  C13_18 
REMARK    6  A    between atoms: C13_18  and  C14_19 
ROOT
HETATM    1  C2  UNL     1       2.976  28.051   3.659  1.00  0.00     0.228 C 
ENDROOT
BRANCH   1   2
HETATM    2  C1  UNL     1       4.069  27.097   3.506  1.00  0.00     0.235 C 
HETATM    3  O1  UNL     1       3.835  25.921   3.101  1.00  0.00    -0.272 OA
HETATM    4  N2  UNL     1       5.385  27.523   3.823  1.00  0.00    -0.357 N 
ATOM      5  H2  UNL     1       5.552  28.475   4.148  1.00  0.00     0.162 HD
BRANCH   4   6
HETATM    6  C13 UNL     1       6.470  26.615   3.683  1.00  0.00     0.154 C 
BRANCH   6   7
HETATM    7  C14 UNL     1       7.611  26.848   4.610  1.00  0.00     0.139 C 
HETATM    8  C15 UNL     1       8.772  25.937   4.419  1.00  0.00     0.034 C 
HETATM    9  C16 UNL     1       9.589  26.220   3.208  1.00  0.00     0.005 C 
HETATM   10  C17 UNL     1       9.357  27.519   2.552  1.00  0.00     0.026 C 
HETATM   11  C18 UNL     1       8.481  28.484   3.235  1.00  0.00     0.168 C 
HETATM   12  O3  UNL     1       8.060  28.147   4.493  1.00  0.00    -0.384 OA
ENDBRANCH   6   7
ENDBRANCH   4   6
ENDBRANCH   1   2
BRANCH   1  13
HETATM   13  N1  UNL     1       1.715  27.424   4.128  1.00  0.00    -0.338 N 
HETATM   14  C3  UNL     1       1.789  26.784   5.372  1.00  0.00     0.224 C 
HETATM   15  O2  UNL     1       2.876  26.804   6.057  1.00  0.00    -0.273 OA
BRANCH  14  16
HETATM   16  C4  UNL     1       0.689  26.055   5.998  1.00  0.00     0.078 A 
HETATM   17  C5  UNL     1       0.827  25.558   7.398  1.00  0.00     0.015 A 
HETATM   18  C6  UNL     1      -0.094  26.713   7.108  1.00  0.00     0.015 A 
ENDBRANCH  14  16
BRANCH  13  19
HETATM   19  C7  UNL     1       0.582  27.498   3.274  1.00  0.00     0.087 C 
HETATM   20  C8  UNL     1      -0.508  28.438   3.787  1.00  0.00     0.025 C 
HETATM   21  C9  UNL     1      -1.245  29.126   2.669  1.00  0.00     0.002 C 
HETATM   22  C10 UNL     1      -1.630  28.073   1.662  1.00  0.00     0.000 C 
HETATM   23  C11 UNL     1      -0.464  27.348   1.084  1.00  0.00     0.002 C 
HETATM   24  C12 UNL     1       0.854  27.696   1.813  1.00  0.00     0.025 C 
ENDBRANCH  13  19
ENDBRANCH   1  13
TORSDOF 6
ENDMDL
MODEL 3
REMARK VINA RESULT: -7.466957072      3.057      7.139
REMARK  6 active torsions:
REMARK  status: ('A' for Active; 'I' for Inactive)
REMARK    1  A    between atoms: C1_2  and  C2_3 
REMARK       I    between atoms: C1_2  and  N2_16 
REMARK    2  A    between atoms: C2_3  and  N1_4 
REMARK       I    between atoms: N1_4  and  C3_5 
REMARK    3  A    between atoms: N1_4  and  C7_10 
REMARK    4  A    between atoms: C3_5  and  C4_7 
REMARK    5  A    between atoms: N2_16  and  C13_18 
REMARK    6  A    between atoms: C13_18  and  C14_19 
ROOT
HETATM    1  C2  UNL     1       0.908  28.550   5.576  1.00  0.00     0.228 C 
ENDROOT
BRANCH   1   2
HETATM    2  C1  UNL     1       0.160  27.799   6.577  1.00  0.00     0.235 C 
HETATM    3  O1  UNL     1      -0.189  26.605   6.347  1.00  0.00    -0.272 OA
HETATM    4  N2  UNL     1      -0.162  28.442   7.801  1.00  0.00    -0.357 N 
ATOM      5  H2  UNL     1       0.129  29.406   7.966  1.00  0.00     0.162 HD
BRANCH   4   6
HETATM    6  C13 UNL     1      -0.892  27.734   8.795  1.00  0.00     0.154 C 
BRANCH   6   7
HETATM    7  C14 UNL     1      -0.252  27.695  10.138  1.00  0.00     0.139 C 
HETATM    8  C15 UNL     1      -1.054  27.027  11.198  1.00  0.00     0.034 C 
HETATM    9  C16 UNL     1      -1.112  25.544  11.089  1.00  0.00     0.005 C 
HETATM   10  C17 UNL     1      -0.135  24.917  10.181  1.00  0.00     0.026 C 
HETATM   11  C18 UNL     1       0.911  25.776   9.602  1.00  0.00     0.168 C 
HETATM   12  O3  UNL     1       0.972  27.063  10.063  1.00  0.00    -0.384 OA
ENDBRANCH   6   7
ENDBRANCH   4   6
ENDBRANCH   1   2
BRANCH   1  13
HETATM   13  N1  UNL     1       1.098  27.804   4.307  1.00  0.00    -0.338 N 
HETATM   14  C3  UNL     1       0.014  27.842   3.420  1.00  0.00     0.224 C 
HETATM   15  O2  UNL     1      -1.036  28.530   3.695  1.00  0.00    -0.273 OA
BRANCH  14  16
HETATM   16  C4  UNL     1      -0.040  27.134   2.143  1.00  0.00     0.078 A 
HETATM   17  C5  UNL     1      -0.847  27.689   1.018  1.00  0.00     0.015 A 
HETATM   18  C6  UNL     1       0.655  27.727   0.943  1.00  0.00     0.015 A 
ENDBRANCH  14  16
BRANCH  13  19
HETATM   19  C7  UNL     1       2.321  27.104   4.127  1.00  0.00     0.087 C 
HETATM   20  C8  UNL     1       3.408  27.938   3.450  1.00  0.00     0.025 C 
HETATM   21  C9  UNL     1       4.787  27.594   3.943  1.00  0.00     0.002 C 
HETATM   22  C10 UNL     1       4.920  26.092   3.912  1.00  0.00     0.000 C 
HETATM   23  C11 UNL     1       3.923  25.390   4.766  1.00  0.00     0.002 C 
HETATM   24  C12 UNL     1       2.847  26.354   5.314  1.00  0.00     0.025 C 
ENDBRANCH  13  19
ENDBRANCH   1  13
TORSDOF 6
ENDMDL
MODEL 4
REMARK VINA RESULT: -7.420657521      3.012      7.870
REMARK  6 active torsions:
REMARK  status: ('A' for Active; 'I' for Inactive)
REMARK    1  A    between atoms: C1_2  and  C2_3 
REMARK       I    between atoms: C1_2  and  N2_16 
REMARK    2  A    between atoms: C2_3  and  N1_4 
REMARK       I    between atoms: N1_4  and  C3_5 
REMARK    3  A    between atoms: N1_4  and  C7_10 
REMARK    4  A    between atoms: C3_5  and  C4_7 
REMARK    5  A    between atoms: N2_16  and  C13_18 
REMARK    6  A    between atoms: C13_18  and  C14_19 
ROOT
HETATM    1  C2  UNL     1       1.013  28.409   5.736  1.00  0.00     0.228 C 
ENDROOT
BRANCH   1   2
HETATM    2  C1  UNL     1       0.036  27.788   6.623  1.00  0.00     0.235 C 
HETATM    3  O1  UNL     1       0.040  26.534   6.795  1.00  0.00    -0.272 OA
HETATM    4  N2  UNL     1      -0.906  28.622   7.278  1.00  0.00    -0.357 N 
ATOM      5  H2  UNL     1      -0.892  29.630   7.126  1.00  0.00     0.162 HD
BRANCH   4   6
HETATM    6  C13 UNL     1      -1.870  28.044   8.149  1.00  0.00     0.154 C 
BRANCH   6   7
HETATM    7  C14 UNL     1      -1.512  28.074   9.594  1.00  0.00     0.139 C 
HETATM    8  C15 UNL     1      -2.640  28.383  10.514  1.00  0.00     0.034 C 
HETATM    9  C16 UNL     1      -3.616  27.274  10.693  1.00  0.00     0.005 C 
HETATM   10  C17 UNL     1      -3.189  25.945  10.220  1.00  0.00     0.026 C 
HETATM   11  C18 UNL     1      -1.793  25.791   9.779  1.00  0.00     0.168 C 
HETATM   12  O3  UNL     1      -0.966  26.865   9.973  1.00  0.00    -0.384 OA
ENDBRANCH   6   7
ENDBRANCH   4   6
ENDBRANCH   1   2
BRANCH   1  13
HETATM   13  N1  UNL     1       1.151  27.706   4.435  1.00  0.00    -0.338 N 
HETATM   14  C3  UNL     1       0.030  27.766   3.598  1.00  0.00     0.224 C 
HETATM   15  O2  UNL     1      -1.010  28.439   3.940  1.00  0.00    -0.273 OA
BRANCH  14  16
HETATM   16  C4  UNL     1      -0.076  27.101   2.302  1.00  0.00     0.078 A 
HETATM   17  C5  UNL     1      -0.916  27.699   1.224  1.00  0.00     0.015 A 
HETATM   18  C6  UNL     1       0.583  27.725   1.097  1.00  0.00     0.015 A 
ENDBRANCH  14  16
BRANCH  13  19
HETATM   19  C7  UNL     1       2.368  27.020   4.180  1.00  0.00     0.087 C 
HETATM   20  C8  UNL     1       3.415  27.878   3.469  1.00  0.00     0.025 C 
HETATM   21  C9  UNL     1       4.819  27.533   3.887  1.00  0.00     0.002 C 
HETATM   22  C10 UNL     1       4.960  26.034   3.816  1.00  0.00     0.000 C 
HETATM   23  C11 UNL     1       4.011  25.305   4.702  1.00  0.00     0.002 C 
HETATM   24  C12 UNL     1       2.957  26.248   5.323  1.00  0.00     0.025 C 
ENDBRANCH  13  19
ENDBRANCH   1  13
TORSDOF 6
ENDMDL
MODEL 5
REMARK VINA RESULT: -7.415529859      3.250      7.243
REMARK  6 active torsions:
REMARK  status: ('A' for Active; 'I' for Inactive)
REMARK    1  A    between atoms: C1_2  and  C2_3 
REMARK       I    between atoms: C1_2  and  N2_16 
REMARK    2  A    between atoms: C2_3  and  N1_4 
REMARK       I    between atoms: N1_4  and  C3_5 
REMARK    3  A    between atoms: N1_4  and  C7_10 
REMARK    4  A    between atoms: C3_5  and  C4_7 
REMARK    5  A    between atoms: N2_16  and  C13_18 
REMARK    6  A    between atoms: C13_18  and  C14_19 
ROOT
HETATM    1  C2  UNL     1       0.806  28.444   5.740  1.00  0.00     0.228 C 
ENDROOT
BRANCH   1   2
HETATM    2  C1  UNL     1      -0.017  27.684   6.673  1.00  0.00     0.235 C 
HETATM    3  O1  UNL     1      -1.223  28.014   6.872  1.00  0.00    -0.272 OA
HETATM    4  N2  UNL     1       0.568  26.578   7.342  1.00  0.00    -0.357 N 
ATOM      5  H2  UNL     1       1.542  26.329   7.167  1.00  0.00     0.162 HD
BRANCH   4   6
HETATM    6  C13 UNL     1      -0.211  25.818   8.258  1.00  0.00     0.154 C 
BRANCH   6   7
HETATM    7  C14 UNL     1       0.471  24.624   8.826  1.00  0.00     0.139 C 
HETATM    8  C15 UNL     1       0.965  24.786  10.221  1.00  0.00     0.034 C 
HETATM    9  C16 UNL     1      -0.101  24.776  11.260  1.00  0.00     0.005 C 
HETATM   10  C17 UNL     1      -1.426  24.294  10.833  1.00  0.00     0.026 C 
HETATM   11  C18 UNL     1      -1.540  23.707   9.488  1.00  0.00     0.168 C 
HETATM   12  O3  UNL     1      -0.373  23.533   8.793  1.00  0.00    -0.384 OA
ENDBRANCH   6   7
ENDBRANCH   4   6
ENDBRANCH   1   2
BRANCH   1  13
HETATM   13  N1  UNL     1       1.019  27.747   4.446  1.00  0.00    -0.338 N 
HETATM   14  C3  UNL     1      -0.067  27.779   3.561  1.00  0.00     0.224 C 
HETATM   15  O2  UNL     1      -1.138  28.423   3.859  1.00  0.00    -0.273 OA
BRANCH  14  16
HETATM   16  C4  UNL     1      -0.099  27.112   2.262  1.00  0.00     0.078 A 
HETATM   17  C5  UNL     1      -0.889  27.702   1.142  1.00  0.00     0.015 A 
HETATM   18  C6  UNL     1       0.614  27.745   1.092  1.00  0.00     0.015 A 
ENDBRANCH  14  16
BRANCH  13  19
HETATM   19  C7  UNL     1       2.264  27.094   4.244  1.00  0.00     0.087 C 
HETATM   20  C8  UNL     1       3.330  27.993   3.619  1.00  0.00     0.025 C 
HETATM   21  C9  UNL     1       4.715  27.665   4.108  1.00  0.00     0.002 C 
HETATM   22  C10 UNL     1       4.894  26.172   4.004  1.00  0.00     0.000 C 
HETATM   23  C11 UNL     1       3.912  25.398   4.813  1.00  0.00     0.002 C 
HETATM   24  C12 UNL     1       2.803  26.302   5.398  1.00  0.00     0.025 C 
ENDBRANCH  13  19
ENDBRANCH   1  13
TORSDOF 6
ENDMDL
