MODEL 1
REMARK VINA RESULT: -10.777499031      0.000      0.000
REMARK  4 active torsions:
REMARK  status: ('A' for Active; 'I' for Inactive)
REMARK    1  A    between atoms: O1_2  and  C2_3 
REMARK    2  A    between atoms: C5_6  and  C6_7 
REMARK    3  A    between atoms: C7_8  and  C8_9 
REMARK    4  A    between atoms: C19_21  and  O2_22 
ROOT
HETATM    1  C6  UNL     1      27.848   7.549  -3.408  1.00  0.00     0.014 C 
HETATM    2  C7  UNL     1      27.272   8.685  -3.613  1.00  0.00     0.030 C 
ENDROOT
BRANCH   2   3
HETATM    3  C8  UNL     1      27.547  10.003  -3.090  1.00  0.00     0.034 A 
HETATM    4  C9  UNL     1      27.093  10.296  -1.781  1.00  0.00     0.030 A 
HETATM    5  C10 UNL     1      27.288  11.491  -1.156  1.00  0.00     0.016 A 
HETATM    6  C11 UNL     1      27.959  12.487  -1.815  1.00  0.00    -0.009 A 
HETATM    7  C12 UNL     1      28.153  13.732  -1.207  1.00  0.00     0.014 A 
HETATM    8  C16 UNL     1      28.412  12.225  -3.091  1.00  0.00     0.044 A 
HETATM    9  C13 UNL     1      28.813  14.698  -1.924  1.00  0.00     0.001 A 
HETATM   10  C14 UNL     1      29.272  14.459  -3.200  1.00  0.00     0.002 A 
HETATM   11  C15 UNL     1      29.071  13.209  -3.795  1.00  0.00     0.030 A 
HETATM   12  N1  UNL     1      28.198  11.001  -3.684  1.00  0.00    -0.351 N 
HETATM   13  C17 UNL     1      28.867  10.789  -4.957  1.00  0.00     0.156 C 
ENDBRANCH   2   3
BRANCH   1  14
HETATM   14  C5  UNL     1      27.346   6.338  -4.083  1.00  0.00    -0.033 A 
HETATM   15  C4  UNL     1      26.093   6.243  -4.610  1.00  0.00     0.014 A 
HETATM   16  C3  UNL     1      25.669   5.066  -5.238  1.00  0.00     0.040 A 
HETATM   17  C2  UNL     1      26.494   3.989  -5.336  1.00  0.00     0.101 A 
HETATM   18  C19 UNL     1      27.759   4.082  -4.805  1.00  0.00     0.102 A 
HETATM   19  C18 UNL     1      28.187   5.236  -4.185  1.00  0.00     0.051 A 
BRANCH  17  20
HETATM   20  O1  UNL     1      26.114   2.796  -5.954  1.00  0.00    -0.353 OA
HETATM   21  C1  UNL     1      25.262   1.862  -5.350  1.00  0.00     0.210 C 
ENDBRANCH  17  20
BRANCH  18  22
HETATM   22  O2  UNL     1      28.628   3.016  -4.882  1.00  0.00    -0.353 OA
HETATM   23  C20 UNL     1      28.759   2.025  -3.907  1.00  0.00     0.210 C 
ENDBRANCH  18  22
ENDBRANCH   1  14
TORSDOF 4
ENDMDL
MODEL 2
REMARK VINA RESULT: -10.372059100      0.892      1.953
REMARK  4 active torsions:
REMARK  status: ('A' for Active; 'I' for Inactive)
REMARK    1  A    between atoms: O1_2  and  C2_3 
REMARK    2  A    between atoms: C5_6  and  C6_7 
REMARK    3  A    between atoms: C7_8  and  C8_9 
REMARK    4  A    between atoms: C19_21  and  O2_22 
ROOT
HETATM    1  C6  UNL     1      27.724   6.821  -3.935  1.00  0.00     0.014 C 
HETATM    2  C7  UNL     1      27.231   7.956  -4.302  1.00  0.00     0.030 C 
ENDROOT
BRANCH   2   3
HETATM    3  C8  UNL     1      27.645   9.311  -4.022  1.00  0.00     0.034 A 
HETATM    4  C9  UNL     1      28.444   9.965  -4.991  1.00  0.00     0.030 A 
HETATM    5  C10 UNL     1      28.900  11.243  -4.867  1.00  0.00     0.016 A 
HETATM    6  C11 UNL     1      28.581  11.959  -3.744  1.00  0.00    -0.009 A 
HETATM    7  C12 UNL     1      29.054  13.265  -3.578  1.00  0.00     0.014 A 
HETATM    8  C16 UNL     1      27.802  11.344  -2.786  1.00  0.00     0.044 A 
HETATM    9  C13 UNL     1      28.720  13.925  -2.422  1.00  0.00     0.001 A 
HETATM   10  C14 UNL     1      27.946  13.330  -1.451  1.00  0.00     0.002 A 
HETATM   11  C15 UNL     1      27.479  12.022  -1.631  1.00  0.00     0.030 A 
HETATM   12  N1  UNL     1      27.358  10.052  -2.953  1.00  0.00    -0.351 N 
HETATM   13  C17 UNL     1      26.410   9.574  -1.960  1.00  0.00     0.156 C 
ENDBRANCH   2   3
BRANCH   1  14
HETATM   14  C5  UNL     1      27.084   5.566  -4.371  1.00  0.00    -0.033 A 
HETATM   15  C4  UNL     1      25.743   5.449  -4.587  1.00  0.00     0.014 A 
HETATM   16  C3  UNL     1      25.189   4.231  -4.998  1.00  0.00     0.040 A 
HETATM   17  C2  UNL     1      25.973   3.136  -5.191  1.00  0.00     0.101 A 
HETATM   18  C19 UNL     1      27.326   3.252  -4.974  1.00  0.00     0.102 A 
HETATM   19  C18 UNL     1      27.882   4.446  -4.569  1.00  0.00     0.051 A 
BRANCH  17  20
HETATM   20  O1  UNL     1      25.464   1.902  -5.601  1.00  0.00    -0.353 OA
HETATM   21  C1  UNL     1      24.837   1.006  -4.725  1.00  0.00     0.210 C 
ENDBRANCH  17  20
BRANCH  18  22
HETATM   22  O2  UNL     1      28.157   2.168  -5.157  1.00  0.00    -0.353 OA
HETATM   23  C20 UNL     1      28.697   1.397  -4.126  1.00  0.00     0.210 C 
ENDBRANCH  18  22
ENDBRANCH   1  14
TORSDOF 4
ENDMDL
MODEL 3
REMARK VINA RESULT: -10.340242721      1.533      3.095
REMARK  4 active torsions:
REMARK  status: ('A' for Active; 'I' for Inactive)
REMARK    1  A    between atoms: O1_2  and  C2_3 
REMARK    2  A    between atoms: C5_6  and  C6_7 
REMARK    3  A    between atoms: C7_8  and  C8_9 
REMARK    4  A    between atoms: C19_21  and  O2_22 
ROOT
HETATM    1  C6  UNL     1      25.966   5.836  -5.085  1.00  0.00     0.014 C 
HETATM    2  C7  UNL     1      26.656   6.404  -4.155  1.00  0.00     0.030 C 
ENDROOT
BRANCH   2   3
HETATM    3  C8  UNL     1      27.093   7.771  -3.991  1.00  0.00     0.034 A 
HETATM    4  C9  UNL     1      27.958   8.306  -4.977  1.00  0.00     0.030 A 
HETATM    5  C10 UNL     1      28.442   9.579  -4.958  1.00  0.00     0.016 A 
HETATM    6  C11 UNL     1      28.086  10.412  -3.931  1.00  0.00    -0.009 A 
HETATM    7  C12 UNL     1      28.586  11.718  -3.873  1.00  0.00     0.014 A 
HETATM    8  C16 UNL     1      27.243   9.915  -2.959  1.00  0.00     0.044 A 
HETATM    9  C13 UNL     1      28.212  12.499  -2.808  1.00  0.00     0.001 A 
HETATM   10  C14 UNL     1      27.374  12.023  -1.825  1.00  0.00     0.002 A 
HETATM   11  C15 UNL     1      26.881  10.715  -1.897  1.00  0.00     0.030 A 
HETATM   12  N1  UNL     1      26.773   8.623  -3.019  1.00  0.00    -0.351 N 
HETATM   13  C17 UNL     1      25.763   8.270  -2.035  1.00  0.00     0.156 C 
ENDBRANCH   2   3
BRANCH   1  14
HETATM   14  C5  UNL     1      25.664   4.395  -5.000  1.00  0.00    -0.033 A 
HETATM   15  C4  UNL     1      24.583   3.897  -4.336  1.00  0.00     0.014 A 
HETATM   16  C3  UNL     1      24.348   2.518  -4.287  1.00  0.00     0.040 A 
HETATM   17  C2  UNL     1      25.191   1.642  -4.896  1.00  0.00     0.101 A 
HETATM   18  C19 UNL     1      26.283   2.142  -5.567  1.00  0.00     0.102 A 
HETATM   19  C18 UNL     1      26.524   3.498  -5.622  1.00  0.00     0.051 A 
BRANCH  17  20
HETATM   20  O1  UNL     1      24.996   0.260  -4.873  1.00  0.00    -0.353 OA
HETATM   21  C1  UNL     1      24.149  -0.406  -5.769  1.00  0.00     0.210 C 
ENDBRANCH  17  20
BRANCH  18  22
HETATM   22  O2  UNL     1      27.163   1.291  -6.199  1.00  0.00    -0.353 OA
HETATM   23  C20 UNL     1      28.296   0.733  -5.603  1.00  0.00     0.210 C 
ENDBRANCH  18  22
ENDBRANCH   1  14
TORSDOF 4
ENDMDL
MODEL 4
REMARK VINA RESULT: -10.209245202      1.778      3.473
REMARK  4 active torsions:
REMARK  status: ('A' for Active; 'I' for Inactive)
REMARK    1  A    between atoms: O1_2  and  C2_3 
REMARK    2  A    between atoms: C5_6  and  C6_7 
REMARK    3  A    between atoms: C7_8  and  C8_9 
REMARK    4  A    between atoms: C19_21  and  O2_22 
ROOT
HETATM    1  C6  UNL     1      26.632   5.327  -4.762  1.00  0.00     0.014 C 
HETATM    2  C7  UNL     1      26.146   6.419  -4.274  1.00  0.00     0.030 C 
ENDROOT
BRANCH   2   3
HETATM    3  C8  UNL     1      26.717   7.738  -4.133  1.00  0.00     0.034 A 
HETATM    4  C9  UNL     1      27.558   8.203  -5.174  1.00  0.00     0.030 A 
HETATM    5  C10 UNL     1      28.158   9.426  -5.181  1.00  0.00     0.016 A 
HETATM    6  C11 UNL     1      27.953  10.275  -4.127  1.00  0.00    -0.009 A 
HETATM    7  C12 UNL     1      28.575  11.529  -4.096  1.00  0.00     0.014 A 
HETATM    8  C16 UNL     1      27.136   9.846  -3.101  1.00  0.00     0.044 A 
HETATM    9  C13 UNL     1      28.349  12.328  -3.003  1.00  0.00     0.001 A 
HETATM   10  C14 UNL     1      27.539  11.919  -1.967  1.00  0.00     0.002 A 
HETATM   11  C15 UNL     1      26.924  10.663  -2.012  1.00  0.00     0.030 A 
HETATM   12  N1  UNL     1      26.545   8.604  -3.136  1.00  0.00    -0.351 N 
HETATM   13  C17 UNL     1      25.577   8.333  -2.086  1.00  0.00     0.156 C 
ENDBRANCH   2   3
BRANCH   1  14
HETATM   14  C5  UNL     1      25.813   4.101  -4.776  1.00  0.00    -0.033 A 
HETATM   15  C4  UNL     1      24.707   3.933  -3.996  1.00  0.00     0.014 A 
HETATM   16  C3  UNL     1      23.969   2.745  -4.050  1.00  0.00     0.040 A 
HETATM   17  C2  UNL     1      24.336   1.730  -4.877  1.00  0.00     0.101 A 
HETATM   18  C19 UNL     1      25.451   1.897  -5.664  1.00  0.00     0.102 A 
HETATM   19  C18 UNL     1      26.185   3.062  -5.620  1.00  0.00     0.051 A 
BRANCH  17  20
HETATM   20  O1  UNL     1      23.630   0.529  -4.963  1.00  0.00    -0.353 OA
HETATM   21  C1  UNL     1      22.435   0.396  -5.683  1.00  0.00     0.210 C 
ENDBRANCH  17  20
BRANCH  18  22
HETATM   22  O2  UNL     1      25.859   0.894  -6.517  1.00  0.00    -0.353 OA
HETATM   23  C20 UNL     1      25.633   0.881  -7.894  1.00  0.00     0.210 C 
ENDBRANCH  18  22
ENDBRANCH   1  14
TORSDOF 4
ENDMDL
MODEL 5
REMARK VINA RESULT: -10.199661920      1.873      3.691
REMARK  4 active torsions:
REMARK  status: ('A' for Active; 'I' for Inactive)
REMARK    1  A    between atoms: O1_2  and  C2_3 
REMARK    2  A    between atoms: C5_6  and  C6_7 
REMARK    3  A    between atoms: C7_8  and  C8_9 
REMARK    4  A    between atoms: C19_21  and  O2_22 
ROOT
HETATM    1  C6  UNL     1      25.995   5.755  -5.115  1.00  0.00     0.014 C 
HETATM    2  C7  UNL     1      26.710   6.328  -4.206  1.00  0.00     0.030 C 
ENDROOT
BRANCH   2   3
HETATM    3  C8  UNL     1      27.115   7.705  -4.038  1.00  0.00     0.034 A 
HETATM    4  C9  UNL     1      27.936   8.274  -5.042  1.00  0.00     0.030 A 
HETATM    5  C10 UNL     1      28.386   9.560  -5.021  1.00  0.00     0.016 A 
HETATM    6  C11 UNL     1      28.039  10.370  -3.973  1.00  0.00    -0.009 A 
HETATM    7  C12 UNL     1      28.506  11.688  -3.914  1.00  0.00     0.014 A 
HETATM    8  C16 UNL     1      27.239   9.839  -2.984  1.00  0.00     0.044 A 
HETATM    9  C13 UNL     1      28.143  12.446  -2.829  1.00  0.00     0.001 A 
HETATM   10  C14 UNL     1      27.347  11.936  -1.827  1.00  0.00     0.002 A 
HETATM   11  C15 UNL     1      26.888  10.616  -1.901  1.00  0.00     0.030 A 
HETATM   12  N1  UNL     1      26.802   8.536  -3.046  1.00  0.00    -0.351 N 
HETATM   13  C17 UNL     1      25.831   8.144  -2.037  1.00  0.00     0.156 C 
ENDBRANCH   2   3
BRANCH   1  14
HETATM   14  C5  UNL     1      25.739   4.305  -5.042  1.00  0.00    -0.033 A 
HETATM   15  C4  UNL     1      26.624   3.368  -5.484  1.00  0.00     0.014 A 
HETATM   16  C3  UNL     1      26.326   2.003  -5.392  1.00  0.00     0.040 A 
HETATM   17  C2  UNL     1      25.148   1.579  -4.860  1.00  0.00     0.101 A 
HETATM   18  C19 UNL     1      24.253   2.522  -4.413  1.00  0.00     0.102 A 
HETATM   19  C18 UNL     1      24.536   3.868  -4.499  1.00  0.00     0.051 A 
BRANCH  17  20
HETATM   20  O1  UNL     1      24.810   0.229  -4.748  1.00  0.00    -0.353 OA
HETATM   21  C1  UNL     1      24.663  -0.616  -5.856  1.00  0.00     0.210 C 
ENDBRANCH  17  20
BRANCH  18  22
HETATM   22  O2  UNL     1      23.048   2.137  -3.867  1.00  0.00    -0.353 OA
HETATM   23  C20 UNL     1      21.929   1.748  -4.606  1.00  0.00     0.210 C 
ENDBRANCH  18  22
ENDBRANCH   1  14
TORSDOF 4
ENDMDL
