MODEL 1
REMARK VINA RESULT: -7.674821054      0.000      0.000
REMARK  7 active torsions:
REMARK  status: ('A' for Active; 'I' for Inactive)
REMARK    1  A    between atoms: C3_3  and  S1_6 
REMARK    2  A    between atoms: S1_6  and  C6_7 
REMARK    3  A    between atoms: C6_7  and  C7_8 
REMARK    4  A    between atoms: C8_9  and  C9_10 
REMARK    5  A    between atoms: C9_10  and  C10_11 
REMARK    6  A    between atoms: C12_14  and  C13_15 
REMARK    7  A    between atoms: C13_15  and  N1_16 
ROOT
HETATM    1  C1  UNL     1      30.623  16.448   0.064  1.00  0.00     0.098 C 
HETATM    2  C2  UNL     1      29.913  15.995  -0.828  1.00  0.00    -0.167 C 
HETATM    3  C3  UNL     1      29.098  15.473  -1.915  1.00  0.00     0.052 C 
HETATM    4  C4  UNL     1      28.084  16.544  -2.299  1.00  0.00     0.039 C 
HETATM    5  C5  UNL     1      29.948  15.253  -3.166  1.00  0.00     0.039 C 
ENDROOT
BRANCH   3   6
HETATM    6  S1  UNL     1      28.268  13.952  -1.477  1.00  0.00    -0.136 SA
BRANCH   6   7
HETATM    7  C6  UNL     1      28.414  12.702  -2.719  1.00  0.00     0.169 C 
BRANCH   7   8
HETATM    8  C7  UNL     1      27.583  11.542  -2.448  1.00  0.00    -0.096 C 
HETATM    9  C8  UNL     1      26.893  10.558  -2.253  1.00  0.00    -0.101 C 
BRANCH   9  10
HETATM   10  C9  UNL     1      26.072   9.379  -1.992  1.00  0.00     0.133 C 
BRANCH  10  11
HETATM   11  C10 UNL     1      26.320   8.382  -3.111  1.00  0.00    -0.040 A 
HETATM   12  C11 UNL     1      25.979   8.745  -4.390  1.00  0.00     0.058 A 
HETATM   13  S2  UNL     1      26.428   7.348  -5.289  1.00  0.00    -0.104 SA
HETATM   14  C12 UNL     1      27.024   6.370  -4.027  1.00  0.00     0.009 A 
HETATM   15  C17 UNL     1      26.855   7.158  -2.945  1.00  0.00     0.024 A 
BRANCH  14  16
HETATM   16  C13 UNL     1      27.550   5.021  -4.240  1.00  0.00     0.282 C 
BRANCH  16  17
HETATM   17  N1  UNL     1      26.602   3.960  -4.188  1.00  0.00    -0.074 N 
HETATM   18  C14 UNL     1      26.308   3.466  -5.497  1.00  0.00     0.272 C 
HETATM   19  C15 UNL     1      25.414   4.285  -3.424  1.00  0.00     0.272 C 
HETATM   20  C16 UNL     1      27.248   2.863  -3.450  1.00  0.00     0.272 C 
ENDBRANCH  16  17
ENDBRANCH  14  16
ENDBRANCH  10  11
ENDBRANCH   9  10
ENDBRANCH   7   8
ENDBRANCH   6   7
ENDBRANCH   3   6
TORSDOF 7
ENDMDL
MODEL 2
REMARK VINA RESULT: -7.591524463      1.208      1.714
REMARK  7 active torsions:
REMARK  status: ('A' for Active; 'I' for Inactive)
REMARK    1  A    between atoms: C3_3  and  S1_6 
REMARK    2  A    between atoms: S1_6  and  C6_7 
REMARK    3  A    between atoms: C6_7  and  C7_8 
REMARK    4  A    between atoms: C8_9  and  C9_10 
REMARK    5  A    between atoms: C9_10  and  C10_11 
REMARK    6  A    between atoms: C12_14  and  C13_15 
REMARK    7  A    between atoms: C13_15  and  N1_16 
ROOT
HETATM    1  C1  UNL     1      31.054  16.628  -0.531  1.00  0.00     0.098 C 
HETATM    2  C2  UNL     1      30.182  16.062  -1.183  1.00  0.00    -0.167 C 
HETATM    3  C3  UNL     1      29.169  15.400  -1.991  1.00  0.00     0.052 C 
HETATM    4  C4  UNL     1      28.112  16.434  -2.360  1.00  0.00     0.039 C 
HETATM    5  C5  UNL     1      29.762  14.935  -3.321  1.00  0.00     0.039 C 
ENDROOT
BRANCH   3   6
HETATM    6  S1  UNL     1      28.421  14.013  -1.148  1.00  0.00    -0.136 SA
BRANCH   6   7
HETATM    7  C6  UNL     1      27.128  13.251  -2.083  1.00  0.00     0.169 C 
BRANCH   7   8
HETATM    8  C7  UNL     1      27.601  12.149  -2.902  1.00  0.00    -0.096 C 
HETATM    9  C8  UNL     1      28.029  11.231  -3.576  1.00  0.00    -0.101 C 
BRANCH   9  10
HETATM   10  C9  UNL     1      28.518  10.117  -4.384  1.00  0.00     0.133 C 
BRANCH  10  11
HETATM   11  C10 UNL     1      27.663   8.901  -4.068  1.00  0.00    -0.040 A 
HETATM   12  C11 UNL     1      27.089   8.820  -2.823  1.00  0.00     0.058 A 
HETATM   13  S2  UNL     1      26.240   7.326  -2.920  1.00  0.00    -0.104 SA
HETATM   14  C12 UNL     1      26.639   6.868  -4.512  1.00  0.00     0.009 A 
HETATM   15  C17 UNL     1      27.420   7.889  -4.921  1.00  0.00     0.024 A 
BRANCH  14  16
HETATM   16  C13 UNL     1      26.168   5.628  -5.130  1.00  0.00     0.282 C 
BRANCH  16  17
HETATM   17  N1  UNL     1      26.649   4.416  -4.557  1.00  0.00    -0.074 N 
HETATM   18  C14 UNL     1      25.838   4.010  -3.453  1.00  0.00     0.272 C 
HETATM   19  C15 UNL     1      28.062   4.450  -4.242  1.00  0.00     0.272 C 
HETATM   20  C16 UNL     1      26.509   3.383  -5.596  1.00  0.00     0.272 C 
ENDBRANCH  16  17
ENDBRANCH  14  16
ENDBRANCH  10  11
ENDBRANCH   9  10
ENDBRANCH   7   8
ENDBRANCH   6   7
ENDBRANCH   3   6
TORSDOF 7
ENDMDL
MODEL 3
REMARK VINA RESULT: -7.238611340      2.991      9.464
REMARK  7 active torsions:
REMARK  status: ('A' for Active; 'I' for Inactive)
REMARK    1  A    between atoms: C3_3  and  S1_6 
REMARK    2  A    between atoms: S1_6  and  C6_7 
REMARK    3  A    between atoms: C6_7  and  C7_8 
REMARK    4  A    between atoms: C8_9  and  C9_10 
REMARK    5  A    between atoms: C9_10  and  C10_11 
REMARK    6  A    between atoms: C12_14  and  C13_15 
REMARK    7  A    between atoms: C13_15  and  N1_16 
ROOT
HETATM    1  C1  UNL     1      29.907   3.837  -4.614  1.00  0.00     0.098 C 
HETATM    2  C2  UNL     1      28.706   3.687  -4.412  1.00  0.00    -0.167 C 
HETATM    3  C3  UNL     1      27.290   3.469  -4.159  1.00  0.00     0.052 C 
HETATM    4  C4  UNL     1      26.656   2.955  -5.447  1.00  0.00     0.039 C 
HETATM    5  C5  UNL     1      27.092   2.351  -3.136  1.00  0.00     0.039 C 
ENDROOT
BRANCH   3   6
HETATM    6  S1  UNL     1      26.459   4.949  -3.600  1.00  0.00    -0.136 SA
BRANCH   6   7
HETATM    7  C6  UNL     1      26.063   6.060  -4.917  1.00  0.00     0.169 C 
BRANCH   7   8
HETATM    8  C7  UNL     1      26.893   7.252  -4.915  1.00  0.00    -0.096 C 
HETATM    9  C8  UNL     1      27.593   8.247  -4.880  1.00  0.00    -0.101 C 
BRANCH   9  10
HETATM   10  C9  UNL     1      28.440   9.437  -4.864  1.00  0.00     0.133 C 
BRANCH  10  11
HETATM   11  C10 UNL     1      28.014  10.297  -3.686  1.00  0.00    -0.040 A 
HETATM   12  C11 UNL     1      27.776   9.677  -2.485  1.00  0.00     0.058 A 
HETATM   13  S2  UNL     1      27.337  11.003  -1.480  1.00  0.00    -0.104 SA
HETATM   14  C12 UNL     1      27.468  12.276  -2.606  1.00  0.00     0.009 A 
HETATM   15  C17 UNL     1      27.850  11.632  -3.728  1.00  0.00     0.024 A 
BRANCH  14  16
HETATM   16  C13 UNL     1      27.192  13.673  -2.270  1.00  0.00     0.282 C 
BRANCH  16  17
HETATM   17  N1  UNL     1      28.327  14.509  -2.070  1.00  0.00    -0.074 N 
HETATM   18  C14 UNL     1      29.369  14.194  -2.995  1.00  0.00     0.272 C 
HETATM   19  C15 UNL     1      28.779  14.545  -0.694  1.00  0.00     0.272 C 
HETATM   20  C16 UNL     1      27.888  15.882  -2.369  1.00  0.00     0.272 C 
ENDBRANCH  16  17
ENDBRANCH  14  16
ENDBRANCH  10  11
ENDBRANCH   9  10
ENDBRANCH   7   8
ENDBRANCH   6   7
ENDBRANCH   3   6
TORSDOF 7
ENDMDL
MODEL 4
REMARK VINA RESULT: -7.136664572      5.174      7.711
REMARK  7 active torsions:
REMARK  status: ('A' for Active; 'I' for Inactive)
REMARK    1  A    between atoms: C3_3  and  S1_6 
REMARK    2  A    between atoms: S1_6  and  C6_7 
REMARK    3  A    between atoms: C6_7  and  C7_8 
REMARK    4  A    between atoms: C8_9  and  C9_10 
REMARK    5  A    between atoms: C9_10  and  C10_11 
REMARK    6  A    between atoms: C12_14  and  C13_15 
REMARK    7  A    between atoms: C13_15  and  N1_16 
ROOT
HETATM    1  C1  UNL     1      25.772   8.385  -2.277  1.00  0.00     0.098 C 
HETATM    2  C2  UNL     1      26.250   7.883  -3.290  1.00  0.00    -0.167 C 
HETATM    3  C3  UNL     1      26.835   7.326  -4.500  1.00  0.00     0.052 C 
HETATM    4  C4  UNL     1      25.834   7.512  -5.634  1.00  0.00     0.039 C 
HETATM    5  C5  UNL     1      28.071   8.122  -4.916  1.00  0.00     0.039 C 
ENDROOT
BRANCH   3   6
HETATM    6  S1  UNL     1      27.264   5.600  -4.320  1.00  0.00    -0.136 SA
BRANCH   6   7
HETATM    7  C6  UNL     1      26.464   4.828  -2.945  1.00  0.00     0.169 C 
BRANCH   7   8
HETATM    8  C7  UNL     1      25.284   4.076  -3.331  1.00  0.00    -0.096 C 
HETATM    9  C8  UNL     1      24.310   3.417  -3.645  1.00  0.00    -0.101 C 
BRANCH   9  10
HETATM   10  C9  UNL     1      23.125   2.647  -4.016  1.00  0.00     0.133 C 
BRANCH  10  11
HETATM   11  C10 UNL     1      23.592   1.376  -4.704  1.00  0.00    -0.040 A 
HETATM   12  C11 UNL     1      22.691   0.693  -5.482  1.00  0.00     0.058 A 
HETATM   13  S2  UNL     1      23.635  -0.633  -6.039  1.00  0.00    -0.104 SA
HETATM   14  C12 UNL     1      25.116  -0.277  -5.275  1.00  0.00     0.009 A 
HETATM   15  C17 UNL     1      24.832   0.862  -4.610  1.00  0.00     0.024 A 
BRANCH  14  16
HETATM   16  C13 UNL     1      26.309  -1.114  -5.411  1.00  0.00     0.282 C 
BRANCH  16  17
HETATM   17  N1  UNL     1      27.364  -0.583  -6.205  1.00  0.00    -0.074 N 
HETATM   18  C14 UNL     1      28.374   0.014  -5.390  1.00  0.00     0.272 C 
HETATM   19  C15 UNL     1      26.903   0.288  -7.267  1.00  0.00     0.272 C 
HETATM   20  C16 UNL     1      27.986  -1.730  -6.888  1.00  0.00     0.272 C 
ENDBRANCH  16  17
ENDBRANCH  14  16
ENDBRANCH  10  11
ENDBRANCH   9  10
ENDBRANCH   7   8
ENDBRANCH   6   7
ENDBRANCH   3   6
TORSDOF 7
ENDMDL
MODEL 5
REMARK VINA RESULT: -7.053204376      2.996      9.742
REMARK  7 active torsions:
REMARK  status: ('A' for Active; 'I' for Inactive)
REMARK    1  A    between atoms: C3_3  and  S1_6 
REMARK    2  A    between atoms: S1_6  and  C6_7 
REMARK    3  A    between atoms: C6_7  and  C7_8 
REMARK    4  A    between atoms: C8_9  and  C9_10 
REMARK    5  A    between atoms: C9_10  and  C10_11 
REMARK    6  A    between atoms: C12_14  and  C13_15 
REMARK    7  A    between atoms: C13_15  and  N1_16 
ROOT
HETATM    1  C1  UNL     1      23.547   2.776  -3.462  1.00  0.00     0.098 C 
HETATM    2  C2  UNL     1      24.703   3.106  -3.706  1.00  0.00    -0.167 C 
HETATM    3  C3  UNL     1      26.075   3.470  -4.028  1.00  0.00     0.052 C 
HETATM    4  C4  UNL     1      27.002   2.560  -3.232  1.00  0.00     0.039 C 
HETATM    5  C5  UNL     1      26.379   3.174  -5.496  1.00  0.00     0.039 C 
ENDROOT
BRANCH   3   6
HETATM    6  S1  UNL     1      26.427   5.186  -3.675  1.00  0.00    -0.136 SA
BRANCH   6   7
HETATM    7  C6  UNL     1      26.188   6.243  -5.073  1.00  0.00     0.169 C 
BRANCH   7   8
HETATM    8  C7  UNL     1      26.991   7.451  -5.007  1.00  0.00    -0.096 C 
HETATM    9  C8  UNL     1      27.688   8.449  -4.971  1.00  0.00    -0.101 C 
BRANCH   9  10
HETATM   10  C9  UNL     1      28.502   9.661  -4.926  1.00  0.00     0.133 C 
BRANCH  10  11
HETATM   11  C10 UNL     1      28.065  10.470  -3.716  1.00  0.00    -0.040 A 
HETATM   12  C11 UNL     1      27.872   9.807  -2.530  1.00  0.00     0.058 A 
HETATM   13  S2  UNL     1      27.401  11.087  -1.480  1.00  0.00    -0.104 SA
HETATM   14  C12 UNL     1      27.465  12.395  -2.569  1.00  0.00     0.009 A 
HETATM   15  C17 UNL     1      27.851  11.799  -3.716  1.00  0.00     0.024 A 
BRANCH  14  16
HETATM   16  C13 UNL     1      27.143  13.771  -2.188  1.00  0.00     0.282 C 
BRANCH  16  17
HETATM   17  N1  UNL     1      28.248  14.653  -2.021  1.00  0.00    -0.074 N 
HETATM   18  C14 UNL     1      28.711  14.650  -0.669  1.00  0.00     0.272 C 
HETATM   19  C15 UNL     1      28.003  15.986  -2.535  1.00  0.00     0.272 C 
HETATM   20  C16 UNL     1      29.338  14.113  -2.850  1.00  0.00     0.272 C 
ENDBRANCH  16  17
ENDBRANCH  14  16
ENDBRANCH  10  11
ENDBRANCH   9  10
ENDBRANCH   7   8
ENDBRANCH   6   7
ENDBRANCH   3   6
TORSDOF 7
ENDMDL
