MODEL 1
REMARK VINA RESULT: -6.429868815      0.000      0.000
REMARK  6 active torsions:
REMARK  status: ('A' for Active; 'I' for Inactive)
REMARK    1  A    between atoms: C2_2  and  C4_4 
REMARK    2  A    between atoms: N1_9  and  C9_10 
REMARK    3  A    between atoms: C9_10  and  C10_11 
REMARK    4  A    between atoms: C10_11  and  O1_12 
REMARK    5  A    between atoms: C10_11  and  C11_14 
REMARK    6  A    between atoms: C11_14  and  N2_15 
ROOT
HETATM    1  C4  UNL     1       7.435  -2.961   5.973  1.00  0.00     0.092 C 
HETATM    2  C5  UNL     1       5.979  -2.906   5.750  1.00  0.00     0.037 C 
HETATM    3  C6  UNL     1       5.367  -3.991   4.954  1.00  0.00    -0.008 C 
HETATM    4  C7  UNL     1       6.272  -4.819   4.143  1.00  0.00     0.056 C 
HETATM    5  C8  UNL     1       7.722  -4.431   4.116  1.00  0.00     0.064 C 
HETATM    6  N1  UNL     1       8.168  -4.031   5.375  1.00  0.00    -0.366 N 
HETATM    7  C17 UNL     1       4.193  -3.488   4.097  1.00  0.00     0.151 C 
HETATM    8  S1  UNL     1       3.291  -4.986   4.392  1.00  0.00     0.146 S 
HETATM    9  O2  UNL     1       1.870  -4.740   4.781  1.00  0.00    -0.228 OA
HETATM   10  O3  UNL     1       3.541  -6.086   3.438  1.00  0.00    -0.228 OA
HETATM   11  C18 UNL     1       4.413  -4.898   5.752  1.00  0.00     0.151 C 
ENDROOT
BRANCH   6  12
HETATM   12  C9  UNL     1       9.547  -3.877   5.599  1.00  0.00     0.100 C 
BRANCH  12  13
HETATM   13  C10 UNL     1      10.479  -4.521   4.562  1.00  0.00     0.195 C 
BRANCH  13  14
HETATM   14  O1  UNL     1      11.542  -3.632   4.397  1.00  0.00    -0.385 OA
ATOM     15  H1  UNL     1      12.332  -4.161   4.415  1.00  0.00     0.210 HD
ENDBRANCH  13  14
BRANCH  13  16
HETATM   16  C11 UNL     1      11.075  -5.722   5.252  1.00  0.00     0.099 C 
BRANCH  16  17
HETATM   17  N2  UNL     1      10.878  -6.969   4.674  1.00  0.00    -0.371 N 
HETATM   18  C12 UNL     1       9.592  -7.530   4.902  1.00  0.00     0.127 C 
HETATM   19  C13 UNL     1       9.185  -8.526   3.831  1.00  0.00     0.021 C 
HETATM   20  C14 UNL     1      10.197  -9.648   3.921  1.00  0.00     0.007 C 
HETATM   21  C15 UNL     1      11.535  -9.086   3.605  1.00  0.00     0.044 C 
HETATM   22  C16 UNL     1      11.910  -7.822   4.318  1.00  0.00     0.063 C 
ENDBRANCH  16  17
ENDBRANCH  13  16
ENDBRANCH  12  13
ENDBRANCH   6  12
BRANCH   1  23
HETATM   23  C2  UNL     1       7.827  -2.710   7.417  1.00  0.00     0.001 C 
HETATM   24  C1  UNL     1       7.387  -1.294   7.837  1.00  0.00     0.011 C 
HETATM   25  C3  UNL     1       7.141  -3.624   8.397  1.00  0.00     0.011 C 
ENDBRANCH   1  23
TORSDOF 6
ENDMDL
MODEL 2
REMARK VINA RESULT: -6.229402755      2.019      3.217
REMARK  6 active torsions:
REMARK  status: ('A' for Active; 'I' for Inactive)
REMARK    1  A    between atoms: C2_2  and  C4_4 
REMARK    2  A    between atoms: N1_9  and  C9_10 
REMARK    3  A    between atoms: C9_10  and  C10_11 
REMARK    4  A    between atoms: C10_11  and  O1_12 
REMARK    5  A    between atoms: C10_11  and  C11_14 
REMARK    6  A    between atoms: C11_14  and  N2_15 
ROOT
HETATM    1  C4  UNL     1       6.892  -3.013   5.577  1.00  0.00     0.092 C 
HETATM    2  C5  UNL     1       5.426  -2.897   5.672  1.00  0.00     0.037 C 
HETATM    3  C6  UNL     1       4.613  -4.004   5.126  1.00  0.00    -0.008 C 
HETATM    4  C7  UNL     1       5.286  -4.940   4.212  1.00  0.00     0.056 C 
HETATM    5  C8  UNL     1       6.707  -4.633   3.836  1.00  0.00     0.064 C 
HETATM    6  N1  UNL     1       7.435  -4.164   4.928  1.00  0.00    -0.366 N 
HETATM    7  C17 UNL     1       3.298  -3.505   4.506  1.00  0.00     0.151 C 
HETATM    8  S1  UNL     1       2.431  -4.925   5.119  1.00  0.00     0.146 S 
HETATM    9  O2  UNL     1       1.140  -4.574   5.786  1.00  0.00    -0.228 OA
HETATM   10  O3  UNL     1       2.423  -6.107   4.232  1.00  0.00    -0.228 OA
HETATM   11  C18 UNL     1       3.829  -4.795   6.188  1.00  0.00     0.151 C 
ENDROOT
BRANCH   6  12
HETATM   12  C9  UNL     1       8.834  -4.068   4.832  1.00  0.00     0.100 C 
BRANCH  12  13
HETATM   13  C10 UNL     1       9.627  -5.333   5.190  1.00  0.00     0.195 C 
BRANCH  13  14
HETATM   14  O1  UNL     1       8.981  -6.389   4.547  1.00  0.00    -0.385 OA
ATOM     15  H1  UNL     1       8.799  -7.035   5.220  1.00  0.00     0.210 HD
ENDBRANCH  13  14
BRANCH  13  16
HETATM   16  C11 UNL     1      10.950  -5.190   4.480  1.00  0.00     0.099 C 
BRANCH  16  17
HETATM   17  N2  UNL     1      11.842  -4.235   4.951  1.00  0.00    -0.371 N 
HETATM   18  C12 UNL     1      11.693  -2.949   4.364  1.00  0.00     0.127 C 
HETATM   19  C13 UNL     1      12.203  -1.832   5.257  1.00  0.00     0.021 C 
HETATM   20  C14 UNL     1      13.685  -2.094   5.419  1.00  0.00     0.007 C 
HETATM   21  C15 UNL     1      13.849  -3.401   6.104  1.00  0.00     0.044 C 
HETATM   22  C16 UNL     1      13.049  -4.544   5.554  1.00  0.00     0.063 C 
ENDBRANCH  16  17
ENDBRANCH  13  16
ENDBRANCH  12  13
ENDBRANCH   6  12
BRANCH   1  23
HETATM   23  C2  UNL     1       7.603  -2.674   6.873  1.00  0.00     0.001 C 
HETATM   24  C1  UNL     1       7.148  -1.288   7.370  1.00  0.00     0.011 C 
HETATM   25  C3  UNL     1       7.272  -3.608   8.006  1.00  0.00     0.011 C 
ENDBRANCH   1  23
TORSDOF 6
ENDMDL
MODEL 3
REMARK VINA RESULT: -6.228742661      1.942      3.234
REMARK  6 active torsions:
REMARK  status: ('A' for Active; 'I' for Inactive)
REMARK    1  A    between atoms: C2_2  and  C4_4 
REMARK    2  A    between atoms: N1_9  and  C9_10 
REMARK    3  A    between atoms: C9_10  and  C10_11 
REMARK    4  A    between atoms: C10_11  and  O1_12 
REMARK    5  A    between atoms: C10_11  and  C11_14 
REMARK    6  A    between atoms: C11_14  and  N2_15 
ROOT
HETATM    1  C4  UNL     1       7.120  -3.088   5.680  1.00  0.00     0.092 C 
HETATM    2  C5  UNL     1       5.652  -2.971   5.739  1.00  0.00     0.037 C 
HETATM    3  C6  UNL     1       4.853  -4.044   5.109  1.00  0.00    -0.008 C 
HETATM    4  C7  UNL     1       5.549  -4.931   4.165  1.00  0.00     0.056 C 
HETATM    5  C8  UNL     1       6.982  -4.610   3.848  1.00  0.00     0.064 C 
HETATM    6  N1  UNL     1       7.679  -4.205   4.985  1.00  0.00    -0.366 N 
HETATM    7  C17 UNL     1       3.558  -3.506   4.479  1.00  0.00     0.151 C 
HETATM    8  S1  UNL     1       2.669  -4.953   4.988  1.00  0.00     0.146 S 
HETATM    9  O2  UNL     1       1.360  -4.633   5.635  1.00  0.00    -0.228 OA
HETATM   10  O3  UNL     1       2.683  -6.084   4.037  1.00  0.00    -0.228 OA
HETATM   11  C18 UNL     1       4.035  -4.887   6.103  1.00  0.00     0.151 C 
ENDROOT
BRANCH   6  12
HETATM   12  C9  UNL     1       9.080  -4.110   4.936  1.00  0.00     0.100 C 
BRANCH  12  13
HETATM   13  C10 UNL     1       9.859  -5.393   5.260  1.00  0.00     0.195 C 
BRANCH  13  14
HETATM   14  O1  UNL     1       9.146  -6.437   4.669  1.00  0.00    -0.385 OA
ATOM     15  H1  UNL     1       9.664  -7.221   4.810  1.00  0.00     0.210 HD
ENDBRANCH  13  14
BRANCH  13  16
HETATM   16  C11 UNL     1      11.139  -5.294   4.469  1.00  0.00     0.099 C 
BRANCH  16  17
HETATM   17  N2  UNL     1      12.039  -4.293   4.811  1.00  0.00    -0.371 N 
HETATM   18  C12 UNL     1      12.940  -4.640   5.854  1.00  0.00     0.127 C 
HETATM   19  C13 UNL     1      14.233  -3.846   5.805  1.00  0.00     0.021 C 
HETATM   20  C14 UNL     1      13.825  -2.403   6.012  1.00  0.00     0.007 C 
HETATM   21  C15 UNL     1      12.947  -2.007   4.882  1.00  0.00     0.044 C 
HETATM   22  C16 UNL     1      11.831  -2.949   4.546  1.00  0.00     0.063 C 
ENDBRANCH  16  17
ENDBRANCH  13  16
ENDBRANCH  12  13
ENDBRANCH   6  12
BRANCH   1  23
HETATM   23  C2  UNL     1       7.794  -2.824   7.014  1.00  0.00     0.001 C 
HETATM   24  C1  UNL     1       7.324  -1.468   7.575  1.00  0.00     0.011 C 
HETATM   25  C3  UNL     1       7.431  -3.821   8.082  1.00  0.00     0.011 C 
ENDBRANCH   1  23
TORSDOF 6
ENDMDL
MODEL 4
REMARK VINA RESULT: -6.074828141      3.005      4.589
REMARK  6 active torsions:
REMARK  status: ('A' for Active; 'I' for Inactive)
REMARK    1  A    between atoms: C2_2  and  C4_4 
REMARK    2  A    between atoms: N1_9  and  C9_10 
REMARK    3  A    between atoms: C9_10  and  C10_11 
REMARK    4  A    between atoms: C10_11  and  O1_12 
REMARK    5  A    between atoms: C10_11  and  C11_14 
REMARK    6  A    between atoms: C11_14  and  N2_15 
ROOT
HETATM    1  C4  UNL     1       5.199  -4.947   4.382  1.00  0.00     0.092 C 
HETATM    2  C5  UNL     1       3.807  -4.473   4.479  1.00  0.00     0.037 C 
HETATM    3  C6  UNL     1       3.584  -3.014   4.564  1.00  0.00    -0.008 C 
HETATM    4  C7  UNL     1       4.742  -2.180   4.919  1.00  0.00     0.056 C 
HETATM    5  C8  UNL     1       6.022  -2.887   5.260  1.00  0.00     0.064 C 
HETATM    6  N1  UNL     1       6.245  -3.975   4.418  1.00  0.00    -0.366 N 
HETATM    7  C17 UNL     1       2.381  -2.664   5.455  1.00  0.00     0.151 C 
HETATM    8  S1  UNL     1       1.919  -1.340   4.369  1.00  0.00     0.146 S 
HETATM    9  O2  UNL     1       0.462  -1.342   4.039  1.00  0.00    -0.228 OA
HETATM   10  O3  UNL     1       2.537  -0.028   4.655  1.00  0.00    -0.228 OA
HETATM   11  C18 UNL     1       2.870  -2.413   3.340  1.00  0.00     0.151 C 
ENDROOT
BRANCH   6  12
HETATM   12  C9  UNL     1       7.505  -4.598   4.419  1.00  0.00     0.100 C 
BRANCH  12  13
HETATM   13  C10 UNL     1       8.668  -3.777   4.995  1.00  0.00     0.195 C 
BRANCH  13  14
HETATM   14  O1  UNL     1       8.549  -3.861   6.382  1.00  0.00    -0.385 OA
ATOM     15  H1  UNL     1       8.691  -2.981   6.712  1.00  0.00     0.210 HD
ENDBRANCH  13  14
BRANCH  13  16
HETATM   16  C11 UNL     1       9.913  -4.558   4.658  1.00  0.00     0.099 C 
BRANCH  16  17
HETATM   17  N2  UNL     1      11.143  -3.978   4.943  1.00  0.00    -0.371 N 
HETATM   18  C12 UNL     1      11.312  -2.668   4.420  1.00  0.00     0.127 C 
HETATM   19  C13 UNL     1      12.325  -1.849   5.201  1.00  0.00     0.021 C 
HETATM   20  C14 UNL     1      13.641  -2.580   5.040  1.00  0.00     0.007 C 
HETATM   21  C15 UNL     1      13.497  -3.924   5.655  1.00  0.00     0.044 C 
HETATM   22  C16 UNL     1      12.276  -4.704   5.271  1.00  0.00     0.063 C 
ENDBRANCH  16  17
ENDBRANCH  13  16
ENDBRANCH  12  13
ENDBRANCH   6  12
BRANCH   1  23
HETATM   23  C2  UNL     1       5.400  -5.992   3.301  1.00  0.00     0.001 C 
HETATM   24  C1  UNL     1       4.846  -7.348   3.779  1.00  0.00     0.011 C 
HETATM   25  C3  UNL     1       4.644  -5.702   2.032  1.00  0.00     0.011 C 
ENDBRANCH   1  23
TORSDOF 6
ENDMDL
MODEL 5
REMARK VINA RESULT: -5.874484355      2.592      4.086
REMARK  6 active torsions:
REMARK  status: ('A' for Active; 'I' for Inactive)
REMARK    1  A    between atoms: C2_2  and  C4_4 
REMARK    2  A    between atoms: N1_9  and  C9_10 
REMARK    3  A    between atoms: C9_10  and  C10_11 
REMARK    4  A    between atoms: C10_11  and  O1_12 
REMARK    5  A    between atoms: C10_11  and  C11_14 
REMARK    6  A    between atoms: C11_14  and  N2_15 
ROOT
HETATM    1  C4  UNL     1       5.091  -4.696   4.515  1.00  0.00     0.092 C 
HETATM    2  C5  UNL     1       3.658  -4.362   4.593  1.00  0.00     0.037 C 
HETATM    3  C6  UNL     1       3.287  -2.931   4.602  1.00  0.00    -0.008 C 
HETATM    4  C7  UNL     1       4.354  -1.965   4.907  1.00  0.00     0.056 C 
HETATM    5  C8  UNL     1       5.699  -2.520   5.279  1.00  0.00     0.064 C 
HETATM    6  N1  UNL     1       6.033  -3.622   4.494  1.00  0.00    -0.366 N 
HETATM    7  C17 UNL     1       2.054  -2.659   5.479  1.00  0.00     0.151 C 
HETATM    8  S1  UNL     1       1.460  -1.448   4.328  1.00  0.00     0.146 S 
HETATM    9  O2  UNL     1       0.010  -1.616   4.006  1.00  0.00    -0.228 OA
HETATM   10  O3  UNL     1       1.940  -0.067   4.541  1.00  0.00    -0.228 OA
HETATM   11  C18 UNL     1       2.516  -2.471   3.352  1.00  0.00     0.151 C 
ENDROOT
BRANCH   6  12
HETATM   12  C9  UNL     1       7.349  -4.112   4.521  1.00  0.00     0.100 C 
BRANCH  12  13
HETATM   13  C10 UNL     1       8.376  -3.258   5.278  1.00  0.00     0.195 C 
BRANCH  13  14
HETATM   14  O1  UNL     1       8.650  -3.943   6.462  1.00  0.00    -0.385 OA
ATOM     15  H1  UNL     1       9.057  -3.311   7.043  1.00  0.00     0.210 HD
ENDBRANCH  13  14
BRANCH  13  16
HETATM   16  C11 UNL     1       9.646  -3.349   4.469  1.00  0.00     0.099 C 
BRANCH  16  17
HETATM   17  N2  UNL     1      10.539  -4.369   4.771  1.00  0.00    -0.371 N 
HETATM   18  C12 UNL     1      11.900  -3.964   4.822  1.00  0.00     0.127 C 
HETATM   19  C13 UNL     1      12.749  -4.865   5.702  1.00  0.00     0.021 C 
HETATM   20  C14 UNL     1      12.700  -6.228   5.046  1.00  0.00     0.007 C 
HETATM   21  C15 UNL     1      11.290  -6.694   5.060  1.00  0.00     0.044 C 
HETATM   22  C16 UNL     1      10.261  -5.713   4.583  1.00  0.00     0.063 C 
ENDBRANCH  16  17
ENDBRANCH  13  16
ENDBRANCH  12  13
ENDBRANCH   6  12
BRANCH   1  23
HETATM   23  C2  UNL     1       5.398  -5.772   3.489  1.00  0.00     0.001 C 
HETATM   24  C1  UNL     1       4.951  -7.145   4.025  1.00  0.00     0.011 C 
HETATM   25  C3  UNL     1       4.643  -5.607   2.197  1.00  0.00     0.011 C 
ENDBRANCH   1  23
TORSDOF 6
ENDMDL
