MODEL 1
REMARK VINA RESULT: -6.763812786      0.000      0.000
REMARK  5 active torsions:
REMARK  status: ('A' for Active; 'I' for Inactive)
REMARK    1  A    between atoms: C2_2  and  O1_3 
REMARK    2  A    between atoms: O1_3  and  C3_4 
REMARK       I    between atoms: C3_4  and  N1_6 
REMARK    3  A    between atoms: C9_13  and  N2_14 
REMARK       I    between atoms: N2_14  and  C10_16 
REMARK    4  A    between atoms: C10_16  and  C11_18 
REMARK    5  A    between atoms: C11_18  and  N3_19 
ROOT
HETATM    1  C3  UNL     1      11.550 -11.777   4.432  1.00  0.00     0.364 C 
HETATM    2  O2  UNL     1      10.456 -11.294   4.857  1.00  0.00    -0.238 OA
HETATM    3  N1  UNL     1      12.271 -11.182   3.371  1.00  0.00    -0.305 N 
HETATM    4  C4  UNL     1      13.515 -11.679   2.820  1.00  0.00     0.136 C 
HETATM    5  C5  UNL     1      14.087 -10.531   2.014  1.00  0.00     0.022 C 
HETATM    6  C6  UNL     1      14.916 -11.000   0.861  1.00  0.00     0.017 C 
HETATM    7  C7  UNL     1      14.107 -11.897  -0.014  1.00  0.00     0.075 C 
HETATM    8  S1  UNL     1      12.396 -11.279   0.259  1.00  0.00    -0.160 SA
HETATM    9  C8  UNL     1      12.792  -9.957   1.443  1.00  0.00     0.095 C 
HETATM   10  C9  UNL     1      11.899  -9.988   2.670  1.00  0.00     0.205 C 
ENDROOT
BRANCH  10  11
HETATM   11  N2  UNL     1      12.387  -8.868   3.492  1.00  0.00    -0.337 N 
HETATM   12  C10 UNL     1      11.519  -7.995   4.187  1.00  0.00     0.247 C 
HETATM   13  O3  UNL     1      10.284  -8.185   4.094  1.00  0.00    -0.272 OA
ATOM     14  H2  UNL     1      13.392  -8.717   3.563  1.00  0.00     0.164 HD
BRANCH  12  15
HETATM   15  C11 UNL     1      12.028  -6.875   5.012  1.00  0.00     0.374 C 
BRANCH  15  16
HETATM   16  N3  UNL     1      11.593  -5.583   4.606  1.00  0.00     0.097 N 
HETATM   17  C12 UNL     1      12.513  -4.611   5.139  1.00  0.00     0.273 C 
HETATM   18  C13 UNL     1      12.708  -3.394   4.301  1.00  0.00     0.030 C 
HETATM   19  C14 UNL     1      11.529  -2.482   4.220  1.00  0.00     0.002 C 
HETATM   20  C15 UNL     1      10.364  -2.912   5.086  1.00  0.00     0.002 C 
HETATM   21  C16 UNL     1       9.679  -4.150   4.532  1.00  0.00     0.030 C 
HETATM   22  C17 UNL     1      10.293  -5.339   5.218  1.00  0.00     0.273 C 
ENDBRANCH  15  16
ENDBRANCH  12  15
ENDBRANCH  10  11
BRANCH   1  23
HETATM   23  O1  UNL     1      11.995 -12.929   5.082  1.00  0.00    -0.304 OA
BRANCH  23  24
HETATM   24  C2  UNL     1      11.837 -14.236   4.584  1.00  0.00     0.176 C 
HETATM   25  C1  UNL     1      10.434 -14.725   4.512  1.00  0.00     0.034 C 
ENDBRANCH  23  24
ENDBRANCH   1  23
TORSDOF 5
ENDMDL
MODEL 2
REMARK VINA RESULT: -6.584072768      1.427      2.064
REMARK  5 active torsions:
REMARK  status: ('A' for Active; 'I' for Inactive)
REMARK    1  A    between atoms: C2_2  and  O1_3 
REMARK    2  A    between atoms: O1_3  and  C3_4 
REMARK       I    between atoms: C3_4  and  N1_6 
REMARK    3  A    between atoms: C9_13  and  N2_14 
REMARK       I    between atoms: N2_14  and  C10_16 
REMARK    4  A    between atoms: C10_16  and  C11_18 
REMARK    5  A    between atoms: C11_18  and  N3_19 
ROOT
HETATM    1  C3  UNL     1      12.970 -12.271   3.737  1.00  0.00     0.364 C 
HETATM    2  O2  UNL     1      12.407 -12.248   4.875  1.00  0.00    -0.238 OA
HETATM    3  N1  UNL     1      12.564 -11.422   2.681  1.00  0.00    -0.305 N 
HETATM    4  C4  UNL     1      13.142 -11.399   1.354  1.00  0.00     0.136 C 
HETATM    5  C5  UNL     1      12.672 -10.100   0.732  1.00  0.00     0.022 C 
HETATM    6  C6  UNL     1      12.547 -10.192  -0.756  1.00  0.00     0.017 C 
HETATM    7  C7  UNL     1      11.624 -11.307  -1.119  1.00  0.00     0.075 C 
HETATM    8  S1  UNL     1      10.508 -11.388   0.340  1.00  0.00    -0.160 SA
HETATM    9  C8  UNL     1      11.260 -10.043   1.307  1.00  0.00     0.095 C 
HETATM   10  C9  UNL     1      11.522 -10.440   2.749  1.00  0.00     0.205 C 
ENDROOT
BRANCH  10  11
HETATM   11  N2  UNL     1      12.135  -9.240   3.341  1.00  0.00    -0.337 N 
HETATM   12  C10 UNL     1      11.428  -8.360   4.192  1.00  0.00     0.247 C 
HETATM   13  O3  UNL     1      10.228  -8.616   4.448  1.00  0.00    -0.272 OA
ATOM     14  H2  UNL     1      13.111  -9.035   3.128  1.00  0.00     0.164 HD
BRANCH  12  15
HETATM   15  C11 UNL     1      12.062  -7.159   4.781  1.00  0.00     0.374 C 
BRANCH  15  16
HETATM   16  N3  UNL     1      11.389  -5.933   4.519  1.00  0.00     0.097 N 
HETATM   17  C12 UNL     1      12.157  -4.864   5.105  1.00  0.00     0.273 C 
HETATM   18  C13 UNL     1      12.091  -3.563   4.380  1.00  0.00     0.030 C 
HETATM   19  C14 UNL     1      10.769  -2.871   4.435  1.00  0.00     0.002 C 
HETATM   20  C15 UNL     1       9.748  -3.574   5.303  1.00  0.00     0.002 C 
HETATM   21  C16 UNL     1       9.256  -4.859   4.661  1.00  0.00     0.030 C 
HETATM   22  C17 UNL     1      10.103  -5.977   5.205  1.00  0.00     0.273 C 
ENDBRANCH  15  16
ENDBRANCH  12  15
ENDBRANCH  10  11
BRANCH   1  23
HETATM   23  O1  UNL     1      14.015 -13.185   3.598  1.00  0.00    -0.304 OA
BRANCH  23  24
HETATM   24  C2  UNL     1      15.295 -13.024   4.160  1.00  0.00     0.176 C 
HETATM   25  C1  UNL     1      16.074 -11.864   3.648  1.00  0.00     0.034 C 
ENDBRANCH  23  24
ENDBRANCH   1  23
TORSDOF 5
ENDMDL
MODEL 3
REMARK VINA RESULT: -6.312089147      6.310      8.750
REMARK  5 active torsions:
REMARK  status: ('A' for Active; 'I' for Inactive)
REMARK    1  A    between atoms: C2_2  and  O1_3 
REMARK    2  A    between atoms: O1_3  and  C3_4 
REMARK       I    between atoms: C3_4  and  N1_6 
REMARK    3  A    between atoms: C9_13  and  N2_14 
REMARK       I    between atoms: N2_14  and  C10_16 
REMARK    4  A    between atoms: C10_16  and  C11_18 
REMARK    5  A    between atoms: C11_18  and  N3_19 
ROOT
HETATM    1  C3  UNL     1       5.406  -6.373   3.005  1.00  0.00     0.364 C 
HETATM    2  O2  UNL     1       6.280  -7.223   3.358  1.00  0.00    -0.238 OA
HETATM    3  N1  UNL     1       5.272  -5.121   3.651  1.00  0.00    -0.305 N 
HETATM    4  C4  UNL     1       4.294  -4.107   3.319  1.00  0.00     0.136 C 
HETATM    5  C5  UNL     1       4.786  -2.838   3.984  1.00  0.00     0.022 C 
HETATM    6  C6  UNL     1       3.668  -1.920   4.362  1.00  0.00     0.017 C 
HETATM    7  C7  UNL     1       2.706  -2.634   5.252  1.00  0.00     0.075 C 
HETATM    8  S1  UNL     1       3.780  -3.873   6.085  1.00  0.00    -0.160 SA
HETATM    9  C8  UNL     1       5.347  -3.433   5.273  1.00  0.00     0.095 C 
HETATM   10  C9  UNL     1       6.083  -4.646   4.733  1.00  0.00     0.205 C 
ENDROOT
BRANCH  10  11
HETATM   11  N2  UNL     1       7.292  -4.080   4.113  1.00  0.00    -0.337 N 
HETATM   12  C10 UNL     1       8.453  -3.759   4.854  1.00  0.00     0.247 C 
HETATM   13  O3  UNL     1       8.445  -3.964   6.090  1.00  0.00    -0.272 OA
ATOM     14  H2  UNL     1       7.293  -3.913   3.107  1.00  0.00     0.164 HD
BRANCH  12  15
HETATM   15  C11 UNL     1       9.662  -3.193   4.213  1.00  0.00     0.374 C 
BRANCH  15  16
HETATM   16  N3  UNL     1      10.873  -3.386   4.935  1.00  0.00     0.097 N 
HETATM   17  C12 UNL     1      11.834  -2.421   4.467  1.00  0.00     0.273 C 
HETATM   18  C13 UNL     1      12.810  -1.949   5.489  1.00  0.00     0.030 C 
HETATM   19  C14 UNL     1      13.802  -2.970   5.941  1.00  0.00     0.002 C 
HETATM   20  C15 UNL     1      13.698  -4.288   5.205  1.00  0.00     0.002 C 
HETATM   21  C16 UNL     1      12.449  -5.056   5.603  1.00  0.00     0.030 C 
HETATM   22  C17 UNL     1      11.381  -4.711   4.602  1.00  0.00     0.273 C 
ENDBRANCH  15  16
ENDBRANCH  12  15
ENDBRANCH  10  11
BRANCH   1  23
HETATM   23  O1  UNL     1       4.591  -6.751   1.938  1.00  0.00    -0.304 OA
BRANCH  23  24
HETATM   24  C2  UNL     1       4.827  -6.408   0.593  1.00  0.00     0.176 C 
HETATM   25  C1  UNL     1       3.724  -5.667  -0.078  1.00  0.00     0.034 C 
ENDBRANCH  23  24
ENDBRANCH   1  23
TORSDOF 5
ENDMDL
MODEL 4
REMARK VINA RESULT: -6.280931370      1.165      1.303
REMARK  5 active torsions:
REMARK  status: ('A' for Active; 'I' for Inactive)
REMARK    1  A    between atoms: C2_2  and  O1_3 
REMARK    2  A    between atoms: O1_3  and  C3_4 
REMARK       I    between atoms: C3_4  and  N1_6 
REMARK    3  A    between atoms: C9_13  and  N2_14 
REMARK       I    between atoms: N2_14  and  C10_16 
REMARK    4  A    between atoms: C10_16  and  C11_18 
REMARK    5  A    between atoms: C11_18  and  N3_19 
ROOT
HETATM    1  C3  UNL     1      10.250 -12.185   3.901  1.00  0.00     0.364 C 
HETATM    2  O2  UNL     1       9.035 -11.822   3.958  1.00  0.00    -0.238 OA
HETATM    3  N1  UNL     1      11.236 -11.408   3.249  1.00  0.00    -0.305 N 
HETATM    4  C4  UNL     1      12.635 -11.759   3.127  1.00  0.00     0.136 C 
HETATM    5  C5  UNL     1      13.339 -10.479   2.724  1.00  0.00     0.022 C 
HETATM    6  C6  UNL     1      14.560 -10.735   1.899  1.00  0.00     0.017 C 
HETATM    7  C7  UNL     1      14.199 -11.532   0.692  1.00  0.00     0.075 C 
HETATM    8  S1  UNL     1      12.449 -11.043   0.403  1.00  0.00    -0.160 SA
HETATM    9  C8  UNL     1      12.277  -9.891   1.799  1.00  0.00     0.095 C 
HETATM   10  C9  UNL     1      11.018 -10.144   2.610  1.00  0.00     0.205 C 
ENDROOT
BRANCH  10  11
HETATM   11  N2  UNL     1      11.077  -9.134   3.679  1.00  0.00    -0.337 N 
HETATM   12  C10 UNL     1       9.961  -8.351   4.055  1.00  0.00     0.247 C 
HETATM   13  O3  UNL     1       8.880  -8.526   3.446  1.00  0.00    -0.272 OA
ATOM     14  H2  UNL     1      11.960  -8.993   4.170  1.00  0.00     0.164 HD
BRANCH  12  15
HETATM   15  C11 UNL     1      10.038  -7.341   5.135  1.00  0.00     0.374 C 
BRANCH  15  16
HETATM   16  N3  UNL     1      10.452  -6.045   4.721  1.00  0.00     0.097 N 
HETATM   17  C12 UNL     1      11.688  -5.731   5.390  1.00  0.00     0.273 C 
HETATM   18  C13 UNL     1      12.627  -4.867   4.620  1.00  0.00     0.030 C 
HETATM   19  C14 UNL     1      12.178  -3.456   4.426  1.00  0.00     0.002 C 
HETATM   20  C15 UNL     1      10.880  -3.126   5.132  1.00  0.00     0.002 C 
HETATM   21  C16 UNL     1       9.691  -3.792   4.461  1.00  0.00     0.030 C 
HETATM   22  C17 UNL     1       9.449  -5.091   5.179  1.00  0.00     0.273 C 
ENDBRANCH  15  16
ENDBRANCH  12  15
ENDBRANCH  10  11
BRANCH   1  23
HETATM   23  O1  UNL     1      10.549 -13.396   4.525  1.00  0.00    -0.304 OA
BRANCH  23  24
HETATM   24  C2  UNL     1      10.149 -14.659   4.047  1.00  0.00     0.176 C 
HETATM   25  C1  UNL     1      10.330 -14.873   2.585  1.00  0.00     0.034 C 
ENDBRANCH  23  24
ENDBRANCH   1  23
TORSDOF 5
ENDMDL
MODEL 5
REMARK VINA RESULT: -6.259017158      5.815      9.164
REMARK  5 active torsions:
REMARK  status: ('A' for Active; 'I' for Inactive)
REMARK    1  A    between atoms: C2_2  and  O1_3 
REMARK    2  A    between atoms: O1_3  and  C3_4 
REMARK       I    between atoms: C3_4  and  N1_6 
REMARK    3  A    between atoms: C9_13  and  N2_14 
REMARK       I    between atoms: N2_14  and  C10_16 
REMARK    4  A    between atoms: C10_16  and  C11_18 
REMARK    5  A    between atoms: C11_18  and  N3_19 
ROOT
HETATM    1  C3  UNL     1       4.791  -5.768   2.518  1.00  0.00     0.364 C 
HETATM    2  O2  UNL     1       5.490  -6.781   2.827  1.00  0.00    -0.238 OA
HETATM    3  N1  UNL     1       4.680  -4.644   3.370  1.00  0.00    -0.305 N 
HETATM    4  C4  UNL     1       3.893  -3.459   3.097  1.00  0.00     0.136 C 
HETATM    5  C5  UNL     1       4.394  -2.409   4.068  1.00  0.00     0.022 C 
HETATM    6  C6  UNL     1       3.332  -1.425   4.442  1.00  0.00     0.017 C 
HETATM    7  C7  UNL     1       2.154  -2.142   5.012  1.00  0.00     0.075 C 
HETATM    8  S1  UNL     1       2.921  -3.647   5.740  1.00  0.00    -0.160 SA
HETATM    9  C8  UNL     1       4.646  -3.295   5.285  1.00  0.00     0.095 C 
HETATM   10  C9  UNL     1       5.331  -4.485   4.637  1.00  0.00     0.205 C 
ENDROOT
BRANCH  10  11
HETATM   11  N2  UNL     1       6.686  -3.995   4.337  1.00  0.00    -0.337 N 
HETATM   12  C10 UNL     1       7.638  -3.713   5.343  1.00  0.00     0.247 C 
HETATM   13  O3  UNL     1       7.308  -3.888   6.540  1.00  0.00    -0.272 OA
ATOM     14  H2  UNL     1       6.949  -3.852   3.362  1.00  0.00     0.164 HD
BRANCH  12  15
HETATM   15  C11 UNL     1       8.998  -3.223   5.023  1.00  0.00     0.374 C 
BRANCH  15  16
HETATM   16  N3  UNL     1      10.050  -4.139   5.303  1.00  0.00     0.097 N 
HETATM   17  C12 UNL     1      11.247  -3.659   4.662  1.00  0.00     0.273 C 
HETATM   18  C13 UNL     1      12.519  -3.978   5.370  1.00  0.00     0.030 C 
HETATM   19  C14 UNL     1      12.899  -5.422   5.377  1.00  0.00     0.002 C 
HETATM   20  C15 UNL     1      11.964  -6.302   4.576  1.00  0.00     0.002 C 
HETATM   21  C16 UNL     1      10.618  -6.462   5.262  1.00  0.00     0.030 C 
HETATM   22  C17 UNL     1       9.703  -5.415   4.689  1.00  0.00     0.273 C 
ENDBRANCH  15  16
ENDBRANCH  12  15
ENDBRANCH  10  11
BRANCH   1  23
HETATM   23  O1  UNL     1       4.144  -5.834   1.284  1.00  0.00    -0.304 OA
BRANCH  23  24
HETATM   24  C2  UNL     1       4.466  -6.748   0.262  1.00  0.00     0.176 C 
HETATM   25  C1  UNL     1       5.303  -6.202  -0.841  1.00  0.00     0.034 C 
ENDBRANCH  23  24
ENDBRANCH   1  23
TORSDOF 5
ENDMDL
