MODEL 1
REMARK VINA RESULT: -6.387593658      0.000      0.000
REMARK  6 active torsions:
REMARK  status: ('A' for Active; 'I' for Inactive)
REMARK    1  A    between atoms: C2_2  and  C4_4 
REMARK    2  A    between atoms: C4_4  and  C5_5 
REMARK    3  A    between atoms: N1_7  and  C6_8 
REMARK    4  A    between atoms: N2_11  and  C9_12 
REMARK    5  A    between atoms: C16_22  and  C17_23 
REMARK    6  A    between atoms: C17_23  and  N3_24 
ROOT
HETATM    1  C5  UNL     1      10.692  -6.445   5.019  1.00  0.00     0.152 C 
HETATM    2  O1  UNL     1       9.313  -6.174   4.642  1.00  0.00    -0.297 OA
HETATM    3  N1  UNL     1       8.998  -4.986   5.059  1.00  0.00    -0.192 NA
HETATM    4  C15 UNL     1      10.144  -4.151   5.001  1.00  0.00     0.130 C 
HETATM    5  C16 UNL     1      11.293  -5.153   4.639  1.00  0.00     0.057 C 
ENDROOT
BRANCH   3   6
HETATM    6  C6  UNL     1       8.014  -4.391   4.134  1.00  0.00     0.089 C 
HETATM    7  C7  UNL     1       6.840  -5.288   3.890  1.00  0.00     0.052 C 
HETATM    8  C8  UNL     1       5.608  -4.372   3.862  1.00  0.00     0.274 C 
HETATM    9  N2  UNL     1       5.379  -4.010   5.242  1.00  0.00     0.094 N 
HETATM   10  C13 UNL     1       6.564  -3.530   5.884  1.00  0.00     0.274 C 
HETATM   11  C14 UNL     1       7.570  -3.098   4.829  1.00  0.00     0.052 C 
BRANCH   9  12
HETATM   12  C9  UNL     1       4.204  -3.242   5.479  1.00  0.00     0.237 C 
HETATM   13  C10 UNL     1       4.184  -2.108   4.489  1.00  0.00     0.051 C 
HETATM   14  C11 UNL     1       2.915  -1.336   4.676  1.00  0.00     0.142 C 
HETATM   15  S1  UNL     1       1.760  -2.636   5.074  1.00  0.00     0.146 S 
HETATM   16  O2  UNL     1       0.821  -2.928   3.962  1.00  0.00    -0.228 OA
HETATM   17  O3  UNL     1       1.098  -2.278   6.349  1.00  0.00    -0.228 OA
HETATM   18  C12 UNL     1       2.913  -4.002   5.298  1.00  0.00     0.176 C 
ENDBRANCH   9  12
ENDBRANCH   3   6
BRANCH   1  19
HETATM   19  C4  UNL     1      10.993  -7.657   4.197  1.00  0.00     0.038 C 
BRANCH  19  20
HETATM   20  C2  UNL     1      10.333  -8.945   4.433  1.00  0.00    -0.020 C 
HETATM   21  C1  UNL     1       9.310  -9.316   3.356  1.00  0.00     0.009 C 
HETATM   22  C3  UNL     1      11.485 -10.008   4.214  1.00  0.00     0.009 C 
ENDBRANCH  19  20
ENDBRANCH   1  19
BRANCH   5  23
HETATM   23  C17 UNL     1      12.513  -4.654   5.329  1.00  0.00     0.238 C 
BRANCH  23  24
HETATM   24  N3  UNL     1      12.964  -3.397   4.899  1.00  0.00    -0.079 N 
ATOM     25  H33 UNL     1      13.982  -3.390   4.833  1.00  0.00     0.274 HD
ATOM     26  H32 UNL     1      12.722  -3.252   3.918  1.00  0.00     0.274 HD
ATOM     27  H31 UNL     1      12.643  -2.609   5.462  1.00  0.00     0.274 HD
ENDBRANCH  23  24
ENDBRANCH   5  23
TORSDOF 6
ENDMDL
MODEL 2
REMARK VINA RESULT: -6.347886100      1.043      1.050
REMARK  6 active torsions:
REMARK  status: ('A' for Active; 'I' for Inactive)
REMARK    1  A    between atoms: C2_2  and  C4_4 
REMARK    2  A    between atoms: C4_4  and  C5_5 
REMARK    3  A    between atoms: N1_7  and  C6_8 
REMARK    4  A    between atoms: N2_11  and  C9_12 
REMARK    5  A    between atoms: C16_22  and  C17_23 
REMARK    6  A    between atoms: C17_23  and  N3_24 
ROOT
HETATM    1  C5  UNL     1      10.664  -5.703   5.119  1.00  0.00     0.152 C 
HETATM    2  O1  UNL     1       9.241  -5.466   4.931  1.00  0.00    -0.297 OA
HETATM    3  N1  UNL     1       8.968  -4.262   5.332  1.00  0.00    -0.192 NA
HETATM    4  C15 UNL     1      10.079  -3.419   5.069  1.00  0.00     0.130 C 
HETATM    5  C16 UNL     1      11.181  -4.426   4.593  1.00  0.00     0.057 C 
ENDROOT
BRANCH   3   6
HETATM    6  C6  UNL     1       7.851  -3.724   4.531  1.00  0.00     0.089 C 
HETATM    7  C7  UNL     1       6.945  -4.800   4.015  1.00  0.00     0.052 C 
HETATM    8  C8  UNL     1       5.518  -4.250   4.148  1.00  0.00     0.274 C 
HETATM    9  N2  UNL     1       5.222  -4.315   5.561  1.00  0.00     0.094 N 
HETATM   10  C13 UNL     1       6.251  -3.725   6.361  1.00  0.00     0.274 C 
HETATM   11  C14 UNL     1       7.096  -2.803   5.498  1.00  0.00     0.052 C 
BRANCH   9  12
HETATM   12  C9  UNL     1       3.892  -3.955   5.918  1.00  0.00     0.237 C 
HETATM   13  C10 UNL     1       3.420  -2.905   4.948  1.00  0.00     0.051 C 
HETATM   14  C11 UNL     1       1.995  -2.571   5.264  1.00  0.00     0.142 C 
HETATM   15  S1  UNL     1       1.356  -4.163   5.753  1.00  0.00     0.146 S 
HETATM   16  O2  UNL     1       0.457  -4.759   4.732  1.00  0.00    -0.228 OA
HETATM   17  O3  UNL     1       0.737  -4.010   7.090  1.00  0.00    -0.228 OA
HETATM   18  C12 UNL     1       2.898  -5.089   5.850  1.00  0.00     0.176 C 
ENDBRANCH   9  12
ENDBRANCH   3   6
BRANCH   1  19
HETATM   19  C4  UNL     1      10.864  -6.951   4.321  1.00  0.00     0.038 C 
BRANCH  19  20
HETATM   20  C2  UNL     1      10.199  -8.213   4.662  1.00  0.00    -0.020 C 
HETATM   21  C1  UNL     1       8.928  -8.474   3.849  1.00  0.00     0.009 C 
HETATM   22  C3  UNL     1      11.195  -9.324   4.136  1.00  0.00     0.009 C 
ENDBRANCH  19  20
ENDBRANCH   1  19
BRANCH   5  23
HETATM   23  C17 UNL     1      12.479  -3.880   5.075  1.00  0.00     0.238 C 
BRANCH  23  24
HETATM   24  N3  UNL     1      13.039  -2.882   4.262  1.00  0.00    -0.079 N 
ATOM     25  H33 UNL     1      14.012  -3.104   4.050  1.00  0.00     0.274 HD
ATOM     26  H32 UNL     1      12.639  -2.925   3.325  1.00  0.00     0.274 HD
ATOM     27  H31 UNL     1      12.968  -1.935   4.634  1.00  0.00     0.274 HD
ENDBRANCH  23  24
ENDBRANCH   5  23
TORSDOF 6
ENDMDL
MODEL 3
REMARK VINA RESULT: -6.190002507      2.117      3.587
REMARK  6 active torsions:
REMARK  status: ('A' for Active; 'I' for Inactive)
REMARK    1  A    between atoms: C2_2  and  C4_4 
REMARK    2  A    between atoms: C4_4  and  C5_5 
REMARK    3  A    between atoms: N1_7  and  C6_8 
REMARK    4  A    between atoms: N2_11  and  C9_12 
REMARK    5  A    between atoms: C16_22  and  C17_23 
REMARK    6  A    between atoms: C17_23  and  N3_24 
ROOT
HETATM    1  C5  UNL     1      10.771  -3.519   4.610  1.00  0.00     0.152 C 
HETATM    2  O1  UNL     1       9.391  -3.181   4.927  1.00  0.00    -0.297 OA
HETATM    3  N1  UNL     1       8.629  -4.159   4.542  1.00  0.00    -0.192 NA
HETATM    4  C15 UNL     1       9.330  -5.384   4.692  1.00  0.00     0.130 C 
HETATM    5  C16 UNL     1      10.777  -4.919   5.073  1.00  0.00     0.057 C 
ENDROOT
BRANCH   3   6
HETATM    6  C6  UNL     1       7.460  -4.246   5.439  1.00  0.00     0.089 C 
HETATM    7  C7  UNL     1       6.954  -2.899   5.855  1.00  0.00     0.052 C 
HETATM    8  C8  UNL     1       5.422  -3.000   5.836  1.00  0.00     0.274 C 
HETATM    9  N2  UNL     1       5.064  -2.994   4.436  1.00  0.00     0.094 N 
HETATM   10  C13 UNL     1       5.813  -3.947   3.677  1.00  0.00     0.274 C 
HETATM   11  C14 UNL     1       6.401  -4.989   4.614  1.00  0.00     0.052 C 
BRANCH   9  12
HETATM   12  C9  UNL     1       3.665  -2.967   4.170  1.00  0.00     0.237 C 
HETATM   13  C10 UNL     1       3.187  -1.550   4.346  1.00  0.00     0.051 C 
HETATM   14  C11 UNL     1       1.733  -1.492   3.995  1.00  0.00     0.142 C 
HETATM   15  S1  UNL     1       1.644  -2.657   2.646  1.00  0.00     0.146 S 
HETATM   16  O2  UNL     1       1.467  -1.996   1.329  1.00  0.00    -0.228 OA
HETATM   17  O3  UNL     1       0.593  -3.648   2.974  1.00  0.00    -0.228 OA
HETATM   18  C12 UNL     1       3.287  -3.383   2.769  1.00  0.00     0.176 C 
ENDBRANCH   9  12
ENDBRANCH   3   6
BRANCH   1  19
HETATM   19  C4  UNL     1      11.517  -2.490   5.397  1.00  0.00     0.038 C 
BRANCH  19  20
HETATM   20  C2  UNL     1      12.925  -2.176   5.138  1.00  0.00    -0.020 C 
HETATM   21  C1  UNL     1      13.904  -3.058   5.919  1.00  0.00     0.009 C 
HETATM   22  C3  UNL     1      13.148  -2.634   3.640  1.00  0.00     0.009 C 
ENDBRANCH  19  20
ENDBRANCH   1  19
BRANCH   5  23
HETATM   23  C17 UNL     1      11.705  -5.912   4.467  1.00  0.00     0.238 C 
BRANCH  23  24
HETATM   24  N3  UNL     1      12.759  -6.321   5.299  1.00  0.00    -0.079 N 
ATOM     25  H33 UNL     1      13.356  -5.527   5.529  1.00  0.00     0.274 HD
ATOM     26  H32 UNL     1      12.405  -6.551   6.228  1.00  0.00     0.274 HD
ATOM     27  H31 UNL     1      13.320  -7.090   4.934  1.00  0.00     0.274 HD
ENDBRANCH  23  24
ENDBRANCH   5  23
TORSDOF 6
ENDMDL
MODEL 4
REMARK VINA RESULT: -6.188386762      1.924      3.587
REMARK  6 active torsions:
REMARK  status: ('A' for Active; 'I' for Inactive)
REMARK    1  A    between atoms: C2_2  and  C4_4 
REMARK    2  A    between atoms: C4_4  and  C5_5 
REMARK    3  A    between atoms: N1_7  and  C6_8 
REMARK    4  A    between atoms: N2_11  and  C9_12 
REMARK    5  A    between atoms: C16_22  and  C17_23 
REMARK    6  A    between atoms: C17_23  and  N3_24 
ROOT
HETATM    1  C5  UNL     1      10.758  -3.540   4.605  1.00  0.00     0.152 C 
HETATM    2  O1  UNL     1       9.366  -3.259   4.926  1.00  0.00    -0.297 OA
HETATM    3  N1  UNL     1       8.646  -4.274   4.556  1.00  0.00    -0.192 NA
HETATM    4  C15 UNL     1       9.401  -5.465   4.714  1.00  0.00     0.130 C 
HETATM    5  C16 UNL     1      10.828  -4.934   5.082  1.00  0.00     0.057 C 
ENDROOT
BRANCH   3   6
HETATM    6  C6  UNL     1       7.487  -4.403   5.460  1.00  0.00     0.089 C 
HETATM    7  C7  UNL     1       7.071  -3.091   6.051  1.00  0.00     0.052 C 
HETATM    8  C8  UNL     1       5.535  -3.097   6.054  1.00  0.00     0.274 C 
HETATM    9  N2  UNL     1       5.159  -2.893   4.674  1.00  0.00     0.094 N 
HETATM   10  C13 UNL     1       5.836  -3.787   3.785  1.00  0.00     0.274 C 
HETATM   11  C14 UNL     1       6.372  -4.972   4.572  1.00  0.00     0.052 C 
BRANCH   9  12
HETATM   12  C9  UNL     1       3.761  -2.750   4.443  1.00  0.00     0.237 C 
HETATM   13  C10 UNL     1       3.033  -3.500   5.526  1.00  0.00     0.051 C 
HETATM   14  C11 UNL     1       1.562  -3.295   5.341  1.00  0.00     0.142 C 
HETATM   15  S1  UNL     1       1.506  -1.605   4.772  1.00  0.00     0.146 S 
HETATM   16  O2  UNL     1       0.991  -0.670   5.803  1.00  0.00    -0.228 OA
HETATM   17  O3  UNL     1       0.748  -1.582   3.500  1.00  0.00    -0.228 OA
HETATM   18  C12 UNL     1       3.263  -1.326   4.490  1.00  0.00     0.176 C 
ENDBRANCH   9  12
ENDBRANCH   3   6
BRANCH   1  19
HETATM   19  C4  UNL     1      11.461  -2.471   5.377  1.00  0.00     0.038 C 
BRANCH  19  20
HETATM   20  C2  UNL     1      12.855  -2.102   5.111  1.00  0.00    -0.020 C 
HETATM   21  C1  UNL     1      13.871  -2.925   5.910  1.00  0.00     0.009 C 
HETATM   22  C3  UNL     1      13.099  -2.581   3.623  1.00  0.00     0.009 C 
ENDBRANCH  19  20
ENDBRANCH   1  19
BRANCH   5  23
HETATM   23  C17 UNL     1      11.796  -5.890   4.481  1.00  0.00     0.238 C 
BRANCH  23  24
HETATM   24  N3  UNL     1      12.831  -6.300   5.336  1.00  0.00    -0.079 N 
ATOM     25  H33 UNL     1      13.334  -5.488   5.696  1.00  0.00     0.274 HD
ATOM     26  H32 UNL     1      12.445  -6.669   6.206  1.00  0.00     0.274 HD
ATOM     27  H31 UNL     1      13.486  -6.967   4.929  1.00  0.00     0.274 HD
ENDBRANCH  23  24
ENDBRANCH   5  23
TORSDOF 6
ENDMDL
MODEL 5
REMARK VINA RESULT: -6.187303197      1.940      3.437
REMARK  6 active torsions:
REMARK  status: ('A' for Active; 'I' for Inactive)
REMARK    1  A    between atoms: C2_2  and  C4_4 
REMARK    2  A    between atoms: C4_4  and  C5_5 
REMARK    3  A    between atoms: N1_7  and  C6_8 
REMARK    4  A    between atoms: N2_11  and  C9_12 
REMARK    5  A    between atoms: C16_22  and  C17_23 
REMARK    6  A    between atoms: C17_23  and  N3_24 
ROOT
HETATM    1  C5  UNL     1      10.771  -3.549   4.621  1.00  0.00     0.152 C 
HETATM    2  O1  UNL     1       9.385  -3.247   4.945  1.00  0.00    -0.297 OA
HETATM    3  N1  UNL     1       8.647  -4.245   4.566  1.00  0.00    -0.192 NA
HETATM    4  C15 UNL     1       9.380  -5.451   4.713  1.00  0.00     0.130 C 
HETATM    5  C16 UNL     1      10.817  -4.948   5.084  1.00  0.00     0.057 C 
ENDROOT
BRANCH   3   6
HETATM    6  C6  UNL     1       7.486  -4.362   5.470  1.00  0.00     0.089 C 
HETATM    7  C7  UNL     1       7.183  -3.081   6.184  1.00  0.00     0.052 C 
HETATM    8  C8  UNL     1       5.652  -2.962   6.207  1.00  0.00     0.274 C 
HETATM    9  N2  UNL     1       5.285  -2.601   4.856  1.00  0.00     0.094 N 
HETATM   10  C13 UNL     1       5.882  -3.461   3.881  1.00  0.00     0.274 C 
HETATM   11  C14 UNL     1       6.323  -4.753   4.549  1.00  0.00     0.052 C 
BRANCH   9  12
HETATM   12  C9  UNL     1       3.903  -2.323   4.659  1.00  0.00     0.237 C 
HETATM   13  C10 UNL     1       3.600  -2.500   3.194  1.00  0.00     0.051 C 
HETATM   14  C11 UNL     1       2.133  -2.285   2.983  1.00  0.00     0.142 C 
HETATM   15  S1  UNL     1       1.450  -2.996   4.470  1.00  0.00     0.146 S 
HETATM   16  O2  UNL     1       0.778  -4.297   4.227  1.00  0.00    -0.228 OA
HETATM   17  O3  UNL     1       0.585  -1.974   5.103  1.00  0.00    -0.228 OA
HETATM   18  C12 UNL     1       2.968  -3.238   5.410  1.00  0.00     0.176 C 
ENDBRANCH   9  12
ENDBRANCH   3   6
BRANCH   1  19
HETATM   19  C4  UNL     1      11.494  -2.500   5.402  1.00  0.00     0.038 C 
BRANCH  19  20
HETATM   20  C2  UNL     1      12.890  -2.144   5.129  1.00  0.00    -0.020 C 
HETATM   21  C1  UNL     1      13.902  -2.991   5.906  1.00  0.00     0.009 C 
HETATM   22  C3  UNL     1      13.114  -2.601   3.631  1.00  0.00     0.009 C 
ENDBRANCH  19  20
ENDBRANCH   1  19
BRANCH   5  23
HETATM   23  C17 UNL     1      11.767  -5.916   4.473  1.00  0.00     0.238 C 
BRANCH  23  24
HETATM   24  N3  UNL     1      12.829  -6.307   5.305  1.00  0.00    -0.079 N 
ATOM     25  H33 UNL     1      12.868  -7.324   5.372  1.00  0.00     0.274 HD
ATOM     26  H32 UNL     1      13.721  -6.124   4.846  1.00  0.00     0.274 HD
ATOM     27  H31 UNL     1      12.819  -5.893   6.237  1.00  0.00     0.274 HD
ENDBRANCH  23  24
ENDBRANCH   5  23
TORSDOF 6
ENDMDL
