MODEL 1
REMARK VINA RESULT: -9.894897942      0.000      0.000
REMARK  6 active torsions:
REMARK  status: ('A' for Active; 'I' for Inactive)
REMARK    1  A    between atoms: C2_2  and  C3_3 
REMARK    2  A    between atoms: C3_3  and  C4_4 
REMARK    3  A    between atoms: C4_4  and  O1_5 
REMARK    4  A    between atoms: O1_5  and  C5_6 
REMARK    5  A    between atoms: C14_16  and  O3_17 
REMARK    6  A    between atoms: C20_24  and  C22_26 
ROOT
HETATM    1  C22 UNL     1       3.629  -2.628  12.920  1.00  0.00     0.134 C 
HETATM    2  C23 UNL     1       2.803  -3.094  11.807  1.00  0.00     0.059 C 
HETATM    3  N1  UNL     1       2.136  -3.457  10.933  1.00  0.00    -0.197 NA
ENDROOT
BRANCH   1   4
HETATM    4  C20 UNL     1       4.321  -1.346  12.605  1.00  0.00    -0.021 C 
HETATM    5  C15 UNL     1       3.418  -0.169  12.430  1.00  0.00     0.028 C 
HETATM    6  C14 UNL     1       2.528   0.042  13.613  1.00  0.00     0.123 C 
HETATM    7  C16 UNL     1       4.418   0.998  12.438  1.00  0.00    -0.006 C 
HETATM    8  C13 UNL     1       3.114  -0.227  14.935  1.00  0.00     0.037 C 
HETATM    9  C12 UNL     1       4.505  -0.657  15.027  1.00  0.00    -0.003 C 
HETATM   10  C10 UNL     1       5.472   0.285  15.645  1.00  0.00    -0.004 C 
HETATM   11  C19 UNL     1       5.217  -0.897  13.697  1.00  0.00     0.004 C 
HETATM   12  C9  UNL     1       5.622   1.332  14.532  1.00  0.00    -0.005 C 
HETATM   13  C11 UNL     1       5.107   0.994  16.872  1.00  0.00     0.021 C 
HETATM   14  C8  UNL     1       6.878   2.065  14.834  1.00  0.00     0.006 C 
HETATM   15  C18 UNL     1       5.589   0.534  13.278  1.00  0.00    -0.001 C 
HETATM   16  C7  UNL     1       7.389   1.818  16.233  1.00  0.00     0.016 C 
HETATM   17  C3  UNL     1       6.346   1.803  17.297  1.00  0.00    -0.001 C 
HETATM   18  C17 UNL     1       4.805   1.419  11.058  1.00  0.00     0.011 C 
HETATM   19  C21 UNL     1       5.163  -1.564  11.371  1.00  0.00     0.017 C 
BRANCH   6  20
HETATM   20  O3  UNL     1       1.332  -0.682  13.389  1.00  0.00    -0.395 OA
ATOM     21  H3  UNL     1       0.601  -0.120  13.165  1.00  0.00     0.210 HD
ENDBRANCH   6  20
BRANCH  17  22
HETATM   22  C2  UNL     1       5.963   3.147  17.762  1.00  0.00    -0.025 C 
HETATM   23  C1  UNL     1       6.830   4.080  18.025  1.00  0.00     0.008 C 
ENDBRANCH  17  22
BRANCH  17  24
HETATM   24  C4  UNL     1       6.919   1.003  18.472  1.00  0.00     0.192 C 
BRANCH  24  25
HETATM   25  O1  UNL     1       5.933   0.605  19.376  1.00  0.00    -0.321 OA
BRANCH  25  26
HETATM   26  C5  UNL     1       6.070   0.937  20.714  1.00  0.00     0.254 C 
HETATM   27  C6  UNL     1       6.127   2.326  21.195  1.00  0.00     0.126 C 
HETATM   28  O2  UNL     1       6.153   0.013  21.586  1.00  0.00    -0.266 OA
ENDBRANCH  25  26
ENDBRANCH  24  25
ENDBRANCH  17  24
ENDBRANCH   1   4
TORSDOF 6
ENDMDL
MODEL 2
REMARK VINA RESULT: -9.660552892      3.501      7.216
REMARK  6 active torsions:
REMARK  status: ('A' for Active; 'I' for Inactive)
REMARK    1  A    between atoms: C2_2  and  C3_3 
REMARK    2  A    between atoms: C3_3  and  C4_4 
REMARK    3  A    between atoms: C4_4  and  O1_5 
REMARK    4  A    between atoms: O1_5  and  C5_6 
REMARK    5  A    between atoms: C14_16  and  O3_17 
REMARK    6  A    between atoms: C20_24  and  C22_26 
ROOT
HETATM    1  C22 UNL     1       8.750   3.184  15.960  1.00  0.00     0.134 C 
HETATM    2  C23 UNL     1       9.197   4.458  16.520  1.00  0.00     0.059 C 
HETATM    3  N1  UNL     1       9.540   5.476  16.952  1.00  0.00    -0.197 NA
ENDROOT
BRANCH   1   4
HETATM    4  C20 UNL     1       7.675   2.557  16.781  1.00  0.00    -0.021 C 
HETATM    5  C15 UNL     1       6.501   3.437  17.059  1.00  0.00     0.028 C 
HETATM    6  C14 UNL     1       5.893   3.983  15.806  1.00  0.00     0.123 C 
HETATM    7  C16 UNL     1       5.482   2.434  17.622  1.00  0.00    -0.006 C 
HETATM    8  C13 UNL     1       5.861   3.082  14.643  1.00  0.00     0.037 C 
HETATM    9  C12 UNL     1       6.392   1.729  14.771  1.00  0.00    -0.003 C 
HETATM   10  C10 UNL     1       5.423   0.606  14.696  1.00  0.00    -0.004 C 
HETATM   11  C19 UNL     1       7.047   1.394  16.110  1.00  0.00     0.004 C 
HETATM   12  C9  UNL     1       4.730   0.717  16.062  1.00  0.00    -0.005 C 
HETATM   13  C11 UNL     1       4.382   0.617  13.669  1.00  0.00     0.021 C 
HETATM   14  C8  UNL     1       4.077  -0.597  16.291  1.00  0.00     0.006 C 
HETATM   15  C18 UNL     1       5.824   1.100  16.993  1.00  0.00    -0.001 C 
HETATM   16  C7  UNL     1       3.995  -1.446  15.045  1.00  0.00     0.016 C 
HETATM   17  C3  UNL     1       3.620  -0.715  13.801  1.00  0.00    -0.001 C 
HETATM   18  C17 UNL     1       5.483   2.405  19.115  1.00  0.00     0.011 C 
HETATM   19  C21 UNL     1       8.298   2.072  18.068  1.00  0.00     0.017 C 
BRANCH   6  20
HETATM   20  O3  UNL     1       6.524   5.217  15.522  1.00  0.00    -0.395 OA
ATOM     21  H3  UNL     1       7.350   5.320  15.978  1.00  0.00     0.210 HD
ENDBRANCH   6  20
BRANCH  17  22
HETATM   22  C2  UNL     1       2.169  -0.508  13.657  1.00  0.00    -0.025 C 
HETATM   23  C1  UNL     1       1.296  -1.011  14.480  1.00  0.00     0.008 C 
ENDBRANCH  17  22
BRANCH  17  24
HETATM   24  C4  UNL     1       4.135  -1.548  12.622  1.00  0.00     0.192 C 
BRANCH  24  25
HETATM   25  O1  UNL     1       4.755  -0.765  11.648  1.00  0.00    -0.321 OA
BRANCH  25  26
HETATM   26  C5  UNL     1       5.978  -1.168  11.136  1.00  0.00     0.254 C 
HETATM   27  C6  UNL     1       7.266  -0.694  11.667  1.00  0.00     0.126 C 
HETATM   28  O2  UNL     1       6.013  -1.985  10.160  1.00  0.00    -0.266 OA
ENDBRANCH  25  26
ENDBRANCH  24  25
ENDBRANCH  17  24
ENDBRANCH   1   4
TORSDOF 6
ENDMDL
MODEL 3
REMARK VINA RESULT: -9.605813596      3.032      6.853
REMARK  6 active torsions:
REMARK  status: ('A' for Active; 'I' for Inactive)
REMARK    1  A    between atoms: C2_2  and  C3_3 
REMARK    2  A    between atoms: C3_3  and  C4_4 
REMARK    3  A    between atoms: C4_4  and  O1_5 
REMARK    4  A    between atoms: O1_5  and  C5_6 
REMARK    5  A    between atoms: C14_16  and  O3_17 
REMARK    6  A    between atoms: C20_24  and  C22_26 
ROOT
HETATM    1  C22 UNL     1       5.659   2.439  17.859  1.00  0.00     0.134 C 
HETATM    2  C23 UNL     1       6.265   3.308  18.867  1.00  0.00     0.059 C 
HETATM    3  N1  UNL     1       6.759   3.986  19.665  1.00  0.00    -0.197 NA
ENDROOT
BRANCH   1   4
HETATM    4  C20 UNL     1       5.790   3.000  16.485  1.00  0.00    -0.021 C 
HETATM    5  C15 UNL     1       7.193   3.156  15.999  1.00  0.00     0.028 C 
HETATM    6  C14 UNL     1       7.963   1.877  16.071  1.00  0.00     0.123 C 
HETATM    7  C16 UNL     1       6.979   3.438  14.504  1.00  0.00    -0.006 C 
HETATM    8  C13 UNL     1       7.223   0.644  15.757  1.00  0.00     0.037 C 
HETATM    9  C12 UNL     1       5.816   0.731  15.380  1.00  0.00    -0.003 C 
HETATM   10  C10 UNL     1       5.462   0.384  13.981  1.00  0.00    -0.004 C 
HETATM   11  C19 UNL     1       5.192   2.123  15.450  1.00  0.00     0.004 C 
HETATM   12  C9  UNL     1       5.984   1.615  13.226  1.00  0.00    -0.005 C 
HETATM   13  C11 UNL     1       6.053  -0.801  13.358  1.00  0.00     0.021 C 
HETATM   14  C8  UNL     1       5.297   1.601  11.909  1.00  0.00     0.006 C 
HETATM   15  C18 UNL     1       5.680   2.752  14.135  1.00  0.00    -0.001 C 
HETATM   16  C7  UNL     1       4.627   0.285  11.601  1.00  0.00     0.016 C 
HETATM   17  C3  UNL     1       5.413  -0.929  11.962  1.00  0.00    -0.001 C 
HETATM   18  C17 UNL     1       6.986   4.900  14.197  1.00  0.00     0.011 C 
HETATM   19  C21 UNL     1       5.061   4.322  16.452  1.00  0.00     0.017 C 
BRANCH   6  20
HETATM   20  O3  UNL     1       8.596   1.824  17.336  1.00  0.00    -0.395 OA
ATOM     21  H3  UNL     1       8.916   2.672  17.621  1.00  0.00     0.210 HD
ENDBRANCH   6  20
BRANCH  17  22
HETATM   22  C2  UNL     1       6.420  -1.299  10.954  1.00  0.00    -0.025 C 
HETATM   23  C1  UNL     1       6.179  -2.135   9.986  1.00  0.00     0.008 C 
ENDBRANCH  17  22
BRANCH  17  24
HETATM   24  C4  UNL     1       4.411  -2.078  12.126  1.00  0.00     0.192 C 
BRANCH  24  25
HETATM   25  O1  UNL     1       3.091  -1.630  12.166  1.00  0.00    -0.321 OA
BRANCH  25  26
HETATM   26  C5  UNL     1       2.394  -1.689  13.363  1.00  0.00     0.254 C 
HETATM   27  C6  UNL     1       1.704  -0.529  13.948  1.00  0.00     0.126 C 
HETATM   28  O2  UNL     1       2.337  -2.788  14.004  1.00  0.00    -0.266 OA
ENDBRANCH  25  26
ENDBRANCH  24  25
ENDBRANCH  17  24
ENDBRANCH   1   4
TORSDOF 6
ENDMDL
MODEL 4
REMARK VINA RESULT: -9.447410356      3.166      6.868
REMARK  6 active torsions:
REMARK  status: ('A' for Active; 'I' for Inactive)
REMARK    1  A    between atoms: C2_2  and  C3_3 
REMARK    2  A    between atoms: C3_3  and  C4_4 
REMARK    3  A    between atoms: C4_4  and  O1_5 
REMARK    4  A    between atoms: O1_5  and  C5_6 
REMARK    5  A    between atoms: C14_16  and  O3_17 
REMARK    6  A    between atoms: C20_24  and  C22_26 
ROOT
HETATM    1  C22 UNL     1       7.473   1.331  20.377  1.00  0.00     0.134 C 
HETATM    2  C23 UNL     1       6.541   0.626  21.255  1.00  0.00     0.059 C 
HETATM    3  N1  UNL     1       5.806   0.078  21.963  1.00  0.00    -0.197 NA
ENDROOT
BRANCH   1   4
HETATM    4  C20 UNL     1       6.777   2.309  19.492  1.00  0.00    -0.021 C 
HETATM    5  C15 UNL     1       7.585   2.797  18.335  1.00  0.00     0.028 C 
HETATM    6  C14 UNL     1       8.108   1.675  17.496  1.00  0.00     0.123 C 
HETATM    7  C16 UNL     1       6.519   3.502  17.483  1.00  0.00    -0.006 C 
HETATM    8  C13 UNL     1       7.219   0.516  17.318  1.00  0.00     0.037 C 
HETATM    9  C12 UNL     1       5.897   0.526  17.936  1.00  0.00    -0.003 C 
HETATM   10  C10 UNL     1       4.721   0.592  17.032  1.00  0.00    -0.004 C 
HETATM   11  C19 UNL     1       5.587   1.729  18.825  1.00  0.00     0.004 C 
HETATM   12  C9  UNL     1       4.778   2.057  16.574  1.00  0.00    -0.005 C 
HETATM   13  C11 UNL     1       4.684  -0.245  15.833  1.00  0.00     0.021 C 
HETATM   14  C8  UNL     1       3.427   2.366  16.041  1.00  0.00     0.006 C 
HETATM   15  C18 UNL     1       5.213   2.799  17.786  1.00  0.00    -0.001 C 
HETATM   16  C7  UNL     1       2.588   1.135  15.797  1.00  0.00     0.016 C 
HETATM   17  C3  UNL     1       3.308  -0.014  15.178  1.00  0.00    -0.001 C 
HETATM   18  C17 UNL     1       6.475   4.974  17.738  1.00  0.00     0.011 C 
HETATM   19  C21 UNL     1       6.315   3.463  20.349  1.00  0.00     0.017 C 
BRANCH   6  20
HETATM   20  O3  UNL     1       9.380   1.313  18.002  1.00  0.00    -0.395 OA
ATOM     21  H3  UNL     1       9.507   0.373  18.035  1.00  0.00     0.210 HD
ENDBRANCH   6  20
BRANCH  17  22
HETATM   22  C2  UNL     1       3.434   0.092  13.715  1.00  0.00    -0.025 C 
HETATM   23  C1  UNL     1       4.556  -0.100  13.085  1.00  0.00     0.008 C 
ENDBRANCH  17  22
BRANCH  17  24
HETATM   24  C4  UNL     1       2.519  -1.279  15.532  1.00  0.00     0.192 C 
BRANCH  24  25
HETATM   25  O1  UNL     1       3.196  -2.091  16.442  1.00  0.00    -0.321 OA
BRANCH  25  26
HETATM   26  C5  UNL     1       2.503  -3.100  17.091  1.00  0.00     0.254 C 
HETATM   27  C6  UNL     1       1.275  -3.707  16.554  1.00  0.00     0.126 C 
HETATM   28  O2  UNL     1       2.931  -3.538  18.208  1.00  0.00    -0.266 OA
ENDBRANCH  25  26
ENDBRANCH  24  25
ENDBRANCH  17  24
ENDBRANCH   1   4
TORSDOF 6
ENDMDL
MODEL 5
REMARK VINA RESULT: -9.301147152      1.483      1.847
REMARK  6 active torsions:
REMARK  status: ('A' for Active; 'I' for Inactive)
REMARK    1  A    between atoms: C2_2  and  C3_3 
REMARK    2  A    between atoms: C3_3  and  C4_4 
REMARK    3  A    between atoms: C4_4  and  O1_5 
REMARK    4  A    between atoms: O1_5  and  C5_6 
REMARK    5  A    between atoms: C14_16  and  O3_17 
REMARK    6  A    between atoms: C20_24  and  C22_26 
ROOT
HETATM    1  C22 UNL     1       3.343  -1.590  12.359  1.00  0.00     0.134 C 
HETATM    2  C23 UNL     1       2.666  -2.202  13.501  1.00  0.00     0.059 C 
HETATM    3  N1  UNL     1       2.132  -2.702  14.399  1.00  0.00    -0.197 NA
ENDROOT
BRANCH   1   4
HETATM    4  C20 UNL     1       4.779  -1.306  12.645  1.00  0.00    -0.021 C 
HETATM    5  C15 UNL     1       5.361  -0.167  11.876  1.00  0.00     0.028 C 
HETATM    6  C14 UNL     1       4.577   1.094  12.052  1.00  0.00     0.123 C 
HETATM    7  C16 UNL     1       6.694   0.057  12.608  1.00  0.00    -0.006 C 
HETATM    8  C13 UNL     1       4.014   1.339  13.389  1.00  0.00     0.037 C 
HETATM    9  C12 UNL     1       4.258   0.374  14.456  1.00  0.00    -0.003 C 
HETATM   10  C10 UNL     1       5.119   0.808  15.585  1.00  0.00    -0.004 C 
HETATM   11  C19 UNL     1       5.010  -0.892  14.050  1.00  0.00     0.004 C 
HETATM   12  C9  UNL     1       6.507   0.788  14.927  1.00  0.00    -0.005 C 
HETATM   13  C11 UNL     1       4.928   2.134  16.172  1.00  0.00     0.021 C 
HETATM   14  C8  UNL     1       7.483   0.758  16.046  1.00  0.00     0.006 C 
HETATM   15  C18 UNL     1       6.466  -0.399  14.033  1.00  0.00    -0.001 C 
HETATM   16  C7  UNL     1       6.868   1.099  17.381  1.00  0.00     0.016 C 
HETATM   17  C3  UNL     1       5.898   2.231  17.364  1.00  0.00    -0.001 C 
HETATM   18  C17 UNL     1       7.832  -0.638  11.935  1.00  0.00     0.011 C 
HETATM   19  C21 UNL     1       5.560  -2.575  12.399  1.00  0.00     0.017 C 
BRANCH   6  20
HETATM   20  O3  UNL     1       3.598   1.140  11.031  1.00  0.00    -0.395 OA
ATOM     21  H3  UNL     1       3.928   1.514  10.224  1.00  0.00     0.210 HD
ENDBRANCH   6  20
BRANCH  17  22
HETATM   22  C2  UNL     1       6.540   3.555  17.413  1.00  0.00    -0.025 C 
HETATM   23  C1  UNL     1       7.555   3.822  18.182  1.00  0.00     0.008 C 
ENDBRANCH  17  22
BRANCH  17  24
HETATM   24  C4  UNL     1       4.991   2.060  18.588  1.00  0.00     0.192 C 
BRANCH  24  25
HETATM   25  O1  UNL     1       5.362   0.972  19.378  1.00  0.00    -0.321 OA
BRANCH  25  26
HETATM   26  C5  UNL     1       5.800   1.197  20.673  1.00  0.00     0.254 C 
HETATM   27  C6  UNL     1       6.156   2.532  21.181  1.00  0.00     0.126 C 
HETATM   28  O2  UNL     1       5.908   0.217  21.480  1.00  0.00    -0.266 OA
ENDBRANCH  25  26
ENDBRANCH  24  25
ENDBRANCH  17  24
ENDBRANCH   1   4
TORSDOF 6
ENDMDL
