MODEL 1
REMARK VINA RESULT: -9.453993933      0.000      0.000
REMARK  6 active torsions:
REMARK  status: ('A' for Active; 'I' for Inactive)
REMARK    1  A    between atoms: O1_2  and  C2_3 
REMARK    2  A    between atoms: C2_3  and  C3_5 
REMARK    3  A    between atoms: C10_12  and  C11_13 
REMARK    4  A    between atoms: C16_18  and  C17_19 
REMARK    5  A    between atoms: C16_18  and  C18_21 
REMARK    6  A    between atoms: C18_21  and  O4_22 
ROOT
HETATM    1  C3  UNL     1       7.822   4.210  17.569  1.00  0.00     0.052 C 
HETATM    2  C4  UNL     1       8.045   2.918  18.296  1.00  0.00     0.020 C 
HETATM    3  C5  UNL     1       7.732   1.791  17.303  1.00  0.00     0.004 C 
HETATM    4  C6  UNL     1       6.282   1.536  17.146  1.00  0.00     0.031 C 
HETATM    5  C7  UNL     1       5.634   2.202  15.961  1.00  0.00     0.030 C 
HETATM    6  C8  UNL     1       4.153   2.289  16.272  1.00  0.00     0.036 C 
HETATM    7  C9  UNL     1       3.622   1.020  15.671  1.00  0.00     0.055 C 
HETATM    8  C10 UNL     1       4.605   0.768  14.576  1.00  0.00    -0.009 C 
HETATM    9  N1  UNL     1       5.674   1.431  14.781  1.00  0.00    -0.386 N 
ATOM     10  H1  UNL     1       6.479   1.406  14.155  1.00  0.00     0.160 HD
HETATM   11  C20 UNL     1       6.153   3.626  15.750  1.00  0.00     0.036 C 
HETATM   12  C21 UNL     1       6.426   4.208  17.059  1.00  0.00     0.006 C 
HETATM   13  C22 UNL     1       6.443   5.701  17.254  1.00  0.00     0.007 C 
HETATM   14  C23 UNL     1       7.342   5.372  18.466  1.00  0.00     0.020 C 
ENDROOT
BRANCH   8  15
HETATM   15  C11 UNL     1       4.327  -0.139  13.426  1.00  0.00    -0.004 C 
HETATM   16  C12 UNL     1       3.656   0.655  12.316  1.00  0.00     0.021 C 
HETATM   17  C13 UNL     1       3.312  -1.148  13.909  1.00  0.00     0.015 C 
HETATM   18  C14 UNL     1       3.316  -2.432  13.157  1.00  0.00     0.002 C 
HETATM   19  C15 UNL     1       4.066  -2.416  11.872  1.00  0.00     0.019 C 
HETATM   20  C16 UNL     1       5.456  -1.877  12.002  1.00  0.00     0.035 C 
HETATM   21  C19 UNL     1       5.603  -0.767  12.984  1.00  0.00     0.033 C 
BRANCH  20  22
HETATM   22  C17 UNL     1       5.992  -1.437  10.670  1.00  0.00     0.242 C 
HETATM   23  O3  UNL     1       7.089  -0.926  10.591  1.00  0.00    -0.306 OA
ENDBRANCH  20  22
BRANCH  20  24
HETATM   24  C18 UNL     1       6.348  -3.055  12.424  1.00  0.00     0.180 C 
BRANCH  24  25
HETATM   25  O4  UNL     1       7.398  -2.618  13.226  1.00  0.00    -0.400 OA
ATOM     26  H4  UNL     1       8.093  -2.243  12.697  1.00  0.00     0.209 HD
ENDBRANCH  24  25
ENDBRANCH  20  24
ENDBRANCH   8  15
BRANCH   1  27
HETATM   27  C2  UNL     1       8.910   4.706  16.743  1.00  0.00     0.267 C 
HETATM   28  O2  UNL     1       9.302   4.273  15.633  1.00  0.00    -0.264 OA
BRANCH  27  29
HETATM   29  O1  UNL     1       9.644   5.817  17.215  1.00  0.00    -0.326 OA
HETATM   30  C1  UNL     1      10.050   6.855  16.355  1.00  0.00     0.213 C 
ENDBRANCH  27  29
ENDBRANCH   1  27
TORSDOF 6
ENDMDL
MODEL 2
REMARK VINA RESULT: -9.424083377      1.765      2.534
REMARK  6 active torsions:
REMARK  status: ('A' for Active; 'I' for Inactive)
REMARK    1  A    between atoms: O1_2  and  C2_3 
REMARK    2  A    between atoms: C2_3  and  C3_5 
REMARK    3  A    between atoms: C10_12  and  C11_13 
REMARK    4  A    between atoms: C16_18  and  C17_19 
REMARK    5  A    between atoms: C16_18  and  C18_21 
REMARK    6  A    between atoms: C18_21  and  O4_22 
ROOT
HETATM    1  C3  UNL     1       8.624   5.525  16.739  1.00  0.00     0.052 C 
HETATM    2  C4  UNL     1       9.541   4.352  16.558  1.00  0.00     0.020 C 
HETATM    3  C5  UNL     1       8.718   3.247  15.882  1.00  0.00     0.004 C 
HETATM    4  C6  UNL     1       7.844   2.510  16.823  1.00  0.00     0.031 C 
HETATM    5  C7  UNL     1       6.413   2.976  16.873  1.00  0.00     0.030 C 
HETATM    6  C8  UNL     1       5.859   2.521  18.209  1.00  0.00     0.036 C 
HETATM    7  C9  UNL     1       5.265   1.183  17.872  1.00  0.00     0.055 C 
HETATM    8  C10 UNL     1       4.926   1.356  16.429  1.00  0.00    -0.009 C 
HETATM    9  N1  UNL     1       5.573   2.338  15.937  1.00  0.00    -0.386 N 
ATOM     10  H1  UNL     1       5.493   2.633  14.964  1.00  0.00     0.160 HD
HETATM   11  C20 UNL     1       6.304   4.501  16.816  1.00  0.00     0.036 C 
HETATM   12  C21 UNL     1       7.449   5.064  17.523  1.00  0.00     0.006 C 
HETATM   13  C22 UNL     1       7.395   6.454  18.099  1.00  0.00     0.007 C 
HETATM   14  C23 UNL     1       8.934   6.390  17.980  1.00  0.00     0.020 C 
ENDROOT
BRANCH   8  15
HETATM   15  C11 UNL     1       3.959   0.478  15.709  1.00  0.00    -0.004 C 
HETATM   16  C12 UNL     1       2.569   1.090  15.798  1.00  0.00     0.021 C 
HETATM   17  C13 UNL     1       3.908  -0.824  16.474  1.00  0.00     0.015 C 
HETATM   18  C14 UNL     1       3.476  -1.995  15.665  1.00  0.00     0.002 C 
HETATM   19  C15 UNL     1       2.861  -1.670  14.348  1.00  0.00     0.019 C 
HETATM   20  C16 UNL     1       3.687  -0.734  13.522  1.00  0.00     0.035 C 
HETATM   21  C19 UNL     1       4.415   0.305  14.302  1.00  0.00     0.033 C 
BRANCH  20  22
HETATM   22  C17 UNL     1       2.855  -0.070  12.463  1.00  0.00     0.242 C 
HETATM   23  O3  UNL     1       3.369   0.685  11.666  1.00  0.00    -0.306 OA
ENDBRANCH  20  22
BRANCH  20  24
HETATM   24  C18 UNL     1       4.698  -1.600  12.755  1.00  0.00     0.180 C 
BRANCH  24  25
HETATM   25  O4  UNL     1       4.101  -2.194  11.648  1.00  0.00    -0.400 OA
ATOM     26  H4  UNL     1       4.665  -2.864  11.279  1.00  0.00     0.209 HD
ENDBRANCH  24  25
ENDBRANCH  20  24
ENDBRANCH   8  15
BRANCH   1  27
HETATM   27  C2  UNL     1       8.453   6.418  15.606  1.00  0.00     0.267 C 
HETATM   28  O2  UNL     1       7.563   6.389  14.722  1.00  0.00    -0.264 OA
BRANCH  27  29
HETATM   29  O1  UNL     1       9.386   7.466  15.444  1.00  0.00    -0.326 OA
HETATM   30  C1  UNL     1       9.178   8.505  14.516  1.00  0.00     0.213 C 
ENDBRANCH  27  29
ENDBRANCH   1  27
TORSDOF 6
ENDMDL
MODEL 3
REMARK VINA RESULT: -9.372882137      2.335      3.141
REMARK  6 active torsions:
REMARK  status: ('A' for Active; 'I' for Inactive)
REMARK    1  A    between atoms: O1_2  and  C2_3 
REMARK    2  A    between atoms: C2_3  and  C3_5 
REMARK    3  A    between atoms: C10_12  and  C11_13 
REMARK    4  A    between atoms: C16_18  and  C17_19 
REMARK    5  A    between atoms: C16_18  and  C18_21 
REMARK    6  A    between atoms: C18_21  and  O4_22 
ROOT
HETATM    1  C3  UNL     1       8.507   5.634  16.874  1.00  0.00     0.052 C 
HETATM    2  C4  UNL     1       9.595   4.604  16.803  1.00  0.00     0.020 C 
HETATM    3  C5  UNL     1       9.107   3.510  15.844  1.00  0.00     0.004 C 
HETATM    4  C6  UNL     1       8.155   2.565  16.470  1.00  0.00     0.031 C 
HETATM    5  C7  UNL     1       6.699   2.857  16.223  1.00  0.00     0.030 C 
HETATM    6  C8  UNL     1       5.928   2.174  17.335  1.00  0.00     0.036 C 
HETATM    7  C9  UNL     1       5.617   0.833  16.735  1.00  0.00     0.055 C 
HETATM    8  C10 UNL     1       5.589   1.152  15.277  1.00  0.00    -0.009 C 
HETATM    9  N1  UNL     1       6.188   2.255  15.055  1.00  0.00    -0.386 N 
ATOM     10  H1  UNL     1       6.288   2.662  14.125  1.00  0.00     0.160 HD
HETATM   11  C20 UNL     1       6.395   4.355  16.292  1.00  0.00     0.036 C 
HETATM   12  C21 UNL     1       7.262   4.947  17.305  1.00  0.00     0.006 C 
HETATM   13  C22 UNL     1       6.887   6.236  17.986  1.00  0.00     0.007 C 
HETATM   14  C23 UNL     1       8.407   6.361  18.232  1.00  0.00     0.020 C 
ENDROOT
BRANCH   8  15
HETATM   15  C11 UNL     1       4.941   0.270  14.264  1.00  0.00    -0.004 C 
HETATM   16  C12 UNL     1       5.873  -0.888  13.943  1.00  0.00     0.021 C 
HETATM   17  C13 UNL     1       4.814   1.086  13.000  1.00  0.00     0.015 C 
HETATM   18  C14 UNL     1       3.735   0.635  12.082  1.00  0.00     0.002 C 
HETATM   19  C15 UNL     1       3.168  -0.711  12.376  1.00  0.00     0.019 C 
HETATM   20  C16 UNL     1       2.753  -0.881  13.803  1.00  0.00     0.035 C 
HETATM   21  C19 UNL     1       3.625  -0.189  14.792  1.00  0.00     0.033 C 
BRANCH  20  22
HETATM   22  C17 UNL     1       2.647  -2.334  14.165  1.00  0.00     0.242 C 
HETATM   23  O3  UNL     1       1.723  -2.731  14.843  1.00  0.00    -0.306 OA
ENDBRANCH  20  22
BRANCH  20  24
HETATM   24  C18 UNL     1       1.321  -0.335  13.913  1.00  0.00     0.180 C 
BRANCH  24  25
HETATM   25  O4  UNL     1       1.007  -0.034  15.235  1.00  0.00    -0.400 OA
ATOM     26  H4  UNL     1       0.982  -0.823  15.764  1.00  0.00     0.209 HD
ENDBRANCH  24  25
ENDBRANCH  20  24
ENDBRANCH   8  15
BRANCH   1  27
HETATM   27  C2  UNL     1       8.473   6.640  15.827  1.00  0.00     0.267 C 
HETATM   28  O2  UNL     1       7.860   6.601  14.733  1.00  0.00    -0.264 OA
BRANCH  27  29
HETATM   29  O1  UNL     1       9.208   7.829  16.028  1.00  0.00    -0.326 OA
HETATM   30  C1  UNL     1      10.509   7.990  15.514  1.00  0.00     0.213 C 
ENDBRANCH  27  29
ENDBRANCH   1  27
TORSDOF 6
ENDMDL
MODEL 4
REMARK VINA RESULT: -9.147757744      2.517      3.927
REMARK  6 active torsions:
REMARK  status: ('A' for Active; 'I' for Inactive)
REMARK    1  A    between atoms: O1_2  and  C2_3 
REMARK    2  A    between atoms: C2_3  and  C3_5 
REMARK    3  A    between atoms: C10_12  and  C11_13 
REMARK    4  A    between atoms: C16_18  and  C17_19 
REMARK    5  A    between atoms: C16_18  and  C18_21 
REMARK    6  A    between atoms: C18_21  and  O4_22 
ROOT
HETATM    1  C3  UNL     1       7.343   5.046  16.924  1.00  0.00     0.052 C 
HETATM    2  C4  UNL     1       6.247   5.823  16.259  1.00  0.00     0.020 C 
HETATM    3  C5  UNL     1       5.179   4.807  15.833  1.00  0.00     0.004 C 
HETATM    4  C6  UNL     1       5.522   4.086  14.586  1.00  0.00     0.031 C 
HETATM    5  C7  UNL     1       6.148   2.730  14.776  1.00  0.00     0.030 C 
HETATM    6  C8  UNL     1       6.900   2.420  13.497  1.00  0.00     0.036 C 
HETATM    7  C9  UNL     1       5.874   1.677  12.691  1.00  0.00     0.055 C 
HETATM    8  C10 UNL     1       5.027   1.072  13.761  1.00  0.00    -0.009 C 
HETATM    9  N1  UNL     1       5.213   1.678  14.867  1.00  0.00    -0.386 N 
ATOM     10  H1  UNL     1       4.734   1.428  15.732  1.00  0.00     0.160 HD
HETATM   11  C20 UNL     1       7.156   2.720  15.927  1.00  0.00     0.036 C 
HETATM   12  C21 UNL     1       7.819   4.020  15.960  1.00  0.00     0.006 C 
HETATM   13  C22 UNL     1       9.177   4.180  16.590  1.00  0.00     0.007 C 
HETATM   14  C23 UNL     1       8.751   5.656  16.751  1.00  0.00     0.020 C 
ENDROOT
BRANCH   8  15
HETATM   15  C11 UNL     1       4.109  -0.077  13.519  1.00  0.00    -0.004 C 
HETATM   16  C12 UNL     1       4.935  -1.333  13.287  1.00  0.00     0.021 C 
HETATM   17  C13 UNL     1       3.388   0.212  12.224  1.00  0.00     0.015 C 
HETATM   18  C14 UNL     1       2.076  -0.475  12.084  1.00  0.00     0.002 C 
HETATM   19  C15 UNL     1       1.821  -1.569  13.061  1.00  0.00     0.019 C 
HETATM   20  C16 UNL     1       2.054  -1.163  14.482  1.00  0.00     0.035 C 
HETATM   21  C19 UNL     1       3.184  -0.212  14.679  1.00  0.00     0.033 C 
BRANCH  20  22
HETATM   22  C17 UNL     1       2.255  -2.363  15.362  1.00  0.00     0.242 C 
HETATM   23  O3  UNL     1       2.852  -2.259  16.413  1.00  0.00    -0.306 OA
ENDBRANCH  20  22
BRANCH  20  24
HETATM   24  C18 UNL     1       0.751  -0.517  14.976  1.00  0.00     0.180 C 
BRANCH  24  25
HETATM   25  O4  UNL     1       0.044  -1.391  15.795  1.00  0.00    -0.400 OA
ATOM     26  H4  UNL     1      -0.391  -0.920  16.496  1.00  0.00     0.209 HD
ENDBRANCH  24  25
ENDBRANCH  20  24
ENDBRANCH   8  15
BRANCH   1  27
HETATM   27  C2  UNL     1       7.170   4.717  18.328  1.00  0.00     0.267 C 
HETATM   28  O2  UNL     1       7.433   5.426  19.330  1.00  0.00    -0.264 OA
BRANCH  27  29
HETATM   29  O1  UNL     1       6.640   3.448  18.650  1.00  0.00    -0.326 OA
HETATM   30  C1  UNL     1       6.535   3.006  19.982  1.00  0.00     0.213 C 
ENDBRANCH  27  29
ENDBRANCH   1  27
TORSDOF 6
ENDMDL
MODEL 5
REMARK VINA RESULT: -9.084537383      1.963      2.783
REMARK  6 active torsions:
REMARK  status: ('A' for Active; 'I' for Inactive)
REMARK    1  A    between atoms: O1_2  and  C2_3 
REMARK    2  A    between atoms: C2_3  and  C3_5 
REMARK    3  A    between atoms: C10_12  and  C11_13 
REMARK    4  A    between atoms: C16_18  and  C17_19 
REMARK    5  A    between atoms: C16_18  and  C18_21 
REMARK    6  A    between atoms: C18_21  and  O4_22 
ROOT
HETATM    1  C3  UNL     1       8.597   5.748  16.951  1.00  0.00     0.052 C 
HETATM    2  C4  UNL     1       9.747   4.786  16.928  1.00  0.00     0.020 C 
HETATM    3  C5  UNL     1       9.326   3.615  16.029  1.00  0.00     0.004 C 
HETATM    4  C6  UNL     1       8.436   2.647  16.708  1.00  0.00     0.031 C 
HETATM    5  C7  UNL     1       6.964   2.835  16.453  1.00  0.00     0.030 C 
HETATM    6  C8  UNL     1       6.238   2.164  17.603  1.00  0.00     0.036 C 
HETATM    7  C9  UNL     1       6.010   0.777  17.075  1.00  0.00     0.055 C 
HETATM    8  C10 UNL     1       5.960   1.017  15.602  1.00  0.00    -0.009 C 
HETATM    9  N1  UNL     1       6.489   2.142  15.320  1.00  0.00    -0.386 N 
ATOM     10  H1  UNL     1       6.561   2.506  14.370  1.00  0.00     0.160 HD
HETATM   11  C20 UNL     1       6.567   4.313  16.446  1.00  0.00     0.036 C 
HETATM   12  C21 UNL     1       7.397   5.009  17.423  1.00  0.00     0.006 C 
HETATM   13  C22 UNL     1       6.945   6.306  18.038  1.00  0.00     0.007 C 
HETATM   14  C23 UNL     1       8.454   6.538  18.270  1.00  0.00     0.020 C 
ENDROOT
BRANCH   8  15
HETATM   15  C11 UNL     1       5.366   0.046  14.640  1.00  0.00    -0.004 C 
HETATM   16  C12 UNL     1       4.389  -0.854  15.380  1.00  0.00     0.021 C 
HETATM   17  C13 UNL     1       6.495  -0.839  14.167  1.00  0.00     0.015 C 
HETATM   18  C14 UNL     1       6.266  -1.472  12.841  1.00  0.00     0.002 C 
HETATM   19  C15 UNL     1       4.867  -1.409  12.336  1.00  0.00     0.019 C 
HETATM   20  C16 UNL     1       4.286  -0.030  12.369  1.00  0.00     0.035 C 
HETATM   21  C19 UNL     1       4.717   0.798  13.530  1.00  0.00     0.033 C 
BRANCH  20  22
HETATM   22  C17 UNL     1       2.786  -0.074  12.319  1.00  0.00     0.242 C 
HETATM   23  O3  UNL     1       2.202  -1.133  12.408  1.00  0.00    -0.306 OA
ENDBRANCH  20  22
BRANCH  20  24
HETATM   24  C18 UNL     1       4.711   0.659  11.064  1.00  0.00     0.180 C 
BRANCH  24  25
HETATM   25  O4  UNL     1       3.978   1.823  10.856  1.00  0.00    -0.400 OA
ATOM     26  H4  UNL     1       4.295   2.526  11.412  1.00  0.00     0.209 HD
ENDBRANCH  24  25
ENDBRANCH  20  24
ENDBRANCH   8  15
BRANCH   1  27
HETATM   27  C2  UNL     1       8.498   6.695  15.853  1.00  0.00     0.267 C 
HETATM   28  O2  UNL     1       7.871   6.570  14.774  1.00  0.00    -0.264 OA
BRANCH  27  29
HETATM   29  O1  UNL     1       9.180   7.926  15.979  1.00  0.00    -0.326 OA
HETATM   30  C1  UNL     1      10.469   8.116  15.445  1.00  0.00     0.213 C 
ENDBRANCH  27  29
ENDBRANCH   1  27
TORSDOF 6
ENDMDL
