MODEL 1
REMARK VINA RESULT: -9.978621862      0.000      0.000
REMARK  5 active torsions:
REMARK  status: ('A' for Active; 'I' for Inactive)
REMARK    1  A    between atoms: C2_2  and  C3_3 
REMARK    2  A    between atoms: C3_3  and  C5_5 
REMARK    3  A    between atoms: C5_5  and  C6_6 
REMARK    4  A    between atoms: C6_6  and  C7_7 
REMARK    5  A    between atoms: C8_8  and  O1_9 
ROOT
HETATM    1  C7  UNL     1       4.335  -0.387  15.560  1.00  0.00     0.024 C 
HETATM    2  C8  UNL     1       4.508   0.222  16.935  1.00  0.00     0.132 C 
HETATM    3  C9  UNL     1       4.943   1.643  16.699  1.00  0.00    -0.001 C 
HETATM    4  C10 UNL     1       3.671   2.448  16.725  1.00  0.00     0.019 C 
HETATM    5  C11 UNL     1       5.688   1.539  15.452  1.00  0.00     0.035 A 
HETATM    6  C12 UNL     1       5.356   2.366  14.310  1.00  0.00     0.127 A 
HETATM    7  C13 UNL     1       5.017   1.084  13.544  1.00  0.00     0.042 A 
HETATM    8  C14 UNL     1       5.321   0.252  14.724  1.00  0.00    -0.029 A 
HETATM    9  C15 UNL     1       6.522  -0.656  14.406  1.00  0.00     0.016 C 
HETATM   10  O2  UNL     1       6.488   3.041  13.886  1.00  0.00    -0.385 OA
HETATM   11  C16 UNL     1       7.226   3.607  14.938  1.00  0.00     0.173 C 
HETATM   12  C17 UNL     1       6.360   4.122  16.062  1.00  0.00     0.020 C 
HETATM   13  C18 UNL     1       6.754   5.610  16.235  1.00  0.00     0.013 C 
HETATM   14  C19 UNL     1       6.497   3.496  17.377  1.00  0.00     0.102 C 
HETATM   15  C20 UNL     1       7.930   3.352  17.715  1.00  0.00     0.264 C 
HETATM   16  O3  UNL     1       8.888   4.039  17.306  1.00  0.00    -0.265 OA
HETATM   17  O4  UNL     1       8.015   2.297  18.584  1.00  0.00    -0.320 OA
HETATM   18  C21 UNL     1       6.987   1.387  18.187  1.00  0.00     0.189 C 
HETATM   19  C22 UNL     1       5.839   2.236  17.751  1.00  0.00     0.001 C 
HETATM   20  C23 UNL     1       4.946   2.393  18.997  1.00  0.00     0.019 C 
ENDROOT
BRANCH   1  21
HETATM   21  C6  UNL     1       2.930  -0.483  15.076  1.00  0.00     0.008 C 
BRANCH  21  22
HETATM   22  C5  UNL     1       2.509  -1.868  14.649  1.00  0.00     0.005 C 
BRANCH  22  23
HETATM   23  C3  UNL     1       2.207  -1.973  13.190  1.00  0.00    -0.019 C 
HETATM   24  C4  UNL     1       2.125  -0.684  12.463  1.00  0.00     0.010 C 
BRANCH  23  25
HETATM   25  C2  UNL     1       3.154  -2.940  12.521  1.00  0.00    -0.000 C 
HETATM   26  C1  UNL     1       4.268  -2.114  11.860  1.00  0.00     0.005 C 
ENDBRANCH  23  25
ENDBRANCH  22  23
ENDBRANCH  21  22
ENDBRANCH   1  21
BRANCH   2  27
HETATM   27  O1  UNL     1       5.363  -0.528  17.717  1.00  0.00    -0.394 OA
ATOM     28  H1  UNL     1       4.887  -1.124  18.283  1.00  0.00     0.210 HD
ENDBRANCH   2  27
TORSDOF 5
ENDMDL
MODEL 2
REMARK VINA RESULT: -9.926016808      1.522      3.693
REMARK  5 active torsions:
REMARK  status: ('A' for Active; 'I' for Inactive)
REMARK    1  A    between atoms: C2_2  and  C3_3 
REMARK    2  A    between atoms: C3_3  and  C5_5 
REMARK    3  A    between atoms: C5_5  and  C6_6 
REMARK    4  A    between atoms: C6_6  and  C7_7 
REMARK    5  A    between atoms: C8_8  and  O1_9 
ROOT
HETATM    1  C7  UNL     1       5.088   1.739  14.722  1.00  0.00     0.024 C 
HETATM    2  C8  UNL     1       6.285   2.574  15.126  1.00  0.00     0.132 C 
HETATM    3  C9  UNL     1       6.659   2.107  16.506  1.00  0.00    -0.001 C 
HETATM    4  C10 UNL     1       7.720   1.062  16.288  1.00  0.00     0.019 C 
HETATM    5  C11 UNL     1       5.374   1.705  17.060  1.00  0.00     0.035 A 
HETATM    6  C12 UNL     1       5.176   0.378  17.607  1.00  0.00     0.127 A 
HETATM    7  C13 UNL     1       4.130   0.139  16.514  1.00  0.00     0.042 A 
HETATM    8  C14 UNL     1       4.366   1.478  15.941  1.00  0.00    -0.029 A 
HETATM    9  C15 UNL     1       3.081   2.316  16.072  1.00  0.00     0.016 C 
HETATM   10  O2  UNL     1       4.688   0.480  18.898  1.00  0.00    -0.385 OA
HETATM   11  C16 UNL     1       5.362   1.438  19.675  1.00  0.00     0.173 C 
HETATM   12  C17 UNL     1       6.837   1.521  19.367  1.00  0.00     0.020 C 
HETATM   13  C18 UNL     1       7.552   1.292  20.722  1.00  0.00     0.013 C 
HETATM   14  C19 UNL     1       7.356   2.776  18.825  1.00  0.00     0.102 C 
HETATM   15  C20 UNL     1       6.820   3.915  19.603  1.00  0.00     0.264 C 
HETATM   16  O3  UNL     1       6.433   3.921  20.788  1.00  0.00    -0.265 OA
HETATM   17  O4  UNL     1       6.827   4.993  18.758  1.00  0.00    -0.320 OA
HETATM   18  C21 UNL     1       6.568   4.464  17.455  1.00  0.00     0.189 C 
HETATM   19  C22 UNL     1       7.270   3.146  17.406  1.00  0.00     0.001 C 
HETATM   20  C23 UNL     1       8.655   3.440  16.796  1.00  0.00     0.019 C 
ENDROOT
BRANCH   1  21
HETATM   21  C6  UNL     1       5.383   0.607  13.800  1.00  0.00     0.008 C 
BRANCH  21  22
HETATM   22  C5  UNL     1       4.599   0.631  12.510  1.00  0.00     0.005 C 
BRANCH  22  23
HETATM   23  C3  UNL     1       3.750  -0.581  12.310  1.00  0.00    -0.019 C 
HETATM   24  C4  UNL     1       4.069  -1.734  13.185  1.00  0.00     0.010 C 
BRANCH  23  25
HETATM   25  C2  UNL     1       2.286  -0.218  12.365  1.00  0.00    -0.000 C 
HETATM   26  C1  UNL     1       1.764  -0.613  13.756  1.00  0.00     0.005 C 
ENDBRANCH  23  25
ENDBRANCH  22  23
ENDBRANCH  21  22
ENDBRANCH   1  21
BRANCH   2  27
HETATM   27  O1  UNL     1       6.018   3.925  15.020  1.00  0.00    -0.394 OA
ATOM     28  H1  UNL     1       6.703   4.379  14.542  1.00  0.00     0.210 HD
ENDBRANCH   2  27
TORSDOF 5
ENDMDL
MODEL 3
REMARK VINA RESULT: -9.810784730      1.891      3.943
REMARK  5 active torsions:
REMARK  status: ('A' for Active; 'I' for Inactive)
REMARK    1  A    between atoms: C2_2  and  C3_3 
REMARK    2  A    between atoms: C3_3  and  C5_5 
REMARK    3  A    between atoms: C5_5  and  C6_6 
REMARK    4  A    between atoms: C6_6  and  C7_7 
REMARK    5  A    between atoms: C8_8  and  O1_9 
ROOT
HETATM    1  C7  UNL     1       5.043   1.733  14.713  1.00  0.00     0.024 C 
HETATM    2  C8  UNL     1       6.263   2.548  15.087  1.00  0.00     0.132 C 
HETATM    3  C9  UNL     1       6.645   2.097  16.470  1.00  0.00    -0.001 C 
HETATM    4  C10 UNL     1       7.679   1.024  16.257  1.00  0.00     0.019 C 
HETATM    5  C11 UNL     1       5.359   1.734  17.047  1.00  0.00     0.035 A 
HETATM    6  C12 UNL     1       5.139   0.421  17.620  1.00  0.00     0.127 A 
HETATM    7  C13 UNL     1       4.073   0.187  16.546  1.00  0.00     0.042 A 
HETATM    8  C14 UNL     1       4.331   1.510  15.946  1.00  0.00    -0.029 A 
HETATM    9  C15 UNL     1       3.067   2.380  16.079  1.00  0.00     0.016 C 
HETATM   10  O2  UNL     1       4.670   0.558  18.916  1.00  0.00    -0.385 OA
HETATM   11  C16 UNL     1       5.376   1.513  19.666  1.00  0.00     0.173 C 
HETATM   12  C17 UNL     1       6.848   1.557  19.339  1.00  0.00     0.020 C 
HETATM   13  C18 UNL     1       7.576   1.336  20.687  1.00  0.00     0.013 C 
HETATM   14  C19 UNL     1       7.388   2.791  18.767  1.00  0.00     0.102 C 
HETATM   15  C20 UNL     1       6.888   3.956  19.531  1.00  0.00     0.264 C 
HETATM   16  O3  UNL     1       6.517   3.991  20.721  1.00  0.00    -0.265 OA
HETATM   17  O4  UNL     1       6.908   5.018  18.667  1.00  0.00    -0.320 OA
HETATM   18  C21 UNL     1       6.620   4.471  17.377  1.00  0.00     0.189 C 
HETATM   19  C22 UNL     1       7.292   3.138  17.342  1.00  0.00     0.001 C 
HETATM   20  C23 UNL     1       8.674   3.390  16.709  1.00  0.00     0.019 C 
ENDROOT
BRANCH   1  21
HETATM   21  C6  UNL     1       5.299   0.579  13.808  1.00  0.00     0.008 C 
BRANCH  21  22
HETATM   22  C5  UNL     1       6.300   0.854  12.712  1.00  0.00     0.005 C 
BRANCH  22  23
HETATM   23  C3  UNL     1       7.046  -0.362  12.270  1.00  0.00    -0.019 C 
HETATM   24  C4  UNL     1       7.199  -1.422  13.295  1.00  0.00     0.010 C 
BRANCH  23  25
HETATM   25  C2  UNL     1       6.469  -0.899  10.983  1.00  0.00    -0.000 C 
HETATM   26  C1  UNL     1       5.848  -2.270  11.292  1.00  0.00     0.005 C 
ENDBRANCH  23  25
ENDBRANCH  22  23
ENDBRANCH  21  22
ENDBRANCH   1  21
BRANCH   2  27
HETATM   27  O1  UNL     1       6.025   3.902  14.960  1.00  0.00    -0.394 OA
ATOM     28  H1  UNL     1       6.261   4.373  15.751  1.00  0.00     0.210 HD
ENDBRANCH   2  27
TORSDOF 5
ENDMDL
MODEL 4
REMARK VINA RESULT: -9.499386666      2.002      6.057
REMARK  5 active torsions:
REMARK  status: ('A' for Active; 'I' for Inactive)
REMARK    1  A    between atoms: C2_2  and  C3_3 
REMARK    2  A    between atoms: C3_3  and  C5_5 
REMARK    3  A    between atoms: C5_5  and  C6_6 
REMARK    4  A    between atoms: C6_6  and  C7_7 
REMARK    5  A    between atoms: C8_8  and  O1_9 
ROOT
HETATM    1  C7  UNL     1       5.903   3.025  16.751  1.00  0.00     0.024 C 
HETATM    2  C8  UNL     1       5.181   1.706  16.928  1.00  0.00     0.132 C 
HETATM    3  C9  UNL     1       5.319   0.987  15.614  1.00  0.00    -0.001 C 
HETATM    4  C10 UNL     1       6.533   0.112  15.776  1.00  0.00     0.019 C 
HETATM    5  C11 UNL     1       5.363   2.086  14.659  1.00  0.00     0.035 A 
HETATM    6  C12 UNL     1       6.454   2.215  13.714  1.00  0.00     0.127 A 
HETATM    7  C13 UNL     1       6.811   3.544  14.385  1.00  0.00     0.042 A 
HETATM    8  C14 UNL     1       5.721   3.386  15.368  1.00  0.00    -0.029 A 
HETATM    9  C15 UNL     1       4.694   4.515  15.169  1.00  0.00     0.016 C 
HETATM   10  O2  UNL     1       5.942   2.304  12.431  1.00  0.00    -0.385 OA
HETATM   11  C16 UNL     1       4.927   1.369  12.169  1.00  0.00     0.173 C 
HETATM   12  C17 UNL     1       5.152   0.042  12.850  1.00  0.00     0.020 C 
HETATM   13  C18 UNL     1       5.121  -1.013  11.716  1.00  0.00     0.013 C 
HETATM   14  C19 UNL     1       4.177  -0.390  13.851  1.00  0.00     0.102 C 
HETATM   15  C20 UNL     1       2.806  -0.183  13.335  1.00  0.00     0.264 C 
HETATM   16  O3  UNL     1       2.430  -0.152  12.146  1.00  0.00    -0.265 OA
HETATM   17  O4  UNL     1       2.002  -0.026  14.433  1.00  0.00    -0.320 OA
HETATM   18  C21 UNL     1       2.811   0.632  15.411  1.00  0.00     0.189 C 
HETATM   19  C22 UNL     1       4.185   0.071  15.246  1.00  0.00     0.001 C 
HETATM   20  C23 UNL     1       4.274  -1.099  16.246  1.00  0.00     0.019 C 
ENDROOT
BRANCH   1  21
HETATM   21  C6  UNL     1       7.268   3.089  17.342  1.00  0.00     0.008 C 
BRANCH  21  22
HETATM   22  C5  UNL     1       7.409   2.386  18.670  1.00  0.00     0.005 C 
BRANCH  22  23
HETATM   23  C3  UNL     1       7.013   3.233  19.835  1.00  0.00    -0.019 C 
HETATM   24  C4  UNL     1       6.926   4.687  19.564  1.00  0.00     0.010 C 
BRANCH  23  25
HETATM   25  C2  UNL     1       5.754   2.700  20.473  1.00  0.00    -0.000 C 
HETATM   26  C1  UNL     1       5.897   1.173  20.575  1.00  0.00     0.005 C 
ENDBRANCH  23  25
ENDBRANCH  22  23
ENDBRANCH  21  22
ENDBRANCH   1  21
BRANCH   2  27
HETATM   27  O1  UNL     1       3.882   1.893  17.357  1.00  0.00    -0.394 OA
ATOM     28  H1  UNL     1       3.625   2.806  17.300  1.00  0.00     0.210 HD
ENDBRANCH   2  27
TORSDOF 5
ENDMDL
MODEL 5
REMARK VINA RESULT: -9.377437236      2.015      6.234
REMARK  5 active torsions:
REMARK  status: ('A' for Active; 'I' for Inactive)
REMARK    1  A    between atoms: C2_2  and  C3_3 
REMARK    2  A    between atoms: C3_3  and  C5_5 
REMARK    3  A    between atoms: C5_5  and  C6_6 
REMARK    4  A    between atoms: C6_6  and  C7_7 
REMARK    5  A    between atoms: C8_8  and  O1_9 
ROOT
HETATM    1  C7  UNL     1       6.096   2.781  16.543  1.00  0.00     0.024 C 
HETATM    2  C8  UNL     1       5.341   1.484  16.741  1.00  0.00     0.132 C 
HETATM    3  C9  UNL     1       5.334   0.809  15.396  1.00  0.00    -0.001 C 
HETATM    4  C10 UNL     1       6.522  -0.115  15.420  1.00  0.00     0.019 C 
HETATM    5  C11 UNL     1       5.337   1.939  14.478  1.00  0.00     0.035 A 
HETATM    6  C12 UNL     1       6.344   2.062  13.444  1.00  0.00     0.127 A 
HETATM    7  C13 UNL     1       6.811   3.353  14.124  1.00  0.00     0.042 A 
HETATM    8  C14 UNL     1       5.807   3.198  15.194  1.00  0.00    -0.029 A 
HETATM    9  C15 UNL     1       4.812   4.371  15.125  1.00  0.00     0.016 C 
HETATM   10  O2  UNL     1       5.725   2.217  12.215  1.00  0.00    -0.385 OA
HETATM   11  C16 UNL     1       4.655   1.330  12.014  1.00  0.00     0.173 C 
HETATM   12  C17 UNL     1       4.886  -0.029  12.629  1.00  0.00     0.020 C 
HETATM   13  C18 UNL     1       4.714  -1.040  11.468  1.00  0.00     0.013 C 
HETATM   14  C19 UNL     1       3.987  -0.462  13.698  1.00  0.00     0.102 C 
HETATM   15  C20 UNL     1       2.585  -0.186  13.314  1.00  0.00     0.264 C 
HETATM   16  O3  UNL     1       2.107  -0.098  12.166  1.00  0.00    -0.265 OA
HETATM   17  O4  UNL     1       1.888  -0.039  14.484  1.00  0.00    -0.320 OA
HETATM   18  C21 UNL     1       2.805   0.552  15.408  1.00  0.00     0.189 C 
HETATM   19  C22 UNL     1       4.136  -0.052  15.102  1.00  0.00     0.001 C 
HETATM   20  C23 UNL     1       4.267  -1.260  16.050  1.00  0.00     0.019 C 
ENDROOT
BRANCH   1  21
HETATM   21  C6  UNL     1       7.509   2.774  17.011  1.00  0.00     0.008 C 
BRANCH  21  22
HETATM   22  C5  UNL     1       7.672   2.823  18.511  1.00  0.00     0.005 C 
BRANCH  22  23
HETATM   23  C3  UNL     1       6.673   3.703  19.188  1.00  0.00    -0.019 C 
HETATM   24  C4  UNL     1       6.042   3.134  20.402  1.00  0.00     0.010 C 
BRANCH  23  25
HETATM   25  C2  UNL     1       7.259   5.071  19.442  1.00  0.00    -0.000 C 
HETATM   26  C1  UNL     1       6.863   5.971  18.261  1.00  0.00     0.005 C 
ENDBRANCH  23  25
ENDBRANCH  22  23
ENDBRANCH  21  22
ENDBRANCH   1  21
BRANCH   2  27
HETATM   27  O1  UNL     1       4.093   1.703  17.289  1.00  0.00    -0.394 OA
ATOM     28  H1  UNL     1       3.618   2.377  16.818  1.00  0.00     0.210 HD
ENDBRANCH   2  27
TORSDOF 5
ENDMDL
