MODEL 1
REMARK VINA RESULT: -9.545804527      0.000      0.000
REMARK  6 active torsions:
REMARK  status: ('A' for Active; 'I' for Inactive)
REMARK    1  A    between atoms: C3_3  and  C5_5 
REMARK    2  A    between atoms: C5_5  and  O2_7 
REMARK    3  A    between atoms: O2_7  and  C6_8 
REMARK    4  A    between atoms: C6_8  and  C7_9 
REMARK    5  A    between atoms: C17_19  and  O3_20 
REMARK    6  A    between atoms: O3_20  and  C18_21 
ROOT
HETATM    1  C7  UNL     1       6.130   2.792  15.699  1.00  0.00    -0.003 C 
HETATM    2  C8  UNL     1       5.264   3.910  15.181  1.00  0.00     0.013 C 
HETATM    3  C9  UNL     1       6.079   5.102  14.742  1.00  0.00     0.006 C 
HETATM    4  C10 UNL     1       7.034   5.577  15.779  1.00  0.00    -0.010 C 
HETATM    5  C11 UNL     1       7.998   6.547  15.128  1.00  0.00     0.011 C 
HETATM    6  C12 UNL     1       7.845   4.516  16.450  1.00  0.00    -0.040 C 
HETATM    7  C13 UNL     1       8.130   5.061  17.863  1.00  0.00     0.015 C 
HETATM    8  C14 UNL     1       9.207   4.334  15.811  1.00  0.00     0.015 C 
HETATM    9  C15 UNL     1       7.195   3.202  16.633  1.00  0.00     0.007 C 
HETATM   10  C16 UNL     1       6.585   3.049  18.037  1.00  0.00     0.039 C 
HETATM   11  C17 UNL     1       5.939   1.662  17.831  1.00  0.00     0.142 C 
HETATM   12  C20 UNL     1       5.218   1.912  16.551  1.00  0.00     0.000 A 
HETATM   13  C21 UNL     1       3.774   2.127  16.642  1.00  0.00     0.018 A 
HETATM   14  C22 UNL     1       4.344   0.916  15.937  1.00  0.00    -0.006 A 
HETATM   15  C23 UNL     1       4.238  -0.446  16.553  1.00  0.00     0.011 C 
ENDROOT
BRANCH   1  16
HETATM   16  C6  UNL     1       6.676   1.932  14.580  1.00  0.00     0.190 C 
BRANCH  16  17
HETATM   17  O2  UNL     1       6.129   2.271  13.322  1.00  0.00    -0.317 OA
BRANCH  17  18
HETATM   18  C5  UNL     1       5.870   1.306  12.350  1.00  0.00     0.288 C 
HETATM   19  O1  UNL     1       6.607   1.360  11.331  1.00  0.00    -0.260 OA
BRANCH  18  20
HETATM   20  C3  UNL     1       4.836   0.294  12.465  1.00  0.00     0.009 C 
HETATM   21  C2  UNL     1       3.571   0.522  12.232  1.00  0.00    -0.018 C 
HETATM   22  C1  UNL     1       2.533  -0.531  12.353  1.00  0.00     0.036 C 
HETATM   23  C4  UNL     1       5.230  -1.083  12.865  1.00  0.00     0.054 C 
ENDBRANCH  18  20
ENDBRANCH  17  18
ENDBRANCH  16  17
ENDBRANCH   1  16
BRANCH  11  24
HETATM   24  O3  UNL     1       5.102   1.411  18.941  1.00  0.00    -0.315 OA
BRANCH  24  25
HETATM   25  C18 UNL     1       5.575   1.335  20.242  1.00  0.00     0.255 C 
HETATM   26  C19 UNL     1       5.838   2.539  21.080  1.00  0.00     0.126 C 
HETATM   27  O4  UNL     1       5.800   0.211  20.769  1.00  0.00    -0.266 OA
ENDBRANCH  24  25
ENDBRANCH  11  24
TORSDOF 6
ENDMDL
MODEL 2
REMARK VINA RESULT: -9.281811010      1.490      5.901
REMARK  6 active torsions:
REMARK  status: ('A' for Active; 'I' for Inactive)
REMARK    1  A    between atoms: C3_3  and  C5_5 
REMARK    2  A    between atoms: C5_5  and  O2_7 
REMARK    3  A    between atoms: O2_7  and  C6_8 
REMARK    4  A    between atoms: C6_8  and  C7_9 
REMARK    5  A    between atoms: C17_19  and  O3_20 
REMARK    6  A    between atoms: O3_20  and  C18_21 
ROOT
HETATM    1  C7  UNL     1       6.455   1.897  15.757  1.00  0.00    -0.003 C 
HETATM    2  C8  UNL     1       7.933   1.684  15.953  1.00  0.00     0.013 C 
HETATM    3  C9  UNL     1       8.607   2.900  16.542  1.00  0.00     0.006 C 
HETATM    4  C10 UNL     1       8.323   4.153  15.793  1.00  0.00    -0.010 C 
HETATM    5  C11 UNL     1       8.776   5.325  16.638  1.00  0.00     0.011 C 
HETATM    6  C12 UNL     1       6.890   4.383  15.432  1.00  0.00    -0.040 C 
HETATM    7  C13 UNL     1       6.931   5.207  14.130  1.00  0.00     0.015 C 
HETATM    8  C14 UNL     1       6.172   5.260  16.437  1.00  0.00     0.015 C 
HETATM    9  C15 UNL     1       6.080   3.183  15.141  1.00  0.00     0.007 C 
HETATM   10  C16 UNL     1       5.988   2.898  13.631  1.00  0.00     0.039 C 
HETATM   11  C17 UNL     1       5.190   1.580  13.719  1.00  0.00     0.142 C 
HETATM   12  C20 UNL     1       6.013   0.858  14.730  1.00  0.00     0.000 A 
HETATM   13  C21 UNL     1       6.906  -0.185  14.226  1.00  0.00     0.018 A 
HETATM   14  C22 UNL     1       5.735  -0.521  15.124  1.00  0.00    -0.006 A 
HETATM   15  C23 UNL     1       4.526  -1.212  14.573  1.00  0.00     0.011 C 
ENDROOT
BRANCH   1  16
HETATM   16  C6  UNL     1       5.672   1.643  17.027  1.00  0.00     0.190 C 
BRANCH  16  17
HETATM   17  O2  UNL     1       6.335   0.753  17.902  1.00  0.00    -0.317 OA
BRANCH  17  18
HETATM   18  C5  UNL     1       6.372   0.968  19.279  1.00  0.00     0.288 C 
HETATM   19  O1  UNL     1       6.394  -0.073  19.984  1.00  0.00    -0.260 OA
BRANCH  18  20
HETATM   20  C3  UNL     1       6.385   2.282  19.896  1.00  0.00     0.009 C 
HETATM   21  C2  UNL     1       6.915   3.338  19.340  1.00  0.00    -0.018 C 
HETATM   22  C1  UNL     1       6.913   4.672  19.991  1.00  0.00     0.036 C 
HETATM   23  C4  UNL     1       5.758   2.444  21.235  1.00  0.00     0.054 C 
ENDBRANCH  18  20
ENDBRANCH  17  18
ENDBRANCH  16  17
ENDBRANCH   1  16
BRANCH  11  24
HETATM   24  O3  UNL     1       5.188   0.996  12.432  1.00  0.00    -0.315 OA
BRANCH  24  25
HETATM   25  C18 UNL     1       4.056   0.925  11.635  1.00  0.00     0.255 C 
HETATM   26  C19 UNL     1       2.852   0.129  12.006  1.00  0.00     0.126 C 
HETATM   27  O4  UNL     1       4.011   1.554  10.542  1.00  0.00    -0.266 OA
ENDBRANCH  24  25
ENDBRANCH  11  24
TORSDOF 6
ENDMDL
MODEL 3
REMARK VINA RESULT: -9.248278336      2.335      4.736
REMARK  6 active torsions:
REMARK  status: ('A' for Active; 'I' for Inactive)
REMARK    1  A    between atoms: C3_3  and  C5_5 
REMARK    2  A    between atoms: C5_5  and  O2_7 
REMARK    3  A    between atoms: O2_7  and  C6_8 
REMARK    4  A    between atoms: C6_8  and  C7_9 
REMARK    5  A    between atoms: C17_19  and  O3_20 
REMARK    6  A    between atoms: O3_20  and  C18_21 
ROOT
HETATM    1  C7  UNL     1       6.606   2.646  17.237  1.00  0.00    -0.003 C 
HETATM    2  C8  UNL     1       7.723   1.647  17.386  1.00  0.00     0.013 C 
HETATM    3  C9  UNL     1       7.604   0.850  18.663  1.00  0.00     0.006 C 
HETATM    4  C10 UNL     1       7.456   1.697  19.875  1.00  0.00    -0.010 C 
HETATM    5  C11 UNL     1       7.032   0.810  21.027  1.00  0.00     0.011 C 
HETATM    6  C12 UNL     1       6.460   2.809  19.772  1.00  0.00    -0.040 C 
HETATM    7  C13 UNL     1       6.988   3.910  20.714  1.00  0.00     0.015 C 
HETATM    8  C14 UNL     1       5.103   2.427  20.327  1.00  0.00     0.015 C 
HETATM    9  C15 UNL     1       6.304   3.437  18.445  1.00  0.00     0.007 C 
HETATM   10  C16 UNL     1       7.139   4.721  18.309  1.00  0.00     0.039 C 
HETATM   11  C17 UNL     1       6.815   5.022  16.830  1.00  0.00     0.142 C 
HETATM   12  C20 UNL     1       7.102   3.686  16.236  1.00  0.00     0.000 A 
HETATM   13  C21 UNL     1       8.366   3.547  15.514  1.00  0.00     0.018 A 
HETATM   14  C22 UNL     1       7.038   3.439  14.798  1.00  0.00    -0.006 A 
HETATM   15  C23 UNL     1       6.571   4.532  13.886  1.00  0.00     0.011 C 
ENDROOT
BRANCH   1  16
HETATM   16  C6  UNL     1       5.357   2.018  16.659  1.00  0.00     0.190 C 
BRANCH  16  17
HETATM   17  O2  UNL     1       5.505   0.632  16.429  1.00  0.00    -0.317 OA
BRANCH  17  18
HETATM   18  C5  UNL     1       5.073   0.033  15.247  1.00  0.00     0.288 C 
HETATM   19  O1  UNL     1       3.982  -0.590  15.328  1.00  0.00    -0.260 OA
BRANCH  18  20
HETATM   20  C3  UNL     1       5.797   0.099  13.990  1.00  0.00     0.009 C 
HETATM   21  C2  UNL     1       5.504   0.933  13.029  1.00  0.00    -0.018 C 
HETATM   22  C1  UNL     1       6.263   0.982  11.754  1.00  0.00     0.036 C 
HETATM   23  C4  UNL     1       6.940  -0.829  13.780  1.00  0.00     0.054 C 
ENDBRANCH  18  20
ENDBRANCH  17  18
ENDBRANCH  16  17
ENDBRANCH   1  16
BRANCH  11  24
HETATM   24  O3  UNL     1       7.679   6.056  16.405  1.00  0.00    -0.315 OA
BRANCH  24  25
HETATM   25  C18 UNL     1       8.615   6.649  17.239  1.00  0.00     0.255 C 
HETATM   26  C19 UNL     1      10.060   6.282  17.225  1.00  0.00     0.126 C 
HETATM   27  O4  UNL     1       8.259   7.544  18.055  1.00  0.00    -0.266 OA
ENDBRANCH  24  25
ENDBRANCH  11  24
TORSDOF 6
ENDMDL
MODEL 4
REMARK VINA RESULT: -9.240445078      2.287      4.608
REMARK  6 active torsions:
REMARK  status: ('A' for Active; 'I' for Inactive)
REMARK    1  A    between atoms: C3_3  and  C5_5 
REMARK    2  A    between atoms: C5_5  and  O2_7 
REMARK    3  A    between atoms: O2_7  and  C6_8 
REMARK    4  A    between atoms: C6_8  and  C7_9 
REMARK    5  A    between atoms: C17_19  and  O3_20 
REMARK    6  A    between atoms: O3_20  and  C18_21 
ROOT
HETATM    1  C7  UNL     1       6.676   2.609  17.098  1.00  0.00    -0.003 C 
HETATM    2  C8  UNL     1       7.842   1.675  17.285  1.00  0.00     0.013 C 
HETATM    3  C9  UNL     1       7.710   0.848  18.541  1.00  0.00     0.006 C 
HETATM    4  C10 UNL     1       7.453   1.661  19.758  1.00  0.00    -0.010 C 
HETATM    5  C11 UNL     1       7.028   0.728  20.873  1.00  0.00     0.011 C 
HETATM    6  C12 UNL     1       6.398   2.714  19.625  1.00  0.00    -0.040 C 
HETATM    7  C13 UNL     1       6.814   3.826  20.609  1.00  0.00     0.015 C 
HETATM    8  C14 UNL     1       5.042   2.242  20.106  1.00  0.00     0.015 C 
HETATM    9  C15 UNL     1       6.269   3.357  18.302  1.00  0.00     0.007 C 
HETATM   10  C16 UNL     1       7.031   4.691  18.229  1.00  0.00     0.039 C 
HETATM   11  C17 UNL     1       6.761   5.001  16.740  1.00  0.00     0.142 C 
HETATM   12  C20 UNL     1       7.156   3.696  16.139  1.00  0.00     0.000 A 
HETATM   13  C21 UNL     1       8.459   3.646  15.478  1.00  0.00     0.018 A 
HETATM   14  C22 UNL     1       7.176   3.473  14.696  1.00  0.00    -0.006 A 
HETATM   15  C23 UNL     1       6.689   4.554  13.780  1.00  0.00     0.011 C 
ENDROOT
BRANCH   1  16
HETATM   16  C6  UNL     1       5.496   1.920  16.449  1.00  0.00     0.190 C 
BRANCH  16  17
HETATM   17  O2  UNL     1       5.779   0.582  16.094  1.00  0.00    -0.317 OA
BRANCH  17  18
HETATM   18  C5  UNL     1       5.973   0.199  14.768  1.00  0.00     0.288 C 
HETATM   19  O1  UNL     1       7.041  -0.428  14.541  1.00  0.00    -0.260 OA
BRANCH  18  20
HETATM   20  C3  UNL     1       5.038   0.482  13.695  1.00  0.00     0.009 C 
HETATM   21  C2  UNL     1       5.367   1.097  12.591  1.00  0.00    -0.018 C 
HETATM   22  C1  UNL     1       4.392   1.372  11.507  1.00  0.00     0.036 C 
HETATM   23  C4  UNL     1       3.624   0.047  13.851  1.00  0.00     0.054 C 
ENDBRANCH  18  20
ENDBRANCH  17  18
ENDBRANCH  16  17
ENDBRANCH   1  16
BRANCH  11  24
HETATM   24  O3  UNL     1       7.581   6.092  16.376  1.00  0.00    -0.315 OA
BRANCH  24  25
HETATM   25  C18 UNL     1       8.516   6.654  17.232  1.00  0.00     0.255 C 
HETATM   26  C19 UNL     1       9.964   6.305  17.193  1.00  0.00     0.126 C 
HETATM   27  O4  UNL     1       8.155   7.505  18.092  1.00  0.00    -0.266 OA
ENDBRANCH  24  25
ENDBRANCH  11  24
TORSDOF 6
ENDMDL
MODEL 5
REMARK VINA RESULT: -9.148919368      1.586      5.783
REMARK  6 active torsions:
REMARK  status: ('A' for Active; 'I' for Inactive)
REMARK    1  A    between atoms: C3_3  and  C5_5 
REMARK    2  A    between atoms: C5_5  and  O2_7 
REMARK    3  A    between atoms: O2_7  and  C6_8 
REMARK    4  A    between atoms: C6_8  and  C7_9 
REMARK    5  A    between atoms: C17_19  and  O3_20 
REMARK    6  A    between atoms: O3_20  and  C18_21 
ROOT
HETATM    1  C7  UNL     1       6.385   2.301  15.920  1.00  0.00    -0.003 C 
HETATM    2  C8  UNL     1       7.859   2.120  16.166  1.00  0.00     0.013 C 
HETATM    3  C9  UNL     1       8.520   3.400  16.620  1.00  0.00     0.006 C 
HETATM    4  C10 UNL     1       8.246   4.554  15.725  1.00  0.00    -0.010 C 
HETATM    5  C11 UNL     1       8.680   5.820  16.434  1.00  0.00     0.011 C 
HETATM    6  C12 UNL     1       6.820   4.734  15.314  1.00  0.00    -0.040 C 
HETATM    7  C13 UNL     1       6.883   5.400  13.924  1.00  0.00     0.015 C 
HETATM    8  C14 UNL     1       6.081   5.720  16.195  1.00  0.00     0.015 C 
HETATM    9  C15 UNL     1       6.018   3.504  15.150  1.00  0.00     0.007 C 
HETATM   10  C16 UNL     1       5.956   3.045  13.683  1.00  0.00     0.039 C 
HETATM   11  C17 UNL     1       5.159   1.741  13.910  1.00  0.00     0.142 C 
HETATM   12  C20 UNL     1       5.964   1.147  15.014  1.00  0.00     0.000 A 
HETATM   13  C21 UNL     1       6.870   0.057  14.651  1.00  0.00     0.018 A 
HETATM   14  C22 UNL     1       5.684  -0.178  15.561  1.00  0.00    -0.006 A 
HETATM   15  C23 UNL     1       4.486  -0.934  15.073  1.00  0.00     0.011 C 
ENDROOT
BRANCH   1  16
HETATM   16  C6  UNL     1       5.580   2.194  17.196  1.00  0.00     0.190 C 
BRANCH  16  17
HETATM   17  O2  UNL     1       5.735   3.324  18.030  1.00  0.00    -0.317 OA
BRANCH  17  18
HETATM   18  C5  UNL     1       6.376   3.243  19.265  1.00  0.00     0.288 C 
HETATM   19  O1  UNL     1       6.751   4.342  19.749  1.00  0.00    -0.260 OA
BRANCH  18  20
HETATM   20  C3  UNL     1       6.614   2.000  19.977  1.00  0.00     0.009 C 
HETATM   21  C2  UNL     1       5.889   1.592  20.984  1.00  0.00    -0.018 C 
HETATM   22  C1  UNL     1       6.151   0.315  21.693  1.00  0.00     0.036 C 
HETATM   23  C4  UNL     1       7.742   1.136  19.540  1.00  0.00     0.054 C 
ENDBRANCH  18  20
ENDBRANCH  17  18
ENDBRANCH  16  17
ENDBRANCH   1  16
BRANCH  11  24
HETATM   24  O3  UNL     1       5.182   1.011  12.701  1.00  0.00    -0.315 OA
BRANCH  24  25
HETATM   25  C18 UNL     1       4.090   0.917  11.853  1.00  0.00     0.255 C 
HETATM   26  C19 UNL     1       2.919   0.038  12.134  1.00  0.00     0.126 C 
HETATM   27  O4  UNL     1       4.054   1.594  10.789  1.00  0.00    -0.266 OA
ENDBRANCH  24  25
ENDBRANCH  11  24
TORSDOF 6
ENDMDL
