MODEL 1
REMARK VINA RESULT: -9.894487178      0.000      0.000
REMARK  5 active torsions:
REMARK  status: ('A' for Active; 'I' for Inactive)
REMARK    1  A    between atoms: C4_4  and  C5_5 
REMARK    2  A    between atoms: C5_5  and  C7_7 
REMARK    3  A    between atoms: C8_8  and  C9_9 
REMARK    4  A    between atoms: C21_23  and  C22_24 
REMARK    5  A    between atoms: C22_24  and  O3_25 
ROOT
HETATM    1  C1  UNL     1       5.367   4.347  14.373  1.00  0.00     0.014 C 
HETATM    2  C2  UNL     1       6.391   3.525  14.184  1.00  0.00    -0.088 C 
HETATM    3  C3  UNL     1       6.092   2.551  13.096  1.00  0.00     0.038 C 
HETATM    4  C4  UNL     1       5.439   1.300  13.576  1.00  0.00    -0.003 C 
HETATM    5  C11 UNL     1       6.379   0.537  14.473  1.00  0.00     0.005 C 
HETATM    6  C12 UNL     1       6.344   1.021  15.902  1.00  0.00     0.001 C 
HETATM    7  C13 UNL     1       7.624   1.708  16.318  1.00  0.00     0.013 C 
HETATM    8  C14 UNL     1       7.432   3.201  16.440  1.00  0.00     0.001 C 
HETATM    9  C15 UNL     1       7.538   3.788  15.084  1.00  0.00     0.046 C 
HETATM   10  C16 UNL     1       8.392   3.845  17.455  1.00  0.00     0.137 C 
HETATM   11  C17 UNL     1       7.327   4.913  17.590  1.00  0.00     0.046 C 
HETATM   12  C18 UNL     1       6.412   3.685  17.398  1.00  0.00     0.093 C 
HETATM   13  C19 UNL     1       6.789   2.992  18.679  1.00  0.00     0.287 C 
HETATM   14  O2  UNL     1       6.498   3.758  19.805  1.00  0.00    -0.330 OA
HETATM   15  C20 UNL     1       6.763   2.835  20.835  1.00  0.00     0.208 C 
HETATM   16  C21 UNL     1       6.651   1.483  20.207  1.00  0.00     0.175 C 
HETATM   17  O4  UNL     1       6.265   1.770  18.899  1.00  0.00    -0.323 OA
HETATM   18  O5  UNL     1       8.201   3.027  18.548  1.00  0.00    -0.326 OA
ENDROOT
BRANCH   4  19
HETATM   19  C5  UNL     1       5.131   0.425  12.384  1.00  0.00     0.008 C 
HETATM   20  C6  UNL     1       4.264   1.090  11.368  1.00  0.00     0.014 C 
BRANCH  19  21
HETATM   21  C7  UNL     1       4.478  -0.841  12.802  1.00  0.00    -0.019 C 
HETATM   22  C8  UNL     1       3.210  -0.935  13.142  1.00  0.00     0.046 C 
BRANCH  22  23
HETATM   23  C9  UNL     1       2.637  -2.221  13.545  1.00  0.00     0.145 C 
HETATM   24  C10 UNL     1       1.869  -2.357  14.794  1.00  0.00     0.096 C 
HETATM   25  O1  UNL     1       2.792  -3.235  12.822  1.00  0.00    -0.294 OA
ENDBRANCH  22  23
ENDBRANCH  19  21
ENDBRANCH   4  19
BRANCH  16  26
HETATM   26  C22 UNL     1       5.671   0.578  20.914  1.00  0.00     0.198 C 
BRANCH  26  27
HETATM   27  O3  UNL     1       6.373  -0.163  21.847  1.00  0.00    -0.398 OA
ATOM     28  H3  UNL     1       6.081  -1.065  21.783  1.00  0.00     0.209 HD
ENDBRANCH  26  27
ENDBRANCH  16  26
TORSDOF 5
ENDMDL
MODEL 2
REMARK VINA RESULT: -9.362111097      1.598      2.210
REMARK  5 active torsions:
REMARK  status: ('A' for Active; 'I' for Inactive)
REMARK    1  A    between atoms: C4_4  and  C5_5 
REMARK    2  A    between atoms: C5_5  and  C7_7 
REMARK    3  A    between atoms: C8_8  and  C9_9 
REMARK    4  A    between atoms: C21_23  and  C22_24 
REMARK    5  A    between atoms: C22_24  and  O3_25 
ROOT
HETATM    1  C1  UNL     1       5.157   4.102  14.756  1.00  0.00     0.014 C 
HETATM    2  C2  UNL     1       5.970   3.076  14.543  1.00  0.00    -0.088 C 
HETATM    3  C3  UNL     1       5.357   2.106  13.591  1.00  0.00     0.038 C 
HETATM    4  C4  UNL     1       4.535   1.055  14.256  1.00  0.00    -0.003 C 
HETATM    5  C11 UNL     1       5.410   0.184  15.121  1.00  0.00     0.005 C 
HETATM    6  C12 UNL     1       5.644   0.770  16.491  1.00  0.00     0.001 C 
HETATM    7  C13 UNL     1       7.074   1.209  16.703  1.00  0.00     0.013 C 
HETATM    8  C14 UNL     1       7.193   2.714  16.699  1.00  0.00     0.001 C 
HETATM    9  C15 UNL     1       7.247   3.164  15.289  1.00  0.00     0.046 C 
HETATM   10  C16 UNL     1       8.377   3.221  17.542  1.00  0.00     0.137 C 
HETATM   11  C17 UNL     1       7.565   4.492  17.681  1.00  0.00     0.046 C 
HETATM   12  C18 UNL     1       6.411   3.467  17.706  1.00  0.00     0.093 C 
HETATM   13  C19 UNL     1       6.798   2.809  19.002  1.00  0.00     0.287 C 
HETATM   14  O2  UNL     1       6.802   3.700  20.072  1.00  0.00    -0.330 OA
HETATM   15  C20 UNL     1       7.003   2.822  21.154  1.00  0.00     0.208 C 
HETATM   16  C21 UNL     1       6.555   1.479  20.676  1.00  0.00     0.175 C 
HETATM   17  O4  UNL     1       6.076   1.740  19.393  1.00  0.00    -0.323 OA
HETATM   18  O5  UNL     1       8.164   2.544  18.723  1.00  0.00    -0.326 OA
ENDROOT
BRANCH   4  19
HETATM   19  C5  UNL     1       3.920   0.175  13.193  1.00  0.00     0.008 C 
HETATM   20  C6  UNL     1       3.433  -1.134  13.716  1.00  0.00     0.014 C 
BRANCH  19  21
HETATM   21  C7  UNL     1       4.879  -0.087  12.091  1.00  0.00    -0.019 C 
HETATM   22  C8  UNL     1       5.591  -1.189  11.985  1.00  0.00     0.046 C 
BRANCH  22  23
HETATM   23  C9  UNL     1       6.519  -1.375  10.867  1.00  0.00     0.145 C 
HETATM   24  C10 UNL     1       6.204  -2.290   9.757  1.00  0.00     0.096 C 
HETATM   25  O1  UNL     1       7.607  -0.750  10.839  1.00  0.00    -0.294 OA
ENDBRANCH  22  23
ENDBRANCH  19  21
ENDBRANCH   4  19
BRANCH  16  26
HETATM   26  C22 UNL     1       5.510   0.849  21.565  1.00  0.00     0.198 C 
BRANCH  26  27
HETATM   27  O3  UNL     1       6.066  -0.276  22.145  1.00  0.00    -0.398 OA
ATOM     28  H3  UNL     1       6.603  -0.707  21.491  1.00  0.00     0.209 HD
ENDBRANCH  26  27
ENDBRANCH  16  26
TORSDOF 5
ENDMDL
MODEL 3
REMARK VINA RESULT: -9.346460859      2.619      4.378
REMARK  5 active torsions:
REMARK  status: ('A' for Active; 'I' for Inactive)
REMARK    1  A    between atoms: C4_4  and  C5_5 
REMARK    2  A    between atoms: C5_5  and  C7_7 
REMARK    3  A    between atoms: C8_8  and  C9_9 
REMARK    4  A    between atoms: C21_23  and  C22_24 
REMARK    5  A    between atoms: C22_24  and  O3_25 
ROOT
HETATM    1  C1  UNL     1       7.144   1.275  17.088  1.00  0.00     0.014 C 
HETATM    2  C2  UNL     1       6.173   1.954  16.490  1.00  0.00    -0.088 C 
HETATM    3  C3  UNL     1       5.728   1.255  15.250  1.00  0.00     0.038 C 
HETATM    4  C4  UNL     1       6.485   1.660  14.031  1.00  0.00    -0.003 C 
HETATM    5  C11 UNL     1       6.228   3.112  13.721  1.00  0.00     0.005 C 
HETATM    6  C12 UNL     1       7.123   4.043  14.501  1.00  0.00     0.001 C 
HETATM    7  C13 UNL     1       6.369   4.854  15.529  1.00  0.00     0.013 C 
HETATM    8  C14 UNL     1       6.659   4.372  16.930  1.00  0.00     0.001 C 
HETATM    9  C15 UNL     1       5.795   3.199  17.198  1.00  0.00     0.046 C 
HETATM   10  C16 UNL     1       6.516   5.483  17.985  1.00  0.00     0.137 C 
HETATM   11  C17 UNL     1       7.497   4.662  18.795  1.00  0.00     0.046 C 
HETATM   12  C18 UNL     1       8.068   4.396  17.386  1.00  0.00     0.093 C 
HETATM   13  C19 UNL     1       8.494   5.811  17.106  1.00  0.00     0.287 C 
HETATM   14  O2  UNL     1       9.428   6.278  18.029  1.00  0.00    -0.330 OA
HETATM   15  C20 UNL     1       9.787   7.510  17.449  1.00  0.00     0.208 C 
HETATM   16  C21 UNL     1       9.447   7.390  15.998  1.00  0.00     0.175 C 
HETATM   17  O4  UNL     1       8.994   6.077  15.883  1.00  0.00    -0.323 OA
HETATM   18  O5  UNL     1       7.283   6.479  17.420  1.00  0.00    -0.326 OA
ENDROOT
BRANCH   4  19
HETATM   19  C5  UNL     1       5.989   0.846  12.859  1.00  0.00     0.008 C 
HETATM   20  C6  UNL     1       5.616   1.675  11.677  1.00  0.00     0.014 C 
BRANCH  19  21
HETATM   21  C7  UNL     1       4.819   0.016  13.239  1.00  0.00    -0.019 C 
HETATM   22  C8  UNL     1       3.831  -0.276  12.421  1.00  0.00     0.046 C 
BRANCH  22  23
HETATM   23  C9  UNL     1       2.707  -1.102  12.869  1.00  0.00     0.145 C 
HETATM   24  C10 UNL     1       2.837  -2.564  12.995  1.00  0.00     0.096 C 
HETATM   25  O1  UNL     1       1.607  -0.570  13.155  1.00  0.00    -0.294 OA
ENDBRANCH  22  23
ENDBRANCH  19  21
ENDBRANCH   4  19
BRANCH  16  26
HETATM   26  C22 UNL     1      10.616   7.680  15.088  1.00  0.00     0.198 C 
BRANCH  26  27
HETATM   27  O3  UNL     1      11.532   6.654  15.232  1.00  0.00    -0.398 OA
ATOM     28  H3  UNL     1      11.896   6.707  16.107  1.00  0.00     0.209 HD
ENDBRANCH  26  27
ENDBRANCH  16  26
TORSDOF 5
ENDMDL
MODEL 4
REMARK VINA RESULT: -9.086897165      2.579      4.579
REMARK  5 active torsions:
REMARK  status: ('A' for Active; 'I' for Inactive)
REMARK    1  A    between atoms: C4_4  and  C5_5 
REMARK    2  A    between atoms: C5_5  and  C7_7 
REMARK    3  A    between atoms: C8_8  and  C9_9 
REMARK    4  A    between atoms: C21_23  and  C22_24 
REMARK    5  A    between atoms: C22_24  and  O3_25 
ROOT
HETATM    1  C1  UNL     1       7.354   1.674  18.315  1.00  0.00     0.014 C 
HETATM    2  C2  UNL     1       6.460   2.173  17.470  1.00  0.00    -0.088 C 
HETATM    3  C3  UNL     1       6.120   1.177  16.414  1.00  0.00     0.038 C 
HETATM    4  C4  UNL     1       6.999   1.256  15.213  1.00  0.00    -0.003 C 
HETATM    5  C11 UNL     1       6.805   2.579  14.516  1.00  0.00     0.005 C 
HETATM    6  C12 UNL     1       7.642   3.682  15.115  1.00  0.00     0.001 C 
HETATM    7  C13 UNL     1       6.812   4.728  15.821  1.00  0.00     0.013 C 
HETATM    8  C14 UNL     1       6.956   4.624  17.321  1.00  0.00     0.001 C 
HETATM    9  C15 UNL     1       6.044   3.557  17.795  1.00  0.00     0.046 C 
HETATM   10  C16 UNL     1       6.736   5.969  18.036  1.00  0.00     0.137 C 
HETATM   11  C17 UNL     1       7.617   5.387  19.122  1.00  0.00     0.046 C 
HETATM   12  C18 UNL     1       8.314   4.769  17.891  1.00  0.00     0.093 C 
HETATM   13  C19 UNL     1       8.797   6.066  17.301  1.00  0.00     0.287 C 
HETATM   14  O2  UNL     1       9.648   6.758  18.160  1.00  0.00    -0.330 OA
HETATM   15  C20 UNL     1      10.088   7.800  17.321  1.00  0.00     0.208 C 
HETATM   16  C21 UNL     1       9.886   7.309  15.923  1.00  0.00     0.175 C 
HETATM   17  O4  UNL     1       9.417   6.009  16.106  1.00  0.00    -0.323 OA
HETATM   18  O5  UNL     1       7.576   6.788  17.312  1.00  0.00    -0.326 OA
ENDROOT
BRANCH   4  19
HETATM   19  C5  UNL     1       6.600   0.166  14.246  1.00  0.00     0.008 C 
HETATM   20  C6  UNL     1       6.322   0.667  12.869  1.00  0.00     0.014 C 
BRANCH  19  21
HETATM   21  C7  UNL     1       5.403  -0.568  14.729  1.00  0.00    -0.019 C 
HETATM   22  C8  UNL     1       4.310  -0.737  14.017  1.00  0.00     0.046 C 
BRANCH  22  23
HETATM   23  C9  UNL     1       3.168  -1.474  14.562  1.00  0.00     0.145 C 
HETATM   24  C10 UNL     1       2.435  -2.458  13.748  1.00  0.00     0.096 C 
HETATM   25  O1  UNL     1       2.795  -1.275  15.744  1.00  0.00    -0.294 OA
ENDBRANCH  22  23
ENDBRANCH  19  21
ENDBRANCH   4  19
BRANCH  16  26
HETATM   26  C22 UNL     1      11.143   7.358  15.089  1.00  0.00     0.198 C 
BRANCH  26  27
HETATM   27  O3  UNL     1      11.737   6.111  15.141  1.00  0.00    -0.398 OA
ATOM     28  H3  UNL     1      11.491   5.637  14.355  1.00  0.00     0.209 HD
ENDBRANCH  26  27
ENDBRANCH  16  26
TORSDOF 5
ENDMDL
MODEL 5
REMARK VINA RESULT: -9.079264665      3.482      7.525
REMARK  5 active torsions:
REMARK  status: ('A' for Active; 'I' for Inactive)
REMARK    1  A    between atoms: C4_4  and  C5_5 
REMARK    2  A    between atoms: C5_5  and  C7_7 
REMARK    3  A    between atoms: C8_8  and  C9_9 
REMARK    4  A    between atoms: C21_23  and  C22_24 
REMARK    5  A    between atoms: C22_24  and  O3_25 
ROOT
HETATM    1  C1  UNL     1       6.515   6.060  17.745  1.00  0.00     0.014 C 
HETATM    2  C2  UNL     1       7.630   5.452  18.128  1.00  0.00    -0.088 C 
HETATM    3  C3  UNL     1       8.821   6.298  17.829  1.00  0.00     0.038 C 
HETATM    4  C4  UNL     1       9.397   6.061  16.475  1.00  0.00    -0.003 C 
HETATM    5  C11 UNL     1       9.939   4.657  16.382  1.00  0.00     0.005 C 
HETATM    6  C12 UNL     1       8.877   3.644  16.031  1.00  0.00     0.001 C 
HETATM    7  C13 UNL     1       8.571   2.701  17.171  1.00  0.00     0.013 C 
HETATM    8  C14 UNL     1       7.226   3.003  17.788  1.00  0.00     0.001 C 
HETATM    9  C15 UNL     1       7.403   4.123  18.742  1.00  0.00     0.046 C 
HETATM   10  C16 UNL     1       6.569   1.765  18.424  1.00  0.00     0.137 C 
HETATM   11  C17 UNL     1       5.263   2.487  18.166  1.00  0.00     0.046 C 
HETATM   12  C18 UNL     1       6.037   2.936  16.909  1.00  0.00     0.093 C 
HETATM   13  C19 UNL     1       6.150   1.573  16.283  1.00  0.00     0.287 C 
HETATM   14  O2  UNL     1       4.906   1.002  16.023  1.00  0.00    -0.330 OA
HETATM   15  C20 UNL     1       5.282  -0.142  15.293  1.00  0.00     0.208 C 
HETATM   16  C21 UNL     1       6.637   0.158  14.737  1.00  0.00     0.175 C 
HETATM   17  O4  UNL     1       6.867   1.471  15.147  1.00  0.00    -0.323 OA
HETATM   18  O5  UNL     1       6.672   0.858  17.392  1.00  0.00    -0.326 OA
ENDROOT
BRANCH   4  19
HETATM   19  C5  UNL     1      10.552   7.012  16.265  1.00  0.00     0.008 C 
HETATM   20  C6  UNL     1      11.197   7.452  17.536  1.00  0.00     0.014 C 
BRANCH  19  21
HETATM   21  C7  UNL     1      10.123   8.219  15.515  1.00  0.00    -0.019 C 
HETATM   22  C8  UNL     1       9.194   8.211  14.582  1.00  0.00     0.046 C 
BRANCH  22  23
HETATM   23  C9  UNL     1       8.825   9.445  13.883  1.00  0.00     0.145 C 
HETATM   24  C10 UNL     1       9.349  10.752  14.314  1.00  0.00     0.096 C 
HETATM   25  O1  UNL     1       8.050   9.403  12.897  1.00  0.00    -0.294 OA
ENDBRANCH  22  23
ENDBRANCH  19  21
ENDBRANCH   4  19
BRANCH  16  26
HETATM   26  C22 UNL     1       6.713  -0.000  13.238  1.00  0.00     0.198 C 
BRANCH  26  27
HETATM   27  O3  UNL     1       7.346  -1.200  12.968  1.00  0.00    -0.398 OA
ATOM     28  H3  UNL     1       8.283  -1.056  13.029  1.00  0.00     0.209 HD
ENDBRANCH  26  27
ENDBRANCH  16  26
TORSDOF 5
ENDMDL
