MODEL 1
REMARK VINA RESULT: -9.343883111      0.000      0.000
REMARK  7 active torsions:
REMARK  status: ('A' for Active; 'I' for Inactive)
REMARK    1  A    between atoms: C4_4  and  C5_5 
REMARK    2  A    between atoms: C5_5  and  O1_6 
REMARK    3  A    between atoms: O1_6  and  C6_7 
REMARK    4  A    between atoms: C6_7  and  O3_9 
REMARK    5  A    between atoms: O3_9  and  C7_10 
REMARK    6  A    between atoms: C10_13  and  N1_15 
REMARK    7  A    between atoms: C18_22  and  O4_24 
ROOT
HETATM    1  C7  UNL     1       4.742   0.038  16.607  1.00  0.00     0.145 C 
HETATM    2  C8  UNL     1       4.128   1.192  17.358  1.00  0.00     0.036 C 
HETATM    3  C9  UNL     1       5.076   2.253  17.754  1.00  0.00     0.044 C 
HETATM    4  C10 UNL     1       6.480   2.151  17.217  1.00  0.00     0.157 C 
HETATM    5  C11 UNL     1       7.229   1.299  18.266  1.00  0.00     0.050 C 
HETATM    6  C18 UNL     1       6.666   1.507  15.926  1.00  0.00     0.097 C 
HETATM    7  C19 UNL     1       6.945   2.312  14.687  1.00  0.00     0.049 C 
HETATM    8  C20 UNL     1       5.487   0.628  15.475  1.00  0.00     0.012 C 
HETATM    9  C21 UNL     1       5.957  -0.495  14.575  1.00  0.00     0.020 C 
HETATM   10  C22 UNL     1       4.513   1.436  14.639  1.00  0.00     0.020 C 
ENDROOT
BRANCH   1  11
HETATM   11  O3  UNL     1       3.636  -0.678  16.060  1.00  0.00    -0.292 OA
BRANCH  11  12
HETATM   12  C6  UNL     1       3.198  -1.895  16.556  1.00  0.00     0.407 C 
HETATM   13  O2  UNL     1       3.789  -2.388  17.524  1.00  0.00    -0.229 OA
BRANCH  12  14
HETATM   14  O1  UNL     1       2.128  -2.560  16.000  1.00  0.00    -0.294 OA
BRANCH  14  15
HETATM   15  C5  UNL     1       1.707  -2.361  14.674  1.00  0.00     0.209 C 
BRANCH  15  16
HETATM   16  C4  UNL     1       2.763  -2.666  13.673  1.00  0.00     0.002 C 
HETATM   17  C2  UNL     1       3.017  -1.832  12.671  1.00  0.00    -0.089 C 
HETATM   18  C1  UNL     1       4.072  -2.131  11.669  1.00  0.00     0.042 C 
HETATM   19  C3  UNL     1       2.237  -0.575  12.544  1.00  0.00     0.042 C 
ENDBRANCH  15  16
ENDBRANCH  14  15
ENDBRANCH  12  14
ENDBRANCH  11  12
ENDBRANCH   1  11
BRANCH   6  20
HETATM   20  O4  UNL     1       7.725   0.555  15.964  1.00  0.00    -0.387 OA
ATOM     21  H4  UNL     1       8.137   0.457  15.113  1.00  0.00     0.210 HD
ENDBRANCH   6  20
BRANCH   4  22
HETATM   22  N1  UNL     1       7.076   3.482  17.369  1.00  0.00    -0.059 N 
HETATM   23  C12 UNL     1       8.509   3.447  17.347  1.00  0.00     0.273 C 
HETATM   24  C13 UNL     1       6.709   3.974  18.708  1.00  0.00     0.238 C 
HETATM   25  C14 UNL     1       7.419   5.221  19.107  1.00  0.00     0.028 C 
HETATM   26  C15 UNL     1       7.480   6.238  17.969  1.00  0.00     0.003 C 
HETATM   27  C16 UNL     1       6.351   5.840  17.061  1.00  0.00     0.028 C 
HETATM   28  C17 UNL     1       6.616   4.459  16.441  1.00  0.00     0.238 C 
ENDBRANCH   4  22
TORSDOF 7
ENDMDL
MODEL 2
REMARK VINA RESULT: -8.982720620      0.672      1.103
REMARK  7 active torsions:
REMARK  status: ('A' for Active; 'I' for Inactive)
REMARK    1  A    between atoms: C4_4  and  C5_5 
REMARK    2  A    between atoms: C5_5  and  O1_6 
REMARK    3  A    between atoms: O1_6  and  C6_7 
REMARK    4  A    between atoms: C6_7  and  O3_9 
REMARK    5  A    between atoms: O3_9  and  C7_10 
REMARK    6  A    between atoms: C10_13  and  N1_15 
REMARK    7  A    between atoms: C18_22  and  O4_24 
ROOT
HETATM    1  C7  UNL     1       5.038   0.245  16.557  1.00  0.00     0.145 C 
HETATM    2  C8  UNL     1       4.310   1.296  17.356  1.00  0.00     0.036 C 
HETATM    3  C9  UNL     1       5.174   2.336  17.949  1.00  0.00     0.044 C 
HETATM    4  C10 UNL     1       6.626   2.332  17.546  1.00  0.00     0.157 C 
HETATM    5  C11 UNL     1       7.304   1.397  18.573  1.00  0.00     0.050 C 
HETATM    6  C18 UNL     1       6.959   1.832  16.221  1.00  0.00     0.097 C 
HETATM    7  C19 UNL     1       7.323   2.769  15.104  1.00  0.00     0.049 C 
HETATM    8  C20 UNL     1       5.863   0.971  15.570  1.00  0.00     0.012 C 
HETATM    9  C21 UNL     1       6.460  -0.039  14.612  1.00  0.00     0.020 C 
HETATM   10  C22 UNL     1       4.943   1.833  14.728  1.00  0.00     0.020 C 
ENDROOT
BRANCH   1  11
HETATM   11  O3  UNL     1       4.017  -0.442  15.834  1.00  0.00    -0.292 OA
BRANCH  11  12
HETATM   12  C6  UNL     1       3.406  -1.597  16.294  1.00  0.00     0.407 C 
HETATM   13  O2  UNL     1       3.841  -2.129  17.323  1.00  0.00    -0.229 OA
BRANCH  12  14
HETATM   14  O1  UNL     1       2.335  -2.160  15.637  1.00  0.00    -0.294 OA
BRANCH  14  15
HETATM   15  C5  UNL     1       2.080  -1.954  14.269  1.00  0.00     0.209 C 
BRANCH  15  16
HETATM   16  C4  UNL     1       3.194  -2.402  13.394  1.00  0.00     0.002 C 
HETATM   17  C2  UNL     1       3.699  -1.598  12.465  1.00  0.00    -0.089 C 
HETATM   18  C1  UNL     1       4.814  -2.040  11.587  1.00  0.00     0.042 C 
HETATM   19  C3  UNL     1       3.148  -0.230  12.296  1.00  0.00     0.042 C 
ENDBRANCH  15  16
ENDBRANCH  14  15
ENDBRANCH  12  14
ENDBRANCH  11  12
ENDBRANCH   1  11
BRANCH   6  20
HETATM   20  O4  UNL     1       8.045   0.912  16.267  1.00  0.00    -0.387 OA
ATOM     21  H4  UNL     1       8.511   0.879  15.439  1.00  0.00     0.210 HD
ENDBRANCH   6  20
BRANCH   4  22
HETATM   22  N1  UNL     1       7.153   3.656  17.890  1.00  0.00    -0.059 N 
HETATM   23  C12 UNL     1       6.919   4.002  19.260  1.00  0.00     0.273 C 
HETATM   24  C13 UNL     1       6.403   4.644  17.095  1.00  0.00     0.238 C 
HETATM   25  C14 UNL     1       6.664   6.057  17.488  1.00  0.00     0.028 C 
HETATM   26  C15 UNL     1       8.148   6.321  17.730  1.00  0.00     0.003 C 
HETATM   27  C16 UNL     1       8.845   5.229  16.969  1.00  0.00     0.028 C 
HETATM   28  C17 UNL     1       8.529   3.856  17.583  1.00  0.00     0.238 C 
ENDBRANCH   4  22
TORSDOF 7
ENDMDL
MODEL 3
REMARK VINA RESULT: -8.884356758      0.880      1.105
REMARK  7 active torsions:
REMARK  status: ('A' for Active; 'I' for Inactive)
REMARK    1  A    between atoms: C4_4  and  C5_5 
REMARK    2  A    between atoms: C5_5  and  O1_6 
REMARK    3  A    between atoms: O1_6  and  C6_7 
REMARK    4  A    between atoms: C6_7  and  O3_9 
REMARK    5  A    between atoms: O3_9  and  C7_10 
REMARK    6  A    between atoms: C10_13  and  N1_15 
REMARK    7  A    between atoms: C18_22  and  O4_24 
ROOT
HETATM    1  C7  UNL     1       4.662   0.223  16.041  1.00  0.00     0.145 C 
HETATM    2  C8  UNL     1       3.954   1.447  16.565  1.00  0.00     0.036 C 
HETATM    3  C9  UNL     1       4.822   2.420  17.258  1.00  0.00     0.044 C 
HETATM    4  C10 UNL     1       6.306   2.172  17.204  1.00  0.00     0.157 C 
HETATM    5  C11 UNL     1       6.588   1.275  18.430  1.00  0.00     0.050 C 
HETATM    6  C18 UNL     1       6.837   1.485  16.037  1.00  0.00     0.097 C 
HETATM    7  C19 UNL     1       7.579   2.233  14.964  1.00  0.00     0.049 C 
HETATM    8  C20 UNL     1       5.787   0.714  15.218  1.00  0.00     0.012 C 
HETATM    9  C21 UNL     1       6.410  -0.469  14.507  1.00  0.00     0.020 C 
HETATM   10  C22 UNL     1       5.220   1.594  14.121  1.00  0.00     0.020 C 
ENDROOT
BRANCH   1  11
HETATM   11  O3  UNL     1       3.727  -0.395  15.158  1.00  0.00    -0.292 OA
BRANCH  11  12
HETATM   12  C6  UNL     1       3.168  -1.640  15.393  1.00  0.00     0.407 C 
HETATM   13  O2  UNL     1       3.083  -2.042  16.560  1.00  0.00    -0.229 OA
BRANCH  12  14
HETATM   14  O1  UNL     1       2.708  -2.432  14.365  1.00  0.00    -0.294 OA
BRANCH  14  15
HETATM   15  C5  UNL     1       2.766  -2.046  13.014  1.00  0.00     0.209 C 
BRANCH  15  16
HETATM   16  C4  UNL     1       3.995  -2.515  12.324  1.00  0.00     0.002 C 
HETATM   17  C2  UNL     1       4.730  -1.683  11.595  1.00  0.00    -0.089 C 
HETATM   18  C1  UNL     1       5.961  -2.145  10.903  1.00  0.00     0.042 C 
HETATM   19  C3  UNL     1       4.321  -0.261  11.464  1.00  0.00     0.042 C 
ENDBRANCH  15  16
ENDBRANCH  14  15
ENDBRANCH  12  14
ENDBRANCH  11  12
ENDBRANCH   1  11
BRANCH   6  20
HETATM   20  O4  UNL     1       7.727   0.437  16.405  1.00  0.00    -0.387 OA
ATOM     21  H4  UNL     1       8.305   0.700  17.112  1.00  0.00     0.210 HD
ENDBRANCH   6  20
BRANCH   4  22
HETATM   22  N1  UNL     1       6.949   3.442  17.556  1.00  0.00    -0.059 N 
HETATM   23  C12 UNL     1       8.372   3.323  17.676  1.00  0.00     0.273 C 
HETATM   24  C13 UNL     1       6.465   3.820  18.896  1.00  0.00     0.238 C 
HETATM   25  C14 UNL     1       7.190   4.974  19.494  1.00  0.00     0.028 C 
HETATM   26  C15 UNL     1       7.423   6.094  18.483  1.00  0.00     0.003 C 
HETATM   27  C16 UNL     1       6.380   5.859  17.428  1.00  0.00     0.028 C 
HETATM   28  C17 UNL     1       6.640   4.534  16.695  1.00  0.00     0.238 C 
ENDBRANCH   4  22
TORSDOF 7
ENDMDL
MODEL 4
REMARK VINA RESULT: -8.813576180      2.317      3.370
REMARK  7 active torsions:
REMARK  status: ('A' for Active; 'I' for Inactive)
REMARK    1  A    between atoms: C4_4  and  C5_5 
REMARK    2  A    between atoms: C5_5  and  O1_6 
REMARK    3  A    between atoms: O1_6  and  C6_7 
REMARK    4  A    between atoms: C6_7  and  O3_9 
REMARK    5  A    between atoms: O3_9  and  C7_10 
REMARK    6  A    between atoms: C10_13  and  N1_15 
REMARK    7  A    between atoms: C18_22  and  O4_24 
ROOT
HETATM    1  C7  UNL     1       6.798   1.210  14.002  1.00  0.00     0.145 C 
HETATM    2  C8  UNL     1       6.800   0.201  15.122  1.00  0.00     0.036 C 
HETATM    3  C9  UNL     1       7.184   0.739  16.443  1.00  0.00     0.044 C 
HETATM    4  C10 UNL     1       7.348   2.232  16.553  1.00  0.00     0.157 C 
HETATM    5  C11 UNL     1       8.829   2.481  16.189  1.00  0.00     0.050 C 
HETATM    6  C18 UNL     1       6.543   3.069  15.677  1.00  0.00     0.097 C 
HETATM    7  C19 UNL     1       5.346   3.814  16.196  1.00  0.00     0.049 C 
HETATM    8  C20 UNL     1       5.956   2.336  14.458  1.00  0.00     0.012 C 
HETATM    9  C21 UNL     1       5.758   3.285  13.294  1.00  0.00     0.020 C 
HETATM   10  C22 UNL     1       4.577   1.794  14.778  1.00  0.00     0.020 C 
ENDROOT
BRANCH   1  11
HETATM   11  O3  UNL     1       6.108   0.570  12.930  1.00  0.00    -0.292 OA
BRANCH  11  12
HETATM   12  C6  UNL     1       6.667  -0.435  12.158  1.00  0.00     0.407 C 
HETATM   13  O2  UNL     1       7.638  -0.164  11.442  1.00  0.00    -0.229 OA
BRANCH  12  14
HETATM   14  O1  UNL     1       6.169  -1.719  12.173  1.00  0.00    -0.294 OA
BRANCH  14  15
HETATM   15  C5  UNL     1       4.871  -2.044  11.741  1.00  0.00     0.209 C 
BRANCH  15  16
HETATM   16  C4  UNL     1       3.948  -2.371  12.858  1.00  0.00     0.002 C 
HETATM   17  C2  UNL     1       2.928  -1.576  13.158  1.00  0.00    -0.089 C 
HETATM   18  C1  UNL     1       2.001  -1.898  14.274  1.00  0.00     0.042 C 
HETATM   19  C3  UNL     1       2.702  -0.339  12.368  1.00  0.00     0.042 C 
ENDBRANCH  15  16
ENDBRANCH  14  15
ENDBRANCH  12  14
ENDBRANCH  11  12
ENDBRANCH   1  11
BRANCH   6  20
HETATM   20  O4  UNL     1       7.328   4.075  15.045  1.00  0.00    -0.387 OA
ATOM     21  H4  UNL     1       6.824   4.562  14.405  1.00  0.00     0.210 HD
ENDBRANCH   6  20
BRANCH   4  22
HETATM   22  N1  UNL     1       7.290   2.549  17.983  1.00  0.00    -0.059 N 
HETATM   23  C12 UNL     1       8.023   1.613  18.784  1.00  0.00     0.273 C 
HETATM   24  C13 UNL     1       5.883   2.418  18.402  1.00  0.00     0.238 C 
HETATM   25  C14 UNL     1       5.685   2.491  19.876  1.00  0.00     0.028 C 
HETATM   26  C15 UNL     1       6.515   3.604  20.514  1.00  0.00     0.003 C 
HETATM   27  C16 UNL     1       6.798   4.547  19.379  1.00  0.00     0.028 C 
HETATM   28  C17 UNL     1       7.690   3.873  18.325  1.00  0.00     0.238 C 
ENDBRANCH   4  22
TORSDOF 7
ENDMDL
MODEL 5
REMARK VINA RESULT: -8.812507367      2.452      3.809
REMARK  7 active torsions:
REMARK  status: ('A' for Active; 'I' for Inactive)
REMARK    1  A    between atoms: C4_4  and  C5_5 
REMARK    2  A    between atoms: C5_5  and  O1_6 
REMARK    3  A    between atoms: O1_6  and  C6_7 
REMARK    4  A    between atoms: C6_7  and  O3_9 
REMARK    5  A    between atoms: O3_9  and  C7_10 
REMARK    6  A    between atoms: C10_13  and  N1_15 
REMARK    7  A    between atoms: C18_22  and  O4_24 
ROOT
HETATM    1  C7  UNL     1       6.539   2.570  14.219  1.00  0.00     0.145 C 
HETATM    2  C8  UNL     1       5.908   1.457  15.017  1.00  0.00     0.036 C 
HETATM    3  C9  UNL     1       6.354   1.367  16.422  1.00  0.00     0.044 C 
HETATM    4  C10 UNL     1       7.228   2.481  16.935  1.00  0.00     0.157 C 
HETATM    5  C11 UNL     1       8.666   2.019  16.607  1.00  0.00     0.050 C 
HETATM    6  C18 UNL     1       7.055   3.802  16.350  1.00  0.00     0.097 C 
HETATM    7  C19 UNL     1       6.340   4.895  17.093  1.00  0.00     0.049 C 
HETATM    8  C20 UNL     1       6.326   3.809  14.995  1.00  0.00     0.012 C 
HETATM    9  C21 UNL     1       6.764   4.985  14.147  1.00  0.00     0.020 C 
HETATM   10  C22 UNL     1       4.834   3.989  15.197  1.00  0.00     0.020 C 
ENDROOT
BRANCH   1  11
HETATM   11  O3  UNL     1       5.750   2.669  13.035  1.00  0.00    -0.292 OA
BRANCH  11  12
HETATM   12  C6  UNL     1       5.627   1.641  12.115  1.00  0.00     0.407 C 
HETATM   13  O2  UNL     1       6.644   1.236  11.537  1.00  0.00    -0.229 OA
BRANCH  12  14
HETATM   14  O1  UNL     1       4.409   1.064  11.833  1.00  0.00    -0.294 OA
BRANCH  14  15
HETATM   15  C5  UNL     1       4.153  -0.308  12.001  1.00  0.00     0.209 C 
BRANCH  15  16
HETATM   16  C4  UNL     1       3.359  -0.609  13.220  1.00  0.00     0.002 C 
HETATM   17  C2  UNL     1       2.818  -1.808  13.406  1.00  0.00    -0.089 C 
HETATM   18  C1  UNL     1       2.025  -2.116  14.623  1.00  0.00     0.042 C 
HETATM   19  C3  UNL     1       3.007  -2.867  12.382  1.00  0.00     0.042 C 
ENDBRANCH  15  16
ENDBRANCH  14  15
ENDBRANCH  12  14
ENDBRANCH  11  12
ENDBRANCH   1  11
BRANCH   6  20
HETATM   20  O4  UNL     1       8.305   4.385  15.997  1.00  0.00    -0.387 OA
ATOM     21  H4  UNL     1       8.579   5.037  16.632  1.00  0.00     0.210 HD
ENDBRANCH   6  20
BRANCH   4  22
HETATM   22  N1  UNL     1       7.172   2.408  18.398  1.00  0.00    -0.059 N 
HETATM   23  C12 UNL     1       8.095   1.454  18.937  1.00  0.00     0.273 C 
HETATM   24  C13 UNL     1       5.831   1.915  18.759  1.00  0.00     0.238 C 
HETATM   25  C14 UNL     1       5.683   1.574  20.201  1.00  0.00     0.028 C 
HETATM   26  C15 UNL     1       6.321   2.623  21.109  1.00  0.00     0.003 C 
HETATM   27  C16 UNL     1       6.380   3.859  20.256  1.00  0.00     0.028 C 
HETATM   28  C17 UNL     1       7.336   3.653  19.071  1.00  0.00     0.238 C 
ENDBRANCH   4  22
TORSDOF 7
ENDMDL
