MODEL 1
REMARK VINA RESULT: -4.959780534      0.000      0.000
REMARK  3 active torsions:
REMARK  status: ('A' for Active; 'I' for Inactive)
REMARK    1  A    between atoms: C4_7  and  C5_8 
REMARK    2  A    between atoms: C7_11  and  O2_12 
REMARK    3  A    between atoms: C9_14  and  C10_15 
ROOT
HETATM    1  C5  UNL     1      32.222 -12.764 -13.403  1.00  0.00     0.091 A 
HETATM    2  C6  UNL     1      33.133 -12.112 -12.753  1.00  0.00     0.110 A 
HETATM    3  N2  UNL     1      34.045 -11.264 -13.394  1.00  0.00    -0.097 NA
HETATM    4  C7  UNL     1      33.263 -12.225 -11.303  1.00  0.00     0.106 A 
HETATM    5  C9  UNL     1      32.473 -12.986 -10.579  1.00  0.00     0.039 A 
HETATM    6  C11 UNL     1      31.410 -13.759 -11.259  1.00  0.00     0.220 A 
HETATM    7  O4  UNL     1      31.365 -13.585 -12.631  1.00  0.00    -0.347 OA
ENDROOT
BRANCH   1   8
HETATM    8  C4  UNL     1      31.926 -12.792 -14.826  1.00  0.00     0.171 C 
HETATM    9  C3  UNL     1      32.072 -14.226 -15.282  1.00  0.00     0.237 C 
HETATM   10  N1  UNL     1      30.758 -14.723 -15.417  1.00  0.00    -0.326 N 
HETATM   11  O1  UNL     1      33.146 -14.791 -15.479  1.00  0.00    -0.272 OA
HETATM   12  C2  UNL     1      29.852 -13.600 -15.461  1.00  0.00     0.032 C 
ATOM     13  H1  UNL     1      30.495 -15.706 -15.474  1.00  0.00     0.169 HD
HETATM   14  C1  UNL     1      28.561 -13.730 -15.582  1.00  0.00     0.043 C 
HETATM   15  C12 UNL     1      30.661 -12.364 -15.347  1.00  0.00    -0.017 C 
HETATM   16  C13 UNL     1      30.245 -11.176 -15.702  1.00  0.00    -0.020 C 
HETATM   17  C14 UNL     1      31.029  -9.921 -15.603  1.00  0.00     0.036 C 
ENDBRANCH   1   8
BRANCH   4  18
HETATM   18  O2  UNL     1      34.255 -11.514 -10.610  1.00  0.00    -0.353 OA
HETATM   19  C8  UNL     1      35.561 -12.094 -10.487  1.00  0.00     0.210 C 
ENDBRANCH   4  18
BRANCH   5  20
HETATM   20  C10 UNL     1      32.609 -13.095  -9.127  1.00  0.00     0.270 C 
HETATM   21  O3  UNL     1      31.796 -13.787  -8.472  1.00  0.00    -0.302 OA
ENDBRANCH   5  20
TORSDOF 3
ENDMDL
MODEL 2
REMARK VINA RESULT: -4.712135433      3.030      5.662
REMARK  3 active torsions:
REMARK  status: ('A' for Active; 'I' for Inactive)
REMARK    1  A    between atoms: C4_7  and  C5_8 
REMARK    2  A    between atoms: C7_11  and  O2_12 
REMARK    3  A    between atoms: C9_14  and  C10_15 
ROOT
HETATM    1  C5  UNL     1      33.665 -10.766 -12.055  1.00  0.00     0.091 A 
HETATM    2  C6  UNL     1      33.205 -10.142 -13.092  1.00  0.00     0.110 A 
HETATM    3  N2  UNL     1      32.592 -10.815 -14.156  1.00  0.00    -0.097 NA
HETATM    4  C7  UNL     1      33.302  -8.690 -13.213  1.00  0.00     0.106 A 
HETATM    5  C9  UNL     1      33.854  -7.938 -12.288  1.00  0.00     0.039 A 
HETATM    6  C11 UNL     1      34.400  -8.586 -11.075  1.00  0.00     0.220 A 
HETATM    7  O4  UNL     1      34.261  -9.963 -11.052  1.00  0.00    -0.347 OA
ENDROOT
BRANCH   1   8
HETATM    8  C4  UNL     1      33.671 -12.185 -11.742  1.00  0.00     0.171 C 
HETATM    9  C3  UNL     1      34.949 -12.469 -10.987  1.00  0.00     0.237 C 
HETATM   10  N1  UNL     1      34.578 -12.591  -9.631  1.00  0.00    -0.326 N 
HETATM   11  O1  UNL     1      36.060 -12.564 -11.506  1.00  0.00    -0.272 OA
HETATM   12  C2  UNL     1      33.150 -12.793  -9.569  1.00  0.00     0.032 C 
ATOM     13  H1  UNL     1      35.211 -12.543  -8.832  1.00  0.00     0.169 HD
HETATM   14  C1  UNL     1      32.499 -12.941  -8.450  1.00  0.00     0.043 C 
HETATM   15  C12 UNL     1      32.636 -12.794 -10.958  1.00  0.00    -0.017 C 
HETATM   16  C13 UNL     1      31.482 -13.297 -11.316  1.00  0.00    -0.020 C 
HETATM   17  C14 UNL     1      30.939 -13.315 -12.696  1.00  0.00     0.036 C 
ENDBRANCH   1   8
BRANCH   4  18
HETATM   18  O2  UNL     1      32.800  -8.026 -14.343  1.00  0.00    -0.353 OA
HETATM   19  C8  UNL     1      31.406  -7.688 -14.383  1.00  0.00     0.210 C 
ENDBRANCH   4  18
BRANCH   5  20
HETATM   20  C10 UNL     1      33.947  -6.484 -12.417  1.00  0.00     0.270 C 
HETATM   21  O3  UNL     1      33.195  -5.746 -11.739  1.00  0.00    -0.302 OA
ENDBRANCH   5  20
TORSDOF 3
ENDMDL
MODEL 3
REMARK VINA RESULT: -4.678307431      2.248      5.774
REMARK  3 active torsions:
REMARK  status: ('A' for Active; 'I' for Inactive)
REMARK    1  A    between atoms: C4_7  and  C5_8 
REMARK    2  A    between atoms: C7_11  and  O2_12 
REMARK    3  A    between atoms: C9_14  and  C10_15 
ROOT
HETATM    1  C5  UNL     1      32.683 -12.117 -12.670  1.00  0.00     0.091 A 
HETATM    2  C6  UNL     1      31.487 -12.275 -13.138  1.00  0.00     0.110 A 
HETATM    3  N2  UNL     1      30.808 -13.497 -13.054  1.00  0.00    -0.097 NA
HETATM    4  C7  UNL     1      30.771 -11.180 -13.788  1.00  0.00     0.106 A 
HETATM    5  C9  UNL     1      31.292  -9.983 -13.934  1.00  0.00     0.039 A 
HETATM    6  C11 UNL     1      32.657  -9.732 -13.421  1.00  0.00     0.220 A 
HETATM    7  O4  UNL     1      33.252 -10.828 -12.822  1.00  0.00    -0.347 OA
ENDROOT
BRANCH   1   8
HETATM    8  C4  UNL     1      33.560 -13.063 -11.999  1.00  0.00     0.171 C 
HETATM    9  C3  UNL     1      34.759 -13.271 -12.894  1.00  0.00     0.237 C 
HETATM   10  N1  UNL     1      35.806 -12.521 -12.317  1.00  0.00    -0.326 N 
HETATM   11  O1  UNL     1      34.761 -13.966 -13.908  1.00  0.00    -0.272 OA
HETATM   12  C2  UNL     1      35.442 -12.208 -10.956  1.00  0.00     0.032 C 
ATOM     13  H1  UNL     1      36.671 -12.247 -12.783  1.00  0.00     0.169 HD
HETATM   14  C1  UNL     1      36.205 -11.521 -10.154  1.00  0.00     0.043 C 
HETATM   15  C12 UNL     1      34.108 -12.800 -10.700  1.00  0.00    -0.017 C 
HETATM   16  C13 UNL     1      33.622 -13.032  -9.508  1.00  0.00    -0.020 C 
HETATM   17  C14 UNL     1      32.293 -13.624  -9.218  1.00  0.00     0.036 C 
ENDBRANCH   1   8
BRANCH   4  18
HETATM   18  O2  UNL     1      29.474 -11.365 -14.292  1.00  0.00    -0.353 OA
HETATM   19  C8  UNL     1      29.318 -11.921 -15.606  1.00  0.00     0.210 C 
ENDBRANCH   4  18
BRANCH   5  20
HETATM   20  C10 UNL     1      30.569  -8.891 -14.586  1.00  0.00     0.270 C 
HETATM   21  O3  UNL     1      29.893  -8.090 -13.899  1.00  0.00    -0.302 OA
ENDBRANCH   5  20
TORSDOF 3
ENDMDL
MODEL 4
REMARK VINA RESULT: -4.657313073      2.842      4.692
REMARK  3 active torsions:
REMARK  status: ('A' for Active; 'I' for Inactive)
REMARK    1  A    between atoms: C4_7  and  C5_8 
REMARK    2  A    between atoms: C7_11  and  O2_12 
REMARK    3  A    between atoms: C9_14  and  C10_15 
ROOT
HETATM    1  C5  UNL     1      34.594 -11.623 -11.823  1.00  0.00     0.091 A 
HETATM    2  C6  UNL     1      35.841 -11.455 -12.128  1.00  0.00     0.110 A 
HETATM    3  N2  UNL     1      36.624 -12.487 -12.659  1.00  0.00    -0.097 NA
HETATM    4  C7  UNL     1      36.507 -10.171 -11.932  1.00  0.00     0.106 A 
HETATM    5  C9  UNL     1      35.890  -9.120 -11.441  1.00  0.00     0.039 A 
HETATM    6  C11 UNL     1      34.462  -9.242 -11.071  1.00  0.00     0.220 A 
HETATM    7  O4  UNL     1      33.919 -10.496 -11.294  1.00  0.00    -0.347 OA
ENDROOT
BRANCH   1   8
HETATM    8  C4  UNL     1      33.752 -12.803 -11.936  1.00  0.00     0.171 C 
HETATM    9  C3  UNL     1      33.060 -12.985 -10.605  1.00  0.00     0.237 C 
HETATM   10  N1  UNL     1      31.737 -12.528 -10.793  1.00  0.00    -0.326 N 
HETATM   11  O1  UNL     1      33.593 -13.444  -9.597  1.00  0.00    -0.272 OA
HETATM   12  C2  UNL     1      31.479 -12.460 -12.211  1.00  0.00     0.032 C 
ATOM     13  H1  UNL     1      31.079 -12.287 -10.052  1.00  0.00     0.169 HD
HETATM   14  C1  UNL     1      30.340 -12.072 -12.710  1.00  0.00     0.043 C 
HETATM   15  C12 UNL     1      32.707 -12.899 -12.913  1.00  0.00    -0.017 C 
HETATM   16  C13 UNL     1      32.740 -13.306 -14.156  1.00  0.00    -0.020 C 
HETATM   17  C14 UNL     1      33.950 -13.753 -14.887  1.00  0.00     0.036 C 
ENDBRANCH   1   8
BRANCH   4  18
HETATM   18  O2  UNL     1      37.861 -10.002 -12.266  1.00  0.00    -0.353 OA
HETATM   19  C8  UNL     1      38.860 -10.404 -11.318  1.00  0.00     0.210 C 
ENDBRANCH   4  18
BRANCH   5  20
HETATM   20  C10 UNL     1      36.564  -7.837 -11.248  1.00  0.00     0.270 C 
HETATM   21  O3  UNL     1      36.235  -7.094 -10.295  1.00  0.00    -0.302 OA
ENDBRANCH   5  20
TORSDOF 3
ENDMDL
MODEL 5
REMARK VINA RESULT: -4.646001193      7.451      9.847
REMARK  3 active torsions:
REMARK  status: ('A' for Active; 'I' for Inactive)
REMARK    1  A    between atoms: C4_7  and  C5_8 
REMARK    2  A    between atoms: C7_11  and  O2_12 
REMARK    3  A    between atoms: C9_14  and  C10_15 
ROOT
HETATM    1  C5  UNL     1      34.393  -4.437 -11.921  1.00  0.00     0.091 A 
HETATM    2  C6  UNL     1      34.380  -3.217 -12.355  1.00  0.00     0.110 A 
HETATM    3  N2  UNL     1      35.557  -2.490 -12.574  1.00  0.00    -0.097 NA
HETATM    4  C7  UNL     1      33.127  -2.524 -12.640  1.00  0.00     0.106 A 
HETATM    5  C9  UNL     1      31.952  -3.089 -12.477  1.00  0.00     0.039 A 
HETATM    6  C11 UNL     1      31.895  -4.483 -11.985  1.00  0.00     0.220 A 
HETATM    7  O4  UNL     1      33.132  -5.055 -11.744  1.00  0.00    -0.347 OA
ENDROOT
BRANCH   1   8
HETATM    8  C4  UNL     1      35.514  -5.298 -11.579  1.00  0.00     0.171 C 
HETATM    9  C3  UNL     1      35.515  -5.451 -10.076  1.00  0.00     0.237 C 
HETATM   10  N1  UNL     1      34.983  -6.733  -9.819  1.00  0.00    -0.326 N 
HETATM   11  O1  UNL     1      35.912  -4.596  -9.286  1.00  0.00    -0.272 OA
HETATM   12  C2  UNL     1      35.035  -7.498 -11.041  1.00  0.00     0.032 C 
ATOM     13  H1  UNL     1      34.624  -7.061  -8.922  1.00  0.00     0.169 HD
HETATM   14  C1  UNL     1      34.615  -8.728 -11.131  1.00  0.00     0.043 C 
HETATM   15  C12 UNL     1      35.629  -6.633 -12.088  1.00  0.00    -0.017 C 
HETATM   16  C13 UNL     1      36.156  -7.078 -13.199  1.00  0.00    -0.020 C 
HETATM   17  C14 UNL     1      36.759  -6.241 -14.265  1.00  0.00     0.036 C 
ENDBRANCH   1   8
BRANCH   4  18
HETATM   18  O2  UNL     1      33.126  -1.200 -13.109  1.00  0.00    -0.353 OA
HETATM   19  C8  UNL     1      33.278  -0.967 -14.516  1.00  0.00     0.210 C 
ENDBRANCH   4  18
BRANCH   5  20
HETATM   20  C10 UNL     1      30.701  -2.387 -12.766  1.00  0.00     0.270 C 
HETATM   21  O3  UNL     1      29.983  -2.756 -13.724  1.00  0.00    -0.302 OA
ENDBRANCH   5  20
TORSDOF 3
ENDMDL
