MODEL 1
REMARK VINA RESULT: -4.978129644      0.000      0.000
REMARK  4 active torsions:
REMARK  status: ('A' for Active; 'I' for Inactive)
REMARK    1  A    between atoms: C1_2  and  C2_4 
REMARK    2  A    between atoms: C2_4  and  N2_5 
REMARK    3  A    between atoms: C5_11  and  O2_12 
REMARK    4  A    between atoms: O2_12  and  C6_13 
ROOT
HETATM    1  C2  UNL     1      35.599  -6.078 -10.354  1.00  0.00     0.203 C 
HETATM    2  C3  UNL     1      34.264  -5.892 -11.030  1.00  0.00     0.051 C 
HETATM    3  C4  UNL     1      33.792  -7.246 -11.464  1.00  0.00     0.035 C 
HETATM    4  C5  UNL     1      34.701  -8.228 -10.741  1.00  0.00     0.132 C 
HETATM    5  C13 UNL     1      36.019  -7.468 -10.727  1.00  0.00     0.081 C 
ENDROOT
BRANCH   4   6
HETATM    6  O2  UNL     1      34.891  -9.379 -11.493  1.00  0.00    -0.346 OA
BRANCH   6   7
HETATM    7  C6  UNL     1      34.016 -10.392 -11.753  1.00  0.00     0.072 A 
HETATM    8  C7  UNL     1      33.353 -10.472 -12.943  1.00  0.00     0.039 A 
HETATM    9  C8  UNL     1      32.468 -11.524 -13.163  1.00  0.00     0.042 A 
HETATM   10  C9  UNL     1      32.240 -12.493 -12.210  1.00  0.00     0.105 A 
HETATM   11  C10 UNL     1      32.911 -12.410 -11.008  1.00  0.00     0.107 A 
HETATM   12  O4  UNL     1      31.426 -13.625 -12.176  1.00  0.00    -0.323 OA
HETATM   13  C11 UNL     1      33.779 -11.370 -10.805  1.00  0.00     0.076 A 
HETATM   14  O3  UNL     1      32.500 -13.505 -10.231  1.00  0.00    -0.323 OA
HETATM   15  C12 UNL     1      31.289 -13.968 -10.813  1.00  0.00     0.352 C 
ENDBRANCH   6   7
ENDBRANCH   4   6
BRANCH   1  16
HETATM   16  C1  UNL     1      36.606  -5.112 -10.891  1.00  0.00     0.267 C 
HETATM   17  N1  UNL     1      37.927  -5.084 -10.396  1.00  0.00    -0.060 NA
HETATM   18  O1  UNL     1      36.295  -4.301 -11.800  1.00  0.00    -0.274 OA
ENDBRANCH   1  16
BRANCH   1  19
HETATM   19  N2  UNL     1      35.505  -5.901  -8.924  1.00  0.00    -0.062 N 
ATOM     20  H23 UNL     1      36.241  -5.297  -8.556  1.00  0.00     0.275 HD
ATOM     21  H22 UNL     1      34.705  -5.330  -8.653  1.00  0.00     0.275 HD
ATOM     22  H21 UNL     1      35.497  -6.820  -8.480  1.00  0.00     0.275 HD
ENDBRANCH   1  19
TORSDOF 4
ENDMDL
MODEL 2
REMARK VINA RESULT: -4.921035079      1.530      1.731
REMARK  4 active torsions:
REMARK  status: ('A' for Active; 'I' for Inactive)
REMARK    1  A    between atoms: C1_2  and  C2_4 
REMARK    2  A    between atoms: C2_4  and  N2_5 
REMARK    3  A    between atoms: C5_11  and  O2_12 
REMARK    4  A    between atoms: O2_12  and  C6_13 
ROOT
HETATM    1  C2  UNL     1      35.221  -6.553 -11.258  1.00  0.00     0.203 C 
HETATM    2  C3  UNL     1      35.896  -6.543 -12.606  1.00  0.00     0.051 C 
HETATM    3  C4  UNL     1      35.711  -7.902 -13.207  1.00  0.00     0.035 C 
HETATM    4  C5  UNL     1      34.651  -8.571 -12.345  1.00  0.00     0.132 C 
HETATM    5  C13 UNL     1      34.976  -8.004 -10.971  1.00  0.00     0.081 C 
ENDROOT
BRANCH   4   6
HETATM    6  O2  UNL     1      34.848  -9.943 -12.286  1.00  0.00    -0.346 OA
BRANCH   6   7
HETATM    7  C6  UNL     1      33.977 -10.922 -11.909  1.00  0.00     0.072 A 
HETATM    8  C7  UNL     1      32.976 -11.341 -12.737  1.00  0.00     0.039 A 
HETATM    9  C8  UNL     1      32.109 -12.343 -12.309  1.00  0.00     0.042 A 
HETATM   10  C9  UNL     1      32.233 -12.929 -11.068  1.00  0.00     0.105 A 
HETATM   11  C10 UNL     1      33.245 -12.505 -10.234  1.00  0.00     0.107 A 
HETATM   12  O4  UNL     1      31.518 -13.929 -10.410  1.00  0.00    -0.323 OA
HETATM   13  C11 UNL     1      34.091 -11.518 -10.667  1.00  0.00     0.076 A 
HETATM   14  O3  UNL     1      33.145 -13.255  -9.051  1.00  0.00    -0.323 OA
HETATM   15  C12 UNL     1      31.831 -13.798  -9.039  1.00  0.00     0.352 C 
ENDBRANCH   6   7
ENDBRANCH   4   6
BRANCH   1  16
HETATM   16  C1  UNL     1      36.128  -6.001 -10.205  1.00  0.00     0.267 C 
HETATM   17  N1  UNL     1      35.840  -4.780  -9.560  1.00  0.00    -0.060 NA
HETATM   18  O1  UNL     1      37.171  -6.618  -9.870  1.00  0.00    -0.274 OA
ENDBRANCH   1  16
BRANCH   1  19
HETATM   19  N2  UNL     1      33.998  -5.783 -11.265  1.00  0.00    -0.062 N 
ATOM     20  H23 UNL     1      33.941  -5.136 -10.479  1.00  0.00     0.275 HD
ATOM     21  H22 UNL     1      33.975  -5.094 -12.016  1.00  0.00     0.275 HD
ATOM     22  H21 UNL     1      33.207  -6.426 -11.300  1.00  0.00     0.275 HD
ENDBRANCH   1  19
TORSDOF 4
ENDMDL
MODEL 3
REMARK VINA RESULT: -4.912867691      5.026      7.567
REMARK  4 active torsions:
REMARK  status: ('A' for Active; 'I' for Inactive)
REMARK    1  A    between atoms: C1_2  and  C2_4 
REMARK    2  A    between atoms: C2_4  and  N2_5 
REMARK    3  A    between atoms: C5_11  and  O2_12 
REMARK    4  A    between atoms: O2_12  and  C6_13 
ROOT
HETATM    1  C2  UNL     1      28.207  -5.785 -12.464  1.00  0.00     0.203 C 
HETATM    2  C3  UNL     1      28.210  -7.266 -12.748  1.00  0.00     0.051 C 
HETATM    3  C4  UNL     1      29.640  -7.708 -12.794  1.00  0.00     0.035 C 
HETATM    4  C5  UNL     1      30.428  -6.546 -12.210  1.00  0.00     0.132 C 
HETATM    5  C13 UNL     1      29.622  -5.353 -12.705  1.00  0.00     0.081 C 
ENDROOT
BRANCH   4   6
HETATM    6  O2  UNL     1      31.690  -6.461 -12.781  1.00  0.00    -0.346 OA
BRANCH   6   7
HETATM    7  C6  UNL     1      32.848  -5.983 -12.243  1.00  0.00     0.072 A 
HETATM    8  C7  UNL     1      33.308  -4.734 -12.542  1.00  0.00     0.039 A 
HETATM    9  C8  UNL     1      34.497  -4.287 -11.968  1.00  0.00     0.042 A 
HETATM   10  C9  UNL     1      35.226  -5.074 -11.103  1.00  0.00     0.105 A 
HETATM   11  C10 UNL     1      34.758  -6.336 -10.802  1.00  0.00     0.107 A 
HETATM   12  O4  UNL     1      36.418  -4.875 -10.406  1.00  0.00    -0.323 OA
HETATM   13  C11 UNL     1      33.588  -6.762 -11.373  1.00  0.00     0.076 A 
HETATM   14  O3  UNL     1      35.677  -6.914  -9.911  1.00  0.00    -0.323 OA
HETATM   15  C12 UNL     1      36.875  -6.159 -10.038  1.00  0.00     0.352 C 
ENDBRANCH   6   7
ENDBRANCH   4   6
BRANCH   1  16
HETATM   16  C1  UNL     1      27.315  -5.062 -13.423  1.00  0.00     0.267 C 
HETATM   17  N1  UNL     1      27.731  -4.792 -14.744  1.00  0.00    -0.060 NA
HETATM   18  O1  UNL     1      26.171  -4.679 -13.071  1.00  0.00    -0.274 OA
ENDBRANCH   1  16
BRANCH   1  19
HETATM   19  N2  UNL     1      27.769  -5.497 -11.119  1.00  0.00    -0.062 N 
ATOM     20  H23 UNL     1      27.565  -4.507 -10.978  1.00  0.00     0.275 HD
ATOM     21  H22 UNL     1      26.836  -5.862 -10.926  1.00  0.00     0.275 HD
ATOM     22  H21 UNL     1      28.468  -5.848 -10.465  1.00  0.00     0.275 HD
ENDBRANCH   1  19
TORSDOF 4
ENDMDL
MODEL 4
REMARK VINA RESULT: -4.876020841      2.106      2.822
REMARK  4 active torsions:
REMARK  status: ('A' for Active; 'I' for Inactive)
REMARK    1  A    between atoms: C1_2  and  C2_4 
REMARK    2  A    between atoms: C2_4  and  N2_5 
REMARK    3  A    between atoms: C5_11  and  O2_12 
REMARK    4  A    between atoms: O2_12  and  C6_13 
ROOT
HETATM    1  C2  UNL     1      36.518  -8.037 -11.372  1.00  0.00     0.203 C 
HETATM    2  C3  UNL     1      37.882  -8.252 -10.767  1.00  0.00     0.051 C 
HETATM    3  C4  UNL     1      38.112  -9.730 -10.699  1.00  0.00     0.035 C 
HETATM    4  C5  UNL     1      37.020 -10.337 -11.567  1.00  0.00     0.132 C 
HETATM    5  C13 UNL     1      35.862  -9.384 -11.309  1.00  0.00     0.081 C 
ENDROOT
BRANCH   4   6
HETATM    6  O2  UNL     1      36.644 -11.587 -11.097  1.00  0.00    -0.346 OA
BRANCH   6   7
HETATM    7  C6  UNL     1      35.416 -12.178 -11.112  1.00  0.00     0.072 A 
HETATM    8  C7  UNL     1      34.780 -12.468 -12.284  1.00  0.00     0.039 A 
HETATM    9  C8  UNL     1      33.526 -13.072 -12.252  1.00  0.00     0.042 A 
HETATM   10  C9  UNL     1      32.903 -13.389 -11.063  1.00  0.00     0.105 A 
HETATM   11  C10 UNL     1      33.548 -13.096  -9.880  1.00  0.00     0.107 A 
HETATM   12  O4  UNL     1      31.680 -13.983 -10.756  1.00  0.00    -0.323 OA
HETATM   13  C11 UNL     1      34.781 -12.501  -9.927  1.00  0.00     0.076 A 
HETATM   14  O3  UNL     1      32.706 -13.516  -8.837  1.00  0.00    -0.323 OA
HETATM   15  C12 UNL     1      31.411 -13.654  -9.409  1.00  0.00     0.352 C 
ENDBRANCH   6   7
ENDBRANCH   4   6
BRANCH   1  16
HETATM   16  C1  UNL     1      35.719  -7.075 -10.553  1.00  0.00     0.267 C 
HETATM   17  N1  UNL     1      34.337  -6.898 -10.776  1.00  0.00    -0.060 NA
HETATM   18  O1  UNL     1      36.264  -6.401  -9.642  1.00  0.00    -0.274 OA
ENDBRANCH   1  16
BRANCH   1  19
HETATM   19  N2  UNL     1      36.603  -7.534 -12.724  1.00  0.00    -0.062 N 
ATOM     20  H23 UNL     1      37.152  -8.141 -13.332  1.00  0.00     0.275 HD
ATOM     21  H22 UNL     1      35.715  -7.600 -13.221  1.00  0.00     0.275 HD
ATOM     22  H21 UNL     1      36.964  -6.580 -12.695  1.00  0.00     0.275 HD
ENDBRANCH   1  19
TORSDOF 4
ENDMDL
MODEL 5
REMARK VINA RESULT: -4.848148425      4.347      5.582
REMARK  4 active torsions:
REMARK  status: ('A' for Active; 'I' for Inactive)
REMARK    1  A    between atoms: C1_2  and  C2_4 
REMARK    2  A    between atoms: C2_4  and  N2_5 
REMARK    3  A    between atoms: C5_11  and  O2_12 
REMARK    4  A    between atoms: O2_12  and  C6_13 
ROOT
HETATM    1  C2  UNL     1      35.559  -6.239 -10.236  1.00  0.00     0.203 C 
HETATM    2  C3  UNL     1      35.665  -5.066 -11.178  1.00  0.00     0.051 C 
HETATM    3  C4  UNL     1      34.343  -4.929 -11.868  1.00  0.00     0.035 C 
HETATM    4  C5  UNL     1      33.393  -5.815 -11.076  1.00  0.00     0.132 C 
HETATM    5  C13 UNL     1      34.313  -6.955 -10.664  1.00  0.00     0.081 C 
ENDROOT
BRANCH   4   6
HETATM    6  O2  UNL     1      32.408  -6.349 -11.894  1.00  0.00    -0.346 OA
BRANCH   6   7
HETATM    7  C6  UNL     1      31.110  -5.960 -12.046  1.00  0.00     0.072 A 
HETATM    8  C7  UNL     1      30.759  -4.641 -12.050  1.00  0.00     0.039 A 
HETATM    9  C8  UNL     1      29.420  -4.291 -12.207  1.00  0.00     0.042 A 
HETATM   10  C9  UNL     1      28.434  -5.241 -12.360  1.00  0.00     0.105 A 
HETATM   11  C10 UNL     1      28.791  -6.573 -12.356  1.00  0.00     0.107 A 
HETATM   12  O4  UNL     1      27.052  -5.163 -12.532  1.00  0.00    -0.323 OA
HETATM   13  C11 UNL     1      30.112  -6.904 -12.201  1.00  0.00     0.076 A 
HETATM   14  O3  UNL     1      27.612  -7.317 -12.527  1.00  0.00    -0.323 OA
HETATM   15  C12 UNL     1      26.543  -6.438 -12.201  1.00  0.00     0.352 C 
ENDBRANCH   6   7
ENDBRANCH   4   6
BRANCH   1  16
HETATM   16  C1  UNL     1      36.724  -7.162 -10.405  1.00  0.00     0.267 C 
HETATM   17  N1  UNL     1      36.588  -8.395 -11.076  1.00  0.00    -0.060 NA
HETATM   18  O1  UNL     1      37.856  -6.855  -9.950  1.00  0.00    -0.274 OA
ENDBRANCH   1  16
BRANCH   1  19
HETATM   19  N2  UNL     1      35.500  -5.817  -8.856  1.00  0.00    -0.062 N 
ATOM     20  H23 UNL     1      34.654  -6.138  -8.386  1.00  0.00     0.275 HD
ATOM     21  H22 UNL     1      36.180  -6.300  -8.271  1.00  0.00     0.275 HD
ATOM     22  H21 UNL     1      35.605  -4.802  -8.821  1.00  0.00     0.275 HD
ENDBRANCH   1  19
TORSDOF 4
ENDMDL
