MODEL 1
REMARK VINA RESULT: -5.040894115      0.000      0.000
REMARK  7 active torsions:
REMARK  status: ('A' for Active; 'I' for Inactive)
REMARK    1  A    between atoms: C3_4  and  C4_5 
REMARK    2  A    between atoms: C5_6  and  O1_7 
REMARK    3  A    between atoms: C5_6  and  C6_9 
REMARK    4  A    between atoms: C7_10  and  O2_11 
REMARK    5  A    between atoms: N2_14  and  C9_15 
REMARK    6  A    between atoms: C9_15  and  C11_17 
REMARK    7  A    between atoms: C11_17  and  O3_19 
ROOT
HETATM    1  C6  UNL     1      32.192  -6.407 -11.644  1.00  0.00     0.136 C 
HETATM    2  C7  UNL     1      31.559  -7.137 -12.532  1.00  0.00     0.112 C 
HETATM    3  C8  UNL     1      30.307  -6.921 -13.344  1.00  0.00     0.099 C 
HETATM    4  N2  UNL     1      29.731  -5.710 -12.930  1.00  0.00    -0.281 NA
HETATM    5  C13 UNL     1      30.680  -4.620 -13.215  1.00  0.00     0.122 C 
HETATM    6  C14 UNL     1      31.070  -4.095 -11.828  1.00  0.00     0.190 C 
HETATM    7  O4  UNL     1      31.810  -5.137 -11.206  1.00  0.00    -0.344 OA
ENDROOT
BRANCH   1   8
HETATM    8  C5  UNL     1      33.398  -6.920 -11.035  1.00  0.00     0.101 C 
HETATM    9  C4  UNL     1      34.534  -6.292 -11.177  1.00  0.00     0.041 C 
BRANCH   9  10
HETATM   10  C3  UNL     1      35.789  -6.749 -10.594  1.00  0.00     0.024 C 
HETATM   11  C2  UNL     1      36.899  -6.072 -10.684  1.00  0.00     0.020 C 
HETATM   12  C1  UNL     1      38.144  -6.581 -10.074  1.00  0.00     0.065 C 
HETATM   13  N1  UNL     1      36.936  -4.835 -11.369  1.00  0.00    -0.107 NA
ENDBRANCH   9  10
BRANCH   8  14
HETATM   14  O1  UNL     1      33.339  -8.082 -10.301  1.00  0.00    -0.358 OA
ATOM     15  H1  UNL     1      33.001  -8.878 -10.694  1.00  0.00     0.217 HD
ENDBRANCH   8  14
ENDBRANCH   1   8
BRANCH   2  16
HETATM   16  O2  UNL     1      32.143  -8.369 -12.798  1.00  0.00    -0.357 OA
ATOM     17  H2  UNL     1      31.704  -8.883 -13.465  1.00  0.00     0.218 HD
ENDBRANCH   2  16
BRANCH   4  18
HETATM   18  C9  UNL     1      28.413  -5.377 -13.281  1.00  0.00     0.087 C 
HETATM   19  C10 UNL     1      27.919  -6.009 -14.563  1.00  0.00     0.029 C 
BRANCH  18  20
HETATM   20  C11 UNL     1      27.422  -5.477 -12.159  1.00  0.00     0.131 C 
HETATM   21  C12 UNL     1      26.943  -6.917 -11.975  1.00  0.00     0.041 C 
BRANCH  20  22
HETATM   22  O3  UNL     1      26.327  -4.655 -12.257  1.00  0.00    -0.394 OA
ATOM     23  H3  UNL     1      26.511  -3.723 -12.256  1.00  0.00     0.210 HD
ENDBRANCH  20  22
ENDBRANCH  18  20
ENDBRANCH   4  18
TORSDOF 7
ENDMDL
MODEL 2
REMARK VINA RESULT: -5.037189398      6.560      9.861
REMARK  7 active torsions:
REMARK  status: ('A' for Active; 'I' for Inactive)
REMARK    1  A    between atoms: C3_4  and  C4_5 
REMARK    2  A    between atoms: C5_6  and  O1_7 
REMARK    3  A    between atoms: C5_6  and  C6_9 
REMARK    4  A    between atoms: C7_10  and  O2_11 
REMARK    5  A    between atoms: N2_14  and  C9_15 
REMARK    6  A    between atoms: C9_15  and  C11_17 
REMARK    7  A    between atoms: C11_17  and  O3_19 
ROOT
HETATM    1  C6  UNL     1      30.373 -13.266 -13.996  1.00  0.00     0.136 C 
HETATM    2  C7  UNL     1      31.675 -13.428 -13.959  1.00  0.00     0.112 C 
HETATM    3  C8  UNL     1      32.702 -13.293 -12.864  1.00  0.00     0.099 C 
HETATM    4  N2  UNL     1      32.048 -12.808 -11.721  1.00  0.00    -0.281 NA
HETATM    5  C13 UNL     1      31.036 -13.794 -11.308  1.00  0.00     0.122 C 
HETATM    6  C14 UNL     1      29.702 -13.067 -11.517  1.00  0.00     0.190 C 
HETATM    7  O4  UNL     1      29.564 -12.895 -12.921  1.00  0.00    -0.344 OA
ENDROOT
BRANCH   1   8
HETATM    8  C5  UNL     1      29.668 -13.480 -15.239  1.00  0.00     0.101 C 
HETATM    9  C4  UNL     1      29.087 -12.485 -15.854  1.00  0.00     0.041 C 
BRANCH   9  10
HETATM   10  C3  UNL     1      28.359 -12.624 -17.109  1.00  0.00     0.024 C 
HETATM   11  C2  UNL     1      27.076 -12.847 -17.161  1.00  0.00     0.020 C 
HETATM   12  C1  UNL     1      26.386 -12.980 -18.460  1.00  0.00     0.065 C 
HETATM   13  N1  UNL     1      26.315 -12.967 -15.975  1.00  0.00    -0.107 NA
ENDBRANCH   9  10
BRANCH   8  14
HETATM   14  O1  UNL     1      29.615 -14.747 -15.773  1.00  0.00    -0.358 OA
ATOM     15  H1  UNL     1      29.090 -15.419 -15.354  1.00  0.00     0.217 HD
ENDBRANCH   8  14
ENDBRANCH   1   8
BRANCH   2  16
HETATM   16  O2  UNL     1      32.251 -13.802 -15.166  1.00  0.00    -0.357 OA
ATOM     17  H2  UNL     1      32.371 -13.095 -15.788  1.00  0.00     0.218 HD
ENDBRANCH   2  16
BRANCH   4  18
HETATM   18  C9  UNL     1      32.775 -12.300 -10.632  1.00  0.00     0.087 C 
HETATM   19  C10 UNL     1      33.003 -13.283  -9.506  1.00  0.00     0.029 C 
BRANCH  18  20
HETATM   20  C11 UNL     1      34.014 -11.540 -11.006  1.00  0.00     0.131 C 
HETATM   21  C12 UNL     1      35.254 -12.157 -10.359  1.00  0.00     0.041 C 
BRANCH  20  22
HETATM   22  O3  UNL     1      33.993 -10.195 -10.732  1.00  0.00    -0.394 OA
ATOM     23  H3  UNL     1      34.819  -9.740 -10.845  1.00  0.00     0.210 HD
ENDBRANCH  20  22
ENDBRANCH  18  20
ENDBRANCH   4  18
TORSDOF 7
ENDMDL
MODEL 3
REMARK VINA RESULT: -4.985716344      5.257      8.271
REMARK  7 active torsions:
REMARK  status: ('A' for Active; 'I' for Inactive)
REMARK    1  A    between atoms: C3_4  and  C4_5 
REMARK    2  A    between atoms: C5_6  and  O1_7 
REMARK    3  A    between atoms: C5_6  and  C6_9 
REMARK    4  A    between atoms: C7_10  and  O2_11 
REMARK    5  A    between atoms: N2_14  and  C9_15 
REMARK    6  A    between atoms: C9_15  and  C11_17 
REMARK    7  A    between atoms: C11_17  and  O3_19 
ROOT
HETATM    1  C6  UNL     1      35.181  -9.396 -11.691  1.00  0.00     0.136 C 
HETATM    2  C7  UNL     1      35.103  -8.342 -10.914  1.00  0.00     0.112 C 
HETATM    3  C8  UNL     1      36.063  -7.226 -10.587  1.00  0.00     0.099 C 
HETATM    4  N2  UNL     1      37.284  -7.513 -11.218  1.00  0.00    -0.281 NA
HETATM    5  C13 UNL     1      37.062  -7.542 -12.673  1.00  0.00     0.122 C 
HETATM    6  C14 UNL     1      37.326  -9.002 -13.061  1.00  0.00     0.190 C 
HETATM    7  O4  UNL     1      36.281  -9.761 -12.468  1.00  0.00    -0.344 OA
ENDROOT
BRANCH   1   8
HETATM    8  C5  UNL     1      34.050 -10.292 -11.783  1.00  0.00     0.101 C 
HETATM    9  C4  UNL     1      34.112 -11.494 -11.278  1.00  0.00     0.041 C 
BRANCH   9  10
HETATM   10  C3  UNL     1      33.013 -12.452 -11.333  1.00  0.00     0.024 C 
HETATM   11  C2  UNL     1      32.449 -12.942 -10.266  1.00  0.00     0.020 C 
HETATM   12  C1  UNL     1      31.338 -13.910 -10.378  1.00  0.00     0.065 C 
HETATM   13  N1  UNL     1      32.886 -12.559  -8.977  1.00  0.00    -0.107 NA
ENDBRANCH   9  10
BRANCH   8  14
HETATM   14  O1  UNL     1      32.903  -9.865 -12.411  1.00  0.00    -0.358 OA
ATOM     15  H1  UNL     1      32.329  -9.241 -11.983  1.00  0.00     0.217 HD
ENDBRANCH   8  14
ENDBRANCH   1   8
BRANCH   2  16
HETATM   16  O2  UNL     1      33.895  -8.198 -10.243  1.00  0.00    -0.357 OA
ATOM     17  H2  UNL     1      33.598  -7.302 -10.142  1.00  0.00     0.218 HD
ENDBRANCH   2  16
BRANCH   4  18
HETATM   18  C9  UNL     1      38.459  -6.827 -10.870  1.00  0.00     0.087 C 
HETATM   19  C10 UNL     1      38.268  -5.359 -10.560  1.00  0.00     0.029 C 
BRANCH  18  20
HETATM   20  C11 UNL     1      39.319  -7.531  -9.861  1.00  0.00     0.131 C 
HETATM   21  C12 UNL     1      39.188  -9.048  -9.990  1.00  0.00     0.041 C 
BRANCH  20  22
HETATM   22  O3  UNL     1      39.110  -7.178  -8.551  1.00  0.00    -0.394 OA
ATOM     23  H3  UNL     1      38.823  -7.877  -7.977  1.00  0.00     0.210 HD
ENDBRANCH  20  22
ENDBRANCH  18  20
ENDBRANCH   4  18
TORSDOF 7
ENDMDL
MODEL 4
REMARK VINA RESULT: -4.855262710      1.725      2.487
REMARK  7 active torsions:
REMARK  status: ('A' for Active; 'I' for Inactive)
REMARK    1  A    between atoms: C3_4  and  C4_5 
REMARK    2  A    between atoms: C5_6  and  O1_7 
REMARK    3  A    between atoms: C5_6  and  C6_9 
REMARK    4  A    between atoms: C7_10  and  O2_11 
REMARK    5  A    between atoms: N2_14  and  C9_15 
REMARK    6  A    between atoms: C9_15  and  C11_17 
REMARK    7  A    between atoms: C11_17  and  O3_19 
ROOT
HETATM    1  C6  UNL     1      34.400  -5.753 -10.953  1.00  0.00     0.136 C 
HETATM    2  C7  UNL     1      33.433  -6.639 -10.965  1.00  0.00     0.112 C 
HETATM    3  C8  UNL     1      32.065  -6.668 -11.599  1.00  0.00     0.099 C 
HETATM    4  N2  UNL     1      31.843  -5.417 -12.196  1.00  0.00    -0.281 NA
HETATM    5  C13 UNL     1      32.854  -5.216 -13.248  1.00  0.00     0.122 C 
HETATM    6  C14 UNL     1      33.690  -4.036 -12.738  1.00  0.00     0.190 C 
HETATM    7  O4  UNL     1      34.378  -4.510 -11.588  1.00  0.00    -0.344 OA
ENDROOT
BRANCH   1   8
HETATM    8  C5  UNL     1      35.617  -6.043 -10.230  1.00  0.00     0.101 C 
HETATM    9  C4  UNL     1      36.721  -6.318 -10.870  1.00  0.00     0.041 C 
BRANCH   9  10
HETATM   10  C3  UNL     1      37.985  -6.620 -10.210  1.00  0.00     0.024 C 
HETATM   11  C2  UNL     1      38.962  -5.761 -10.126  1.00  0.00     0.020 C 
HETATM   12  C1  UNL     1      40.223  -6.118  -9.445  1.00  0.00     0.065 C 
HETATM   13  N1  UNL     1      38.836  -4.468 -10.684  1.00  0.00    -0.107 NA
ENDBRANCH   9  10
BRANCH   8  14
HETATM   14  O1  UNL     1      35.603  -6.026  -8.855  1.00  0.00    -0.358 OA
ATOM     15  H1  UNL     1      36.054  -5.337  -8.381  1.00  0.00     0.217 HD
ENDBRANCH   8  14
ENDBRANCH   1   8
BRANCH   2  16
HETATM   16  O2  UNL     1      33.698  -7.803 -10.255  1.00  0.00    -0.357 OA
ATOM     17  H2  UNL     1      33.220  -8.569 -10.549  1.00  0.00     0.218 HD
ENDBRANCH   2  16
BRANCH   4  18
HETATM   18  C9  UNL     1      30.558  -5.029 -12.607  1.00  0.00     0.087 C 
HETATM   19  C10 UNL     1      30.456  -4.604 -14.056  1.00  0.00     0.029 C 
BRANCH  18  20
HETATM   20  C11 UNL     1      29.459  -5.963 -12.193  1.00  0.00     0.131 C 
HETATM   21  C12 UNL     1      28.775  -6.583 -13.411  1.00  0.00     0.041 C 
BRANCH  20  22
HETATM   22  O3  UNL     1      28.500  -5.425 -11.371  1.00  0.00    -0.394 OA
ATOM     23  H3  UNL     1      27.773  -5.000 -11.811  1.00  0.00     0.210 HD
ENDBRANCH  20  22
ENDBRANCH  18  20
ENDBRANCH   4  18
TORSDOF 7
ENDMDL
MODEL 5
REMARK VINA RESULT: -4.827768423      7.202      9.829
REMARK  7 active torsions:
REMARK  status: ('A' for Active; 'I' for Inactive)
REMARK    1  A    between atoms: C3_4  and  C4_5 
REMARK    2  A    between atoms: C5_6  and  O1_7 
REMARK    3  A    between atoms: C5_6  and  C6_9 
REMARK    4  A    between atoms: C7_10  and  O2_11 
REMARK    5  A    between atoms: N2_14  and  C9_15 
REMARK    6  A    between atoms: C9_15  and  C11_17 
REMARK    7  A    between atoms: C11_17  and  O3_19 
ROOT
HETATM    1  C6  UNL     1      30.993 -13.472 -14.049  1.00  0.00     0.136 C 
HETATM    2  C7  UNL     1      30.386 -13.367 -12.891  1.00  0.00     0.112 C 
HETATM    3  C8  UNL     1      30.875 -13.132 -11.485  1.00  0.00     0.099 C 
HETATM    4  N2  UNL     1      32.279 -13.128 -11.515  1.00  0.00    -0.281 NA
HETATM    5  C13 UNL     1      32.724 -12.014 -12.370  1.00  0.00     0.122 C 
HETATM    6  C14 UNL     1      33.403 -12.706 -13.558  1.00  0.00     0.190 C 
HETATM    7  O4  UNL     1      32.370 -13.381 -14.263  1.00  0.00    -0.344 OA
ENDROOT
BRANCH   1   8
HETATM    8  C5  UNL     1      30.210 -13.704 -15.241  1.00  0.00     0.101 C 
HETATM    9  C4  UNL     1      29.926 -12.721 -16.052  1.00  0.00     0.041 C 
BRANCH   9  10
HETATM   10  C3  UNL     1      29.142 -12.879 -17.271  1.00  0.00     0.024 C 
HETATM   11  C2  UNL     1      27.847 -13.027 -17.265  1.00  0.00     0.020 C 
HETATM   12  C1  UNL     1      27.101 -13.183 -18.530  1.00  0.00     0.065 C 
HETATM   13  N1  UNL     1      27.128 -13.042 -16.047  1.00  0.00    -0.107 NA
ENDBRANCH   9  10
BRANCH   8  14
HETATM   14  O1  UNL     1      29.763 -14.976 -15.516  1.00  0.00    -0.358 OA
ATOM     15  H1  UNL     1      28.831 -15.157 -15.549  1.00  0.00     0.217 HD
ENDBRANCH   8  14
ENDBRANCH   1   8
BRANCH   2  16
HETATM   16  O2  UNL     1      29.003 -13.495 -12.943  1.00  0.00    -0.357 OA
ATOM     17  H2  UNL     1      28.567 -13.451 -12.101  1.00  0.00     0.218 HD
ENDBRANCH   2  16
BRANCH   4  18
HETATM   18  C9  UNL     1      33.030 -13.228 -10.333  1.00  0.00     0.087 C 
HETATM   19  C10 UNL     1      34.211 -12.287 -10.249  1.00  0.00     0.029 C 
BRANCH  18  20
HETATM   20  C11 UNL     1      32.213 -13.255  -9.074  1.00  0.00     0.131 C 
HETATM   21  C12 UNL     1      32.674 -12.175  -8.096  1.00  0.00     0.041 C 
BRANCH  20  22
HETATM   22  O3  UNL     1      32.172 -14.460  -8.417  1.00  0.00    -0.394 OA
ATOM     23  H3  UNL     1      32.251 -15.231  -8.966  1.00  0.00     0.210 HD
ENDBRANCH  20  22
ENDBRANCH  18  20
ENDBRANCH   4  18
TORSDOF 7
ENDMDL
