MODEL 1
REMARK VINA RESULT: -5.347948342      0.000      0.000
REMARK  2 active torsions:
REMARK  status: ('A' for Active; 'I' for Inactive)
REMARK    1  A    between atoms: C2_2  and  C3_3 
REMARK    2  A    between atoms: C11_17  and  O3_18 
ROOT
HETATM    1  C3  UNL     1      33.980  -8.638 -12.185  1.00  0.00     0.138 C 
HETATM    2  C4  UNL     1      34.467  -9.287 -10.921  1.00  0.00     0.156 C 
HETATM    3  N1  UNL     1      35.748  -9.889 -11.179  1.00  0.00    -0.340 N 
ATOM      4  H1  UNL     1      36.382  -9.392 -11.804  1.00  0.00     0.164 HD
HETATM    5  C5  UNL     1      36.200 -11.117 -10.634  1.00  0.00     0.320 C 
HETATM    6  O1  UNL     1      37.438 -11.379 -10.846  1.00  0.00    -0.247 OA
HETATM    7  N2  UNL     1      35.447 -12.056  -9.898  1.00  0.00    -0.309 N 
ATOM      8  H2  UNL     1      35.863 -12.386  -9.028  1.00  0.00     0.170 HD
HETATM    9  C6  UNL     1      34.179 -12.593 -10.229  1.00  0.00     0.045 A 
HETATM   10  C7  UNL     1      33.335 -12.813  -9.221  1.00  0.00     0.030 A 
HETATM   11  C8  UNL     1      31.973 -13.368  -9.375  1.00  0.00     0.204 A 
HETATM   12  O2  UNL     1      31.603 -13.670 -10.686  1.00  0.00    -0.359 OA
HETATM   13  C9  UNL     1      32.457 -13.450 -11.724  1.00  0.00     0.147 A 
HETATM   14  C10 UNL     1      33.686 -12.941 -11.550  1.00  0.00     0.019 A 
HETATM   15  C11 UNL     1      34.446 -12.790 -12.819  1.00  0.00     0.155 C 
HETATM   16  C12 UNL     1      33.722 -11.830 -13.726  1.00  0.00     0.039 C 
HETATM   17  C13 UNL     1      34.676 -10.928 -14.460  1.00  0.00     0.029 C 
HETATM   18  C14 UNL     1      34.172  -9.507 -14.301  1.00  0.00     0.168 C 
HETATM   19  O4  UNL     1      34.834  -8.929 -13.247  1.00  0.00    -0.384 OA
ENDROOT
BRANCH   1  20
HETATM   20  C2  UNL     1      33.922  -7.124 -12.081  1.00  0.00     0.029 C 
HETATM   21  C1  UNL     1      32.820  -6.662 -11.177  1.00  0.00     0.007 C 
ENDBRANCH   1  20
BRANCH  15  22
HETATM   22  O3  UNL     1      34.385 -14.065 -13.440  1.00  0.00    -0.391 OA
ATOM     23  H3  UNL     1      33.895 -13.926 -14.242  1.00  0.00     0.210 HD
ENDBRANCH  15  22
TORSDOF 2
ENDMDL
MODEL 2
REMARK VINA RESULT: -5.341370190      1.113      1.142
REMARK  2 active torsions:
REMARK  status: ('A' for Active; 'I' for Inactive)
REMARK    1  A    between atoms: C2_2  and  C3_3 
REMARK    2  A    between atoms: C11_17  and  O3_18 
ROOT
HETATM    1  C3  UNL     1      33.704  -8.696 -11.986  1.00  0.00     0.138 C 
HETATM    2  C4  UNL     1      34.537  -9.613 -11.136  1.00  0.00     0.156 C 
HETATM    3  N1  UNL     1      35.443 -10.333 -11.990  1.00  0.00    -0.340 N 
ATOM      4  H1  UNL     1      35.841  -9.829 -12.782  1.00  0.00     0.164 HD
HETATM    5  C5  UNL     1      35.828 -11.687 -11.820  1.00  0.00     0.320 C 
HETATM    6  O1  UNL     1      36.783 -12.077 -12.582  1.00  0.00    -0.247 OA
HETATM    7  N2  UNL     1      35.282 -12.624 -10.918  1.00  0.00    -0.309 N 
ATOM      8  H2  UNL     1      35.950 -13.153 -10.357  1.00  0.00     0.170 HD
HETATM    9  C6  UNL     1      33.913 -12.916 -10.700  1.00  0.00     0.045 A 
HETATM   10  C7  UNL     1      33.546 -13.187  -9.448  1.00  0.00     0.030 A 
HETATM   11  C8  UNL     1      32.165 -13.513  -9.033  1.00  0.00     0.204 A 
HETATM   12  O2  UNL     1      31.227 -13.532 -10.065  1.00  0.00    -0.359 OA
HETATM   13  C9  UNL     1      31.591 -13.258 -11.349  1.00  0.00     0.147 A 
HETATM   14  C10 UNL     1      32.854 -12.961 -11.691  1.00  0.00     0.019 A 
HETATM   15  C11 UNL     1      33.024 -12.702 -13.145  1.00  0.00     0.155 C 
HETATM   16  C12 UNL     1      32.193 -11.511 -13.543  1.00  0.00     0.039 C 
HETATM   17  C13 UNL     1      32.909 -10.637 -14.536  1.00  0.00     0.029 C 
HETATM   18  C14 UNL     1      32.812  -9.208 -14.038  1.00  0.00     0.168 C 
HETATM   19  O4  UNL     1      33.956  -8.916 -13.338  1.00  0.00    -0.384 OA
ENDROOT
BRANCH   1  20
HETATM   20  C2  UNL     1      33.998  -7.229 -11.726  1.00  0.00     0.029 C 
HETATM   21  C1  UNL     1      32.798  -6.496 -11.210  1.00  0.00     0.007 C 
ENDBRANCH   1  20
BRANCH  15  22
HETATM   22  O3  UNL     1      32.455 -13.831 -13.791  1.00  0.00    -0.391 OA
ATOM     23  H3  UNL     1      31.549 -13.594 -13.951  1.00  0.00     0.210 HD
ENDBRANCH  15  22
TORSDOF 2
ENDMDL
MODEL 3
REMARK VINA RESULT: -5.239922828      2.570      5.006
REMARK  2 active torsions:
REMARK  status: ('A' for Active; 'I' for Inactive)
REMARK    1  A    between atoms: C2_2  and  C3_3 
REMARK    2  A    between atoms: C11_17  and  O3_18 
ROOT
HETATM    1  C3  UNL     1      31.714 -13.568 -10.846  1.00  0.00     0.138 C 
HETATM    2  C4  UNL     1      33.087 -13.019 -11.117  1.00  0.00     0.156 C 
HETATM    3  N1  UNL     1      32.952 -11.686 -11.638  1.00  0.00    -0.340 N 
ATOM      4  H1  UNL     1      32.209 -11.104 -11.251  1.00  0.00     0.164 HD
HETATM    5  C5  UNL     1      33.768 -11.114 -12.647  1.00  0.00     0.320 C 
HETATM    6  O1  UNL     1      33.596  -9.856 -12.833  1.00  0.00    -0.247 OA
HETATM    7  N2  UNL     1      34.728 -11.771 -13.445  1.00  0.00    -0.309 N 
ATOM      8  H2  UNL     1      35.642 -11.324 -13.510  1.00  0.00     0.170 HD
HETATM    9  C6  UNL     1      34.569 -12.980 -14.165  1.00  0.00     0.045 A 
HETATM   10  C7  UNL     1      35.621 -13.797 -14.212  1.00  0.00     0.030 A 
HETATM   11  C8  UNL     1      35.640 -15.098 -14.914  1.00  0.00     0.204 A 
HETATM   12  O2  UNL     1      34.451 -15.437 -15.562  1.00  0.00    -0.359 OA
HETATM   13  C9  UNL     1      33.370 -14.609 -15.522  1.00  0.00     0.147 A 
HETATM   14  C10 UNL     1      33.385 -13.437 -14.871  1.00  0.00     0.019 A 
HETATM   15  C11 UNL     1      32.100 -12.696 -14.963  1.00  0.00     0.155 C 
HETATM   16  C12 UNL     1      31.004 -13.511 -14.328  1.00  0.00     0.039 C 
HETATM   17  C13 UNL     1      30.050 -12.651 -13.546  1.00  0.00     0.029 C 
HETATM   18  C14 UNL     1      29.870 -13.293 -12.184  1.00  0.00     0.168 C 
HETATM   19  O4  UNL     1      30.735 -12.691 -11.305  1.00  0.00    -0.384 OA
ENDROOT
BRANCH   1  20
HETATM   20  C2  UNL     1      31.449 -13.775  -9.366  1.00  0.00     0.029 C 
HETATM   21  C1  UNL     1      32.487 -13.118  -8.508  1.00  0.00     0.007 C 
ENDBRANCH   1  20
BRANCH  15  22
HETATM   22  O3  UNL     1      31.809 -12.631 -16.351  1.00  0.00    -0.391 OA
ATOM     23  H3  UNL     1      31.382 -11.792 -16.475  1.00  0.00     0.210 HD
ENDBRANCH  15  22
TORSDOF 2
ENDMDL
MODEL 4
REMARK VINA RESULT: -5.124111791      1.774      2.150
REMARK  2 active torsions:
REMARK  status: ('A' for Active; 'I' for Inactive)
REMARK    1  A    between atoms: C2_2  and  C3_3 
REMARK    2  A    between atoms: C11_17  and  O3_18 
ROOT
HETATM    1  C3  UNL     1      32.937  -9.052 -12.878  1.00  0.00     0.138 C 
HETATM    2  C4  UNL     1      34.015  -9.862 -12.215  1.00  0.00     0.156 C 
HETATM    3  N1  UNL     1      34.618 -10.716 -13.202  1.00  0.00    -0.340 N 
ATOM      4  H1  UNL     1      34.734 -10.338 -14.142  1.00  0.00     0.164 HD
HETATM    5  C5  UNL     1      35.065 -12.042 -12.975  1.00  0.00     0.320 C 
HETATM    6  O1  UNL     1      35.738 -12.559 -13.938  1.00  0.00    -0.247 OA
HETATM    7  N2  UNL     1      34.853 -12.831 -11.824  1.00  0.00    -0.309 N 
ATOM      8  H2  UNL     1      35.675 -13.293 -11.436  1.00  0.00     0.170 HD
HETATM    9  C6  UNL     1      33.630 -13.056 -11.147  1.00  0.00     0.045 A 
HETATM   10  C7  UNL     1      33.683 -13.141  -9.818  1.00  0.00     0.030 A 
HETATM   11  C8  UNL     1      32.512 -13.371  -8.946  1.00  0.00     0.204 A 
HETATM   12  O2  UNL     1      31.295 -13.511  -9.615  1.00  0.00    -0.359 OA
HETATM   13  C9  UNL     1      31.229 -13.428 -10.974  1.00  0.00     0.147 A 
HETATM   14  C10 UNL     1      32.312 -13.213 -11.735  1.00  0.00     0.019 A 
HETATM   15  C11 UNL     1      32.008 -13.163 -13.190  1.00  0.00     0.155 C 
HETATM   16  C12 UNL     1      31.069 -12.018 -13.467  1.00  0.00     0.039 C 
HETATM   17  C13 UNL     1      31.416 -11.310 -14.748  1.00  0.00     0.029 C 
HETATM   18  C14 UNL     1      31.452  -9.823 -14.450  1.00  0.00     0.168 C 
HETATM   19  O4  UNL     1      32.752  -9.465 -14.195  1.00  0.00    -0.384 OA
ENDROOT
BRANCH   1  20
HETATM   20  C2  UNL     1      33.268  -7.571 -12.932  1.00  0.00     0.029 C 
HETATM   21  C1  UNL     1      32.966  -6.878 -11.638  1.00  0.00     0.007 C 
ENDBRANCH   1  20
BRANCH  15  22
HETATM   22  O3  UNL     1      31.287 -14.356 -13.458  1.00  0.00    -0.391 OA
ATOM     23  H3  UNL     1      30.917 -14.232 -14.324  1.00  0.00     0.210 HD
ENDBRANCH  15  22
TORSDOF 2
ENDMDL
MODEL 5
REMARK VINA RESULT: -5.052792489      2.449      3.366
REMARK  2 active torsions:
REMARK  status: ('A' for Active; 'I' for Inactive)
REMARK    1  A    between atoms: C2_2  and  C3_3 
REMARK    2  A    between atoms: C11_17  and  O3_18 
ROOT
HETATM    1  C3  UNL     1      32.227  -9.784 -13.472  1.00  0.00     0.138 C 
HETATM    2  C4  UNL     1      33.480 -10.566 -13.198  1.00  0.00     0.156 C 
HETATM    3  N1  UNL     1      33.496 -11.721 -14.054  1.00  0.00    -0.340 N 
ATOM      4  H1  UNL     1      33.131 -11.610 -14.999  1.00  0.00     0.164 HD
HETATM    5  C5  UNL     1      33.978 -13.004 -13.690  1.00  0.00     0.320 C 
HETATM    6  O1  UNL     1      34.070 -13.841 -14.657  1.00  0.00    -0.247 OA
HETATM    7  N2  UNL     1      34.360 -13.441 -12.404  1.00  0.00    -0.309 N 
ATOM      8  H2  UNL     1      35.259 -13.916 -12.338  1.00  0.00     0.170 HD
HETATM    9  C6  UNL     1      33.638 -13.295 -11.194  1.00  0.00     0.045 A 
HETATM   10  C7  UNL     1      34.349 -13.057 -10.092  1.00  0.00     0.030 A 
HETATM   11  C8  UNL     1      33.769 -12.876  -8.744  1.00  0.00     0.204 A 
HETATM   12  O2  UNL     1      32.380 -12.983  -8.680  1.00  0.00    -0.359 OA
HETATM   13  C9  UNL     1      31.643 -13.227  -9.799  1.00  0.00     0.147 A 
HETATM   14  C10 UNL     1      32.201 -13.381 -11.009  1.00  0.00     0.019 A 
HETATM   15  C11 UNL     1      31.209 -13.644 -12.085  1.00  0.00     0.155 C 
HETATM   16  C12 UNL     1      30.274 -12.470 -12.204  1.00  0.00     0.039 C 
HETATM   17  C13 UNL     1      29.943 -12.163 -13.639  1.00  0.00     0.029 C 
HETATM   18  C14 UNL     1      30.144 -10.674 -13.844  1.00  0.00     0.168 C 
HETATM   19  O4  UNL     1      31.401 -10.475 -14.357  1.00  0.00    -0.384 OA
ENDROOT
BRANCH   1  20
HETATM   20  C2  UNL     1      32.506  -8.434 -14.108  1.00  0.00     0.029 C 
HETATM   21  C1  UNL     1      31.896  -7.307 -13.332  1.00  0.00     0.007 C 
ENDBRANCH   1  20
BRANCH  15  22
HETATM   22  O3  UNL     1      30.435 -14.737 -11.616  1.00  0.00    -0.391 OA
ATOM     23  H3  UNL     1      30.670 -15.466 -12.178  1.00  0.00     0.210 HD
ENDBRANCH  15  22
TORSDOF 2
ENDMDL
