MODEL 1
REMARK VINA RESULT: -3.802002295      0.000      0.000
REMARK  1 active torsions:
REMARK  status: ('A' for Active; 'I' for Inactive)
REMARK    1  A    between atoms: C2_2  and  C3_4 
ROOT
HETATM    1  C3  UNL     1     -19.982 -12.210 -11.600  1.00  0.00     0.236 C 
HETATM    2  C4  UNL     1     -21.365 -11.870 -11.272  1.00  0.00     0.096 C 
HETATM    3  N1  UNL     1     -22.475 -11.606 -10.991  1.00  0.00    -0.195 NA
HETATM    4  C5  UNL     1     -19.297 -10.932 -12.022  1.00  0.00     0.054 C 
HETATM    5  C6  UNL     1     -19.601 -10.650 -13.476  1.00  0.00     0.031 C 
HETATM    6  C7  UNL     1     -18.852 -11.548 -14.391  1.00  0.00     0.190 C 
HETATM    7  O2  UNL     1     -19.038 -12.879 -14.220  1.00  0.00    -0.274 OA
HETATM    8  S1  UNL     1     -19.939 -13.354 -12.945  1.00  0.00     0.294 S 
HETATM    9  O3  UNL     1     -19.398 -14.662 -12.399  1.00  0.00    -0.196 OA
HETATM   10  O4  UNL     1     -21.343 -13.640 -13.400  1.00  0.00    -0.196 OA
ENDROOT
BRANCH   1  11
HETATM   11  C2  UNL     1     -19.271 -12.719 -10.402  1.00  0.00     0.163 C 
HETATM   12  C1  UNL     1     -17.841 -12.506 -10.145  1.00  0.00     0.094 C 
HETATM   13  O1  UNL     1     -19.910 -13.353  -9.582  1.00  0.00    -0.295 OA
ENDBRANCH   1  11
TORSDOF 1
ENDMDL
MODEL 2
REMARK VINA RESULT: -3.569945117      2.174      2.959
REMARK  1 active torsions:
REMARK  status: ('A' for Active; 'I' for Inactive)
REMARK    1  A    between atoms: C2_2  and  C3_4 
ROOT
HETATM    1  C3  UNL     1     -21.212 -11.060 -13.150  1.00  0.00     0.236 C 
HETATM    2  C4  UNL     1     -21.960 -11.157 -11.898  1.00  0.00     0.096 C 
HETATM    3  N1  UNL     1     -22.544 -11.239 -10.882  1.00  0.00    -0.195 NA
HETATM    4  C5  UNL     1     -21.686  -9.812 -13.856  1.00  0.00     0.054 C 
HETATM    5  C6  UNL     1     -22.962 -10.111 -14.611  1.00  0.00     0.031 C 
HETATM    6  C7  UNL     1     -22.716 -10.911 -15.837  1.00  0.00     0.190 C 
HETATM    7  O2  UNL     1     -22.092 -12.101 -15.669  1.00  0.00    -0.274 OA
HETATM    8  S1  UNL     1     -21.549 -12.461 -14.172  1.00  0.00     0.294 S 
HETATM    9  O3  UNL     1     -20.262 -13.257 -14.275  1.00  0.00    -0.196 OA
HETATM   10  O4  UNL     1     -22.540 -13.355 -13.480  1.00  0.00    -0.196 OA
ENDROOT
BRANCH   1  11
HETATM   11  C2  UNL     1     -19.763 -10.893 -12.881  1.00  0.00     0.163 C 
HETATM   12  C1  UNL     1     -19.093 -11.379 -11.668  1.00  0.00     0.094 C 
HETATM   13  O1  UNL     1     -19.087 -10.317 -13.715  1.00  0.00    -0.295 OA
ENDBRANCH   1  11
TORSDOF 1
ENDMDL
MODEL 3
REMARK VINA RESULT: -3.530937282      3.784      4.366
REMARK  1 active torsions:
REMARK  status: ('A' for Active; 'I' for Inactive)
REMARK    1  A    between atoms: C2_2  and  C3_4 
ROOT
HETATM    1  C3  UNL     1     -23.013 -10.306 -12.203  1.00  0.00     0.236 C 
HETATM    2  C4  UNL     1     -23.257  -9.007 -11.576  1.00  0.00     0.096 C 
HETATM    3  N1  UNL     1     -23.455  -7.973 -11.055  1.00  0.00    -0.195 NA
HETATM    4  C5  UNL     1     -21.801 -10.151 -13.089  1.00  0.00     0.054 C 
HETATM    5  C6  UNL     1     -22.216  -9.558 -14.417  1.00  0.00     0.031 C 
HETATM    6  C7  UNL     1     -22.924 -10.542 -15.275  1.00  0.00     0.190 C 
HETATM    7  O2  UNL     1     -24.037 -11.111 -14.753  1.00  0.00    -0.274 OA
HETATM    8  S1  UNL     1     -24.396 -10.771 -13.197  1.00  0.00     0.294 S 
HETATM    9  O3  UNL     1     -25.026 -11.986 -12.544  1.00  0.00    -0.196 OA
HETATM   10  O4  UNL     1     -25.434  -9.685 -13.148  1.00  0.00    -0.196 OA
ENDROOT
BRANCH   1  11
HETATM   11  C2  UNL     1     -22.685 -11.327 -11.178  1.00  0.00     0.163 C 
HETATM   12  C1  UNL     1     -21.795 -12.470 -11.415  1.00  0.00     0.094 C 
HETATM   13  O1  UNL     1     -23.185 -11.211 -10.073  1.00  0.00    -0.295 OA
ENDBRANCH   1  11
TORSDOF 1
ENDMDL
MODEL 4
REMARK VINA RESULT: -3.530681083      3.577      4.557
REMARK  1 active torsions:
REMARK  status: ('A' for Active; 'I' for Inactive)
REMARK    1  A    between atoms: C2_2  and  C3_4 
ROOT
HETATM    1  C3  UNL     1     -23.475 -10.287 -12.487  1.00  0.00     0.236 C 
HETATM    2  C4  UNL     1     -24.426 -10.939 -13.386  1.00  0.00     0.096 C 
HETATM    3  N1  UNL     1     -25.205 -11.457 -14.097  1.00  0.00    -0.195 NA
HETATM    4  C5  UNL     1     -22.484  -9.544 -13.351  1.00  0.00     0.054 C 
HETATM    5  C6  UNL     1     -21.415 -10.500 -13.832  1.00  0.00     0.031 C 
HETATM    6  C7  UNL     1     -20.457 -10.860 -12.755  1.00  0.00     0.190 C 
HETATM    7  O2  UNL     1     -20.984 -11.417 -11.638  1.00  0.00    -0.274 OA
HETATM    8  S1  UNL     1     -22.611 -11.496 -11.532  1.00  0.00     0.294 S 
HETATM    9  O3  UNL     1     -23.036 -11.309 -10.089  1.00  0.00    -0.196 OA
HETATM   10  O4  UNL     1     -23.074 -12.869 -11.931  1.00  0.00    -0.196 OA
ENDROOT
BRANCH   1  11
HETATM   11  C2  UNL     1     -24.162  -9.283 -11.639  1.00  0.00     0.163 C 
HETATM   12  C1  UNL     1     -23.501  -8.106 -11.062  1.00  0.00     0.094 C 
HETATM   13  O1  UNL     1     -25.347  -9.443 -11.406  1.00  0.00    -0.295 OA
ENDBRANCH   1  11
TORSDOF 1
ENDMDL
MODEL 5
REMARK VINA RESULT: -3.519072571      2.698      3.200
REMARK  1 active torsions:
REMARK  status: ('A' for Active; 'I' for Inactive)
REMARK    1  A    between atoms: C2_2  and  C3_4 
ROOT
HETATM    1  C3  UNL     1     -19.223 -12.943 -12.251  1.00  0.00     0.236 C 
HETATM    2  C4  UNL     1     -17.953 -13.534 -12.670  1.00  0.00     0.096 C 
HETATM    3  N1  UNL     1     -16.925 -14.005 -12.989  1.00  0.00    -0.195 NA
HETATM    4  C5  UNL     1     -20.313 -13.919 -12.625  1.00  0.00     0.054 C 
HETATM    5  C6  UNL     1     -20.678 -13.737 -14.081  1.00  0.00     0.031 C 
HETATM    6  C7  UNL     1     -21.474 -12.505 -14.311  1.00  0.00     0.190 C 
HETATM    7  O2  UNL     1     -20.910 -11.338 -13.917  1.00  0.00    -0.274 OA
HETATM    8  S1  UNL     1     -19.497 -11.422 -13.105  1.00  0.00     0.294 S 
HETATM    9  O3  UNL     1     -19.439 -10.314 -12.070  1.00  0.00    -0.196 OA
HETATM   10  O4  UNL     1     -18.358 -11.169 -14.051  1.00  0.00    -0.196 OA
ENDROOT
BRANCH   1  11
HETATM   11  C2  UNL     1     -19.261 -12.780 -10.777  1.00  0.00     0.163 C 
HETATM   12  C1  UNL     1     -18.077 -12.517  -9.951  1.00  0.00     0.094 C 
HETATM   13  O1  UNL     1     -20.340 -12.870 -10.218  1.00  0.00    -0.295 OA
ENDBRANCH   1  11
TORSDOF 1
ENDMDL
