MODEL 1
REMARK VINA RESULT: -4.524775978      0.000      0.000
REMARK  1 active torsions:
REMARK  status: ('A' for Active; 'I' for Inactive)
REMARK    1  A    between atoms: O1_2  and  C2_3 
ROOT
HETATM    1  C2  UNL     1     -21.085  -2.573  -9.396  1.00  0.00     0.265 C 
HETATM    2  C3  UNL     1     -22.314  -3.104  -8.715  1.00  0.00     0.101 C 
HETATM    3  C4  UNL     1     -23.366  -3.586  -9.701  1.00  0.00     0.096 C 
HETATM    4  C5  UNL     1     -24.714  -3.309  -9.060  1.00  0.00     0.041 C 
HETATM    5  C6  UNL     1     -25.776  -4.251  -9.474  1.00  0.00     0.005 C 
HETATM    6  C7  UNL     1     -25.446  -5.141 -10.616  1.00  0.00     0.026 C 
HETATM    7  C8  UNL     1     -24.028  -5.558 -10.720  1.00  0.00     0.169 C 
HETATM    8  O2  UNL     1     -23.156  -4.937  -9.878  1.00  0.00    -0.377 OA
HETATM    9  C9  UNL     1     -23.327  -2.798 -10.988  1.00  0.00     0.214 A 
HETATM   10  O3  UNL     1     -22.881  -1.438 -10.764  1.00  0.00    -0.345 OA
HETATM   11  C10 UNL     1     -22.072  -2.344 -11.447  1.00  0.00     0.295 A 
HETATM   12  O4  UNL     1     -21.012  -2.922 -10.739  1.00  0.00    -0.329 OA
ENDROOT
BRANCH   1  13
HETATM   13  O1  UNL     1     -21.009  -1.191  -9.278  1.00  0.00    -0.366 OA
HETATM   14  C1  UNL     1     -20.241  -0.856  -8.190  1.00  0.00     0.204 C 
ENDBRANCH   1  13
TORSDOF 1
ENDMDL
MODEL 2
REMARK VINA RESULT: -4.266184201      1.583      2.544
REMARK  1 active torsions:
REMARK  status: ('A' for Active; 'I' for Inactive)
REMARK    1  A    between atoms: O1_2  and  C2_3 
ROOT
HETATM    1  C2  UNL     1     -21.963  -3.192  -9.508  1.00  0.00     0.265 C 
HETATM    2  C3  UNL     1     -23.240  -2.568  -9.991  1.00  0.00     0.101 C 
HETATM    3  C4  UNL     1     -24.390  -3.562 -10.051  1.00  0.00     0.096 C 
HETATM    4  C5  UNL     1     -25.264  -3.137 -11.217  1.00  0.00     0.041 C 
HETATM    5  C6  UNL     1     -26.690  -3.491 -11.052  1.00  0.00     0.005 C 
HETATM    6  C7  UNL     1     -27.008  -4.407  -9.928  1.00  0.00     0.026 C 
HETATM    7  C8  UNL     1     -26.151  -4.275  -8.726  1.00  0.00     0.169 C 
HETATM    8  O2  UNL     1     -25.061  -3.466  -8.851  1.00  0.00    -0.377 OA
HETATM    9  C9  UNL     1     -23.905  -4.958 -10.358  1.00  0.00     0.214 A 
HETATM   10  O3  UNL     1     -22.710  -4.936 -11.177  1.00  0.00    -0.345 OA
HETATM   11  C10 UNL     1     -22.648  -5.349  -9.847  1.00  0.00     0.295 A 
HETATM   12  O4  UNL     1     -22.153  -4.433  -8.911  1.00  0.00    -0.329 OA
ENDROOT
BRANCH   1  13
HETATM   13  O1  UNL     1     -21.048  -3.319 -10.545  1.00  0.00    -0.366 OA
HETATM   14  C1  UNL     1     -21.187  -2.272 -11.423  1.00  0.00     0.204 C 
ENDBRANCH   1  13
TORSDOF 1
ENDMDL
MODEL 3
REMARK VINA RESULT: -4.123710095      1.741      4.737
REMARK  1 active torsions:
REMARK  status: ('A' for Active; 'I' for Inactive)
REMARK    1  A    between atoms: O1_2  and  C2_3 
ROOT
HETATM    1  C2  UNL     1     -24.498  -6.258 -10.065  1.00  0.00     0.265 C 
HETATM    2  C3  UNL     1     -23.311  -5.615 -10.722  1.00  0.00     0.101 C 
HETATM    3  C4  UNL     1     -23.038  -4.216 -10.192  1.00  0.00     0.096 C 
HETATM    4  C5  UNL     1     -22.474  -3.419 -11.355  1.00  0.00     0.041 C 
HETATM    5  C6  UNL     1     -21.552  -2.339 -10.945  1.00  0.00     0.005 C 
HETATM    6  C7  UNL     1     -21.513  -2.032  -9.493  1.00  0.00     0.026 C 
HETATM    7  C8  UNL     1     -21.729  -3.183  -8.585  1.00  0.00     0.169 C 
HETATM    8  O2  UNL     1     -22.119  -4.348  -9.174  1.00  0.00    -0.377 OA
HETATM    9  C9  UNL     1     -24.310  -3.522  -9.767  1.00  0.00     0.214 A 
HETATM   10  O3  UNL     1     -25.444  -3.966 -10.552  1.00  0.00    -0.345 OA
HETATM   11  C10 UNL     1     -25.338  -4.311  -9.206  1.00  0.00     0.295 A 
HETATM   12  O4  UNL     1     -24.901  -5.607  -8.906  1.00  0.00    -0.329 OA
ENDROOT
BRANCH   1  13
HETATM   13  O1  UNL     1     -25.571  -6.334 -10.944  1.00  0.00    -0.366 OA
HETATM   14  C1  UNL     1     -26.020  -7.629 -11.025  1.00  0.00     0.204 C 
ENDBRANCH   1  13
TORSDOF 1
ENDMDL
MODEL 4
REMARK VINA RESULT: -3.992296063      9.626     11.319
REMARK  1 active torsions:
REMARK  status: ('A' for Active; 'I' for Inactive)
REMARK    1  A    between atoms: O1_2  and  C2_3 
ROOT
HETATM    1  C2  UNL     1     -19.450 -12.918 -14.783  1.00  0.00     0.265 C 
HETATM    2  C3  UNL     1     -18.403 -13.482 -13.866  1.00  0.00     0.101 C 
HETATM    3  C4  UNL     1     -18.344 -12.756 -12.531  1.00  0.00     0.096 C 
HETATM    4  C5  UNL     1     -16.892 -12.791 -12.088  1.00  0.00     0.041 C 
HETATM    5  C6  UNL     1     -16.717 -12.776 -10.620  1.00  0.00     0.005 C 
HETATM    6  C7  UNL     1     -17.933 -12.478  -9.822  1.00  0.00     0.026 C 
HETATM    7  C8  UNL     1     -19.213 -12.958 -10.394  1.00  0.00     0.169 C 
HETATM    8  O2  UNL     1     -19.157 -13.451 -11.663  1.00  0.00    -0.377 OA
HETATM    9  C9  UNL     1     -18.720 -11.301 -12.671  1.00  0.00     0.214 A 
HETATM   10  O3  UNL     1     -18.364 -10.784 -13.977  1.00  0.00    -0.345 OA
HETATM   11  C10 UNL     1     -19.701 -10.960 -13.627  1.00  0.00     0.295 A 
HETATM   12  O4  UNL     1     -20.356 -12.089 -14.134  1.00  0.00    -0.329 OA
ENDROOT
BRANCH   1  13
HETATM   13  O1  UNL     1     -18.867 -12.223 -15.835  1.00  0.00    -0.366 OA
HETATM   14  C1  UNL     1     -18.783 -13.032 -16.942  1.00  0.00     0.204 C 
ENDBRANCH   1  13
TORSDOF 1
ENDMDL
MODEL 5
REMARK VINA RESULT: -3.954024477      6.994      9.339
REMARK  1 active torsions:
REMARK  status: ('A' for Active; 'I' for Inactive)
REMARK    1  A    between atoms: O1_2  and  C2_3 
ROOT
HETATM    1  C2  UNL     1     -23.409 -10.239 -12.429  1.00  0.00     0.265 C 
HETATM    2  C3  UNL     1     -22.117  -9.856 -13.090  1.00  0.00     0.101 C 
HETATM    3  C4  UNL     1     -21.213 -11.053 -13.342  1.00  0.00     0.096 C 
HETATM    4  C5  UNL     1     -19.787 -10.550 -13.205  1.00  0.00     0.041 C 
HETATM    5  C6  UNL     1     -18.811 -11.294 -14.029  1.00  0.00     0.005 C 
HETATM    6  C7  UNL     1     -19.306 -12.548 -14.651  1.00  0.00     0.026 C 
HETATM    7  C8  UNL     1     -20.736 -12.553 -15.040  1.00  0.00     0.169 C 
HETATM    8  O2  UNL     1     -21.476 -11.489 -14.622  1.00  0.00    -0.377 OA
HETATM    9  C9  UNL     1     -21.398 -12.122 -12.293  1.00  0.00     0.214 A 
HETATM   10  O3  UNL     1     -21.778 -11.553 -11.016  1.00  0.00    -0.345 OA
HETATM   11  C10 UNL     1     -22.690 -12.304 -11.754  1.00  0.00     0.295 A 
HETATM   12  O4  UNL     1     -23.664 -11.605 -12.477  1.00  0.00    -0.329 OA
ENDROOT
BRANCH   1  13
HETATM   13  O1  UNL     1     -23.436  -9.816 -11.107  1.00  0.00    -0.366 OA
HETATM   14  C1  UNL     1     -23.486  -8.444 -11.055  1.00  0.00     0.204 C 
ENDBRANCH   1  13
TORSDOF 1
ENDMDL
