MODEL 1
REMARK VINA RESULT: -8.525394241      0.000      0.000
REMARK  12 active torsions:
REMARK  status: ('A' for Active; 'I' for Inactive)
REMARK    1  A    between atoms: C2_3  and  C3_4 
REMARK    2  A    between atoms: C5_12  and  N4_13 
REMARK    3  A    between atoms: C7_15  and  N5_16 
REMARK    4  A    between atoms: C10_25  and  O1_26 
REMARK    5  A    between atoms: C11_28  and  O2_29 
REMARK    6  A    between atoms: C12_31  and  C13_32 
REMARK    7  A    between atoms: N11_39  and  C14_40 
REMARK    8  A    between atoms: C14_40  and  C15_41 
REMARK    9  A    between atoms: C15_41  and  N12_42 
REMARK   10  A    between atoms: N12_42  and  N13_43 
REMARK       I    between atoms: N13_43  and  C16_45 
REMARK   11  A    between atoms: C16_45  and  O4_47 
REMARK   12  A    between atoms: O4_47  and  N14_48 
ROOT
HETATM    1  C1  UNL     1      15.367 -12.738   2.894  1.00  0.00     0.157 C 
HETATM    2  N1  UNL     1      16.428 -11.810   2.596  1.00  0.00    -0.342 N 
HETATM    3  C2  UNL     1      17.500 -12.044   1.842  1.00  0.00     0.092 A 
HETATM    4  C10 UNL     1      18.204 -10.888   1.804  1.00  0.00     0.130 A 
HETATM    5  C11 UNL     1      17.515  -9.924   2.569  1.00  0.00     0.132 A 
HETATM    6  C12 UNL     1      16.411 -10.498   3.067  1.00  0.00     0.118 A 
ENDROOT
BRANCH   3   7
HETATM    7  C3  UNL     1      17.797 -13.317   1.130  1.00  0.00     0.083 A 
HETATM    8  S1  UNL     1      17.621 -13.579  -0.591  1.00  0.00    -0.048 SA
HETATM    9  C4  UNL     1      18.217 -15.151  -0.669  1.00  0.00     0.144 A 
HETATM   10  N2  UNL     1      18.356 -15.934  -1.715  1.00  0.00    -0.380 N 
HETATM   11  N3  UNL     1      18.524 -15.417   0.585  1.00  0.00    -0.321 N 
ATOM     12  H22 UNL     1      18.118 -15.728  -2.685  1.00  0.00     0.158 HD
ATOM     13  H21 UNL     1      18.717 -16.886  -1.762  1.00  0.00     0.158 HD
HETATM   14  C5  UNL     1      18.319 -14.501   1.516  1.00  0.00     0.144 A 
ATOM     15  H3  UNL     1      18.918 -16.324   0.835  1.00  0.00     0.169 HD
BRANCH  14  16
HETATM   16  N4  UNL     1      18.716 -14.844   2.888  1.00  0.00    -0.272 N 
HETATM   17  C6  UNL     1      20.074 -14.718   3.348  1.00  0.00     0.184 C 
HETATM   18  C7  UNL     1      20.538 -15.976   4.056  1.00  0.00     0.210 C 
HETATM   19  C8  UNL     1      19.557 -16.482   5.059  1.00  0.00     0.109 C 
HETATM   20  C9  UNL     1      18.150 -16.130   4.769  1.00  0.00     0.109 C 
HETATM   21  N6  UNL     1      17.142 -16.635   5.632  1.00  0.00    -0.086 NA
HETATM   22  N7  UNL     1      17.782 -15.389   3.785  1.00  0.00    -0.287 N 
ATOM     23  H7  UNL     1      16.789 -15.194   3.652  1.00  0.00     0.188 HD
BRANCH  18  24
HETATM   24  N5  UNL     1      21.799 -15.659   4.716  1.00  0.00    -0.073 N 
ATOM     25  H53 UNL     1      22.294 -14.882   4.280  1.00  0.00     0.274 HD
ATOM     26  H52 UNL     1      21.673 -15.237   5.636  1.00  0.00     0.274 HD
ATOM     27  H51 UNL     1      22.349 -16.518   4.744  1.00  0.00     0.274 HD
ENDBRANCH  18  24
ENDBRANCH  14  16
ENDBRANCH   3   7
BRANCH   4  28
HETATM   28  O1  UNL     1      19.394 -10.633   1.158  1.00  0.00    -0.356 OA
ATOM     29  H1  UNL     1      19.726  -9.800   0.842  1.00  0.00     0.218 HD
ENDBRANCH   4  28
BRANCH   6  30
HETATM   30  C13 UNL     1      15.421  -9.997   3.999  1.00  0.00     0.169 A 
HETATM   31  N8  UNL     1      14.202 -10.632   4.195  1.00  0.00    -0.267 N 
HETATM   32  N9  UNL     1      13.523 -10.090   5.143  1.00  0.00    -0.226 N 
ATOM     33  H8  UNL     1      13.883 -11.434   3.652  1.00  0.00     0.190 HD
HETATM   34  N10 UNL     1      14.230  -9.104   5.608  1.00  0.00    -0.224 N 
ATOM     35  H9  UNL     1      12.601 -10.379   5.469  1.00  0.00     0.210 HD
HETATM   36  N11 UNL     1      15.408  -9.045   4.898  1.00  0.00    -0.257 N 
ATOM     37  H10 UNL     1      13.959  -8.481   6.369  1.00  0.00     0.210 HD
BRANCH  36  38
HETATM   38  C14 UNL     1      16.370  -8.019   5.202  1.00  0.00     0.170 C 
BRANCH  38  39
HETATM   39  C15 UNL     1      15.779  -7.059   6.243  1.00  0.00     0.157 C 
BRANCH  39  40
HETATM   40  N12 UNL     1      16.393  -5.768   5.946  1.00  0.00    -0.135 NA
BRANCH  40  41
HETATM   41  N13 UNL     1      16.767  -5.064   7.066  1.00  0.00    -0.248 N 
HETATM   42  C16 UNL     1      18.090  -5.219   7.554  1.00  0.00     0.398 C 
HETATM   43  O3  UNL     1      18.913  -5.976   6.985  1.00  0.00    -0.235 OA
ATOM     44  H13 UNL     1      16.107  -4.444   7.536  1.00  0.00     0.187 HD
BRANCH  42  45
HETATM   45  O4  UNL     1      18.545  -4.539   8.690  1.00  0.00    -0.187 OA
BRANCH  45  46
HETATM   46  N14 UNL     1      19.321  -5.170   9.642  1.00  0.00    -0.301 N 
ATOM     47 2H14 UNL     1      19.020  -6.082   9.984  1.00  0.00     0.184 HD
ATOM     48 1H14 UNL     1      20.175  -4.742  10.000  1.00  0.00     0.184 HD
ENDBRANCH  45  46
ENDBRANCH  42  45
ENDBRANCH  40  41
ENDBRANCH  39  40
ENDBRANCH  38  39
ENDBRANCH  36  38
ENDBRANCH   6  30
BRANCH   5  49
HETATM   49  O2  UNL     1      18.034  -8.665   2.668  1.00  0.00    -0.356 OA
ATOM     50  H2  UNL     1      17.455  -7.920   2.565  1.00  0.00     0.218 HD
ENDBRANCH   5  49
TORSDOF 12
ENDMDL
MODEL 2
REMARK VINA RESULT: -8.514597031      2.480      3.559
REMARK  12 active torsions:
REMARK  status: ('A' for Active; 'I' for Inactive)
REMARK    1  A    between atoms: C2_3  and  C3_4 
REMARK    2  A    between atoms: C5_12  and  N4_13 
REMARK    3  A    between atoms: C7_15  and  N5_16 
REMARK    4  A    between atoms: C10_25  and  O1_26 
REMARK    5  A    between atoms: C11_28  and  O2_29 
REMARK    6  A    between atoms: C12_31  and  C13_32 
REMARK    7  A    between atoms: N11_39  and  C14_40 
REMARK    8  A    between atoms: C14_40  and  C15_41 
REMARK    9  A    between atoms: C15_41  and  N12_42 
REMARK   10  A    between atoms: N12_42  and  N13_43 
REMARK       I    between atoms: N13_43  and  C16_45 
REMARK   11  A    between atoms: C16_45  and  O4_47 
REMARK   12  A    between atoms: O4_47  and  N14_48 
ROOT
HETATM    1  C1  UNL     1      18.994 -10.595   1.515  1.00  0.00     0.157 C 
HETATM    2  N1  UNL     1      17.725 -10.870   2.141  1.00  0.00    -0.342 N 
HETATM    3  C2  UNL     1      16.985 -11.965   1.987  1.00  0.00     0.092 A 
HETATM    4  C10 UNL     1      15.903 -11.813   2.788  1.00  0.00     0.130 A 
HETATM    5  C11 UNL     1      16.009 -10.571   3.446  1.00  0.00     0.132 A 
HETATM    6  C12 UNL     1      17.141  -9.980   3.041  1.00  0.00     0.118 A 
ENDROOT
BRANCH   3   7
HETATM    7  C3  UNL     1      17.344 -13.143   1.151  1.00  0.00     0.083 A 
HETATM    8  S1  UNL     1      17.970 -13.073  -0.482  1.00  0.00    -0.048 SA
HETATM    9  C4  UNL     1      18.228 -14.717  -0.724  1.00  0.00     0.144 A 
HETATM   10  N2  UNL     1      18.703 -15.335  -1.782  1.00  0.00    -0.380 N 
HETATM   11  N3  UNL     1      17.842 -15.252   0.417  1.00  0.00    -0.321 N 
ATOM     12  H22 UNL     1      19.002 -14.921  -2.665  1.00  0.00     0.158 HD
ATOM     13  H21 UNL     1      18.859 -16.332  -1.929  1.00  0.00     0.158 HD
HETATM   14  C5  UNL     1      17.389 -14.472   1.384  1.00  0.00     0.144 A 
ATOM     15  H3  UNL     1      17.892 -16.262   0.553  1.00  0.00     0.169 HD
BRANCH  14  16
HETATM   16  N4  UNL     1      17.009 -15.124   2.644  1.00  0.00    -0.272 N 
HETATM   17  C6  UNL     1      17.924 -15.253   3.747  1.00  0.00     0.184 C 
HETATM   18  C7  UNL     1      17.952 -16.672   4.281  1.00  0.00     0.210 C 
HETATM   19  C8  UNL     1      16.592 -17.247   4.493  1.00  0.00     0.109 C 
HETATM   20  C9  UNL     1      15.545 -16.681   3.617  1.00  0.00     0.109 C 
HETATM   21  N6  UNL     1      14.235 -17.224   3.700  1.00  0.00    -0.086 NA
HETATM   22  N7  UNL     1      15.745 -15.722   2.784  1.00  0.00    -0.287 N 
ATOM     23  H7  UNL     1      14.969 -15.388   2.212  1.00  0.00     0.188 HD
BRANCH  18  24
HETATM   24  N5  UNL     1      18.678 -16.643   5.545  1.00  0.00    -0.073 N 
ATOM     25  H53 UNL     1      19.413 -15.936   5.567  1.00  0.00     0.274 HD
ATOM     26  H52 UNL     1      18.121 -16.279   6.317  1.00  0.00     0.274 HD
ATOM     27  H51 UNL     1      19.027 -17.587   5.714  1.00  0.00     0.274 HD
ENDBRANCH  18  24
ENDBRANCH  14  16
ENDBRANCH   3   7
BRANCH   4  28
HETATM   28  O1  UNL     1      14.845 -12.677   2.966  1.00  0.00    -0.356 OA
ATOM     29  H1  UNL     1      14.856 -13.627   2.980  1.00  0.00     0.218 HD
ENDBRANCH   4  28
BRANCH   6  30
HETATM   30  C13 UNL     1      17.672  -8.659   3.317  1.00  0.00     0.169 A 
HETATM   31  N8  UNL     1      18.094  -7.806   2.305  1.00  0.00    -0.267 N 
HETATM   32  N9  UNL     1      18.420  -6.648   2.757  1.00  0.00    -0.226 N 
ATOM     33  H8  UNL     1      18.139  -8.068   1.320  1.00  0.00     0.190 HD
HETATM   34  N10 UNL     1      18.237  -6.670   4.044  1.00  0.00    -0.224 N 
ATOM     35  H9  UNL     1      18.759  -5.858   2.209  1.00  0.00     0.210 HD
HETATM   36  N11 UNL     1      17.774  -7.919   4.392  1.00  0.00    -0.257 N 
ATOM     37  H10 UNL     1      18.408  -5.896   4.685  1.00  0.00     0.210 HD
BRANCH  36  38
HETATM   38  C14 UNL     1      17.510  -8.218   5.774  1.00  0.00     0.170 C 
BRANCH  38  39
HETATM   39  C15 UNL     1      17.276  -6.911   6.543  1.00  0.00     0.157 C 
BRANCH  39  40
HETATM   40  N12 UNL     1      15.922  -6.504   6.176  1.00  0.00    -0.135 NA
BRANCH  40  41
HETATM   41  N13 UNL     1      15.115  -7.550   5.798  1.00  0.00    -0.248 N 
HETATM   42  C16 UNL     1      13.936  -7.802   6.545  1.00  0.00     0.398 C 
HETATM   43  O3  UNL     1      13.621  -7.092   7.530  1.00  0.00    -0.235 OA
ATOM     44  H13 UNL     1      15.359  -8.133   4.997  1.00  0.00     0.187 HD
BRANCH  42  45
HETATM   45  O4  UNL     1      13.065  -8.850   6.224  1.00  0.00    -0.187 OA
BRANCH  45  46
HETATM   46  N14 UNL     1      13.171 -10.085   6.832  1.00  0.00    -0.301 N 
ATOM     47 2H14 UNL     1      13.940 -10.694   6.557  1.00  0.00     0.184 HD
ATOM     48 1H14 UNL     1      12.501 -10.388   7.540  1.00  0.00     0.184 HD
ENDBRANCH  45  46
ENDBRANCH  42  45
ENDBRANCH  40  41
ENDBRANCH  39  40
ENDBRANCH  38  39
ENDBRANCH  36  38
ENDBRANCH   6  30
BRANCH   5  49
HETATM   49  O2  UNL     1      15.029 -10.202   4.322  1.00  0.00    -0.356 OA
ATOM     50  H2  UNL     1      14.271 -10.764   4.427  1.00  0.00     0.218 HD
ENDBRANCH   5  49
TORSDOF 12
ENDMDL
MODEL 3
REMARK VINA RESULT: -8.479907430      2.045      2.646
REMARK  12 active torsions:
REMARK  status: ('A' for Active; 'I' for Inactive)
REMARK    1  A    between atoms: C2_3  and  C3_4 
REMARK    2  A    between atoms: C5_12  and  N4_13 
REMARK    3  A    between atoms: C7_15  and  N5_16 
REMARK    4  A    between atoms: C10_25  and  O1_26 
REMARK    5  A    between atoms: C11_28  and  O2_29 
REMARK    6  A    between atoms: C12_31  and  C13_32 
REMARK    7  A    between atoms: N11_39  and  C14_40 
REMARK    8  A    between atoms: C14_40  and  C15_41 
REMARK    9  A    between atoms: C15_41  and  N12_42 
REMARK   10  A    between atoms: N12_42  and  N13_43 
REMARK       I    between atoms: N13_43  and  C16_45 
REMARK   11  A    between atoms: C16_45  and  O4_47 
REMARK   12  A    between atoms: O4_47  and  N14_48 
ROOT
HETATM    1  C1  UNL     1      18.881 -10.656   1.622  1.00  0.00     0.157 C 
HETATM    2  N1  UNL     1      17.599 -10.955   2.209  1.00  0.00    -0.342 N 
HETATM    3  C2  UNL     1      16.878 -12.059   2.024  1.00  0.00     0.092 A 
HETATM    4  C10 UNL     1      15.772 -11.930   2.794  1.00  0.00     0.130 A 
HETATM    5  C11 UNL     1      15.842 -10.693   3.467  1.00  0.00     0.132 A 
HETATM    6  C12 UNL     1      16.977 -10.082   3.100  1.00  0.00     0.118 A 
ENDROOT
BRANCH   3   7
HETATM    7  C3  UNL     1      17.278 -13.223   1.187  1.00  0.00     0.083 A 
HETATM    8  S1  UNL     1      17.908 -13.130  -0.443  1.00  0.00    -0.048 SA
HETATM    9  C4  UNL     1      18.219 -14.765  -0.687  1.00  0.00     0.144 A 
HETATM   10  N2  UNL     1      18.717 -15.366  -1.744  1.00  0.00    -0.380 N 
HETATM   11  N3  UNL     1      17.845 -15.314   0.452  1.00  0.00    -0.321 N 
ATOM     12  H22 UNL     1      19.006 -14.941  -2.626  1.00  0.00     0.158 HD
ATOM     13  H21 UNL     1      18.905 -16.357  -1.892  1.00  0.00     0.158 HD
HETATM   14  C5  UNL     1      17.364 -14.551   1.418  1.00  0.00     0.144 A 
ATOM     15  H3  UNL     1      17.928 -16.322   0.586  1.00  0.00     0.169 HD
BRANCH  14  16
HETATM   16  N4  UNL     1      17.001 -15.216   2.676  1.00  0.00    -0.272 N 
HETATM   17  C6  UNL     1      17.934 -15.366   3.762  1.00  0.00     0.184 C 
HETATM   18  C7  UNL     1      17.959 -16.793   4.276  1.00  0.00     0.210 C 
HETATM   19  C8  UNL     1      16.599 -17.360   4.504  1.00  0.00     0.109 C 
HETATM   20  C9  UNL     1      15.541 -16.774   3.654  1.00  0.00     0.109 C 
HETATM   21  N6  UNL     1      14.229 -17.309   3.752  1.00  0.00    -0.086 NA
HETATM   22  N7  UNL     1      15.735 -15.806   2.830  1.00  0.00    -0.287 N 
ATOM     23  H7  UNL     1      14.951 -15.459   2.276  1.00  0.00     0.188 HD
BRANCH  18  24
HETATM   24  N5  UNL     1      18.708 -16.787   5.527  1.00  0.00    -0.073 N 
ATOM     25  H53 UNL     1      19.097 -15.872   5.755  1.00  0.00     0.274 HD
ATOM     26  H52 UNL     1      18.112 -16.885   6.349  1.00  0.00     0.274 HD
ATOM     27  H51 UNL     1      19.417 -17.517   5.459  1.00  0.00     0.274 HD
ENDBRANCH  18  24
ENDBRANCH  14  16
ENDBRANCH   3   7
BRANCH   4  28
HETATM   28  O1  UNL     1      14.722 -12.810   2.934  1.00  0.00    -0.356 OA
ATOM     29  H1  UNL     1      14.421 -13.248   3.722  1.00  0.00     0.218 HD
ENDBRANCH   4  28
BRANCH   6  30
HETATM   30  C13 UNL     1      17.480  -8.757   3.404  1.00  0.00     0.169 A 
HETATM   31  N8  UNL     1      18.041  -7.939   2.431  1.00  0.00    -0.267 N 
HETATM   32  N9  UNL     1      18.317  -6.769   2.887  1.00  0.00    -0.226 N 
ATOM     33  H8  UNL     1      18.214  -8.232   1.469  1.00  0.00     0.190 HD
HETATM   34  N10 UNL     1      17.966  -6.750   4.138  1.00  0.00    -0.224 N 
ATOM     35  H9  UNL     1      18.734  -5.999   2.365  1.00  0.00     0.210 HD
HETATM   36  N11 UNL     1      17.447  -7.983   4.460  1.00  0.00    -0.257 N 
ATOM     37  H10 UNL     1      18.059  -5.956   4.772  1.00  0.00     0.210 HD
BRANCH  36  38
HETATM   38  C14 UNL     1      16.999  -8.237   5.803  1.00  0.00     0.170 C 
BRANCH  38  39
HETATM   39  C15 UNL     1      15.719  -7.436   6.074  1.00  0.00     0.157 C 
BRANCH  39  40
HETATM   40  N12 UNL     1      16.149  -6.041   6.071  1.00  0.00    -0.135 NA
BRANCH  40  41
HETATM   41  N13 UNL     1      16.528  -5.579   7.309  1.00  0.00    -0.248 N 
HETATM   42  C16 UNL     1      17.867  -5.144   7.490  1.00  0.00     0.398 C 
HETATM   43  O3  UNL     1      18.697  -5.171   6.549  1.00  0.00    -0.235 OA
ATOM     44  H13 UNL     1      15.862  -5.549   8.081  1.00  0.00     0.187 HD
BRANCH  42  45
HETATM   45  O4  UNL     1      18.330  -4.663   8.720  1.00  0.00    -0.187 OA
BRANCH  45  46
HETATM   46  N14 UNL     1      19.261  -5.363   9.461  1.00  0.00    -0.301 N 
ATOM     47 2H14 UNL     1      20.186  -4.952   9.588  1.00  0.00     0.184 HD
ATOM     48 1H14 UNL     1      19.039  -6.269   9.874  1.00  0.00     0.184 HD
ENDBRANCH  45  46
ENDBRANCH  42  45
ENDBRANCH  40  41
ENDBRANCH  39  40
ENDBRANCH  38  39
ENDBRANCH  36  38
ENDBRANCH   6  30
BRANCH   5  49
HETATM   49  O2  UNL     1      14.832 -10.345   4.318  1.00  0.00    -0.356 OA
ATOM     50  H2  UNL     1      14.187  -9.711   4.030  1.00  0.00     0.218 HD
ENDBRANCH   5  49
TORSDOF 12
ENDMDL
MODEL 4
REMARK VINA RESULT: -8.434333810      1.196      1.530
REMARK  12 active torsions:
REMARK  status: ('A' for Active; 'I' for Inactive)
REMARK    1  A    between atoms: C2_3  and  C3_4 
REMARK    2  A    between atoms: C5_12  and  N4_13 
REMARK    3  A    between atoms: C7_15  and  N5_16 
REMARK    4  A    between atoms: C10_25  and  O1_26 
REMARK    5  A    between atoms: C11_28  and  O2_29 
REMARK    6  A    between atoms: C12_31  and  C13_32 
REMARK    7  A    between atoms: N11_39  and  C14_40 
REMARK    8  A    between atoms: C14_40  and  C15_41 
REMARK    9  A    between atoms: C15_41  and  N12_42 
REMARK   10  A    between atoms: N12_42  and  N13_43 
REMARK       I    between atoms: N13_43  and  C16_45 
REMARK   11  A    between atoms: C16_45  and  O4_47 
REMARK   12  A    between atoms: O4_47  and  N14_48 
ROOT
HETATM    1  C1  UNL     1      15.389 -12.742   2.917  1.00  0.00     0.157 C 
HETATM    2  N1  UNL     1      16.442 -11.803   2.622  1.00  0.00    -0.342 N 
HETATM    3  C2  UNL     1      17.508 -12.021   1.855  1.00  0.00     0.092 A 
HETATM    4  C10 UNL     1      18.205 -10.860   1.827  1.00  0.00     0.130 A 
HETATM    5  C11 UNL     1      17.519  -9.912   2.613  1.00  0.00     0.132 A 
HETATM    6  C12 UNL     1      16.423 -10.499   3.113  1.00  0.00     0.118 A 
ENDROOT
BRANCH   3   7
HETATM    7  C3  UNL     1      17.805 -13.282   1.122  1.00  0.00     0.083 A 
HETATM    8  S1  UNL     1      17.635 -13.513  -0.604  1.00  0.00    -0.048 SA
HETATM    9  C4  UNL     1      18.228 -15.084  -0.708  1.00  0.00     0.144 A 
HETATM   10  N2  UNL     1      18.369 -15.849  -1.767  1.00  0.00    -0.380 N 
HETATM   11  N3  UNL     1      18.530 -15.373   0.542  1.00  0.00    -0.321 N 
ATOM     12  H22 UNL     1      18.135 -15.626  -2.734  1.00  0.00     0.158 HD
ATOM     13  H21 UNL     1      18.728 -16.801  -1.829  1.00  0.00     0.158 HD
HETATM   14  C5  UNL     1      18.323 -14.474   1.489  1.00  0.00     0.144 A 
ATOM     15  H3  UNL     1      18.921 -16.286   0.778  1.00  0.00     0.169 HD
BRANCH  14  16
HETATM   16  N4  UNL     1      18.714 -14.841   2.856  1.00  0.00    -0.272 N 
HETATM   17  C6  UNL     1      20.072 -14.732   3.321  1.00  0.00     0.184 C 
HETATM   18  C7  UNL     1      20.525 -16.004   4.010  1.00  0.00     0.210 C 
HETATM   19  C8  UNL     1      19.538 -16.521   5.001  1.00  0.00     0.109 C 
HETATM   20  C9  UNL     1      18.135 -16.154   4.715  1.00  0.00     0.109 C 
HETATM   21  N6  UNL     1      17.121 -16.668   5.566  1.00  0.00    -0.086 NA
HETATM   22  N7  UNL     1      17.774 -15.396   3.742  1.00  0.00    -0.287 N 
ATOM     23  H7  UNL     1      16.783 -15.191   3.609  1.00  0.00     0.188 HD
BRANCH  18  24
HETATM   24  N5  UNL     1      21.786 -15.707   4.678  1.00  0.00    -0.073 N 
ATOM     25  H53 UNL     1      22.498 -15.342   4.045  1.00  0.00     0.274 HD
ATOM     26  H52 UNL     1      21.730 -14.897   5.295  1.00  0.00     0.274 HD
ATOM     27  H51 UNL     1      22.080 -16.557   5.161  1.00  0.00     0.274 HD
ENDBRANCH  18  24
ENDBRANCH  14  16
ENDBRANCH   3   7
BRANCH   4  28
HETATM   28  O1  UNL     1      19.387 -10.589   1.174  1.00  0.00    -0.356 OA
ATOM     29  H1  UNL     1      19.960  -9.838   1.279  1.00  0.00     0.218 HD
ENDBRANCH   4  28
BRANCH   6  30
HETATM   30  C13 UNL     1      15.439 -10.016   4.062  1.00  0.00     0.169 A 
HETATM   31  N8  UNL     1      14.186 -10.602   4.190  1.00  0.00    -0.267 N 
HETATM   32  N9  UNL     1      13.515 -10.096   5.162  1.00  0.00    -0.226 N 
ATOM     33  H8  UNL     1      13.839 -11.346   3.583  1.00  0.00     0.190 HD
HETATM   34  N10 UNL     1      14.260  -9.183   5.711  1.00  0.00    -0.224 N 
ATOM     35  H9  UNL     1      12.574 -10.360   5.451  1.00  0.00     0.210 HD
HETATM   36  N11 UNL     1      15.454  -9.132   5.028  1.00  0.00    -0.257 N 
ATOM     37  H10 UNL     1      14.004  -8.604   6.511  1.00  0.00     0.210 HD
BRANCH  36  38
HETATM   38  C14 UNL     1      16.459  -8.181   5.423  1.00  0.00     0.170 C 
BRANCH  38  39
HETATM   39  C15 UNL     1      15.812  -7.081   6.274  1.00  0.00     0.157 C 
BRANCH  39  40
HETATM   40  N12 UNL     1      16.906  -6.167   6.591  1.00  0.00    -0.135 NA
BRANCH  40  41
HETATM   41  N13 UNL     1      16.828  -4.964   5.930  1.00  0.00    -0.248 N 
HETATM   42  C16 UNL     1      17.767  -4.693   4.902  1.00  0.00     0.398 C 
HETATM   43  O3  UNL     1      18.653  -5.524   4.588  1.00  0.00    -0.235 OA
ATOM     44  H13 UNL     1      16.111  -4.281   6.175  1.00  0.00     0.187 HD
BRANCH  42  45
HETATM   45  O4  UNL     1      17.755  -3.490   4.185  1.00  0.00    -0.187 OA
BRANCH  45  46
HETATM   46  N14 UNL     1      18.788  -3.149   3.335  1.00  0.00    -0.301 N 
ATOM     47 2H14 UNL     1      18.558  -2.683   2.458  1.00  0.00     0.184 HD
ATOM     48 1H14 UNL     1      19.759  -3.355   3.570  1.00  0.00     0.184 HD
ENDBRANCH  45  46
ENDBRANCH  42  45
ENDBRANCH  40  41
ENDBRANCH  39  40
ENDBRANCH  38  39
ENDBRANCH  36  38
ENDBRANCH   6  30
BRANCH   5  49
HETATM   49  O2  UNL     1      18.032  -8.651   2.726  1.00  0.00    -0.356 OA
ATOM     50  H2  UNL     1      18.583  -8.445   3.471  1.00  0.00     0.218 HD
ENDBRANCH   5  49
TORSDOF 12
ENDMDL
MODEL 5
REMARK VINA RESULT: -8.223451149      2.783      3.755
REMARK  12 active torsions:
REMARK  status: ('A' for Active; 'I' for Inactive)
REMARK    1  A    between atoms: C2_3  and  C3_4 
REMARK    2  A    between atoms: C5_12  and  N4_13 
REMARK    3  A    between atoms: C7_15  and  N5_16 
REMARK    4  A    between atoms: C10_25  and  O1_26 
REMARK    5  A    between atoms: C11_28  and  O2_29 
REMARK    6  A    between atoms: C12_31  and  C13_32 
REMARK    7  A    between atoms: N11_39  and  C14_40 
REMARK    8  A    between atoms: C14_40  and  C15_41 
REMARK    9  A    between atoms: C15_41  and  N12_42 
REMARK   10  A    between atoms: N12_42  and  N13_43 
REMARK       I    between atoms: N13_43  and  C16_45 
REMARK   11  A    between atoms: C16_45  and  O4_47 
REMARK   12  A    between atoms: O4_47  and  N14_48 
ROOT
HETATM    1  C1  UNL     1      14.597 -11.483   4.026  1.00  0.00     0.157 C 
HETATM    2  N1  UNL     1      15.747 -10.829   3.455  1.00  0.00    -0.342 N 
HETATM    3  C2  UNL     1      16.580 -11.336   2.548  1.00  0.00     0.092 A 
HETATM    4  C10 UNL     1      17.484 -10.366   2.273  1.00  0.00     0.130 A 
HETATM    5  C11 UNL     1      17.172  -9.234   3.053  1.00  0.00     0.132 A 
HETATM    6  C12 UNL     1      16.093  -9.522   3.793  1.00  0.00     0.118 A 
ENDROOT
BRANCH   3   7
HETATM    7  C3  UNL     1      16.463 -12.680   1.921  1.00  0.00     0.083 A 
HETATM    8  S1  UNL     1      15.130 -13.791   2.148  1.00  0.00    -0.048 SA
HETATM    9  C4  UNL     1      15.626 -15.000   1.089  1.00  0.00     0.144 A 
HETATM   10  N2  UNL     1      15.037 -16.138   0.796  1.00  0.00    -0.380 N 
HETATM   11  N3  UNL     1      16.759 -14.531   0.608  1.00  0.00    -0.321 N 
ATOM     12  H22 UNL     1      14.161 -16.502   1.168  1.00  0.00     0.158 HD
ATOM     13  H21 UNL     1      15.339 -16.871   0.154  1.00  0.00     0.158 HD
HETATM   14  C5  UNL     1      17.205 -13.354   1.016  1.00  0.00     0.144 A 
ATOM     15  H3  UNL     1      17.290 -15.071  -0.075  1.00  0.00     0.169 HD
BRANCH  14  16
HETATM   16  N4  UNL     1      18.454 -12.869   0.416  1.00  0.00    -0.272 N 
HETATM   17  C6  UNL     1      18.509 -12.348  -0.925  1.00  0.00     0.184 C 
HETATM   18  C7  UNL     1      19.643 -12.973  -1.715  1.00  0.00     0.210 C 
HETATM   19  C8  UNL     1      20.936 -12.994  -0.972  1.00  0.00     0.109 C 
HETATM   20  C9  UNL     1      20.795 -13.029   0.500  1.00  0.00     0.109 C 
HETATM   21  N6  UNL     1      21.975 -13.126   1.284  1.00  0.00    -0.086 NA
HETATM   22  N7  UNL     1      19.668 -12.972   1.116  1.00  0.00    -0.287 N 
ATOM     23  H7  UNL     1      19.655 -13.004   2.136  1.00  0.00     0.188 HD
BRANCH  18  24
HETATM   24  N5  UNL     1      19.791 -12.200  -2.942  1.00  0.00    -0.073 N 
ATOM     25  H53 UNL     1      19.019 -12.335  -3.595  1.00  0.00     0.274 HD
ATOM     26  H52 UNL     1      19.669 -11.197  -2.799  1.00  0.00     0.274 HD
ATOM     27  H51 UNL     1      20.700 -12.438  -3.341  1.00  0.00     0.274 HD
ENDBRANCH  18  24
ENDBRANCH  14  16
ENDBRANCH   3   7
BRANCH   4  28
HETATM   28  O1  UNL     1      18.552 -10.415   1.403  1.00  0.00    -0.356 OA
ATOM     29  H1  UNL     1      18.602 -10.085   0.514  1.00  0.00     0.218 HD
ENDBRANCH   4  28
BRANCH   6  30
HETATM   30  C13 UNL     1      15.428  -8.763   4.834  1.00  0.00     0.169 A 
HETATM   31  N8  UNL     1      14.052  -8.806   5.017  1.00  0.00    -0.267 N 
HETATM   32  N9  UNL     1      13.684  -8.154   6.061  1.00  0.00    -0.226 N 
ATOM     33  H8  UNL     1      13.409  -9.298   4.395  1.00  0.00     0.190 HD
HETATM   34  N10 UNL     1      14.757  -7.663   6.607  1.00  0.00    -0.224 N 
ATOM     35  H9  UNL     1      12.729  -8.041   6.400  1.00  0.00     0.210 HD
HETATM   36  N11 UNL     1      15.840  -8.040   5.846  1.00  0.00    -0.257 N 
ATOM     37  H10 UNL     1      14.790  -7.096   7.454  1.00  0.00     0.210 HD
BRANCH  36  38
HETATM   38  C14 UNL     1      17.158  -7.605   6.222  1.00  0.00     0.170 C 
BRANCH  38  39
HETATM   39  C15 UNL     1      17.081  -6.188   6.805  1.00  0.00     0.157 C 
BRANCH  39  40
HETATM   40  N12 UNL     1      16.416  -5.399   5.772  1.00  0.00    -0.135 NA
BRANCH  40  41
HETATM   41  N13 UNL     1      17.052  -4.213   5.489  1.00  0.00    -0.248 N 
HETATM   42  C16 UNL     1      18.082  -4.211   4.514  1.00  0.00     0.398 C 
HETATM   43  O3  UNL     1      18.416  -5.260   3.912  1.00  0.00    -0.235 OA
ATOM     44  H13 UNL     1      16.788  -3.354   5.971  1.00  0.00     0.187 HD
BRANCH  42  45
HETATM   45  O4  UNL     1      18.778  -3.045   4.174  1.00  0.00    -0.187 OA
BRANCH  45  46
HETATM   46  N14 UNL     1      18.735  -2.530   2.894  1.00  0.00    -0.301 N 
ATOM     47 2H14 UNL     1      17.834  -2.228   2.524  1.00  0.00     0.184 HD
ATOM     48 1H14 UNL     1      19.577  -2.451   2.324  1.00  0.00     0.184 HD
ENDBRANCH  45  46
ENDBRANCH  42  45
ENDBRANCH  40  41
ENDBRANCH  39  40
ENDBRANCH  38  39
ENDBRANCH  36  38
ENDBRANCH   6  30
BRANCH   5  49
HETATM   49  O2  UNL     1      17.948  -8.116   2.936  1.00  0.00    -0.356 OA
ATOM     50  H2  UNL     1      17.607  -7.368   2.460  1.00  0.00     0.218 HD
ENDBRANCH   5  49
TORSDOF 12
ENDMDL
