MODEL 1
REMARK VINA RESULT: -9.859879748      0.000      0.000
REMARK  12 active torsions:
REMARK  status: ('A' for Active; 'I' for Inactive)
REMARK       I    between atoms: C2_2  and  N1_4 
REMARK    1  A    between atoms: N1_4  and  C3_6 
REMARK    2  A    between atoms: C5_12  and  N4_13 
REMARK    3  A    between atoms: C6_19  and  C7_20 
REMARK    4  A    between atoms: C7_20  and  S1_21 
REMARK    5  A    between atoms: S1_21  and  C8_22 
REMARK    6  A    between atoms: N9_29  and  C9_30 
REMARK    7  A    between atoms: C9_30  and  N10_31 
REMARK    8  A    between atoms: N10_31  and  C10_33 
REMARK    9  A    between atoms: C13_36  and  N11_37 
REMARK   10  A    between atoms: C14_40  and  N12_41 
REMARK   11  A    between atoms: C16_47  and  N14_48 
REMARK   12  A    between atoms: N14_48  and  N15_49 
ROOT
HETATM    1  C7  UNL     1      19.405  -6.085   2.943  1.00  0.00     0.108 C 
ENDROOT
BRANCH   1   2
HETATM    2  C6  UNL     1      18.351  -6.945   3.507  1.00  0.00     0.099 C 
HETATM    3  N5  UNL     1      17.783  -7.866   2.577  1.00  0.00    -0.375 N 
HETATM    4  C5  UNL     1      16.888  -8.810   3.118  1.00  0.00     0.380 C 
ATOM      5  H5  UNL     1      18.010  -7.843   1.583  1.00  0.00     0.157 HD
HETATM    6  N3  UNL     1      16.317  -8.605   4.371  1.00  0.00    -0.359 N 
HETATM    7  C4  UNL     1      16.666  -7.477   5.142  1.00  0.00     0.189 C 
ATOM      8  H3  UNL     1      15.640  -9.276   4.733  1.00  0.00     0.159 HD
HETATM    9  N2  UNL     1      17.771  -7.692   6.048  1.00  0.00    -0.357 N 
HETATM   10  C15 UNL     1      17.258  -6.329   4.291  1.00  0.00     0.079 C 
HETATM   11  C3  UNL     1      18.435  -6.569   6.244  1.00  0.00     0.103 C 
ATOM     12  H2  UNL     1      18.005  -8.588   6.476  1.00  0.00     0.163 HD
HETATM   13  C16 UNL     1      17.769  -5.490   5.491  1.00  0.00     0.175 C 
BRANCH   4  14
HETATM   14  N4  UNL     1      17.573 -10.115   3.126  1.00  0.00    -0.041 N 
ATOM     15  H43 UNL     1      17.092 -10.807   3.702  1.00  0.00     0.278 HD
ATOM     16  H42 UNL     1      17.499 -10.602   2.233  1.00  0.00     0.278 HD
ATOM     17  H41 UNL     1      18.540  -9.971   3.413  1.00  0.00     0.278 HD
ENDBRANCH   4  14
BRANCH  11  18
HETATM   18  N1  UNL     1      19.570  -6.461   7.076  1.00  0.00    -0.316 N 
HETATM   19  C2  UNL     1      19.573  -5.892   8.353  1.00  0.00     0.218 C 
HETATM   20  C1  UNL     1      20.880  -5.870   9.107  1.00  0.00     0.117 C 
HETATM   21  O1  UNL     1      18.594  -5.391   8.944  1.00  0.00    -0.274 OA
ATOM     22  H1  UNL     1      20.454  -6.826   6.720  1.00  0.00     0.170 HD
ENDBRANCH  11  18
BRANCH  13  23
HETATM   23  N14 UNL     1      16.542  -5.116   6.179  1.00  0.00    -0.135 NA
BRANCH  23  24
HETATM   24  N15 UNL     1      16.763  -4.205   7.183  1.00  0.00    -0.348 N 
ATOM     25 2H15 UNL     1      16.799  -3.198   7.022  1.00  0.00     0.172 HD
ATOM     26 1H15 UNL     1      16.884  -4.651   8.092  1.00  0.00     0.172 HD
ENDBRANCH  23  24
ENDBRANCH  13  23
ENDBRANCH   1   2
BRANCH   1  27
HETATM   27  S1  UNL     1      19.098  -4.349   2.741  1.00  0.00    -0.089 SA
BRANCH  27  28
HETATM   28  C8  UNL     1      19.694  -3.633   1.227  1.00  0.00     0.183 A 
HETATM   29  N6  UNL     1      20.591  -4.304   0.410  1.00  0.00    -0.263 N 
HETATM   30  N7  UNL     1      20.870  -3.541  -0.612  1.00  0.00    -0.226 N 
ATOM     31  H6  UNL     1      20.969  -5.236   0.579  1.00  0.00     0.190 HD
HETATM   32  N8  UNL     1      20.219  -2.424  -0.521  1.00  0.00    -0.218 N 
ATOM     33  H7  UNL     1      21.505  -3.787  -1.370  1.00  0.00     0.210 HD
HETATM   34  N9  UNL     1      19.484  -2.477   0.621  1.00  0.00    -0.212 N 
ATOM     35  H8  UNL     1      20.253  -1.650  -1.183  1.00  0.00     0.210 HD
BRANCH  34  36
HETATM   36  C9  UNL     1      18.553  -1.428   0.993  1.00  0.00     0.212 C 
BRANCH  36  37
HETATM   37  N10 UNL     1      18.927  -0.536   2.003  1.00  0.00    -0.337 N 
ATOM     38  H10 UNL     1      19.160  -1.010   2.876  1.00  0.00     0.168 HD
BRANCH  37  39
HETATM   39  C10 UNL     1      19.056   0.862   2.098  1.00  0.00     0.107 A 
HETATM   40  C11 UNL     1      20.242   1.553   2.064  1.00  0.00     0.051 A 
HETATM   41  C12 UNL     1      20.362   2.922   2.172  1.00  0.00     0.043 A 
HETATM   42  C13 UNL     1      19.205   3.697   2.329  1.00  0.00     0.146 A 
HETATM   43  C14 UNL     1      18.026   3.003   2.360  1.00  0.00     0.134 A 
HETATM   44  N13 UNL     1      17.958   1.653   2.251  1.00  0.00    -0.327 N 
ATOM     45  H13 UNL     1      17.041   1.209   2.285  1.00  0.00     0.169 HD
BRANCH  42  46
HETATM   46  N11 UNL     1      19.348   5.107   2.434  1.00  0.00    -0.112 N 
HETATM   47  O2  UNL     1      19.000   5.956   1.629  1.00  0.00    -0.532 OA
HETATM   48  O3  UNL     1      19.938   5.588   3.610  1.00  0.00    -0.532 OA
ENDBRANCH  42  46
BRANCH  43  49
HETATM   49  N12 UNL     1      16.917   3.642   2.484  1.00  0.00    -0.383 N 
ATOM     50 2H12 UNL     1      16.596   3.846   3.431  1.00  0.00     0.157 HD
ATOM     51 1H12 UNL     1      16.395   3.911   1.650  1.00  0.00     0.157 HD
ENDBRANCH  43  49
ENDBRANCH  37  39
ENDBRANCH  36  37
ENDBRANCH  34  36
ENDBRANCH  27  28
ENDBRANCH   1  27
TORSDOF 12
ENDMDL
MODEL 2
REMARK VINA RESULT: -9.118977342      4.657      7.752
REMARK  12 active torsions:
REMARK  status: ('A' for Active; 'I' for Inactive)
REMARK       I    between atoms: C2_2  and  N1_4 
REMARK    1  A    between atoms: N1_4  and  C3_6 
REMARK    2  A    between atoms: C5_12  and  N4_13 
REMARK    3  A    between atoms: C6_19  and  C7_20 
REMARK    4  A    between atoms: C7_20  and  S1_21 
REMARK    5  A    between atoms: S1_21  and  C8_22 
REMARK    6  A    between atoms: N9_29  and  C9_30 
REMARK    7  A    between atoms: C9_30  and  N10_31 
REMARK    8  A    between atoms: N10_31  and  C10_33 
REMARK    9  A    between atoms: C13_36  and  N11_37 
REMARK   10  A    between atoms: C14_40  and  N12_41 
REMARK   11  A    between atoms: C16_47  and  N14_48 
REMARK   12  A    between atoms: N14_48  and  N15_49 
ROOT
HETATM    1  C7  UNL     1      17.365 -10.863   2.531  1.00  0.00     0.108 C 
ENDROOT
BRANCH   1   2
HETATM    2  C6  UNL     1      18.084 -11.645   1.511  1.00  0.00     0.099 C 
HETATM    3  N5  UNL     1      18.933 -10.869   0.665  1.00  0.00    -0.375 N 
HETATM    4  C5  UNL     1      19.754 -11.601  -0.214  1.00  0.00     0.380 C 
ATOM      5  H5  UNL     1      18.943  -9.850   0.695  1.00  0.00     0.157 HD
HETATM    6  N3  UNL     1      19.473 -12.934  -0.501  1.00  0.00    -0.359 N 
HETATM    7  C4  UNL     1      18.393 -13.590   0.126  1.00  0.00     0.189 C 
ATOM      8  H3  UNL     1      20.053 -13.440  -1.170  1.00  0.00     0.159 HD
HETATM    9  N2  UNL     1      18.740 -14.271   1.352  1.00  0.00    -0.357 N 
HETATM   10  C15 UNL     1      17.333 -12.607   0.674  1.00  0.00     0.079 C 
HETATM   11  C3  UNL     1      17.707 -14.302   2.173  1.00  0.00     0.103 C 
ATOM     12  H2  UNL     1      19.655 -14.672   1.555  1.00  0.00     0.163 HD
HETATM   13  C16 UNL     1      16.557 -13.660   1.508  1.00  0.00     0.175 C 
BRANCH   4  14
HETATM   14  N4  UNL     1      21.135 -11.515   0.295  1.00  0.00    -0.041 N 
ATOM     15  H43 UNL     1      21.245 -11.958   1.208  1.00  0.00     0.278 HD
ATOM     16  H42 UNL     1      21.783 -12.106  -0.225  1.00  0.00     0.278 HD
ATOM     17  H41 UNL     1      21.417 -10.534   0.299  1.00  0.00     0.278 HD
ENDBRANCH   4  14
BRANCH  11  18
HETATM   18  N1  UNL     1      17.737 -14.895   3.453  1.00  0.00    -0.316 N 
HETATM   19  C2  UNL     1      17.167 -16.131   3.774  1.00  0.00     0.218 C 
HETATM   20  C1  UNL     1      17.304 -16.618   5.196  1.00  0.00     0.117 C 
HETATM   21  O1  UNL     1      16.548 -16.887   2.997  1.00  0.00    -0.274 OA
ATOM     22  H1  UNL     1      18.209 -14.385   4.200  1.00  0.00     0.170 HD
ENDBRANCH  11  18
BRANCH  13  23
HETATM   23  N14 UNL     1      16.030 -14.561   0.493  1.00  0.00    -0.135 NA
BRANCH  23  24
HETATM   24  N15 UNL     1      14.954 -15.285   0.946  1.00  0.00    -0.348 N 
ATOM     25 2H15 UNL     1      15.027 -15.991   1.678  1.00  0.00     0.172 HD
ATOM     26 1H15 UNL     1      14.088 -15.034   0.468  1.00  0.00     0.172 HD
ENDBRANCH  23  24
ENDBRANCH  13  23
ENDBRANCH   1   2
BRANCH   1  27
HETATM   27  S1  UNL     1      17.639  -9.112   2.639  1.00  0.00    -0.089 SA
BRANCH  27  28
HETATM   28  C8  UNL     1      16.921  -8.307   4.053  1.00  0.00     0.183 A 
HETATM   29  N6  UNL     1      15.740  -8.759   4.624  1.00  0.00    -0.263 N 
HETATM   30  N7  UNL     1      15.439  -7.974   5.623  1.00  0.00    -0.226 N 
ATOM     31  H6  UNL     1      15.200  -9.566   4.316  1.00  0.00     0.190 HD
HETATM   32  N8  UNL     1      16.337  -7.048   5.745  1.00  0.00    -0.218 N 
ATOM     33  H7  UNL     1      14.618  -8.076   6.220  1.00  0.00     0.210 HD
HETATM   34  N9  UNL     1      17.262  -7.252   4.772  1.00  0.00    -0.212 N 
ATOM     35  H8  UNL     1      16.346  -6.304   6.442  1.00  0.00     0.210 HD
BRANCH  34  36
HETATM   36  C9  UNL     1      18.469  -6.453   4.669  1.00  0.00     0.212 C 
BRANCH  36  37
HETATM   37  N10 UNL     1      18.730  -5.795   3.464  1.00  0.00    -0.337 N 
ATOM     38  H10 UNL     1      18.529  -6.376   2.650  1.00  0.00     0.168 HD
BRANCH  37  39
HETATM   39  C10 UNL     1      19.206  -4.518   3.110  1.00  0.00     0.107 A 
HETATM   40  C11 UNL     1      19.358  -3.461   3.974  1.00  0.00     0.051 A 
HETATM   41  C12 UNL     1      19.810  -2.209   3.617  1.00  0.00     0.043 A 
HETATM   42  C13 UNL     1      20.150  -1.962   2.280  1.00  0.00     0.146 A 
HETATM   43  C14 UNL     1      19.998  -3.020   1.425  1.00  0.00     0.134 A 
HETATM   44  N13 UNL     1      19.548  -4.235   1.822  1.00  0.00    -0.327 N 
ATOM     45  H13 UNL     1      19.461  -4.973   1.124  1.00  0.00     0.169 HD
BRANCH  42  46
HETATM   46  N11 UNL     1      20.620  -0.666   1.932  1.00  0.00    -0.112 N 
HETATM   47  O2  UNL     1      20.390  -0.037   0.911  1.00  0.00    -0.532 OA
HETATM   48  O3  UNL     1      21.425  -0.021   2.877  1.00  0.00    -0.532 OA
ENDBRANCH  42  46
BRANCH  43  49
HETATM   49  N12 UNL     1      20.306  -2.881   0.183  1.00  0.00    -0.383 N 
ATOM     50 2H12 UNL     1      20.382  -1.929  -0.177  1.00  0.00     0.157 HD
ATOM     51 1H12 UNL     1      20.450  -3.709  -0.395  1.00  0.00     0.157 HD
ENDBRANCH  43  49
ENDBRANCH  37  39
ENDBRANCH  36  37
ENDBRANCH  34  36
ENDBRANCH  27  28
ENDBRANCH   1  27
TORSDOF 12
ENDMDL
MODEL 3
REMARK VINA RESULT: -9.064130500      4.523      7.714
REMARK  12 active torsions:
REMARK  status: ('A' for Active; 'I' for Inactive)
REMARK       I    between atoms: C2_2  and  N1_4 
REMARK    1  A    between atoms: N1_4  and  C3_6 
REMARK    2  A    between atoms: C5_12  and  N4_13 
REMARK    3  A    between atoms: C6_19  and  C7_20 
REMARK    4  A    between atoms: C7_20  and  S1_21 
REMARK    5  A    between atoms: S1_21  and  C8_22 
REMARK    6  A    between atoms: N9_29  and  C9_30 
REMARK    7  A    between atoms: C9_30  and  N10_31 
REMARK    8  A    between atoms: N10_31  and  C10_33 
REMARK    9  A    between atoms: C13_36  and  N11_37 
REMARK   10  A    between atoms: C14_40  and  N12_41 
REMARK   11  A    between atoms: C16_47  and  N14_48 
REMARK   12  A    between atoms: N14_48  and  N15_49 
ROOT
HETATM    1  C7  UNL     1      17.338 -10.089   2.075  1.00  0.00     0.108 C 
ENDROOT
BRANCH   1   2
HETATM    2  C6  UNL     1      16.832 -11.461   2.252  1.00  0.00     0.099 C 
HETATM    3  N5  UNL     1      15.718 -11.567   3.138  1.00  0.00    -0.375 N 
HETATM    4  C5  UNL     1      15.109 -12.835   3.206  1.00  0.00     0.380 C 
ATOM      5  H5  UNL     1      15.384 -10.775   3.686  1.00  0.00     0.157 HD
HETATM    6  N3  UNL     1      15.779 -13.967   2.750  1.00  0.00    -0.359 N 
HETATM    7  C4  UNL     1      17.057 -13.856   2.163  1.00  0.00     0.189 C 
ATOM      8  H3  UNL     1      15.343 -14.884   2.842  1.00  0.00     0.159 HD
HETATM    9  N2  UNL     1      17.041 -13.694   0.728  1.00  0.00    -0.357 N 
HETATM   10  C15 UNL     1      17.786 -12.550   2.557  1.00  0.00     0.079 C 
HETATM   11  C3  UNL     1      18.089 -12.997   0.329  1.00  0.00     0.103 C 
ATOM     12  H2  UNL     1      16.321 -14.065   0.108  1.00  0.00     0.163 HD
HETATM   13  C16 UNL     1      18.919 -12.678   1.506  1.00  0.00     0.175 C 
BRANCH   4  14
HETATM   14  N4  UNL     1      13.817 -12.744   2.502  1.00  0.00    -0.041 N 
ATOM     15  H43 UNL     1      13.846 -13.162   1.572  1.00  0.00     0.278 HD
ATOM     16  H42 UNL     1      13.106 -13.353   2.907  1.00  0.00     0.278 HD
ATOM     17  H41 UNL     1      13.528 -11.766   2.483  1.00  0.00     0.278 HD
ENDBRANCH   4  14
BRANCH  11  18
HETATM   18  N1  UNL     1      18.349 -12.669  -1.019  1.00  0.00    -0.316 N 
HETATM   19  C2  UNL     1      18.309 -13.574  -2.084  1.00  0.00     0.218 C 
HETATM   20  C1  UNL     1      18.605 -13.045  -3.465  1.00  0.00     0.117 C 
HETATM   21  O1  UNL     1      18.049 -14.794  -2.012  1.00  0.00    -0.274 OA
ATOM     22  H1  UNL     1      18.583 -11.700  -1.233  1.00  0.00     0.170 HD
ENDBRANCH  11  18
BRANCH  13  23
HETATM   23  N14 UNL     1      19.628 -13.877   1.929  1.00  0.00    -0.135 NA
BRANCH  23  24
HETATM   24  N15 UNL     1      20.808 -14.053   1.249  1.00  0.00    -0.348 N 
ATOM     25 2H15 UNL     1      21.595 -14.581   1.629  1.00  0.00     0.172 HD
ATOM     26 1H15 UNL     1      20.802 -13.600   0.336  1.00  0.00     0.172 HD
ENDBRANCH  23  24
ENDBRANCH  13  23
ENDBRANCH   1   2
BRANCH   1  27
HETATM   27  S1  UNL     1      16.522  -8.746   2.901  1.00  0.00    -0.089 SA
BRANCH  27  28
HETATM   28  C8  UNL     1      17.340  -8.125   4.352  1.00  0.00     0.183 A 
HETATM   29  N6  UNL     1      16.939  -8.496   5.627  1.00  0.00    -0.263 N 
HETATM   30  N7  UNL     1      17.694  -7.877   6.493  1.00  0.00    -0.226 N 
ATOM     31  H6  UNL     1      16.182  -9.142   5.849  1.00  0.00     0.190 HD
HETATM   32  N8  UNL     1      18.557  -7.133   5.877  1.00  0.00    -0.218 N 
ATOM     33  H7  UNL     1      17.617  -7.966   7.506  1.00  0.00     0.210 HD
HETATM   34  N9  UNL     1      18.343  -7.285   4.544  1.00  0.00    -0.212 N 
ATOM     35  H8  UNL     1      19.266  -6.543   6.312  1.00  0.00     0.210 HD
BRANCH  34  36
HETATM   36  C9  UNL     1      19.196  -6.668   3.545  1.00  0.00     0.212 C 
BRANCH  36  37
HETATM   37  N10 UNL     1      18.734  -5.520   2.894  1.00  0.00    -0.337 N 
ATOM     38  H10 UNL     1      17.809  -5.649   2.486  1.00  0.00     0.168 HD
BRANCH  37  39
HETATM   39  C10 UNL     1      19.248  -4.229   2.671  1.00  0.00     0.107 A 
HETATM   40  C11 UNL     1      19.487  -3.291   3.645  1.00  0.00     0.051 A 
HETATM   41  C12 UNL     1      19.976  -2.022   3.417  1.00  0.00     0.043 A 
HETATM   42  C13 UNL     1      20.263  -1.629   2.102  1.00  0.00     0.146 A 
HETATM   43  C14 UNL     1      20.024  -2.569   1.137  1.00  0.00     0.134 A 
HETATM   44  N13 UNL     1      19.541  -3.806   1.410  1.00  0.00    -0.327 N 
ATOM     45  H13 UNL     1      19.388  -4.450   0.634  1.00  0.00     0.169 HD
BRANCH  42  46
HETATM   46  N11 UNL     1      20.771  -0.320   1.886  1.00  0.00    -0.112 N 
HETATM   47  O2  UNL     1      20.631   0.384   0.898  1.00  0.00    -0.532 OA
HETATM   48  O3  UNL     1      21.504   0.245   2.937  1.00  0.00    -0.532 OA
ENDBRANCH  42  46
BRANCH  43  49
HETATM   49  N12 UNL     1      20.278  -2.293  -0.094  1.00  0.00    -0.383 N 
ATOM     50 2H12 UNL     1      21.239  -2.416  -0.413  1.00  0.00     0.157 HD
ATOM     51 1H12 UNL     1      19.530  -1.955  -0.699  1.00  0.00     0.157 HD
ENDBRANCH  43  49
ENDBRANCH  37  39
ENDBRANCH  36  37
ENDBRANCH  34  36
ENDBRANCH  27  28
ENDBRANCH   1  27
TORSDOF 12
ENDMDL
MODEL 4
REMARK VINA RESULT: -8.931066939      4.951      8.002
REMARK  12 active torsions:
REMARK  status: ('A' for Active; 'I' for Inactive)
REMARK       I    between atoms: C2_2  and  N1_4 
REMARK    1  A    between atoms: N1_4  and  C3_6 
REMARK    2  A    between atoms: C5_12  and  N4_13 
REMARK    3  A    between atoms: C6_19  and  C7_20 
REMARK    4  A    between atoms: C7_20  and  S1_21 
REMARK    5  A    between atoms: S1_21  and  C8_22 
REMARK    6  A    between atoms: N9_29  and  C9_30 
REMARK    7  A    between atoms: C9_30  and  N10_31 
REMARK    8  A    between atoms: N10_31  and  C10_33 
REMARK    9  A    between atoms: C13_36  and  N11_37 
REMARK   10  A    between atoms: C14_40  and  N12_41 
REMARK   11  A    between atoms: C16_47  and  N14_48 
REMARK   12  A    between atoms: N14_48  and  N15_49 
ROOT
HETATM    1  C7  UNL     1      17.055 -11.593   2.832  1.00  0.00     0.108 C 
ENDROOT
BRANCH   1   2
HETATM    2  C6  UNL     1      17.258 -12.563   1.744  1.00  0.00     0.099 C 
HETATM    3  N5  UNL     1      17.758 -11.994   0.534  1.00  0.00    -0.375 N 
HETATM    4  C5  UNL     1      18.114 -12.912  -0.473  1.00  0.00     0.380 C 
ATOM      5  H5  UNL     1      17.851 -10.987   0.407  1.00  0.00     0.157 HD
HETATM    6  N3  UNL     1      17.650 -14.224  -0.431  1.00  0.00    -0.359 N 
HETATM    7  C4  UNL     1      16.860 -14.670   0.649  1.00  0.00     0.189 C 
ATOM      8  H3  UNL     1      17.882 -14.867  -1.187  1.00  0.00     0.159 HD
HETATM    9  N2  UNL     1      17.611 -15.251   1.737  1.00  0.00    -0.357 N 
HETATM   10  C15 UNL     1      16.173 -13.511   1.408  1.00  0.00     0.079 C 
HETATM   11  C3  UNL     1      16.985 -15.066   2.885  1.00  0.00     0.103 C 
ATOM     12  H2  UNL     1      18.502 -15.737   1.634  1.00  0.00     0.163 HD
HETATM   13  C16 UNL     1      15.715 -14.364   2.619  1.00  0.00     0.175 C 
BRANCH   4  14
HETATM   14  N4  UNL     1      19.586 -12.941  -0.545  1.00  0.00    -0.041 N 
ATOM     15  H43 UNL     1      19.949 -13.864  -0.783  1.00  0.00     0.278 HD
ATOM     16  H42 UNL     1      19.949 -12.436  -1.354  1.00  0.00     0.278 HD
ATOM     17  H41 UNL     1      19.960 -12.588   0.336  1.00  0.00     0.278 HD
ENDBRANCH   4  14
BRANCH  11  18
HETATM   18  N1  UNL     1      17.474 -15.516   4.129  1.00  0.00    -0.316 N 
HETATM   19  C2  UNL     1      17.061 -16.686   4.774  1.00  0.00     0.218 C 
HETATM   20  C1  UNL     1      17.700 -17.019   6.099  1.00  0.00     0.117 C 
HETATM   21  O1  UNL     1      16.206 -17.498   4.362  1.00  0.00    -0.274 OA
ATOM     22  H1  UNL     1      18.181 -14.946   4.594  1.00  0.00     0.170 HD
ENDBRANCH  11  18
BRANCH  13  23
HETATM   23  N14 UNL     1      14.769 -15.298   2.027  1.00  0.00    -0.135 NA
BRANCH  23  24
HETATM   24  N15 UNL     1      14.019 -15.954   2.973  1.00  0.00    -0.348 N 
ATOM     25 2H15 UNL     1      13.804 -15.554   3.886  1.00  0.00     0.172 HD
ATOM     26 1H15 UNL     1      13.710 -16.872   2.655  1.00  0.00     0.172 HD
ENDBRANCH  23  24
ENDBRANCH  13  23
ENDBRANCH   1   2
BRANCH   1  27
HETATM   27  S1  UNL     1      17.266  -9.861   2.506  1.00  0.00    -0.089 SA
BRANCH  27  28
HETATM   28  C8  UNL     1      16.788  -8.766   3.823  1.00  0.00     0.183 A 
HETATM   29  N6  UNL     1      15.609  -8.952   4.530  1.00  0.00    -0.263 N 
HETATM   30  N7  UNL     1      15.503  -7.998   5.414  1.00  0.00    -0.226 N 
ATOM     31  H6  UNL     1      14.939  -9.707   4.384  1.00  0.00     0.190 HD
HETATM   32  N8  UNL     1      16.526  -7.206   5.336  1.00  0.00    -0.218 N 
ATOM     33  H7  UNL     1      14.730  -7.891   6.070  1.00  0.00     0.210 HD
HETATM   34  N9  UNL     1      17.329  -7.681   4.349  1.00  0.00    -0.212 N 
ATOM     35  H8  UNL     1      16.696  -6.380   5.909  1.00  0.00     0.210 HD
BRANCH  34  36
HETATM   36  C9  UNL     1      18.621  -7.092   4.049  1.00  0.00     0.212 C 
BRANCH  36  37
HETATM   37  N10 UNL     1      18.726  -6.250   2.938  1.00  0.00    -0.337 N 
ATOM     38  H10 UNL     1      18.430  -6.706   2.074  1.00  0.00     0.168 HD
BRANCH  37  39
HETATM   39  C10 UNL     1      19.145  -4.922   2.731  1.00  0.00     0.107 A 
HETATM   40  C11 UNL     1      19.110  -3.924   3.674  1.00  0.00     0.051 A 
HETATM   41  C12 UNL     1      19.509  -2.622   3.460  1.00  0.00     0.043 A 
HETATM   42  C13 UNL     1      19.990  -2.255   2.196  1.00  0.00     0.146 A 
HETATM   43  C14 UNL     1      20.023  -3.255   1.262  1.00  0.00     0.134 A 
HETATM   44  N13 UNL     1      19.619  -4.523   1.519  1.00  0.00    -0.327 N 
ATOM     45  H13 UNL     1      19.673  -5.212   0.768  1.00  0.00     0.169 HD
BRANCH  42  46
HETATM   46  N11 UNL     1      20.400  -0.909   1.996  1.00  0.00    -0.112 N 
HETATM   47  O2  UNL     1      19.971  -0.111   1.178  1.00  0.00    -0.532 OA
HETATM   48  O3  UNL     1      21.401  -0.430   2.849  1.00  0.00    -0.532 OA
ENDBRANCH  42  46
BRANCH  43  49
HETATM   49  N12 UNL     1      20.468  -3.004   0.081  1.00  0.00    -0.383 N 
ATOM     50 2H12 UNL     1      20.021  -3.486  -0.700  1.00  0.00     0.157 HD
ATOM     51 1H12 UNL     1      21.246  -2.355  -0.037  1.00  0.00     0.157 HD
ENDBRANCH  43  49
ENDBRANCH  37  39
ENDBRANCH  36  37
ENDBRANCH  34  36
ENDBRANCH  27  28
ENDBRANCH   1  27
TORSDOF 12
ENDMDL
MODEL 5
REMARK VINA RESULT: -8.754832138      6.718     10.729
REMARK  12 active torsions:
REMARK  status: ('A' for Active; 'I' for Inactive)
REMARK       I    between atoms: C2_2  and  N1_4 
REMARK    1  A    between atoms: N1_4  and  C3_6 
REMARK    2  A    between atoms: C5_12  and  N4_13 
REMARK    3  A    between atoms: C6_19  and  C7_20 
REMARK    4  A    between atoms: C7_20  and  S1_21 
REMARK    5  A    between atoms: S1_21  and  C8_22 
REMARK    6  A    between atoms: N9_29  and  C9_30 
REMARK    7  A    between atoms: C9_30  and  N10_31 
REMARK    8  A    between atoms: N10_31  and  C10_33 
REMARK    9  A    between atoms: C13_36  and  N11_37 
REMARK   10  A    between atoms: C14_40  and  N12_41 
REMARK   11  A    between atoms: C16_47  and  N14_48 
REMARK   12  A    between atoms: N14_48  and  N15_49 
ROOT
HETATM    1  C7  UNL     1      18.247 -14.209   0.815  1.00  0.00     0.108 C 
ENDROOT
BRANCH   1   2
HETATM    2  C6  UNL     1      19.679 -13.908   0.648  1.00  0.00     0.099 C 
HETATM    3  N5  UNL     1      20.494 -14.288   1.756  1.00  0.00    -0.375 N 
HETATM    4  C5  UNL     1      21.883 -14.162   1.566  1.00  0.00     0.380 C 
ATOM      5  H5  UNL     1      20.095 -14.629   2.630  1.00  0.00     0.157 HD
HETATM    6  N3  UNL     1      22.388 -13.372   0.537  1.00  0.00    -0.359 N 
HETATM    7  C4  UNL     1      21.516 -12.727  -0.365  1.00  0.00     0.189 C 
ATOM      8  H3  UNL     1      23.396 -13.258   0.436  1.00  0.00     0.159 HD
HETATM    9  N2  UNL     1      21.211 -13.494  -1.551  1.00  0.00    -0.357 N 
HETATM   10  C15 UNL     1      20.087 -12.558   0.201  1.00  0.00     0.079 C 
HETATM   11  C3  UNL     1      20.008 -13.191  -2.002  1.00  0.00     0.103 C 
ATOM     12  H2  UNL     1      21.838 -14.175  -1.980  1.00  0.00     0.163 HD
HETATM   13  C16 UNL     1      19.434 -12.139  -1.142  1.00  0.00     0.175 C 
BRANCH   4  14
HETATM   14  N4  UNL     1      22.435 -15.522   1.422  1.00  0.00    -0.041 N 
ATOM     15  H43 UNL     1      23.350 -15.622   1.862  1.00  0.00     0.278 HD
ATOM     16  H42 UNL     1      21.934 -16.210   1.984  1.00  0.00     0.278 HD
ATOM     17  H41 UNL     1      22.448 -15.762   0.431  1.00  0.00     0.278 HD
ENDBRANCH   4  14
BRANCH  11  18
HETATM   18  N1  UNL     1      19.426 -13.780  -3.144  1.00  0.00    -0.316 N 
HETATM   19  C2  UNL     1      18.261 -13.326  -3.771  1.00  0.00     0.218 C 
HETATM   20  C1  UNL     1      17.786 -14.074  -4.992  1.00  0.00     0.117 C 
HETATM   21  O1  UNL     1      17.562 -12.353  -3.422  1.00  0.00    -0.274 OA
ATOM     22  H1  UNL     1      19.888 -14.597  -3.543  1.00  0.00     0.170 HD
ENDBRANCH  11  18
BRANCH  13  23
HETATM   23  N14 UNL     1      20.082 -10.871  -1.443  1.00  0.00    -0.135 NA
BRANCH  23  24
HETATM   24  N15 UNL     1      19.273 -10.029  -2.167  1.00  0.00    -0.348 N 
ATOM     25 2H15 UNL     1      19.292  -9.015  -2.063  1.00  0.00     0.172 HD
ATOM     26 1H15 UNL     1      18.662 -10.535  -2.808  1.00  0.00     0.172 HD
ENDBRANCH  23  24
ENDBRANCH  13  23
ENDBRANCH   1   2
BRANCH   1  27
HETATM   27  S1  UNL     1      17.563 -14.307   2.450  1.00  0.00    -0.089 SA
BRANCH  27  28
HETATM   28  C8  UNL     1      16.150 -13.271   2.757  1.00  0.00     0.183 A 
HETATM   29  N6  UNL     1      14.891 -13.807   2.977  1.00  0.00    -0.263 N 
HETATM   30  N7  UNL     1      14.049 -12.825   3.150  1.00  0.00    -0.226 N 
ATOM     31  H6  UNL     1      14.661 -14.801   3.000  1.00  0.00     0.190 HD
HETATM   32  N8  UNL     1      14.667 -11.690   3.060  1.00  0.00    -0.218 N 
ATOM     33  H7  UNL     1      13.051 -12.935   3.329  1.00  0.00     0.210 HD
HETATM   34  N9  UNL     1      15.976 -11.962   2.818  1.00  0.00    -0.212 N 
ATOM     35  H8  UNL     1      14.249 -10.765   3.154  1.00  0.00     0.210 HD
BRANCH  34  36
HETATM   36  C9  UNL     1      16.986 -10.922   2.754  1.00  0.00     0.212 C 
BRANCH  36  37
HETATM   37  N10 UNL     1      16.585  -9.595   2.931  1.00  0.00    -0.337 N 
ATOM     38  H10 UNL     1      15.973  -9.269   2.183  1.00  0.00     0.168 HD
BRANCH  37  39
HETATM   39  C10 UNL     1      16.828  -8.602   3.899  1.00  0.00     0.107 A 
HETATM   40  C11 UNL     1      17.999  -7.897   4.035  1.00  0.00     0.051 A 
HETATM   41  C12 UNL     1      18.236  -6.937   4.995  1.00  0.00     0.043 A 
HETATM   42  C13 UNL     1      17.226  -6.632   5.917  1.00  0.00     0.146 A 
HETATM   43  C14 UNL     1      16.061  -7.336   5.775  1.00  0.00     0.134 A 
HETATM   44  N13 UNL     1      15.875  -8.274   4.814  1.00  0.00    -0.327 N 
ATOM     45  H13 UNL     1      14.977  -8.758   4.774  1.00  0.00     0.169 HD
BRANCH  42  46
HETATM   46  N11 UNL     1      17.486  -5.636   6.897  1.00  0.00    -0.112 N 
HETATM   47  O2  UNL     1      16.963  -4.538   7.004  1.00  0.00    -0.532 OA
HETATM   48  O3  UNL     1      18.439  -5.954   7.871  1.00  0.00    -0.532 OA
ENDBRANCH  42  46
BRANCH  43  49
HETATM   49  N12 UNL     1      15.077  -7.103   6.571  1.00  0.00    -0.383 N 
ATOM     50 2H12 UNL     1      15.042  -7.636   7.441  1.00  0.00     0.157 HD
ATOM     51 1H12 UNL     1      14.370  -6.416   6.310  1.00  0.00     0.157 HD
ENDBRANCH  43  49
ENDBRANCH  37  39
ENDBRANCH  36  37
ENDBRANCH  34  36
ENDBRANCH  27  28
ENDBRANCH   1  27
TORSDOF 12
ENDMDL
