MODEL 1
REMARK VINA RESULT: -6.108275617      0.000      0.000
REMARK  15 active torsions:
REMARK  status: ('A' for Active; 'I' for Inactive)
REMARK    1  A    between atoms: O1_2  and  C2_3 
REMARK    2  A    between atoms: C2_3  and  C3_5 
REMARK    3  A    between atoms: C4_9  and  N2_10 
REMARK    4  A    between atoms: N2_10  and  C5_13 
REMARK    5  A    between atoms: C5_13  and  O3_15 
REMARK    6  A    between atoms: C7_17  and  N3_18 
REMARK    7  A    between atoms: N3_18  and  C8_20 
REMARK    8  A    between atoms: C11_28  and  N7_29 
REMARK    9  A    between atoms: C12_32  and  C13_33 
REMARK   10  A    between atoms: C13_33  and  O4_34 
REMARK   11  A    between atoms: N8_36  and  O5_38 
REMARK   12  A    between atoms: O5_38  and  C14_39 
REMARK   13  A    between atoms: C15_44  and  O7_45 
REMARK   14  A    between atoms: C15_44  and  C16_47 
REMARK   15  A    between atoms: N11_49  and  O8_51 
ROOT
HETATM    1  C3  UNL     1      20.630 -15.293  -1.015  1.00  0.00     0.348 C 
HETATM    2  N1  UNL     1      19.809 -14.378  -1.829  1.00  0.00    -0.022 N 
ATOM      3  H11 UNL     1      19.975 -14.451  -2.833  1.00  0.00     0.281 HD
ATOM      4  H12 UNL     1      20.070 -13.396  -1.742  1.00  0.00     0.281 HD
HETATM    5  C4  UNL     1      18.417 -14.673  -1.422  1.00  0.00     0.438 C 
HETATM    6  C7  UNL     1      18.046 -13.837  -0.249  1.00  0.00     0.099 C 
HETATM    7  C12 UNL     1      19.183 -12.949   0.149  1.00  0.00     0.110 C 
HETATM    8  N10 UNL     1      20.403 -13.225   0.252  1.00  0.00    -0.346 N 
ATOM      9  H10 UNL     1      20.954 -12.419   0.548  1.00  0.00     0.163 HD
HETATM   10  C15 UNL     1      21.229 -14.410   0.056  1.00  0.00     0.212 C 
ENDROOT
BRANCH   6  11
HETATM   11  N3  UNL     1      17.313 -14.469   0.752  1.00  0.00    -0.349 N 
ATOM     12  H3  UNL     1      17.923 -14.977   1.392  1.00  0.00     0.166 HD
BRANCH  11  13
HETATM   13  C8  UNL     1      15.975 -14.597   1.119  1.00  0.00     0.118 A 
HETATM   14  C9  UNL     1      15.076 -15.463   0.572  1.00  0.00     0.147 A 
HETATM   15  N4  UNL     1      15.329 -16.380  -0.482  1.00  0.00    -0.080 NA
HETATM   16  N5  UNL     1      13.762 -15.493   0.984  1.00  0.00    -0.339 N 
HETATM   17  C10 UNL     1      13.330 -14.670   1.937  1.00  0.00     0.183 A 
ATOM     18  H5  UNL     1      13.114 -16.154   0.556  1.00  0.00     0.167 HD
HETATM   19  N6  UNL     1      14.217 -13.823   2.466  1.00  0.00    -0.337 N 
HETATM   20  C11 UNL     1      15.504 -13.735   2.120  1.00  0.00     0.130 A 
ATOM     21  H6  UNL     1      13.884 -13.191   3.194  1.00  0.00     0.168 HD
BRANCH  20  22
HETATM   22  N7  UNL     1      16.234 -12.852   2.692  1.00  0.00    -0.384 N 
ATOM     23  H72 UNL     1      16.829 -13.139   3.469  1.00  0.00     0.157 HD
ATOM     24  H71 UNL     1      16.234 -11.867   2.427  1.00  0.00     0.157 HD
ENDBRANCH  20  22
ENDBRANCH  11  13
ENDBRANCH   6  11
BRANCH   5  25
HETATM   25  N2  UNL     1      17.605 -14.386  -2.621  1.00  0.00    -0.015 N 
ATOM     26  H22 UNL     1      17.299 -15.248  -3.070  1.00  0.00     0.283 HD
ATOM     27  H21 UNL     1      16.696 -14.003  -2.364  1.00  0.00     0.283 HD
BRANCH  25  28
HETATM   28  C5  UNL     1      18.272 -13.542  -3.540  1.00  0.00     0.317 C 
HETATM   29  C6  UNL     1      17.847 -13.953  -4.954  1.00  0.00     0.070 C 
BRANCH  28  30
HETATM   30  O3  UNL     1      17.933 -12.187  -3.421  1.00  0.00    -0.370 OA
ATOM     31  H3  UNL     1      18.583 -11.593  -3.777  1.00  0.00     0.212 HD
ENDBRANCH  28  30
ENDBRANCH  25  28
ENDBRANCH   5  25
BRANCH   7  32
HETATM   32  C13 UNL     1      18.846 -11.530   0.405  1.00  0.00     0.190 C 
HETATM   33  N8  UNL     1      18.964 -11.100   1.598  1.00  0.00    -0.233 N 
ATOM     34  H8  UNL     1      19.286 -11.787   2.279  1.00  0.00     0.197 HD
BRANCH  32  35
HETATM   35  O4  UNL     1      18.422 -10.715  -0.605  1.00  0.00    -0.343 OA
ATOM     36  H4  UNL     1      17.984  -9.892  -0.419  1.00  0.00     0.219 HD
ENDBRANCH  32  35
BRANCH  33  37
HETATM   37  O5  UNL     1      18.725  -9.872   2.089  1.00  0.00    -0.181 OA
BRANCH  37  38
HETATM   38  C14 UNL     1      17.634  -9.469   2.835  1.00  0.00     0.394 C 
HETATM   39  N9  UNL     1      17.825  -8.705   4.007  1.00  0.00    -0.031 NA
HETATM   40  O6  UNL     1      16.495  -9.799   2.440  1.00  0.00    -0.240 OA
ENDBRANCH  37  38
ENDBRANCH  33  37
ENDBRANCH   7  32
BRANCH   1  41
HETATM   41  C2  UNL     1      21.746 -15.729  -1.916  1.00  0.00     0.295 C 
HETATM   42  O2  UNL     1      21.912 -15.060  -2.995  1.00  0.00    -0.263 OA
BRANCH  41  43
HETATM   43  O1  UNL     1      22.562 -16.793  -1.618  1.00  0.00    -0.325 OA
HETATM   44  C1  UNL     1      22.044 -18.105  -1.645  1.00  0.00     0.213 C 
ENDBRANCH  41  43
ENDBRANCH   1  41
BRANCH  10  45
HETATM   45  O7  UNL     1      22.460 -13.960  -0.407  1.00  0.00    -0.364 OA
ATOM     46  H7  UNL     1      22.696 -13.193   0.100  1.00  0.00     0.213 HD
ENDBRANCH  10  45
BRANCH  10  47
HETATM   47  C16 UNL     1      21.452 -15.115   1.332  1.00  0.00     0.063 C 
HETATM   48  C17 UNL     1      21.033 -16.518   1.596  1.00  0.00     0.071 C 
HETATM   49  N11 UNL     1      22.118 -14.559   2.280  1.00  0.00    -0.273 N 
ATOM     50  H11 UNL     1      22.239 -15.092   3.141  1.00  0.00     0.193 HD
BRANCH  49  51
HETATM   51  O8  UNL     1      22.675 -13.321   2.227  1.00  0.00    -0.290 OA
ATOM     52  H8  UNL     1      23.525 -13.116   1.857  1.00  0.00     0.244 HD
ENDBRANCH  49  51
ENDBRANCH  10  47
TORSDOF 15
ENDMDL
MODEL 2
REMARK VINA RESULT: -6.098995135      0.274      1.396
REMARK  15 active torsions:
REMARK  status: ('A' for Active; 'I' for Inactive)
REMARK    1  A    between atoms: O1_2  and  C2_3 
REMARK    2  A    between atoms: C2_3  and  C3_5 
REMARK    3  A    between atoms: C4_9  and  N2_10 
REMARK    4  A    between atoms: N2_10  and  C5_13 
REMARK    5  A    between atoms: C5_13  and  O3_15 
REMARK    6  A    between atoms: C7_17  and  N3_18 
REMARK    7  A    between atoms: N3_18  and  C8_20 
REMARK    8  A    between atoms: C11_28  and  N7_29 
REMARK    9  A    between atoms: C12_32  and  C13_33 
REMARK   10  A    between atoms: C13_33  and  O4_34 
REMARK   11  A    between atoms: N8_36  and  O5_38 
REMARK   12  A    between atoms: O5_38  and  C14_39 
REMARK   13  A    between atoms: C15_44  and  O7_45 
REMARK   14  A    between atoms: C15_44  and  C16_47 
REMARK   15  A    between atoms: N11_49  and  O8_51 
ROOT
HETATM    1  C3  UNL     1      20.582 -15.140  -0.978  1.00  0.00     0.348 C 
HETATM    2  N1  UNL     1      19.754 -14.202  -1.758  1.00  0.00    -0.022 N 
ATOM      3  H11 UNL     1      19.920 -14.237  -2.764  1.00  0.00     0.281 HD
ATOM      4  H12 UNL     1      20.007 -13.222  -1.636  1.00  0.00     0.281 HD
HETATM    5  C4  UNL     1      18.364 -14.523  -1.363  1.00  0.00     0.438 C 
HETATM    6  C7  UNL     1      17.987 -13.732  -0.160  1.00  0.00     0.099 C 
HETATM    7  C12 UNL     1      19.117 -12.851   0.270  1.00  0.00     0.110 C 
HETATM    8  N10 UNL     1      20.339 -13.121   0.364  1.00  0.00    -0.346 N 
ATOM      9  H10 UNL     1      20.883 -12.321   0.688  1.00  0.00     0.163 HD
HETATM   10  C15 UNL     1      21.174 -14.291   0.125  1.00  0.00     0.212 C 
ENDROOT
BRANCH   6  11
HETATM   11  N3  UNL     1      17.259 -14.405   0.817  1.00  0.00    -0.349 N 
ATOM     12  H3  UNL     1      17.853 -15.042   1.348  1.00  0.00     0.166 HD
BRANCH  11  13
HETATM   13  C8  UNL     1      15.942 -14.447   1.269  1.00  0.00     0.118 A 
HETATM   14  C9  UNL     1      15.371 -13.576   2.149  1.00  0.00     0.147 A 
HETATM   15  N4  UNL     1      16.014 -12.479   2.780  1.00  0.00    -0.080 NA
HETATM   16  N5  UNL     1      14.064 -13.719   2.559  1.00  0.00    -0.339 N 
HETATM   17  C10 UNL     1      13.315 -14.722   2.105  1.00  0.00     0.183 A 
ATOM     18  H5  UNL     1      13.666 -13.050   3.217  1.00  0.00     0.167 HD
HETATM   19  N6  UNL     1      13.883 -15.573   1.246  1.00  0.00    -0.337 N 
HETATM   20  C11 UNL     1      15.140 -15.499   0.802  1.00  0.00     0.130 A 
ATOM     21  H6  UNL     1      13.309 -16.341   0.901  1.00  0.00     0.168 HD
BRANCH  20  22
HETATM   22  N7  UNL     1      15.562 -16.405   0.001  1.00  0.00    -0.384 N 
ATOM     23  H72 UNL     1      16.569 -16.536  -0.101  1.00  0.00     0.157 HD
ATOM     24  H71 UNL     1      14.943 -16.988  -0.562  1.00  0.00     0.157 HD
ENDBRANCH  20  22
ENDBRANCH  11  13
ENDBRANCH   6  11
BRANCH   5  25
HETATM   25  N2  UNL     1      17.550 -14.199  -2.550  1.00  0.00    -0.015 N 
ATOM     26  H22 UNL     1      17.138 -15.040  -2.952  1.00  0.00     0.283 HD
ATOM     27  H21 UNL     1      16.696 -13.707  -2.286  1.00  0.00     0.283 HD
BRANCH  25  28
HETATM   28  C5  UNL     1      18.274 -13.472  -3.525  1.00  0.00     0.317 C 
HETATM   29  C6  UNL     1      17.885 -14.013  -4.905  1.00  0.00     0.070 C 
BRANCH  28  30
HETATM   30  O3  UNL     1      17.976 -12.103  -3.556  1.00  0.00    -0.370 OA
ATOM     31  H3  UNL     1      18.354 -11.608  -2.839  1.00  0.00     0.212 HD
ENDBRANCH  28  30
ENDBRANCH  25  28
ENDBRANCH   5  25
BRANCH   7  32
HETATM   32  C13 UNL     1      18.769 -11.444   0.577  1.00  0.00     0.190 C 
HETATM   33  N8  UNL     1      18.897 -11.053   1.782  1.00  0.00    -0.233 N 
ATOM     34  H8  UNL     1      19.235 -11.758   2.436  1.00  0.00     0.197 HD
BRANCH  32  35
HETATM   35  O4  UNL     1      18.324 -10.601  -0.400  1.00  0.00    -0.343 OA
ATOM     36  H4  UNL     1      18.791 -10.516  -1.223  1.00  0.00     0.219 HD
ENDBRANCH  32  35
BRANCH  33  37
HETATM   37  O5  UNL     1      18.653  -9.844   2.317  1.00  0.00    -0.181 OA
BRANCH  37  38
HETATM   38  C14 UNL     1      17.443  -9.367   2.781  1.00  0.00     0.394 C 
HETATM   39  N9  UNL     1      17.270  -9.104   4.159  1.00  0.00    -0.031 NA
HETATM   40  O6  UNL     1      16.525  -9.179   1.955  1.00  0.00    -0.240 OA
ENDBRANCH  37  38
ENDBRANCH  33  37
ENDBRANCH   7  32
BRANCH   1  41
HETATM   41  C2  UNL     1      21.701 -15.534  -1.894  1.00  0.00     0.295 C 
HETATM   42  O2  UNL     1      21.876 -14.812  -2.937  1.00  0.00    -0.263 OA
BRANCH  41  43
HETATM   43  O1  UNL     1      22.511 -16.615  -1.645  1.00  0.00    -0.325 OA
HETATM   44  C1  UNL     1      21.978 -17.921  -1.700  1.00  0.00     0.213 C 
ENDBRANCH  41  43
ENDBRANCH   1  41
BRANCH  10  45
HETATM   45  O7  UNL     1      22.402 -13.816  -0.322  1.00  0.00    -0.364 OA
ATOM     46  H7  UNL     1      22.543 -14.159  -1.195  1.00  0.00     0.213 HD
ENDBRANCH  10  45
BRANCH  10  47
HETATM   47  C16 UNL     1      21.403 -15.040   1.375  1.00  0.00     0.063 C 
HETATM   48  C17 UNL     1      20.967 -16.445   1.599  1.00  0.00     0.071 C 
HETATM   49  N11 UNL     1      22.089 -14.525   2.331  1.00  0.00    -0.273 N 
ATOM     50  H11 UNL     1      22.213 -15.086   3.173  1.00  0.00     0.193 HD
BRANCH  49  51
HETATM   51  O8  UNL     1      22.663 -13.294   2.311  1.00  0.00    -0.290 OA
ATOM     52  H8  UNL     1      23.598 -13.124   2.283  1.00  0.00     0.244 HD
ENDBRANCH  49  51
ENDBRANCH  10  47
TORSDOF 15
ENDMDL
MODEL 3
REMARK VINA RESULT: -6.000302558      2.451      4.771
REMARK  15 active torsions:
REMARK  status: ('A' for Active; 'I' for Inactive)
REMARK    1  A    between atoms: O1_2  and  C2_3 
REMARK    2  A    between atoms: C2_3  and  C3_5 
REMARK    3  A    between atoms: C4_9  and  N2_10 
REMARK    4  A    between atoms: N2_10  and  C5_13 
REMARK    5  A    between atoms: C5_13  and  O3_15 
REMARK    6  A    between atoms: C7_17  and  N3_18 
REMARK    7  A    between atoms: N3_18  and  C8_20 
REMARK    8  A    between atoms: C11_28  and  N7_29 
REMARK    9  A    between atoms: C12_32  and  C13_33 
REMARK   10  A    between atoms: C13_33  and  O4_34 
REMARK   11  A    between atoms: N8_36  and  O5_38 
REMARK   12  A    between atoms: O5_38  and  C14_39 
REMARK   13  A    between atoms: C15_44  and  O7_45 
REMARK   14  A    between atoms: C15_44  and  C16_47 
REMARK   15  A    between atoms: N11_49  and  O8_51 
ROOT
HETATM    1  C3  UNL     1      18.592 -13.857  -1.344  1.00  0.00     0.348 C 
HETATM    2  N1  UNL     1      17.395 -13.943  -0.489  1.00  0.00    -0.022 N 
ATOM      3  H11 UNL     1      16.607 -14.427  -0.921  1.00  0.00     0.281 HD
ATOM      4  H12 UNL     1      16.917 -13.053  -0.350  1.00  0.00     0.281 HD
HETATM    5  C4  UNL     1      17.880 -14.571   0.760  1.00  0.00     0.438 C 
HETATM    6  C7  UNL     1      18.374 -13.523   1.693  1.00  0.00     0.099 C 
HETATM    7  C12 UNL     1      18.218 -12.162   1.091  1.00  0.00     0.110 C 
HETATM    8  N10 UNL     1      18.474 -11.780  -0.077  1.00  0.00    -0.346 N 
ATOM      9  H10 UNL     1      18.271 -10.788  -0.208  1.00  0.00     0.163 HD
HETATM   10  C15 UNL     1      18.988 -12.398  -1.292  1.00  0.00     0.212 C 
ENDROOT
BRANCH   6  11
HETATM   11  N3  UNL     1      19.549 -13.814   2.382  1.00  0.00    -0.349 N 
ATOM     12  H3  UNL     1      20.100 -12.972   2.547  1.00  0.00     0.166 HD
BRANCH  11  13
HETATM   13  C8  UNL     1      20.177 -14.941   2.909  1.00  0.00     0.118 A 
HETATM   14  C9  UNL     1      19.595 -15.880   3.708  1.00  0.00     0.147 A 
HETATM   15  N4  UNL     1      18.251 -15.876   4.166  1.00  0.00    -0.080 NA
HETATM   16  N5  UNL     1      20.310 -16.947   4.204  1.00  0.00    -0.339 N 
HETATM   17  C10 UNL     1      21.602 -17.092   3.916  1.00  0.00     0.183 A 
ATOM     18  H5  UNL     1      19.846 -17.633   4.799  1.00  0.00     0.167 HD
HETATM   19  N6  UNL     1      22.165 -16.166   3.135  1.00  0.00    -0.337 N 
HETATM   20  C11 UNL     1      21.538 -15.107   2.617  1.00  0.00     0.130 A 
ATOM     21  H6  UNL     1      23.155 -16.277   2.917  1.00  0.00     0.168 HD
BRANCH  20  22
HETATM   22  N7  UNL     1      22.213 -14.281   1.907  1.00  0.00    -0.384 N 
ATOM     23  H72 UNL     1      22.266 -13.308   2.209  1.00  0.00     0.157 HD
ATOM     24  H71 UNL     1      22.683 -14.540   1.040  1.00  0.00     0.157 HD
ENDBRANCH  20  22
ENDBRANCH  11  13
ENDBRANCH   6  11
BRANCH   5  25
HETATM   25  N2  UNL     1      16.718 -15.314   1.285  1.00  0.00    -0.015 N 
ATOM     26  H22 UNL     1      16.819 -16.315   1.122  1.00  0.00     0.283 HD
ATOM     27  H21 UNL     1      16.712 -15.314   2.305  1.00  0.00     0.283 HD
BRANCH  25  28
HETATM   28  C5  UNL     1      15.489 -14.838   0.770  1.00  0.00     0.317 C 
HETATM   29  C6  UNL     1      14.448 -15.953   0.919  1.00  0.00     0.070 C 
BRANCH  28  30
HETATM   30  O3  UNL     1      14.968 -13.736   1.462  1.00  0.00    -0.370 OA
ATOM     31  H3  UNL     1      14.032 -13.618   1.354  1.00  0.00     0.212 HD
ENDBRANCH  28  30
ENDBRANCH  25  28
ENDBRANCH   5  25
BRANCH   7  32
HETATM   32  C13 UNL     1      17.627 -11.124   1.966  1.00  0.00     0.190 C 
HETATM   33  N8  UNL     1      16.570 -11.424   2.611  1.00  0.00    -0.233 N 
ATOM     34  H8  UNL     1      16.223 -12.371   2.461  1.00  0.00     0.197 HD
BRANCH  32  35
HETATM   35  O4  UNL     1      18.197  -9.888   2.074  1.00  0.00    -0.343 OA
ATOM     36  H4  UNL     1      18.909  -9.729   2.683  1.00  0.00     0.219 HD
ENDBRANCH  32  35
BRANCH  33  37
HETATM   37  O5  UNL     1      15.847 -10.674   3.460  1.00  0.00    -0.181 OA
BRANCH  37  38
HETATM   38  C14 UNL     1      14.577 -10.940   3.934  1.00  0.00     0.394 C 
HETATM   39  N9  UNL     1      13.959 -10.047   4.837  1.00  0.00    -0.031 NA
HETATM   40  O6  UNL     1      14.006 -11.980   3.541  1.00  0.00    -0.240 OA
ENDBRANCH  37  38
ENDBRANCH  33  37
ENDBRANCH   7  32
BRANCH   1  41
HETATM   41  C2  UNL     1      18.106 -14.143  -2.733  1.00  0.00     0.295 C 
HETATM   42  O2  UNL     1      16.843 -14.071  -2.929  1.00  0.00    -0.263 OA
BRANCH  41  43
HETATM   43  O1  UNL     1      18.958 -14.470  -3.760  1.00  0.00    -0.325 OA
HETATM   44  C1  UNL     1      19.696 -15.671  -3.706  1.00  0.00     0.213 C 
ENDBRANCH  41  43
ENDBRANCH   1  41
BRANCH  10  45
HETATM   45  O7  UNL     1      18.367 -11.755  -2.356  1.00  0.00    -0.364 OA
ATOM     46  H7  UNL     1      17.430 -11.878  -2.260  1.00  0.00     0.213 HD
ENDBRANCH  10  45
BRANCH  10  47
HETATM   47  C16 UNL     1      20.442 -12.187  -1.417  1.00  0.00     0.063 C 
HETATM   48  C17 UNL     1      21.438 -13.284  -1.549  1.00  0.00     0.071 C 
HETATM   49  N11 UNL     1      20.926 -11.000  -1.507  1.00  0.00    -0.273 N 
ATOM     50  H11 UNL     1      21.939 -10.913  -1.589  1.00  0.00     0.193 HD
BRANCH  49  51
HETATM   51  O8  UNL     1      20.198  -9.853  -1.503  1.00  0.00    -0.290 OA
ATOM     52  H8  UNL     1      19.754  -9.487  -0.748  1.00  0.00     0.244 HD
ENDBRANCH  49  51
ENDBRANCH  10  47
TORSDOF 15
ENDMDL
MODEL 4
REMARK VINA RESULT: -5.929770093      2.425      5.400
REMARK  15 active torsions:
REMARK  status: ('A' for Active; 'I' for Inactive)
REMARK    1  A    between atoms: O1_2  and  C2_3 
REMARK    2  A    between atoms: C2_3  and  C3_5 
REMARK    3  A    between atoms: C4_9  and  N2_10 
REMARK    4  A    between atoms: N2_10  and  C5_13 
REMARK    5  A    between atoms: C5_13  and  O3_15 
REMARK    6  A    between atoms: C7_17  and  N3_18 
REMARK    7  A    between atoms: N3_18  and  C8_20 
REMARK    8  A    between atoms: C11_28  and  N7_29 
REMARK    9  A    between atoms: C12_32  and  C13_33 
REMARK   10  A    between atoms: C13_33  and  O4_34 
REMARK   11  A    between atoms: N8_36  and  O5_38 
REMARK   12  A    between atoms: O5_38  and  C14_39 
REMARK   13  A    between atoms: C15_44  and  O7_45 
REMARK   14  A    between atoms: C15_44  and  C16_47 
REMARK   15  A    between atoms: N11_49  and  O8_51 
ROOT
HETATM    1  C3  UNL     1      16.957 -15.019  -0.515  1.00  0.00     0.348 C 
HETATM    2  N1  UNL     1      16.186 -14.389   0.572  1.00  0.00    -0.022 N 
ATOM      3  H11 UNL     1      15.196 -14.637   0.579  1.00  0.00     0.281 HD
ATOM      4  H12 UNL     1      16.049 -13.385   0.458  1.00  0.00     0.281 HD
HETATM    5  C4  UNL     1      16.913 -14.765   1.805  1.00  0.00     0.438 C 
HETATM    6  C7  UNL     1      17.978 -13.765   2.087  1.00  0.00     0.099 C 
HETATM    7  C12 UNL     1      17.978 -12.685   1.052  1.00  0.00     0.110 C 
HETATM    8  N10 UNL     1      17.875 -12.785  -0.195  1.00  0.00    -0.346 N 
ATOM      9  H10 UNL     1      17.910 -11.875  -0.656  1.00  0.00     0.163 HD
HETATM   10  C15 UNL     1      17.717 -13.876  -1.149  1.00  0.00     0.212 C 
ENDROOT
BRANCH   6  11
HETATM   11  N3  UNL     1      19.201 -14.272   2.520  1.00  0.00    -0.349 N 
ATOM     12  H3  UNL     1      19.311 -14.161   3.528  1.00  0.00     0.166 HD
BRANCH  11  13
HETATM   13  C8  UNL     1      20.314 -14.889   1.954  1.00  0.00     0.118 A 
HETATM   14  C9  UNL     1      21.340 -14.256   1.317  1.00  0.00     0.147 A 
HETATM   15  N4  UNL     1      21.456 -12.859   1.096  1.00  0.00    -0.080 NA
HETATM   16  N5  UNL     1      22.386 -14.959   0.762  1.00  0.00    -0.339 N 
HETATM   17  C10 UNL     1      22.425 -16.288   0.832  1.00  0.00     0.183 A 
ATOM     18  H5  UNL     1      23.139 -14.457   0.293  1.00  0.00     0.167 HD
HETATM   19  N6  UNL     1      21.414 -16.900   1.455  1.00  0.00    -0.337 N 
HETATM   20  C11 UNL     1      20.369 -16.289   2.017  1.00  0.00     0.130 A 
ATOM     21  H6  UNL     1      21.444 -17.918   1.506  1.00  0.00     0.168 HD
BRANCH  20  22
HETATM   22  N7  UNL     1      19.455 -17.006   2.556  1.00  0.00    -0.384 N 
ATOM     23  H72 UNL     1      18.631 -16.542   2.937  1.00  0.00     0.157 HD
ATOM     24  H71 UNL     1      19.519 -18.021   2.648  1.00  0.00     0.157 HD
ENDBRANCH  20  22
ENDBRANCH  11  13
ENDBRANCH   6  11
BRANCH   5  25
HETATM   25  N2  UNL     1      15.875 -14.820   2.853  1.00  0.00    -0.015 N 
ATOM     26  H22 UNL     1      16.237 -14.481   3.743  1.00  0.00     0.283 HD
ATOM     27  H21 UNL     1      15.153 -14.119   2.690  1.00  0.00     0.283 HD
BRANCH  25  28
HETATM   28  C5  UNL     1      15.310 -16.110   2.991  1.00  0.00     0.317 C 
HETATM   29  C6  UNL     1      16.074 -16.845   4.098  1.00  0.00     0.070 C 
BRANCH  28  30
HETATM   30  O3  UNL     1      13.968 -16.106   3.395  1.00  0.00    -0.370 OA
ATOM     31  H3  UNL     1      13.789 -16.652   4.151  1.00  0.00     0.212 HD
ENDBRANCH  28  30
ENDBRANCH  25  28
ENDBRANCH   5  25
BRANCH   7  32
HETATM   32  C13 UNL     1      18.054 -11.295   1.557  1.00  0.00     0.190 C 
HETATM   33  N8  UNL     1      16.961 -10.716   1.861  1.00  0.00    -0.233 N 
ATOM     34  H8  UNL     1      16.119 -11.275   1.725  1.00  0.00     0.197 HD
BRANCH  32  35
HETATM   35  O4  UNL     1      19.255 -10.660   1.689  1.00  0.00    -0.343 OA
ATOM     36  H4  UNL     1      19.386  -9.785   1.343  1.00  0.00     0.219 HD
ENDBRANCH  32  35
BRANCH  33  37
HETATM   37  O5  UNL     1      16.757  -9.474   2.335  1.00  0.00    -0.181 OA
BRANCH  37  38
HETATM   38  C14 UNL     1      17.034  -9.011   3.606  1.00  0.00     0.394 C 
HETATM   39  N9  UNL     1      18.282  -8.410   3.882  1.00  0.00    -0.031 NA
HETATM   40  O6  UNL     1      16.156  -9.142   4.487  1.00  0.00    -0.240 OA
ENDBRANCH  37  38
ENDBRANCH  33  37
ENDBRANCH   7  32
BRANCH   1  41
HETATM   41  C2  UNL     1      15.934 -15.484  -1.506  1.00  0.00     0.295 C 
HETATM   42  O2  UNL     1      14.729 -15.094  -1.320  1.00  0.00    -0.263 OA
BRANCH  41  43
HETATM   43  O1  UNL     1      16.252 -16.293  -2.570  1.00  0.00    -0.325 OA
HETATM   44  C1  UNL     1      16.472 -17.672  -2.365  1.00  0.00     0.213 C 
ENDBRANCH  41  43
ENDBRANCH   1  41
BRANCH  10  45
HETATM   45  O7  UNL     1      16.942 -13.380  -2.191  1.00  0.00    -0.364 OA
ATOM     46  H7  UNL     1      17.532 -13.107  -2.884  1.00  0.00     0.213 HD
ENDBRANCH  10  45
BRANCH  10  47
HETATM   47  C16 UNL     1      19.021 -14.283  -1.705  1.00  0.00     0.063 C 
HETATM   48  C17 UNL     1      19.584 -15.656  -1.596  1.00  0.00     0.071 C 
HETATM   49  N11 UNL     1      19.718 -13.465  -2.408  1.00  0.00    -0.273 N 
ATOM     50  H11 UNL     1      20.613 -13.799  -2.765  1.00  0.00     0.193 HD
BRANCH  49  51
HETATM   51  O8  UNL     1      19.359 -12.191  -2.716  1.00  0.00    -0.290 OA
ATOM     52  H8  UNL     1      19.918 -11.550  -3.141  1.00  0.00     0.244 HD
ENDBRANCH  49  51
ENDBRANCH  10  47
TORSDOF 15
ENDMDL
MODEL 5
REMARK VINA RESULT: -5.918249453      2.560      5.193
REMARK  15 active torsions:
REMARK  status: ('A' for Active; 'I' for Inactive)
REMARK    1  A    between atoms: O1_2  and  C2_3 
REMARK    2  A    between atoms: C2_3  and  C3_5 
REMARK    3  A    between atoms: C4_9  and  N2_10 
REMARK    4  A    between atoms: N2_10  and  C5_13 
REMARK    5  A    between atoms: C5_13  and  O3_15 
REMARK    6  A    between atoms: C7_17  and  N3_18 
REMARK    7  A    between atoms: N3_18  and  C8_20 
REMARK    8  A    between atoms: C11_28  and  N7_29 
REMARK    9  A    between atoms: C12_32  and  C13_33 
REMARK   10  A    between atoms: C13_33  and  O4_34 
REMARK   11  A    between atoms: N8_36  and  O5_38 
REMARK   12  A    between atoms: O5_38  and  C14_39 
REMARK   13  A    between atoms: C15_44  and  O7_45 
REMARK   14  A    between atoms: C15_44  and  C16_47 
REMARK   15  A    between atoms: N11_49  and  O8_51 
ROOT
HETATM    1  C3  UNL     1      20.504 -13.628   0.069  1.00  0.00     0.348 C 
HETATM    2  N1  UNL     1      19.737 -14.626   0.835  1.00  0.00    -0.022 N 
ATOM      3  H11 UNL     1      20.308 -15.366   1.245  1.00  0.00     0.281 HD
ATOM      4  H12 UNL     1      19.158 -15.238   0.260  1.00  0.00     0.281 HD
HETATM    5  C4  UNL     1      18.979 -13.828   1.824  1.00  0.00     0.438 C 
HETATM    6  C7  UNL     1      17.681 -13.398   1.238  1.00  0.00     0.099 C 
HETATM    7  C12 UNL     1      17.536 -13.913  -0.160  1.00  0.00     0.110 C 
HETATM    8  N10 UNL     1      18.382 -13.934  -1.087  1.00  0.00    -0.346 N 
ATOM      9  H10 UNL     1      18.002 -14.343  -1.941  1.00  0.00     0.163 HD
HETATM   10  C15 UNL     1      19.769 -13.519  -1.249  1.00  0.00     0.212 C 
ENDROOT
BRANCH   6  11
HETATM   11  N3  UNL     1      17.284 -12.091   1.510  1.00  0.00    -0.349 N 
ATOM     12  H3  UNL     1      17.654 -11.441   0.818  1.00  0.00     0.166 HD
BRANCH  11  13
HETATM   13  C8  UNL     1      16.519 -11.430   2.468  1.00  0.00     0.118 A 
HETATM   14  C9  UNL     1      15.372 -11.899   3.037  1.00  0.00     0.147 A 
HETATM   15  N4  UNL     1      14.736 -13.135   2.748  1.00  0.00    -0.080 NA
HETATM   16  N5  UNL     1      14.668 -11.155   3.958  1.00  0.00    -0.339 N 
HETATM   17  C10 UNL     1      15.092  -9.946   4.321  1.00  0.00     0.183 A 
ATOM     18  H5  UNL     1      13.814 -11.534   4.367  1.00  0.00     0.167 HD
HETATM   19  N6  UNL     1      16.214  -9.493   3.756  1.00  0.00    -0.337 N 
HETATM   20  C11 UNL     1      16.950 -10.155   2.859  1.00  0.00     0.130 A 
ATOM     21  H6  UNL     1      16.536  -8.566   4.033  1.00  0.00     0.168 HD
BRANCH  20  22
HETATM   22  N7  UNL     1      17.990  -9.583   2.378  1.00  0.00    -0.384 N 
ATOM     23  H72 UNL     1      18.405  -9.962   1.526  1.00  0.00     0.157 HD
ATOM     24  H71 UNL     1      18.443  -8.781   2.815  1.00  0.00     0.157 HD
ENDBRANCH  20  22
ENDBRANCH  11  13
ENDBRANCH   6  11
BRANCH   5  25
HETATM   25  N2  UNL     1      18.822 -14.721   2.989  1.00  0.00    -0.015 N 
ATOM     26  H22 UNL     1      18.244 -14.287   3.707  1.00  0.00     0.283 HD
ATOM     27  H21 UNL     1      18.230 -15.520   2.762  1.00  0.00     0.283 HD
BRANCH  25  28
HETATM   28  C5  UNL     1      20.063 -15.143   3.522  1.00  0.00     0.317 C 
HETATM   29  C6  UNL     1      19.845 -15.515   4.993  1.00  0.00     0.070 C 
BRANCH  28  30
HETATM   30  O3  UNL     1      20.585 -16.292   2.913  1.00  0.00    -0.370 OA
ATOM     31  H3  UNL     1      20.839 -16.973   3.525  1.00  0.00     0.212 HD
ENDBRANCH  28  30
ENDBRANCH  25  28
ENDBRANCH   5  25
BRANCH   7  32
HETATM   32  C13 UNL     1      16.236 -14.540  -0.494  1.00  0.00     0.190 C 
HETATM   33  N8  UNL     1      15.563 -15.050   0.459  1.00  0.00    -0.233 N 
ATOM     34  H8  UNL     1      15.991 -14.978   1.382  1.00  0.00     0.197 HD
BRANCH  32  35
HETATM   35  O4  UNL     1      15.780 -14.569  -1.780  1.00  0.00    -0.343 OA
ATOM     36  H4  UNL     1      15.614 -13.765  -2.259  1.00  0.00     0.219 HD
ENDBRANCH  32  35
BRANCH  33  37
HETATM   37  O5  UNL     1      14.370 -15.670   0.425  1.00  0.00    -0.181 OA
BRANCH  37  38
HETATM   38  C14 UNL     1      13.145 -15.104   0.132  1.00  0.00     0.394 C 
HETATM   39  N9  UNL     1      12.776 -14.878  -1.212  1.00  0.00    -0.031 NA
HETATM   40  O6  UNL     1      12.390 -14.806   1.082  1.00  0.00    -0.240 OA
ENDBRANCH  37  38
ENDBRANCH  33  37
ENDBRANCH   7  32
BRANCH   1  41
HETATM   41  C2  UNL     1      21.828 -14.273  -0.206  1.00  0.00     0.295 C 
HETATM   42  O2  UNL     1      22.650 -13.619  -0.937  1.00  0.00    -0.263 OA
BRANCH  41  43
HETATM   43  O1  UNL     1      22.164 -15.509   0.293  1.00  0.00    -0.325 OA
HETATM   44  C1  UNL     1      22.629 -16.517  -0.578  1.00  0.00     0.213 C 
ENDBRANCH  41  43
ENDBRANCH   1  41
BRANCH  10  45
HETATM   45  O7  UNL     1      20.351 -14.421  -2.132  1.00  0.00    -0.364 OA
ATOM     46  H7  UNL     1      20.201 -14.098  -3.012  1.00  0.00     0.213 HD
ENDBRANCH  10  45
BRANCH  10  47
HETATM   47  C16 UNL     1      19.852 -12.174  -1.850  1.00  0.00     0.063 C 
HETATM   48  C17 UNL     1      20.600 -11.036  -1.251  1.00  0.00     0.071 C 
HETATM   49  N11 UNL     1      19.334 -11.939  -3.001  1.00  0.00    -0.273 N 
ATOM     50  H11 UNL     1      19.418 -10.991  -3.367  1.00  0.00     0.193 HD
BRANCH  49  51
HETATM   51  O8  UNL     1      18.684 -12.851  -3.771  1.00  0.00    -0.290 OA
ATOM     52  H8  UNL     1      18.469 -12.740  -4.690  1.00  0.00     0.244 HD
ENDBRANCH  49  51
ENDBRANCH  10  47
TORSDOF 15
ENDMDL
