MODEL 1
REMARK VINA RESULT: -8.911177552      0.000      0.000
REMARK  12 active torsions:
REMARK  status: ('A' for Active; 'I' for Inactive)
REMARK    1  A    between atoms: O1_2  and  C2_3 
REMARK    2  A    between atoms: C3_4  and  O2_5 
REMARK    3  A    between atoms: C4_7  and  O3_8 
REMARK    4  A    between atoms: C6_11  and  C7_12 
REMARK    5  A    between atoms: C8_13  and  O4_14 
REMARK    6  A    between atoms: N2_20  and  O6_21 
REMARK    7  A    between atoms: C11_27  and  C12_28 
REMARK    8  A    between atoms: C12_28  and  C13_29 
REMARK    9  A    between atoms: C12_28  and  N9_41 
REMARK   10  A    between atoms: C13_29  and  C14_30 
REMARK   11  A    between atoms: C14_30  and  N4_31 
REMARK   12  A    between atoms: N4_31  and  C15_33 
REMARK       I    between atoms: N9_41  and  C17_43 
ROOT
HETATM    1  C2  UNL     1      18.417 -11.857  -0.437  1.00  0.00     0.201 A 
HETATM    2  C3  UNL     1      18.261 -13.159  -0.831  1.00  0.00     0.155 A 
HETATM    3  C4  UNL     1      17.494 -13.775   0.135  1.00  0.00     0.135 A 
HETATM    4  C5  UNL     1      17.202 -12.830   1.097  1.00  0.00     0.123 A 
HETATM    5  C6  UNL     1      16.465 -12.942   2.268  1.00  0.00     0.086 A 
HETATM    6  N3  UNL     1      16.361 -11.828   3.001  1.00  0.00    -0.340 N 
ATOM      7  H3  UNL     1      15.827 -11.864   3.870  1.00  0.00     0.167 HD
HETATM    8  C11 UNL     1      16.925 -10.669   2.644  1.00  0.00     0.120 A 
HETATM    9  N10 UNL     1      17.626 -10.601   1.512  1.00  0.00    -0.278 N 
ATOM     10  H10 UNL     1      18.056  -9.717   1.239  1.00  0.00     0.189 HD
HETATM   11  N11 UNL     1      17.769 -11.658   0.741  1.00  0.00    -0.225 N 
ENDROOT
BRANCH   8  12
HETATM   12  C12 UNL     1      16.747  -9.479   3.541  1.00  0.00     0.155 C 
BRANCH  12  13
HETATM   13  C13 UNL     1      17.025  -8.225   2.734  1.00  0.00     0.053 C 
BRANCH  13  14
HETATM   14  C14 UNL     1      18.127  -7.402   3.316  1.00  0.00     0.140 C 
BRANCH  14  15
HETATM   15  N4  UNL     1      18.273  -7.720   4.710  1.00  0.00    -0.225 N 
ATOM     16  H4  UNL     1      18.473  -8.677   5.002  1.00  0.00     0.177 HD
BRANCH  15  17
HETATM   17  C15 UNL     1      18.134  -6.674   5.691  1.00  0.00     0.687 C 
HETATM   18  N5  UNL     1      19.107  -6.357   6.469  1.00  0.00    -0.211 N 
HETATM   19  C16 UNL     1      18.984  -5.311   7.458  1.00  0.00     0.271 C 
ATOM     20  H5  UNL     1      19.991  -6.858   6.385  1.00  0.00     0.179 HD
HETATM   21  N6  UNL     1      17.603  -5.018   7.785  1.00  0.00    -0.106 NA
HETATM   22  N7  UNL     1      16.893  -4.797   6.575  1.00  0.00    -0.015 NA
HETATM   23  N8  UNL     1      16.907  -5.968   5.815  1.00  0.00    -0.120 N 
ATOM     24  H8  UNL     1      16.059  -6.308   5.363  1.00  0.00     0.202 HD
ENDBRANCH  15  17
ENDBRANCH  14  15
ENDBRANCH  13  14
ENDBRANCH  12  13
BRANCH  12  25
HETATM   25  N9  UNL     1      15.383  -9.413   3.977  1.00  0.00    -0.350 N 
HETATM   26  C17 UNL     1      14.981  -9.130   5.303  1.00  0.00     0.214 C 
HETATM   27  C18 UNL     1      13.546  -9.083   5.661  1.00  0.00     0.117 C 
HETATM   28  O8  UNL     1      15.846  -8.920   6.179  1.00  0.00    -0.274 OA
ATOM     29  H9  UNL     1      14.654  -9.580   3.285  1.00  0.00     0.163 HD
ENDBRANCH  12  25
ENDBRANCH   8  12
BRANCH   5  30
HETATM   30  C7  UNL     1      15.876 -14.228   2.601  1.00  0.00     0.114 A 
HETATM   31  C8  UNL     1      14.561 -14.528   2.283  1.00  0.00     0.162 A 
HETATM   32  N1  UNL     1      13.981 -15.706   2.575  1.00  0.00    -0.286 N 
HETATM   33  C9  UNL     1      14.735 -16.625   3.208  1.00  0.00     0.355 A 
ATOM     34  H1  UNL     1      13.010 -15.895   2.326  1.00  0.00     0.172 HD
HETATM   35  O5  UNL     1      14.168 -17.721   3.471  1.00  0.00    -0.244 OA
HETATM   36  N2  UNL     1      16.000 -16.396   3.538  1.00  0.00    -0.133 N 
HETATM   37  C10 UNL     1      16.587 -15.224   3.251  1.00  0.00     0.292 A 
HETATM   38  O7  UNL     1      17.788 -14.979   3.553  1.00  0.00    -0.264 OA
BRANCH  31  39
HETATM   39  O4  UNL     1      13.814 -13.560   1.631  1.00  0.00    -0.345 OA
ATOM     40  H4  UNL     1      13.644 -13.678   0.705  1.00  0.00     0.219 HD
ENDBRANCH  31  39
BRANCH  36  41
HETATM   41  O6  UNL     1      16.711 -17.380   4.184  1.00  0.00    -0.276 OA
ATOM     42  H6  UNL     1      17.217 -17.154   4.956  1.00  0.00     0.245 HD
ENDBRANCH  36  41
ENDBRANCH   5  30
BRANCH   1  43
HETATM   43  O1  UNL     1      19.125 -10.905  -1.136  1.00  0.00    -0.337 OA
HETATM   44  C1  UNL     1      20.542 -10.920  -1.143  1.00  0.00     0.211 C 
ENDBRANCH   1  43
BRANCH   3  45
HETATM   45  O3  UNL     1      17.077 -15.108   0.160  1.00  0.00    -0.356 OA
ATOM     46  H3  UNL     1      16.862 -15.629   0.924  1.00  0.00     0.218 HD
ENDBRANCH   3  45
BRANCH   2  47
HETATM   47  O2  UNL     1      18.763 -13.782  -1.981  1.00  0.00    -0.354 OA
ATOM     48  H2  UNL     1      19.663 -14.012  -2.179  1.00  0.00     0.218 HD
ENDBRANCH   2  47
TORSDOF 12
ENDMDL
MODEL 2
REMARK VINA RESULT: -8.815806672      5.121      8.947
REMARK  12 active torsions:
REMARK  status: ('A' for Active; 'I' for Inactive)
REMARK    1  A    between atoms: O1_2  and  C2_3 
REMARK    2  A    between atoms: C3_4  and  O2_5 
REMARK    3  A    between atoms: C4_7  and  O3_8 
REMARK    4  A    between atoms: C6_11  and  C7_12 
REMARK    5  A    between atoms: C8_13  and  O4_14 
REMARK    6  A    between atoms: N2_20  and  O6_21 
REMARK    7  A    between atoms: C11_27  and  C12_28 
REMARK    8  A    between atoms: C12_28  and  C13_29 
REMARK    9  A    between atoms: C12_28  and  N9_41 
REMARK   10  A    between atoms: C13_29  and  C14_30 
REMARK   11  A    between atoms: C14_30  and  N4_31 
REMARK   12  A    between atoms: N4_31  and  C15_33 
REMARK       I    between atoms: N9_41  and  C17_43 
ROOT
HETATM    1  C2  UNL     1      19.679  -4.966   7.832  1.00  0.00     0.201 A 
HETATM    2  C3  UNL     1      19.176  -6.117   8.377  1.00  0.00     0.155 A 
HETATM    3  C4  UNL     1      18.425  -6.725   7.392  1.00  0.00     0.135 A 
HETATM    4  C5  UNL     1      18.490  -5.926   6.269  1.00  0.00     0.123 A 
HETATM    5  C6  UNL     1      17.912  -6.090   5.019  1.00  0.00     0.086 A 
HETATM    6  N3  UNL     1      18.167  -5.127   4.126  1.00  0.00    -0.340 N 
ATOM      7  H3  UNL     1      17.763  -5.207   3.193  1.00  0.00     0.167 HD
HETATM    8  C11 UNL     1      18.930  -4.064   4.404  1.00  0.00     0.120 A 
HETATM    9  N10 UNL     1      19.469  -3.941   5.618  1.00  0.00    -0.278 N 
ATOM     10  H10 UNL     1      20.051  -3.131   5.830  1.00  0.00     0.189 HD
HETATM   11  N11 UNL     1      19.260  -4.851   6.545  1.00  0.00    -0.225 N 
ENDROOT
BRANCH   8  12
HETATM   12  C12 UNL     1      19.152  -3.039   3.330  1.00  0.00     0.155 C 
BRANCH  12  13
HETATM   13  C13 UNL     1      19.955  -1.894   3.917  1.00  0.00     0.053 C 
BRANCH  13  14
HETATM   14  C14 UNL     1      20.197  -0.800   2.931  1.00  0.00     0.140 C 
BRANCH  14  15
HETATM   15  N4  UNL     1      20.287   0.455   3.625  1.00  0.00    -0.225 N 
ATOM     16  H4  UNL     1      20.742   0.509   4.536  1.00  0.00     0.177 HD
BRANCH  15  17
HETATM   17  C15 UNL     1      19.725   1.637   3.022  1.00  0.00     0.687 C 
HETATM   18  N5  UNL     1      20.477   2.542   2.504  1.00  0.00    -0.211 N 
HETATM   19  C16 UNL     1      19.930   3.733   1.896  1.00  0.00     0.271 C 
ATOM     20  H5  UNL     1      21.488   2.415   2.522  1.00  0.00     0.179 HD
HETATM   21  N6  UNL     1      18.577   4.008   2.336  1.00  0.00    -0.106 NA
HETATM   22  N7  UNL     1      17.803   2.830   2.168  1.00  0.00    -0.015 NA
HETATM   23  N8  UNL     1      18.317   1.824   2.989  1.00  0.00    -0.120 N 
ATOM     24  H8  UNL     1      17.697   1.240   3.551  1.00  0.00     0.202 HD
ENDBRANCH  15  17
ENDBRANCH  14  15
ENDBRANCH  13  14
ENDBRANCH  12  13
BRANCH  12  25
HETATM   25  N9  UNL     1      19.937  -3.617   2.278  1.00  0.00    -0.350 N 
HETATM   26  C17 UNL     1      19.713  -3.395   0.899  1.00  0.00     0.214 C 
HETATM   27  C18 UNL     1      20.577  -4.036  -0.117  1.00  0.00     0.117 C 
HETATM   28  O8  UNL     1      18.777  -2.651   0.538  1.00  0.00    -0.274 OA
ATOM     29  H9  UNL     1      20.708  -4.229   2.542  1.00  0.00     0.163 HD
ENDBRANCH  12  25
ENDBRANCH   8  12
BRANCH   5  30
HETATM   30  C7  UNL     1      17.094  -7.267   4.778  1.00  0.00     0.114 A 
HETATM   31  C8  UNL     1      15.856  -7.426   5.380  1.00  0.00     0.162 A 
HETATM   32  N1  UNL     1      15.072  -8.500   5.182  1.00  0.00    -0.286 N 
HETATM   33  C9  UNL     1      15.532  -9.457   4.353  1.00  0.00     0.355 A 
ATOM     34  H1  UNL     1      14.165  -8.586   5.640  1.00  0.00     0.172 HD
HETATM   35  O5  UNL     1      14.778 -10.454   4.184  1.00  0.00    -0.244 OA
HETATM   36  N2  UNL     1      16.709  -9.361   3.747  1.00  0.00    -0.133 N 
HETATM   37  C10 UNL     1      17.499  -8.293   3.939  1.00  0.00     0.292 A 
HETATM   38  O7  UNL     1      18.623  -8.175   3.376  1.00  0.00    -0.264 OA
BRANCH  31  39
HETATM   39  O4  UNL     1      15.413  -6.423   6.227  1.00  0.00    -0.345 OA
ATOM     40  H4  UNL     1      14.532  -6.491   6.574  1.00  0.00     0.219 HD
ENDBRANCH  31  39
BRANCH  36  41
HETATM   41  O6  UNL     1      17.117 -10.376   2.914  1.00  0.00    -0.276 OA
ATOM     42  H6  UNL     1      17.950 -10.297   2.463  1.00  0.00     0.245 HD
ENDBRANCH  36  41
ENDBRANCH   5  30
BRANCH   1  43
HETATM   43  O1  UNL     1      20.487  -4.071   8.499  1.00  0.00    -0.337 OA
HETATM   44  C1  UNL     1      21.650  -4.515   9.175  1.00  0.00     0.211 C 
ENDBRANCH   1  43
BRANCH   3  45
HETATM   45  O3  UNL     1      17.720  -7.927   7.488  1.00  0.00    -0.356 OA
ATOM     46  H3  UNL     1      18.075  -8.807   7.449  1.00  0.00     0.218 HD
ENDBRANCH   3  45
BRANCH   2  47
HETATM   47  O2  UNL     1      19.362  -6.617   9.672  1.00  0.00    -0.354 OA
ATOM     48  H2  UNL     1      18.747  -7.104  10.208  1.00  0.00     0.218 HD
ENDBRANCH   2  47
TORSDOF 12
ENDMDL
MODEL 3
REMARK VINA RESULT: -8.612548852      1.697      4.306
REMARK  12 active torsions:
REMARK  status: ('A' for Active; 'I' for Inactive)
REMARK    1  A    between atoms: O1_2  and  C2_3 
REMARK    2  A    between atoms: C3_4  and  O2_5 
REMARK    3  A    between atoms: C4_7  and  O3_8 
REMARK    4  A    between atoms: C6_11  and  C7_12 
REMARK    5  A    between atoms: C8_13  and  O4_14 
REMARK    6  A    between atoms: N2_20  and  O6_21 
REMARK    7  A    between atoms: C11_27  and  C12_28 
REMARK    8  A    between atoms: C12_28  and  C13_29 
REMARK    9  A    between atoms: C12_28  and  N9_41 
REMARK   10  A    between atoms: C13_29  and  C14_30 
REMARK   11  A    between atoms: C14_30  and  N4_31 
REMARK   12  A    between atoms: N4_31  and  C15_33 
REMARK       I    between atoms: N9_41  and  C17_43 
ROOT
HETATM    1  C2  UNL     1      14.935 -13.964   1.934  1.00  0.00     0.201 A 
HETATM    2  C3  UNL     1      15.542 -14.862   1.097  1.00  0.00     0.155 A 
HETATM    3  C4  UNL     1      16.779 -14.339   0.787  1.00  0.00     0.135 A 
HETATM    4  C5  UNL     1      16.897 -13.132   1.446  1.00  0.00     0.123 A 
HETATM    5  C6  UNL     1      17.941 -12.220   1.464  1.00  0.00     0.086 A 
HETATM    6  N3  UNL     1      17.749 -11.126   2.211  1.00  0.00    -0.340 N 
ATOM      7  H3  UNL     1      18.492 -10.428   2.254  1.00  0.00     0.167 HD
HETATM    8  C11 UNL     1      16.625 -10.909   2.903  1.00  0.00     0.120 A 
HETATM    9  N10 UNL     1      15.643 -11.810   2.860  1.00  0.00    -0.278 N 
ATOM     10  H10 UNL     1      14.786 -11.644   3.388  1.00  0.00     0.189 HD
HETATM   11  N11 UNL     1      15.764 -12.909   2.147  1.00  0.00    -0.225 N 
ENDROOT
BRANCH   8  12
HETATM   12  C12 UNL     1      16.511  -9.648   3.708  1.00  0.00     0.155 C 
BRANCH  12  13
HETATM   13  C13 UNL     1      16.857  -8.474   2.812  1.00  0.00     0.053 C 
BRANCH  13  14
HETATM   14  C14 UNL     1      17.951  -7.627   3.374  1.00  0.00     0.140 C 
BRANCH  14  15
HETATM   15  N4  UNL     1      18.078  -7.887   4.782  1.00  0.00    -0.225 N 
ATOM     16  H4  UNL     1      18.212  -8.840   5.120  1.00  0.00     0.177 HD
BRANCH  15  17
HETATM   17  C15 UNL     1      18.013  -6.789   5.712  1.00  0.00     0.687 C 
HETATM   18  N5  UNL     1      19.057  -6.390   6.346  1.00  0.00    -0.211 N 
HETATM   19  C16 UNL     1      19.008  -5.290   7.282  1.00  0.00     0.271 C 
ATOM     20  H5  UNL     1      19.945  -6.862   6.183  1.00  0.00     0.179 HD
HETATM   21  N6  UNL     1      17.665  -5.026   7.757  1.00  0.00    -0.106 NA
HETATM   22  N7  UNL     1      16.807  -4.905   6.633  1.00  0.00    -0.015 NA
HETATM   23  N8  UNL     1      16.780  -6.120   5.945  1.00  0.00    -0.120 N 
ATOM     24  H8  UNL     1      15.899  -6.518   5.619  1.00  0.00     0.202 HD
ENDBRANCH  15  17
ENDBRANCH  14  15
ENDBRANCH  13  14
ENDBRANCH  12  13
BRANCH  12  25
HETATM   25  N9  UNL     1      15.152  -9.476   4.132  1.00  0.00    -0.350 N 
HETATM   26  C17 UNL     1      14.761  -9.165   5.455  1.00  0.00     0.214 C 
HETATM   27  C18 UNL     1      13.330  -9.007   5.800  1.00  0.00     0.117 C 
HETATM   28  O8  UNL     1      15.631  -9.023   6.339  1.00  0.00    -0.274 OA
ATOM     29  H9  UNL     1      14.418  -9.586   3.433  1.00  0.00     0.163 HD
ENDBRANCH  12  25
ENDBRANCH   8  12
BRANCH   5  30
HETATM   30  C7  UNL     1      19.137 -12.513   0.692  1.00  0.00     0.114 A 
HETATM   31  C8  UNL     1      19.370 -11.919  -0.538  1.00  0.00     0.162 A 
HETATM   32  N1  UNL     1      20.464 -12.166  -1.281  1.00  0.00    -0.286 N 
HETATM   33  C9  UNL     1      21.364 -13.037  -0.786  1.00  0.00     0.355 A 
ATOM     34  H1  UNL     1      20.605 -11.711  -2.183  1.00  0.00     0.172 HD
HETATM   35  O5  UNL     1      22.380 -13.251  -1.502  1.00  0.00    -0.244 OA
HETATM   36  N2  UNL     1      21.196 -13.637   0.386  1.00  0.00    -0.133 N 
HETATM   37  C10 UNL     1      20.108 -13.397   1.135  1.00  0.00     0.292 A 
HETATM   38  O7  UNL     1      19.922 -13.953   2.253  1.00  0.00    -0.264 OA
BRANCH  31  39
HETATM   39  O4  UNL     1      18.424 -11.028  -1.018  1.00  0.00    -0.345 OA
ATOM     40  H4  UNL     1      18.431 -10.144  -0.674  1.00  0.00     0.219 HD
ENDBRANCH  31  39
BRANCH  36  41
HETATM   41  O6  UNL     1      22.156 -14.515   0.831  1.00  0.00    -0.276 OA
ATOM     42  H6  UNL     1      22.359 -15.282   0.308  1.00  0.00     0.245 HD
ENDBRANCH  36  41
ENDBRANCH   5  30
BRANCH   1  43
HETATM   43  O1  UNL     1      13.677 -14.120   2.472  1.00  0.00    -0.337 OA
HETATM   44  C1  UNL     1      12.522 -13.905   1.679  1.00  0.00     0.211 C 
ENDBRANCH   1  43
BRANCH   3  45
HETATM   45  O3  UNL     1      17.754 -14.906  -0.038  1.00  0.00    -0.356 OA
ATOM     46  H3  UNL     1      17.906 -14.724  -0.957  1.00  0.00     0.218 HD
ENDBRANCH   3  45
BRANCH   2  47
HETATM   47  O2  UNL     1      15.040 -16.081   0.624  1.00  0.00    -0.354 OA
ATOM     48  H2  UNL     1      15.522 -16.871   0.407  1.00  0.00     0.218 HD
ENDBRANCH   2  47
TORSDOF 12
ENDMDL
MODEL 4
REMARK VINA RESULT: -8.541854262      0.539      1.574
REMARK  12 active torsions:
REMARK  status: ('A' for Active; 'I' for Inactive)
REMARK    1  A    between atoms: O1_2  and  C2_3 
REMARK    2  A    between atoms: C3_4  and  O2_5 
REMARK    3  A    between atoms: C4_7  and  O3_8 
REMARK    4  A    between atoms: C6_11  and  C7_12 
REMARK    5  A    between atoms: C8_13  and  O4_14 
REMARK    6  A    between atoms: N2_20  and  O6_21 
REMARK    7  A    between atoms: C11_27  and  C12_28 
REMARK    8  A    between atoms: C12_28  and  C13_29 
REMARK    9  A    between atoms: C12_28  and  N9_41 
REMARK   10  A    between atoms: C13_29  and  C14_30 
REMARK   11  A    between atoms: C14_30  and  N4_31 
REMARK   12  A    between atoms: N4_31  and  C15_33 
REMARK       I    between atoms: N9_41  and  C17_43 
ROOT
HETATM    1  C2  UNL     1      18.744 -11.555  -0.435  1.00  0.00     0.201 A 
HETATM    2  C3  UNL     1      18.579 -12.844  -0.866  1.00  0.00     0.155 A 
HETATM    3  C4  UNL     1      17.760 -13.466   0.052  1.00  0.00     0.135 A 
HETATM    4  C5  UNL     1      17.444 -12.537   1.022  1.00  0.00     0.123 A 
HETATM    5  C6  UNL     1      16.654 -12.660   2.156  1.00  0.00     0.086 A 
HETATM    6  N3  UNL     1      16.539 -11.560   2.910  1.00  0.00    -0.340 N 
ATOM      7  H3  UNL     1      15.968 -11.604   3.754  1.00  0.00     0.167 HD
HETATM    8  C11 UNL     1      17.141 -10.405   2.604  1.00  0.00     0.120 A 
HETATM    9  N10 UNL     1      17.892 -10.326   1.505  1.00  0.00    -0.278 N 
ATOM     10  H10 UNL     1      18.350  -9.446   1.272  1.00  0.00     0.189 HD
HETATM   11  N11 UNL     1      18.048 -11.369   0.717  1.00  0.00    -0.225 N 
ENDROOT
BRANCH   8  12
HETATM   12  C12 UNL     1      16.948  -9.231   3.519  1.00  0.00     0.155 C 
BRANCH  12  13
HETATM   13  C13 UNL     1      17.161  -7.960   2.720  1.00  0.00     0.053 C 
BRANCH  13  14
HETATM   14  C14 UNL     1      18.279  -7.128   3.256  1.00  0.00     0.140 C 
BRANCH  14  15
HETATM   15  N4  UNL     1      18.528  -7.490   4.625  1.00  0.00    -0.225 N 
ATOM     16  H4  UNL     1      18.879  -8.420   4.856  1.00  0.00     0.177 HD
BRANCH  15  17
HETATM   17  C15 UNL     1      18.277  -6.528   5.667  1.00  0.00     0.687 C 
HETATM   18  N5  UNL     1      19.142  -6.305   6.591  1.00  0.00    -0.211 N 
HETATM   19  C16 UNL     1      18.906  -5.344   7.643  1.00  0.00     0.271 C 
ATOM     20  H5  UNL     1      20.021  -6.822   6.580  1.00  0.00     0.179 HD
HETATM   21  N6  UNL     1      17.499  -5.040   7.809  1.00  0.00    -0.106 NA
HETATM   22  N7  UNL     1      16.961  -4.697   6.541  1.00  0.00    -0.015 NA
HETATM   23  N8  UNL     1      17.056  -5.800   5.690  1.00  0.00    -0.120 N 
ATOM     24  H8  UNL     1      16.270  -6.076   5.101  1.00  0.00     0.202 HD
ENDBRANCH  15  17
ENDBRANCH  14  15
ENDBRANCH  13  14
ENDBRANCH  12  13
BRANCH  12  25
HETATM   25  N9  UNL     1      15.594  -9.216   3.992  1.00  0.00    -0.350 N 
HETATM   26  C17 UNL     1      15.221  -9.013   5.341  1.00  0.00     0.214 C 
HETATM   27  C18 UNL     1      13.794  -9.014   5.736  1.00  0.00     0.117 C 
HETATM   28  O8  UNL     1      16.103  -8.830   6.205  1.00  0.00    -0.274 OA
ATOM     29  H9  UNL     1      14.850  -9.363   3.310  1.00  0.00     0.163 HD
ENDBRANCH  12  25
ENDBRANCH   8  12
BRANCH   5  30
HETATM   30  C7  UNL     1      16.027 -13.941   2.434  1.00  0.00     0.114 A 
HETATM   31  C8  UNL     1      16.734 -14.988   3.003  1.00  0.00     0.162 A 
HETATM   32  N1  UNL     1      16.188 -16.186   3.274  1.00  0.00    -0.286 N 
HETATM   33  C9  UNL     1      14.887 -16.355   2.969  1.00  0.00     0.355 A 
ATOM     34  H1  UNL     1      16.737 -16.936   3.693  1.00  0.00     0.172 HD
HETATM   35  O5  UNL     1      14.399 -17.488   3.232  1.00  0.00    -0.244 OA
HETATM   36  N2  UNL     1      14.158 -15.390   2.424  1.00  0.00    -0.133 N 
HETATM   37  C10 UNL     1      14.693 -14.191   2.149  1.00  0.00     0.292 A 
HETATM   38  O7  UNL     1      14.024 -13.254   1.631  1.00  0.00    -0.264 OA
BRANCH  31  39
HETATM   39  O4  UNL     1      18.071 -14.780   3.303  1.00  0.00    -0.345 OA
ATOM     40  H4  UNL     1      18.279 -14.258   4.068  1.00  0.00     0.219 HD
ENDBRANCH  31  39
BRANCH  36  41
HETATM   41  O6  UNL     1      12.834 -15.632   2.138  1.00  0.00    -0.276 OA
ATOM     42  H6  UNL     1      12.287 -14.914   1.840  1.00  0.00     0.245 HD
ENDBRANCH  36  41
ENDBRANCH   5  30
BRANCH   1  43
HETATM   43  O1  UNL     1      19.499 -10.602  -1.082  1.00  0.00    -0.337 OA
HETATM   44  C1  UNL     1      20.906 -10.744  -1.181  1.00  0.00     0.211 C 
ENDBRANCH   1  43
BRANCH   3  45
HETATM   45  O3  UNL     1      17.316 -14.791   0.028  1.00  0.00    -0.356 OA
ATOM     46  H3  UNL     1      16.505 -15.119  -0.342  1.00  0.00     0.218 HD
ENDBRANCH   3  45
BRANCH   2  47
HETATM   47  O2  UNL     1      19.119 -13.453  -2.006  1.00  0.00    -0.354 OA
ATOM     48  H2  UNL     1      19.203 -14.380  -2.194  1.00  0.00     0.218 HD
ENDBRANCH   2  47
TORSDOF 12
ENDMDL
MODEL 5
REMARK VINA RESULT: -8.314089786      1.647      1.826
REMARK  12 active torsions:
REMARK  status: ('A' for Active; 'I' for Inactive)
REMARK    1  A    between atoms: O1_2  and  C2_3 
REMARK    2  A    between atoms: C3_4  and  O2_5 
REMARK    3  A    between atoms: C4_7  and  O3_8 
REMARK    4  A    between atoms: C6_11  and  C7_12 
REMARK    5  A    between atoms: C8_13  and  O4_14 
REMARK    6  A    between atoms: N2_20  and  O6_21 
REMARK    7  A    between atoms: C11_27  and  C12_28 
REMARK    8  A    between atoms: C12_28  and  C13_29 
REMARK    9  A    between atoms: C12_28  and  N9_41 
REMARK   10  A    between atoms: C13_29  and  C14_30 
REMARK   11  A    between atoms: C14_30  and  N4_31 
REMARK   12  A    between atoms: N4_31  and  C15_33 
REMARK       I    between atoms: N9_41  and  C17_43 
ROOT
HETATM    1  C2  UNL     1      18.552 -11.732  -0.392  1.00  0.00     0.201 A 
HETATM    2  C3  UNL     1      18.384 -13.024  -0.813  1.00  0.00     0.155 A 
HETATM    3  C4  UNL     1      17.596 -13.648   0.130  1.00  0.00     0.135 A 
HETATM    4  C5  UNL     1      17.302 -12.717   1.106  1.00  0.00     0.123 A 
HETATM    5  C6  UNL     1      16.547 -12.841   2.263  1.00  0.00     0.086 A 
HETATM    6  N3  UNL     1      16.447 -11.740   3.016  1.00  0.00    -0.340 N 
ATOM      7  H3  UNL     1      15.900 -11.785   3.876  1.00  0.00     0.167 HD
HETATM    8  C11 UNL     1      17.031 -10.582   2.689  1.00  0.00     0.120 A 
HETATM    9  N10 UNL     1      17.748 -10.502   1.568  1.00  0.00    -0.278 N 
ATOM     10  H10 UNL     1      18.194  -9.619   1.318  1.00  0.00     0.189 HD
HETATM   11  N11 UNL     1      17.889 -11.546   0.780  1.00  0.00    -0.225 N 
ENDROOT
BRANCH   8  12
HETATM   12  C12 UNL     1      16.856  -9.406   3.605  1.00  0.00     0.155 C 
BRANCH  12  13
HETATM   13  C13 UNL     1      17.151  -8.140   2.823  1.00  0.00     0.053 C 
BRANCH  13  14
HETATM   14  C14 UNL     1      18.188  -7.290   3.480  1.00  0.00     0.140 C 
BRANCH  14  15
HETATM   15  N4  UNL     1      18.772  -6.412   2.503  1.00  0.00    -0.225 N 
ATOM     16  H4  UNL     1      19.020  -6.762   1.578  1.00  0.00     0.177 HD
BRANCH  15  17
HETATM   17  C15 UNL     1      19.005  -5.032   2.844  1.00  0.00     0.687 C 
HETATM   18  N5  UNL     1      19.476  -4.203   1.982  1.00  0.00    -0.211 N 
HETATM   19  C16 UNL     1      19.716  -2.816   2.308  1.00  0.00     0.271 C 
ATOM     20  H5  UNL     1      19.686  -4.534   1.041  1.00  0.00     0.179 HD
HETATM   21  N6  UNL     1      19.821  -2.593   3.735  1.00  0.00    -0.106 NA
HETATM   22  N7  UNL     1      18.692  -3.179   4.366  1.00  0.00    -0.015 NA
HETATM   23  N8  UNL     1      18.713  -4.558   4.152  1.00  0.00    -0.120 N 
ATOM     24  H8  UNL     1      18.525  -5.209   4.915  1.00  0.00     0.202 HD
ENDBRANCH  15  17
ENDBRANCH  14  15
ENDBRANCH  13  14
ENDBRANCH  12  13
BRANCH  12  25
HETATM   25  N9  UNL     1      15.489  -9.336   4.032  1.00  0.00    -0.350 N 
HETATM   26  C17 UNL     1      15.077  -9.012   5.345  1.00  0.00     0.214 C 
HETATM   27  C18 UNL     1      13.639  -8.964   5.693  1.00  0.00     0.117 C 
HETATM   28  O8  UNL     1      15.934  -8.764   6.217  1.00  0.00    -0.274 OA
ATOM     29  H9  UNL     1      14.765  -9.533   3.341  1.00  0.00     0.163 HD
ENDBRANCH  12  25
ENDBRANCH   8  12
BRANCH   5  30
HETATM   30  C7  UNL     1      15.937 -14.125   2.564  1.00  0.00     0.114 A 
HETATM   31  C8  UNL     1      14.606 -14.382   2.275  1.00  0.00     0.162 A 
HETATM   32  N1  UNL     1      14.007 -15.556   2.539  1.00  0.00    -0.286 N 
HETATM   33  C9  UNL     1      14.756 -16.517   3.112  1.00  0.00     0.355 A 
ATOM     34  H1  UNL     1      13.024 -15.712   2.313  1.00  0.00     0.172 HD
HETATM   35  O5  UNL     1      14.170 -17.609   3.350  1.00  0.00    -0.244 OA
HETATM   36  N2  UNL     1      16.035 -16.331   3.412  1.00  0.00    -0.133 N 
HETATM   37  C10 UNL     1      16.642 -15.163   3.153  1.00  0.00     0.292 A 
HETATM   38  O7  UNL     1      17.857 -14.957   3.427  1.00  0.00    -0.264 OA
BRANCH  31  39
HETATM   39  O4  UNL     1      13.864 -13.371   1.686  1.00  0.00    -0.345 OA
ATOM     40  H4  UNL     1      13.300 -13.600   0.956  1.00  0.00     0.219 HD
ENDBRANCH  31  39
BRANCH  36  41
HETATM   41  O6  UNL     1      16.741 -17.357   3.997  1.00  0.00    -0.276 OA
ATOM     42  H6  UNL     1      17.440 -17.148   4.607  1.00  0.00     0.245 HD
ENDBRANCH  36  41
ENDBRANCH   5  30
BRANCH   1  43
HETATM   43  O1  UNL     1      19.282 -10.776  -1.064  1.00  0.00    -0.337 OA
HETATM   44  C1  UNL     1      20.690 -10.889  -1.171  1.00  0.00     0.211 C 
ENDBRANCH   1  43
BRANCH   3  45
HETATM   45  O3  UNL     1      17.161 -14.975   0.124  1.00  0.00    -0.356 OA
ATOM     46  H3  UNL     1      16.943 -15.505  -0.633  1.00  0.00     0.218 HD
ENDBRANCH   3  45
BRANCH   2  47
HETATM   47  O2  UNL     1      18.894 -13.633  -1.967  1.00  0.00    -0.354 OA
ATOM     48  H2  UNL     1      18.973 -14.560  -2.157  1.00  0.00     0.218 HD
ENDBRANCH   2  47
TORSDOF 12
ENDMDL
