MODEL 1
REMARK VINA RESULT: -9.461005905      0.000      0.000
REMARK  14 active torsions:
REMARK  status: ('A' for Active; 'I' for Inactive)
REMARK    1  A    between atoms: C1_2  and  C2_4 
REMARK    2  A    between atoms: C4_8  and  O3_9 
REMARK    3  A    between atoms: C5_11  and  O4_12 
REMARK    4  A    between atoms: C6_14  and  N2_15 
REMARK    5  A    between atoms: N3_17  and  C7_19 
REMARK    6  A    between atoms: C8_20  and  O5_21 
REMARK    7  A    between atoms: N4_23  and  O6_24 
REMARK    8  A    between atoms: N6_32  and  O8_34 
REMARK    9  A    between atoms: O8_34  and  C12_35 
REMARK   10  A    between atoms: C12_35  and  C13_36 
REMARK   11  A    between atoms: C13_36  and  O9_37 
REMARK   12  A    between atoms: C13_36  and  C14_39 
REMARK   13  A    between atoms: C14_39  and  O10_40 
REMARK   14  A    between atoms: C14_39  and  O11_42 
ROOT
HETATM    1  C7  UNL     1      16.488  -8.875   4.407  1.00  0.00     0.152 A 
HETATM    2  C8  UNL     1      15.830  -8.143   5.360  1.00  0.00     0.200 A 
HETATM    3  N4  UNL     1      16.185  -6.892   5.712  1.00  0.00    -0.193 N 
HETATM    4  C9  UNL     1      17.242  -6.294   5.116  1.00  0.00     0.153 A 
HETATM    5  C10 UNL     1      17.487  -5.028   5.571  1.00  0.00     0.290 C 
HETATM    6  O7  UNL     1      16.707  -4.571   6.437  1.00  0.00    -0.265 OA
HETATM    7  N5  UNL     1      18.491  -4.210   5.182  1.00  0.00    -0.152 N 
ATOM      8  H5  UNL     1      18.789  -3.514   5.864  1.00  0.00     0.187 HD
HETATM    9  C11 UNL     1      19.143  -4.201   4.011  1.00  0.00     0.707 C 
HETATM   10  N6  UNL     1      19.470  -3.140   3.462  1.00  0.00    -0.096 N 
ATOM     11  H6  UNL     1      19.960  -3.297   2.581  1.00  0.00     0.213 HD
HETATM   12  N7  UNL     1      19.494  -5.325   3.317  1.00  0.00    -0.153 N 
ATOM     13  H7  UNL     1      20.218  -5.194   2.611  1.00  0.00     0.187 HD
HETATM   14  C15 UNL     1      19.027  -6.570   3.430  1.00  0.00     0.276 C 
HETATM   15  O12 UNL     1      19.663  -7.479   2.806  1.00  0.00    -0.267 OA
HETATM   16  C16 UNL     1      17.923  -7.021   4.145  1.00  0.00     0.120 A 
HETATM   17  C17 UNL     1      17.577  -8.290   3.776  1.00  0.00     0.222 A 
HETATM   18  O13 UNL     1      18.249  -8.859   2.897  1.00  0.00    -0.285 OA
ENDROOT
BRANCH   1  19
HETATM   19  N3  UNL     1      16.126 -10.179   4.032  1.00  0.00    -0.293 N 
HETATM   20  N2  UNL     1      16.284 -10.647   2.864  1.00  0.00    -0.295 N 
ATOM     21  H2  UNL     1      16.696 -10.049   2.148  1.00  0.00     0.187 HD
ATOM     22  H3  UNL     1      15.712 -10.786   4.741  1.00  0.00     0.187 HD
BRANCH  20  23
HETATM   23  C6  UNL     1      15.908 -11.971   2.514  1.00  0.00     0.117 A 
HETATM   24  C2  UNL     1      16.786 -12.718   1.761  1.00  0.00     0.141 A 
HETATM   25  N1  UNL     1      16.456 -13.973   1.414  1.00  0.00    -0.356 N 
HETATM   26  C3  UNL     1      15.281 -14.547   1.777  1.00  0.00     0.128 A 
ATOM     27  H1  UNL     1      17.114 -14.517   0.856  1.00  0.00     0.165 HD
HETATM   28  C4  UNL     1      14.380 -13.812   2.536  1.00  0.00     0.116 A 
HETATM   29  C5  UNL     1      14.691 -12.522   2.907  1.00  0.00     0.131 A 
BRANCH  24  30
HETATM   30  C1  UNL     1      18.051 -12.114   1.365  1.00  0.00     0.229 C 
HETATM   31  O1  UNL     1      19.111 -12.294   1.994  1.00  0.00    -0.643 OA
HETATM   32  O2  UNL     1      18.060 -11.308   0.237  1.00  0.00    -0.643 OA
ENDBRANCH  24  30
BRANCH  28  33
HETATM   33  O3  UNL     1      13.183 -14.438   2.889  1.00  0.00    -0.357 OA
ATOM     34  H3  UNL     1      12.536 -13.913   3.346  1.00  0.00     0.218 HD
ENDBRANCH  28  33
BRANCH  29  35
HETATM   35  O4  UNL     1      13.802 -11.789   3.660  1.00  0.00    -0.356 OA
ATOM     36  H4  UNL     1      12.945 -11.578   3.311  1.00  0.00     0.218 HD
ENDBRANCH  29  35
ENDBRANCH  20  23
ENDBRANCH   1  19
BRANCH   2  37
HETATM   37  O5  UNL     1      14.742  -8.710   6.001  1.00  0.00    -0.343 OA
ATOM     38  H5  UNL     1      13.941  -8.205   6.075  1.00  0.00     0.219 HD
ENDBRANCH   2  37
BRANCH   3  39
HETATM   39  O6  UNL     1      15.503  -6.184   6.673  1.00  0.00    -0.280 OA
ATOM     40  H6  UNL     1      15.825  -6.104   7.564  1.00  0.00     0.245 HD
ENDBRANCH   3  39
BRANCH  10  41
HETATM   41  O8  UNL     1      19.345  -1.890   3.731  1.00  0.00    -0.264 OA
BRANCH  41  42
HETATM   42  C12 UNL     1      19.045  -0.746   3.049  1.00  0.00     0.238 C 
BRANCH  42  43
HETATM   43  C13 UNL     1      20.201  -0.259   2.163  1.00  0.00     0.199 C 
BRANCH  43  44
HETATM   44  O9  UNL     1      21.403  -0.643   2.745  1.00  0.00    -0.388 OA
ATOM     45  H9  UNL     1      22.119  -0.329   2.204  1.00  0.00     0.210 HD
ENDBRANCH  43  44
BRANCH  43  46
HETATM   46  C14 UNL     1      20.079  -0.878   0.783  1.00  0.00     0.284 C 
BRANCH  46  47
HETATM   47  O10 UNL     1      20.535  -2.192   0.771  1.00  0.00    -0.369 OA
ATOM     48  H10 UNL     1      19.943  -2.762   0.295  1.00  0.00     0.212 HD
ENDBRANCH  46  47
BRANCH  46  49
HETATM   49  O11 UNL     1      20.854  -0.158  -0.148  1.00  0.00    -0.369 OA
ATOM     50  H11 UNL     1      20.624  -0.409  -1.034  1.00  0.00     0.212 HD
ENDBRANCH  46  49
ENDBRANCH  43  46
ENDBRANCH  42  43
ENDBRANCH  41  42
ENDBRANCH  10  41
TORSDOF 14
ENDMDL
MODEL 2
REMARK VINA RESULT: -9.235058121      0.984      1.408
REMARK  14 active torsions:
REMARK  status: ('A' for Active; 'I' for Inactive)
REMARK    1  A    between atoms: C1_2  and  C2_4 
REMARK    2  A    between atoms: C4_8  and  O3_9 
REMARK    3  A    between atoms: C5_11  and  O4_12 
REMARK    4  A    between atoms: C6_14  and  N2_15 
REMARK    5  A    between atoms: N3_17  and  C7_19 
REMARK    6  A    between atoms: C8_20  and  O5_21 
REMARK    7  A    between atoms: N4_23  and  O6_24 
REMARK    8  A    between atoms: N6_32  and  O8_34 
REMARK    9  A    between atoms: O8_34  and  C12_35 
REMARK   10  A    between atoms: C12_35  and  C13_36 
REMARK   11  A    between atoms: C13_36  and  O9_37 
REMARK   12  A    between atoms: C13_36  and  C14_39 
REMARK   13  A    between atoms: C14_39  and  O10_40 
REMARK   14  A    between atoms: C14_39  and  O11_42 
ROOT
HETATM    1  C7  UNL     1      16.435  -9.010   4.397  1.00  0.00     0.152 A 
HETATM    2  C8  UNL     1      15.740  -8.272   5.317  1.00  0.00     0.200 A 
HETATM    3  N4  UNL     1      16.076  -7.016   5.669  1.00  0.00    -0.193 N 
HETATM    4  C9  UNL     1      17.150  -6.418   5.105  1.00  0.00     0.153 A 
HETATM    5  C10 UNL     1      17.373  -5.146   5.556  1.00  0.00     0.290 C 
HETATM    6  O7  UNL     1      16.560  -4.685   6.389  1.00  0.00    -0.265 OA
HETATM    7  N5  UNL     1      18.386  -4.328   5.195  1.00  0.00    -0.152 N 
ATOM      8  H5  UNL     1      18.656  -3.623   5.880  1.00  0.00     0.187 HD
HETATM    9  C11 UNL     1      19.081  -4.327   4.048  1.00  0.00     0.707 C 
HETATM   10  N6  UNL     1      19.423  -3.270   3.501  1.00  0.00    -0.096 N 
ATOM     11  H6  UNL     1      19.945  -3.433   2.640  1.00  0.00     0.213 HD
HETATM   12  N7  UNL     1      19.462  -5.457   3.380  1.00  0.00    -0.153 N 
ATOM     13  H7  UNL     1      20.211  -5.328   2.699  1.00  0.00     0.187 HD
HETATM   14  C15 UNL     1      18.998  -6.702   3.489  1.00  0.00     0.276 C 
HETATM   15  O12 UNL     1      19.660  -7.614   2.898  1.00  0.00    -0.267 OA
HETATM   16  C16 UNL     1      17.871  -7.151   4.168  1.00  0.00     0.120 A 
HETATM   17  C17 UNL     1      17.544  -8.426   3.800  1.00  0.00     0.222 A 
HETATM   18  O13 UNL     1      18.250  -9.001   2.952  1.00  0.00    -0.285 OA
ENDROOT
BRANCH   1  19
HETATM   19  N3  UNL     1      16.094 -10.320   4.023  1.00  0.00    -0.293 N 
HETATM   20  N2  UNL     1      16.217 -10.772   2.844  1.00  0.00    -0.295 N 
ATOM     21  H2  UNL     1      16.584 -10.156   2.119  1.00  0.00     0.187 HD
ATOM     22  H3  UNL     1      15.725 -10.944   4.741  1.00  0.00     0.187 HD
BRANCH  20  23
HETATM   23  C6  UNL     1      15.863 -12.103   2.495  1.00  0.00     0.117 A 
HETATM   24  C2  UNL     1      16.765 -12.844   1.765  1.00  0.00     0.141 A 
HETATM   25  N1  UNL     1      16.456 -14.105   1.420  1.00  0.00    -0.356 N 
HETATM   26  C3  UNL     1      15.279 -14.690   1.763  1.00  0.00     0.128 A 
ATOM     27  H1  UNL     1      17.131 -14.645   0.879  1.00  0.00     0.165 HD
HETATM   28  C4  UNL     1      14.355 -13.961   2.498  1.00  0.00     0.116 A 
HETATM   29  C5  UNL     1      14.645 -12.664   2.867  1.00  0.00     0.131 A 
BRANCH  24  30
HETATM   30  C1  UNL     1      18.030 -12.230   1.391  1.00  0.00     0.229 C 
HETATM   31  O1  UNL     1      19.090 -12.433   2.014  1.00  0.00    -0.643 OA
HETATM   32  O2  UNL     1      18.041 -11.384   0.292  1.00  0.00    -0.643 OA
ENDBRANCH  24  30
BRANCH  28  33
HETATM   33  O3  UNL     1      13.158 -14.597   2.831  1.00  0.00    -0.357 OA
ATOM     34  H3  UNL     1      12.792 -14.414   3.688  1.00  0.00     0.218 HD
ENDBRANCH  28  33
BRANCH  29  35
HETATM   35  O4  UNL     1      13.732 -11.937   3.597  1.00  0.00    -0.356 OA
ATOM     36  H4  UNL     1      13.738 -11.983   4.546  1.00  0.00     0.218 HD
ENDBRANCH  29  35
ENDBRANCH  20  23
ENDBRANCH   1  19
BRANCH   2  37
HETATM   37  O5  UNL     1      14.632  -8.838   5.924  1.00  0.00    -0.343 OA
ATOM     38  H5  UNL     1      13.767  -8.592   5.617  1.00  0.00     0.219 HD
ENDBRANCH   2  37
BRANCH   3  39
HETATM   39  O6  UNL     1      15.356  -6.301   6.598  1.00  0.00    -0.280 OA
ATOM     40  H6  UNL     1      15.718  -6.066   7.444  1.00  0.00     0.245 HD
ENDBRANCH   3  39
BRANCH  10  41
HETATM   41  O8  UNL     1      19.281  -2.018   3.752  1.00  0.00    -0.264 OA
BRANCH  41  42
HETATM   42  C12 UNL     1      19.405  -0.842   3.071  1.00  0.00     0.238 C 
BRANCH  42  43
HETATM   43  C13 UNL     1      20.533   0.048   3.615  1.00  0.00     0.199 C 
BRANCH  43  44
HETATM   44  O9  UNL     1      21.478   0.236   2.612  1.00  0.00    -0.388 OA
ATOM     45  H9  UNL     1      22.345   0.122   2.985  1.00  0.00     0.210 HD
ENDBRANCH  43  44
BRANCH  43  46
HETATM   46  C14 UNL     1      19.963   1.389   4.038  1.00  0.00     0.284 C 
BRANCH  46  47
HETATM   47  O10 UNL     1      19.517   1.362   5.355  1.00  0.00    -0.369 OA
ATOM     48  H10 UNL     1      19.880   0.623   5.830  1.00  0.00     0.212 HD
ENDBRANCH  46  47
BRANCH  46  49
HETATM   49  O11 UNL     1      18.860   1.729   3.230  1.00  0.00    -0.369 OA
ATOM     50  H11 UNL     1      18.204   2.189   3.742  1.00  0.00     0.212 HD
ENDBRANCH  46  49
ENDBRANCH  43  46
ENDBRANCH  42  43
ENDBRANCH  41  42
ENDBRANCH  10  41
TORSDOF 14
ENDMDL
MODEL 3
REMARK VINA RESULT: -9.164680170      3.616      5.480
REMARK  14 active torsions:
REMARK  status: ('A' for Active; 'I' for Inactive)
REMARK    1  A    between atoms: C1_2  and  C2_4 
REMARK    2  A    between atoms: C4_8  and  O3_9 
REMARK    3  A    between atoms: C5_11  and  O4_12 
REMARK    4  A    between atoms: C6_14  and  N2_15 
REMARK    5  A    between atoms: N3_17  and  C7_19 
REMARK    6  A    between atoms: C8_20  and  O5_21 
REMARK    7  A    between atoms: N4_23  and  O6_24 
REMARK    8  A    between atoms: N6_32  and  O8_34 
REMARK    9  A    between atoms: O8_34  and  C12_35 
REMARK   10  A    between atoms: C12_35  and  C13_36 
REMARK   11  A    between atoms: C13_36  and  O9_37 
REMARK   12  A    between atoms: C13_36  and  C14_39 
REMARK   13  A    between atoms: C14_39  and  O10_40 
REMARK   14  A    between atoms: C14_39  and  O11_42 
ROOT
HETATM    1  C7  UNL     1      16.167 -11.743   2.702  1.00  0.00     0.152 A 
HETATM    2  C8  UNL     1      17.318 -11.072   2.390  1.00  0.00     0.200 A 
HETATM    3  N4  UNL     1      17.609  -9.840   2.851  1.00  0.00    -0.193 N 
HETATM    4  C9  UNL     1      16.741  -9.200   3.669  1.00  0.00     0.153 A 
HETATM    5  C10 UNL     1      17.164  -7.960   4.059  1.00  0.00     0.290 C 
HETATM    6  O7  UNL     1      18.288  -7.586   3.653  1.00  0.00    -0.265 OA
HETATM    7  N5  UNL     1      16.492  -7.087   4.842  1.00  0.00    -0.152 N 
ATOM      8  H5  UNL     1      16.718  -6.102   4.708  1.00  0.00     0.187 HD
HETATM    9  C11 UNL     1      15.566  -7.355   5.773  1.00  0.00     0.707 C 
HETATM   10  N6  UNL     1      15.525  -6.732   6.843  1.00  0.00    -0.096 N 
ATOM     11  H6  UNL     1      14.766  -7.049   7.445  1.00  0.00     0.213 HD
HETATM   12  N7  UNL     1      14.607  -8.321   5.648  1.00  0.00    -0.153 N 
ATOM     13  H7  UNL     1      13.811  -8.230   6.279  1.00  0.00     0.187 HD
HETATM   14  C15 UNL     1      14.561  -9.366   4.820  1.00  0.00     0.276 C 
HETATM   15  O12 UNL     1      13.461 -10.004   4.764  1.00  0.00    -0.267 OA
HETATM   16  C16 UNL     1      15.564  -9.865   3.997  1.00  0.00     0.120 A 
HETATM   17  C17 UNL     1      15.254 -11.114   3.538  1.00  0.00     0.222 A 
HETATM   18  O13 UNL     1      14.176 -11.627   3.888  1.00  0.00    -0.285 OA
ENDROOT
BRANCH   1  19
HETATM   19  N3  UNL     1      15.854 -13.028   2.226  1.00  0.00    -0.293 N 
HETATM   20  N2  UNL     1      15.414 -13.964   2.960  1.00  0.00    -0.295 N 
ATOM     21  H2  UNL     1      15.276 -13.784   3.955  1.00  0.00     0.187 HD
ATOM     22  H3  UNL     1      15.989 -13.219   1.233  1.00  0.00     0.187 HD
BRANCH  20  23
HETATM   23  C6  UNL     1      15.107 -15.254   2.451  1.00  0.00     0.117 A 
HETATM   24  C2  UNL     1      15.782 -16.335   2.971  1.00  0.00     0.141 A 
HETATM   25  N1  UNL     1      15.513 -17.567   2.506  1.00  0.00    -0.356 N 
HETATM   26  C3  UNL     1      14.592 -17.797   1.536  1.00  0.00     0.128 A 
ATOM     27  H1  UNL     1      16.019 -18.360   2.899  1.00  0.00     0.165 HD
HETATM   28  C4  UNL     1      13.900 -16.722   0.997  1.00  0.00     0.116 A 
HETATM   29  C5  UNL     1      14.155 -15.446   1.454  1.00  0.00     0.131 A 
BRANCH  24  30
HETATM   30  C1  UNL     1      16.772 -16.102   4.012  1.00  0.00     0.229 C 
HETATM   31  O1  UNL     1      16.711 -16.641   5.134  1.00  0.00    -0.643 OA
HETATM   32  O2  UNL     1      17.822 -15.242   3.729  1.00  0.00    -0.643 OA
ENDBRANCH  24  30
BRANCH  28  33
HETATM   33  O3  UNL     1      12.961 -17.000   0.001  1.00  0.00    -0.357 OA
ATOM     34  H3  UNL     1      12.435 -16.275  -0.314  1.00  0.00     0.218 HD
ENDBRANCH  28  33
BRANCH  29  35
HETATM   35  O4  UNL     1      13.470 -14.376   0.923  1.00  0.00    -0.356 OA
ATOM     36  H4  UNL     1      13.940 -13.696   0.454  1.00  0.00     0.218 HD
ENDBRANCH  29  35
ENDBRANCH  20  23
ENDBRANCH   1  19
BRANCH   2  37
HETATM   37  O5  UNL     1      18.240 -11.683   1.556  1.00  0.00    -0.343 OA
ATOM     38  H5  UNL     1      18.144 -11.581   0.617  1.00  0.00     0.219 HD
ENDBRANCH   2  37
BRANCH   3  39
HETATM   39  O6  UNL     1      18.775  -9.192   2.519  1.00  0.00    -0.280 OA
ATOM     40  H6  UNL     1      18.928  -8.282   2.743  1.00  0.00     0.245 HD
ENDBRANCH   3  39
BRANCH  10  41
HETATM   41  O8  UNL     1      16.206  -5.782   7.379  1.00  0.00    -0.264 OA
BRANCH  41  42
HETATM   42  C12 UNL     1      17.424  -5.197   7.189  1.00  0.00     0.238 C 
BRANCH  42  43
HETATM   43  C13 UNL     1      18.595  -6.132   7.527  1.00  0.00     0.199 C 
BRANCH  43  44
HETATM   44  O9  UNL     1      19.260  -6.459   6.351  1.00  0.00    -0.388 OA
ATOM     45  H9  UNL     1      20.144  -6.733   6.565  1.00  0.00     0.210 HD
ENDBRANCH  43  44
BRANCH  43  46
HETATM   46  C14 UNL     1      19.549  -5.430   8.475  1.00  0.00     0.284 C 
BRANCH  46  47
HETATM   47  O10 UNL     1      20.721  -6.157   8.651  1.00  0.00    -0.369 OA
ATOM     48  H10 UNL     1      21.411  -5.850   8.075  1.00  0.00     0.212 HD
ENDBRANCH  46  47
BRANCH  46  49
HETATM   49  O11 UNL     1      18.955  -5.279   9.745  1.00  0.00    -0.369 OA
ATOM     50  H11 UNL     1      19.572  -4.889  10.353  1.00  0.00     0.212 HD
ENDBRANCH  46  49
ENDBRANCH  43  46
ENDBRANCH  42  43
ENDBRANCH  41  42
ENDBRANCH  10  41
TORSDOF 14
ENDMDL
MODEL 4
REMARK VINA RESULT: -9.159488381      2.756      5.075
REMARK  14 active torsions:
REMARK  status: ('A' for Active; 'I' for Inactive)
REMARK    1  A    between atoms: C1_2  and  C2_4 
REMARK    2  A    between atoms: C4_8  and  O3_9 
REMARK    3  A    between atoms: C5_11  and  O4_12 
REMARK    4  A    between atoms: C6_14  and  N2_15 
REMARK    5  A    between atoms: N3_17  and  C7_19 
REMARK    6  A    between atoms: C8_20  and  O5_21 
REMARK    7  A    between atoms: N4_23  and  O6_24 
REMARK    8  A    between atoms: N6_32  and  O8_34 
REMARK    9  A    between atoms: O8_34  and  C12_35 
REMARK   10  A    between atoms: C12_35  and  C13_36 
REMARK   11  A    between atoms: C13_36  and  O9_37 
REMARK   12  A    between atoms: C13_36  and  C14_39 
REMARK   13  A    between atoms: C14_39  and  O10_40 
REMARK   14  A    between atoms: C14_39  and  O11_42 
ROOT
HETATM    1  C7  UNL     1      16.186 -12.063   2.471  1.00  0.00     0.152 A 
HETATM    2  C8  UNL     1      17.367 -11.471   2.110  1.00  0.00     0.200 A 
HETATM    3  N4  UNL     1      17.759 -10.262   2.556  1.00  0.00    -0.193 N 
HETATM    4  C9  UNL     1      16.970  -9.564   3.405  1.00  0.00     0.153 A 
HETATM    5  C10 UNL     1      17.492  -8.355   3.774  1.00  0.00     0.290 C 
HETATM    6  O7  UNL     1      18.621  -8.058   3.322  1.00  0.00    -0.265 OA
HETATM    7  N5  UNL     1      16.913  -7.438   4.581  1.00  0.00    -0.152 N 
ATOM      8  H5  UNL     1      17.199  -6.471   4.435  1.00  0.00     0.187 HD
HETATM    9  C11 UNL     1      16.009  -7.643   5.550  1.00  0.00     0.707 C 
HETATM   10  N6  UNL     1      16.054  -7.017   6.618  1.00  0.00    -0.096 N 
ATOM     11  H6  UNL     1      15.300  -7.282   7.252  1.00  0.00     0.213 HD
HETATM   12  N7  UNL     1      14.983  -8.542   5.467  1.00  0.00    -0.153 N 
ATOM     13  H7  UNL     1      14.222  -8.396   6.129  1.00  0.00     0.187 HD
HETATM   14  C15 UNL     1      14.833  -9.582   4.645  1.00  0.00     0.276 C 
HETATM   15  O12 UNL     1      13.691 -10.143   4.635  1.00  0.00    -0.267 OA
HETATM   16  C16 UNL     1      15.766 -10.148   3.784  1.00  0.00     0.120 A 
HETATM   17  C17 UNL     1      15.354 -11.373   3.342  1.00  0.00     0.222 A 
HETATM   18  O13 UNL     1      14.259 -11.812   3.737  1.00  0.00    -0.285 OA
ENDROOT
BRANCH   1  19
HETATM   19  N3  UNL     1      15.769 -13.324   2.013  1.00  0.00    -0.293 N 
HETATM   20  N2  UNL     1      15.496 -14.298   2.778  1.00  0.00    -0.295 N 
ATOM     21  H2  UNL     1      15.583 -14.168   3.787  1.00  0.00     0.187 HD
ATOM     22  H3  UNL     1      15.679 -13.464   1.007  1.00  0.00     0.187 HD
BRANCH  20  23
HETATM   23  C6  UNL     1      15.076 -15.562   2.286  1.00  0.00     0.117 A 
HETATM   24  C2  UNL     1      15.625 -16.693   2.847  1.00  0.00     0.141 A 
HETATM   25  N1  UNL     1      15.247 -17.902   2.400  1.00  0.00    -0.356 N 
HETATM   26  C3  UNL     1      14.336 -18.062   1.407  1.00  0.00     0.128 A 
ATOM     27  H1  UNL     1      15.661 -18.733   2.823  1.00  0.00     0.165 HD
HETATM   28  C4  UNL     1      13.769 -16.936   0.827  1.00  0.00     0.116 A 
HETATM   29  C5  UNL     1      14.138 -15.682   1.265  1.00  0.00     0.131 A 
BRANCH  24  30
HETATM   30  C1  UNL     1      16.604 -16.535   3.913  1.00  0.00     0.229 C 
HETATM   31  O1  UNL     1      16.459 -17.040   5.044  1.00  0.00    -0.643 OA
HETATM   32  O2  UNL     1      17.742 -15.790   3.644  1.00  0.00    -0.643 OA
ENDBRANCH  24  30
BRANCH  28  33
HETATM   33  O3  UNL     1      12.836 -17.143  -0.191  1.00  0.00    -0.357 OA
ATOM     34  H3  UNL     1      12.142 -17.770  -0.023  1.00  0.00     0.218 HD
ENDBRANCH  28  33
BRANCH  29  35
HETATM   35  O4  UNL     1      13.578 -14.561   0.693  1.00  0.00    -0.356 OA
ATOM     36  H4  UNL     1      13.193 -13.889   1.243  1.00  0.00     0.218 HD
ENDBRANCH  29  35
ENDBRANCH  20  23
ENDBRANCH   1  19
BRANCH   2  37
HETATM   37  O5  UNL     1      18.210 -12.144   1.242  1.00  0.00    -0.343 OA
ATOM     38  H5  UNL     1      19.114 -11.861   1.172  1.00  0.00     0.219 HD
ENDBRANCH   2  37
BRANCH   3  39
HETATM   39  O6  UNL     1      18.952  -9.695   2.174  1.00  0.00    -0.280 OA
ATOM     40  H6  UNL     1      19.092  -9.359   1.297  1.00  0.00     0.245 HD
ENDBRANCH   3  39
BRANCH  10  41
HETATM   41  O8  UNL     1      16.819  -6.115   7.123  1.00  0.00    -0.264 OA
BRANCH  41  42
HETATM   42  C12 UNL     1      17.300  -4.893   6.753  1.00  0.00     0.238 C 
BRANCH  42  43
HETATM   43  C13 UNL     1      18.723  -4.959   6.179  1.00  0.00     0.199 C 
BRANCH  43  44
HETATM   44  O9  UNL     1      19.107  -6.292   6.089  1.00  0.00    -0.388 OA
ATOM     45  H9  UNL     1      20.036  -6.330   5.892  1.00  0.00     0.210 HD
ENDBRANCH  43  44
BRANCH  43  46
HETATM   46  C14 UNL     1      18.745  -4.326   4.800  1.00  0.00     0.284 C 
BRANCH  46  47
HETATM   47  O10 UNL     1      17.508  -3.783   4.469  1.00  0.00    -0.369 OA
ATOM     48  H10 UNL     1      17.525  -2.833   4.499  1.00  0.00     0.212 HD
ENDBRANCH  46  47
BRANCH  46  49
HETATM   49  O11 UNL     1      19.053  -5.293   3.822  1.00  0.00    -0.369 OA
ATOM     50  H11 UNL     1      19.910  -5.667   3.986  1.00  0.00     0.212 HD
ENDBRANCH  46  49
ENDBRANCH  43  46
ENDBRANCH  42  43
ENDBRANCH  41  42
ENDBRANCH  10  41
TORSDOF 14
ENDMDL
MODEL 5
REMARK VINA RESULT: -8.987846587      2.668      4.684
REMARK  14 active torsions:
REMARK  status: ('A' for Active; 'I' for Inactive)
REMARK    1  A    between atoms: C1_2  and  C2_4 
REMARK    2  A    between atoms: C4_8  and  O3_9 
REMARK    3  A    between atoms: C5_11  and  O4_12 
REMARK    4  A    between atoms: C6_14  and  N2_15 
REMARK    5  A    between atoms: N3_17  and  C7_19 
REMARK    6  A    between atoms: C8_20  and  O5_21 
REMARK    7  A    between atoms: N4_23  and  O6_24 
REMARK    8  A    between atoms: N6_32  and  O8_34 
REMARK    9  A    between atoms: O8_34  and  C12_35 
REMARK   10  A    between atoms: C12_35  and  C13_36 
REMARK   11  A    between atoms: C13_36  and  O9_37 
REMARK   12  A    between atoms: C13_36  and  C14_39 
REMARK   13  A    between atoms: C14_39  and  O10_40 
REMARK   14  A    between atoms: C14_39  and  O11_42 
ROOT
HETATM    1  C7  UNL     1      15.507 -11.993   2.671  1.00  0.00     0.152 A 
HETATM    2  C8  UNL     1      14.705 -11.430   3.628  1.00  0.00     0.200 A 
HETATM    3  N4  UNL     1      14.999 -10.277   4.260  1.00  0.00    -0.193 N 
HETATM    4  C9  UNL     1      16.138  -9.612   3.962  1.00  0.00     0.153 A 
HETATM    5  C10 UNL     1      16.308  -8.461   4.680  1.00  0.00     0.290 C 
HETATM    6  O7  UNL     1      15.399  -8.149   5.482  1.00  0.00    -0.265 OA
HETATM    7  N5  UNL     1      17.362  -7.617   4.616  1.00  0.00    -0.152 N 
ATOM      8  H5  UNL     1      17.547  -7.069   5.455  1.00  0.00     0.187 HD
HETATM    9  C11 UNL     1      18.195  -7.412   3.586  1.00  0.00     0.707 C 
HETATM   10  N6  UNL     1      18.608  -6.278   3.305  1.00  0.00    -0.096 N 
ATOM     11  H6  UNL     1      19.233  -6.284   2.499  1.00  0.00     0.213 HD
HETATM   12  N7  UNL     1      18.653  -8.398   2.758  1.00  0.00    -0.153 N 
ATOM     13  H7  UNL     1      19.481  -8.161   2.213  1.00  0.00     0.187 HD
HETATM   14  C15 UNL     1      18.173  -9.627   2.559  1.00  0.00     0.276 C 
HETATM   15  O12 UNL     1      18.900 -10.424   1.885  1.00  0.00    -0.267 OA
HETATM   16  C16 UNL     1      16.968 -10.168   2.993  1.00  0.00     0.120 A 
HETATM   17  C17 UNL     1      16.684 -11.335   2.342  1.00  0.00     0.222 A 
HETATM   18  O13 UNL     1      17.489 -11.752   1.490  1.00  0.00    -0.285 OA
ENDROOT
BRANCH   1  19
HETATM   19  N3  UNL     1      15.209 -13.193   2.005  1.00  0.00    -0.293 N 
HETATM   20  N2  UNL     1      14.698 -14.206   2.572  1.00  0.00    -0.295 N 
ATOM     21  H2  UNL     1      14.488 -14.157   3.569  1.00  0.00     0.187 HD
ATOM     22  H3  UNL     1      15.415 -13.254   1.008  1.00  0.00     0.187 HD
BRANCH  20  23
HETATM   23  C6  UNL     1      14.408 -15.408   1.872  1.00  0.00     0.117 A 
HETATM   24  C2  UNL     1      15.079 -16.552   2.241  1.00  0.00     0.141 A 
HETATM   25  N1  UNL     1      14.825 -17.703   1.595  1.00  0.00    -0.356 N 
HETATM   26  C3  UNL     1      13.925 -17.790   0.582  1.00  0.00     0.128 A 
ATOM     27  H1  UNL     1      15.329 -18.544   1.876  1.00  0.00     0.165 HD
HETATM   28  C4  UNL     1      13.237 -16.649   0.195  1.00  0.00     0.116 A 
HETATM   29  C5  UNL     1      13.476 -15.453   0.839  1.00  0.00     0.131 A 
BRANCH  24  30
HETATM   30  C1  UNL     1      16.047 -16.473   3.325  1.00  0.00     0.229 C 
HETATM   31  O1  UNL     1      15.988 -17.196   4.338  1.00  0.00    -0.643 OA
HETATM   32  O2  UNL     1      17.075 -15.548   3.211  1.00  0.00    -0.643 OA
ENDBRANCH  24  30
BRANCH  28  33
HETATM   33  O3  UNL     1      12.320 -16.780  -0.850  1.00  0.00    -0.357 OA
ATOM     34  H3  UNL     1      12.617 -17.224  -1.636  1.00  0.00     0.218 HD
ENDBRANCH  28  33
BRANCH  29  35
HETATM   35  O4  UNL     1      12.796 -14.319   0.459  1.00  0.00    -0.356 OA
ATOM     36  H4  UNL     1      13.213 -13.468   0.532  1.00  0.00     0.218 HD
ENDBRANCH  29  35
ENDBRANCH  20  23
ENDBRANCH   1  19
BRANCH   2  37
HETATM   37  O5  UNL     1      13.526 -12.072   3.970  1.00  0.00    -0.343 OA
ATOM     38  H5  UNL     1      13.571 -12.958   4.310  1.00  0.00     0.219 HD
ENDBRANCH   2  37
BRANCH   3  39
HETATM   39  O6  UNL     1      14.171  -9.739   5.217  1.00  0.00    -0.280 OA
ATOM     40  H6  UNL     1      13.250  -9.577   5.053  1.00  0.00     0.245 HD
ENDBRANCH   3  39
BRANCH  10  41
HETATM   41  O8  UNL     1      18.441  -5.096   3.781  1.00  0.00    -0.264 OA
BRANCH  41  42
HETATM   42  C12 UNL     1      18.845  -4.397   4.882  1.00  0.00     0.238 C 
BRANCH  42  43
HETATM   43  C13 UNL     1      17.826  -4.453   6.031  1.00  0.00     0.199 C 
BRANCH  43  44
HETATM   44  O9  UNL     1      16.576  -4.759   5.506  1.00  0.00    -0.388 OA
ATOM     45  H9  UNL     1      16.127  -5.343   6.106  1.00  0.00     0.210 HD
ENDBRANCH  43  44
BRANCH  43  46
HETATM   46  C14 UNL     1      18.239  -5.522   7.025  1.00  0.00     0.284 C 
BRANCH  46  47
HETATM   47  O10 UNL     1      19.301  -6.281   6.546  1.00  0.00    -0.369 OA
ATOM     48  H10 UNL     1      19.008  -7.123   6.218  1.00  0.00     0.212 HD
ENDBRANCH  46  47
BRANCH  46  49
HETATM   49  O11 UNL     1      17.169  -6.406   7.268  1.00  0.00    -0.369 OA
ATOM     50  H11 UNL     1      17.108  -6.604   8.195  1.00  0.00     0.212 HD
ENDBRANCH  46  49
ENDBRANCH  43  46
ENDBRANCH  42  43
ENDBRANCH  41  42
ENDBRANCH  10  41
TORSDOF 14
ENDMDL
