MODEL 1
REMARK VINA RESULT: -9.775783009      0.000      0.000
REMARK  11 active torsions:
REMARK  status: ('A' for Active; 'I' for Inactive)
REMARK    1  A    between atoms: O1_2  and  C2_3 
REMARK    2  A    between atoms: C2_3  and  C3_5 
REMARK    3  A    between atoms: C4_7  and  O4_8 
REMARK    4  A    between atoms: C4_7  and  C5_10 
REMARK    5  A    between atoms: C5_10  and  N1_11 
REMARK       I    between atoms: N1_11  and  C6_13 
REMARK       I    between atoms: C6_13  and  N2_15 
REMARK    6  A    between atoms: N2_15  and  N3_17 
REMARK    7  A    between atoms: C7_19  and  C9_21 
REMARK    8  A    between atoms: C11_24  and  N4_25 
REMARK    9  A    between atoms: C12_29  and  C13_30 
REMARK   10  A    between atoms: C13_30  and  O6_31 
REMARK   11  A    between atoms: C15_39  and  N10_40 
ROOT
HETATM    1  N1  UNL     1      19.032  -4.225   3.980  1.00  0.00    -0.335 N 
ATOM      2  H1  UNL     1      18.334  -4.150   4.719  1.00  0.00     0.164 HD
HETATM    3  C6  UNL     1      19.032  -5.435   3.272  1.00  0.00     0.335 C 
HETATM    4  O5  UNL     1      19.818  -5.715   2.351  1.00  0.00    -0.246 OA
HETATM    5  N2  UNL     1      18.076  -6.483   3.581  1.00  0.00    -0.252 N 
ATOM      6  H2  UNL     1      17.403  -6.316   4.329  1.00  0.00     0.191 HD
ENDROOT
BRANCH   1   7
HETATM    7  C5  UNL     1      19.863  -3.097   3.816  1.00  0.00     0.218 C 
BRANCH   7   8
HETATM    8  C4  UNL     1      19.702  -2.285   2.570  1.00  0.00     0.263 C 
HETATM    9  O3  UNL     1      20.567  -1.165   2.755  1.00  0.00    -0.314 OA
HETATM   10  C3  UNL     1      20.153  -0.065   2.039  1.00  0.00     0.292 C 
HETATM   11  C16 UNL     1      20.631  -0.269   0.636  1.00  0.00     0.113 C 
HETATM   12  N11 UNL     1      20.186  -1.324  -0.207  1.00  0.00    -0.334 N 
HETATM   13  N12 UNL     1      21.498   0.536   0.137  1.00  0.00    -0.387 N 
HETATM   14  C15 UNL     1      19.472  -2.554   0.171  1.00  0.00     0.387 C 
ATOM     15  H11 UNL     1      20.388  -1.214  -1.201  1.00  0.00     0.164 HD
HETATM   16  N9  UNL     1      20.037  -3.001   1.407  1.00  0.00    -0.325 N 
ATOM     17  H9  UNL     1      20.659  -3.809   1.442  1.00  0.00     0.162 HD
ATOM     18 2H12 UNL     1      21.817   1.293   0.741  1.00  0.00     0.157 HD
ATOM     19 1H12 UNL     1      21.824   0.397  -0.819  1.00  0.00     0.157 HD
BRANCH  10  20
HETATM   20  C2  UNL     1      20.603   1.203   2.627  1.00  0.00     0.295 C 
HETATM   21  O2  UNL     1      21.001   1.189   3.820  1.00  0.00    -0.262 OA
BRANCH  20  22
HETATM   22  O1  UNL     1      20.620   2.413   1.958  1.00  0.00    -0.324 OA
HETATM   23  C1  UNL     1      19.506   3.311   2.076  1.00  0.00     0.213 C 
ENDBRANCH  20  22
ENDBRANCH  10  20
BRANCH  14  24
HETATM   24  N10 UNL     1      18.054  -2.376   0.190  1.00  0.00    -0.041 N 
ATOM     25 3H10 UNL     1      17.612  -3.118   0.733  1.00  0.00     0.279 HD
ATOM     26 2H10 UNL     1      17.807  -1.567   0.762  1.00  0.00     0.279 HD
ATOM     27 1H10 UNL     1      17.619  -2.305  -0.731  1.00  0.00     0.279 HD
ENDBRANCH  14  24
BRANCH   8  28
HETATM   28  O4  UNL     1      18.395  -1.792   2.580  1.00  0.00    -0.347 OA
ATOM     29  H4  UNL     1      17.826  -2.520   2.365  1.00  0.00     0.215 HD
ENDBRANCH   8  28
ENDBRANCH   7   8
ENDBRANCH   1   7
BRANCH   5  30
HETATM   30  N3  UNL     1      18.029  -7.685   2.923  1.00  0.00    -0.299 N 
HETATM   31  C7  UNL     1      17.336  -8.668   3.353  1.00  0.00     0.049 C 
HETATM   32  C8  UNL     1      16.563  -8.483   4.606  1.00  0.00     0.072 C 
ATOM     33  H3  UNL     1      18.565  -7.798   2.062  1.00  0.00     0.186 HD
BRANCH  31  34
HETATM   34  C9  UNL     1      17.327  -9.945   2.592  1.00  0.00     0.064 A 
HETATM   35  C10 UNL     1      16.506 -10.990   2.950  1.00  0.00     0.084 A 
HETATM   36  S1  UNL     1      16.897 -12.162   1.771  1.00  0.00    -0.062 SA
HETATM   37  C11 UNL     1      18.070 -11.262   0.902  1.00  0.00     0.170 A 
HETATM   38  N8  UNL     1      18.094 -10.127   1.559  1.00  0.00    -0.333 N 
ATOM     39  H8  UNL     1      18.720  -9.381   1.256  1.00  0.00     0.168 HD
BRANCH  37  40
HETATM   40  N4  UNL     1      18.839 -11.658  -0.263  1.00  0.00    -0.202 N 
HETATM   41  N5  UNL     1      18.752 -11.129  -1.469  1.00  0.00    -0.012 NA
HETATM   42  N6  UNL     1      19.595 -11.723  -2.303  1.00  0.00    -0.282 N 
HETATM   43  C12 UNL     1      20.271 -12.683  -1.634  1.00  0.00     0.090 A 
ATOM     44  H6  UNL     1      19.713 -11.492  -3.289  1.00  0.00     0.184 HD
HETATM   45  C14 UNL     1      19.774 -12.622  -0.344  1.00  0.00     0.164 A 
HETATM   46  N7  UNL     1      20.155 -13.424   0.751  1.00  0.00    -0.079 NA
BRANCH  43  47
HETATM   47  C13 UNL     1      21.322 -13.608  -2.165  1.00  0.00     0.226 C 
BRANCH  47  48
HETATM   48  O6  UNL     1      22.376 -13.620  -1.276  1.00  0.00    -0.395 OA
ATOM     49  H6  UNL     1      23.055 -14.183  -1.627  1.00  0.00     0.209 HD
ENDBRANCH  47  48
ENDBRANCH  43  47
ENDBRANCH  37  40
ENDBRANCH  31  34
ENDBRANCH   5  30
TORSDOF 11
ENDMDL
MODEL 2
REMARK VINA RESULT: -9.711056007      1.606      2.043
REMARK  11 active torsions:
REMARK  status: ('A' for Active; 'I' for Inactive)
REMARK    1  A    between atoms: O1_2  and  C2_3 
REMARK    2  A    between atoms: C2_3  and  C3_5 
REMARK    3  A    between atoms: C4_7  and  O4_8 
REMARK    4  A    between atoms: C4_7  and  C5_10 
REMARK    5  A    between atoms: C5_10  and  N1_11 
REMARK       I    between atoms: N1_11  and  C6_13 
REMARK       I    between atoms: C6_13  and  N2_15 
REMARK    6  A    between atoms: N2_15  and  N3_17 
REMARK    7  A    between atoms: C7_19  and  C9_21 
REMARK    8  A    between atoms: C11_24  and  N4_25 
REMARK    9  A    between atoms: C12_29  and  C13_30 
REMARK   10  A    between atoms: C13_30  and  O6_31 
REMARK   11  A    between atoms: C15_39  and  N10_40 
ROOT
HETATM    1  N1  UNL     1      19.192  -3.961   4.698  1.00  0.00    -0.335 N 
ATOM      2  H1  UNL     1      18.740  -3.679   5.567  1.00  0.00     0.164 HD
HETATM    3  C6  UNL     1      18.763  -5.186   4.168  1.00  0.00     0.335 C 
HETATM    4  O5  UNL     1      19.207  -5.699   3.127  1.00  0.00    -0.246 OA
HETATM    5  N2  UNL     1      17.732  -5.967   4.825  1.00  0.00    -0.252 N 
ATOM      6  H2  UNL     1      17.325  -5.601   5.686  1.00  0.00     0.191 HD
ENDROOT
BRANCH   1   7
HETATM    7  C5  UNL     1      20.158  -3.063   4.199  1.00  0.00     0.218 C 
BRANCH   7   8
HETATM    8  C4  UNL     1      19.872  -2.376   2.902  1.00  0.00     0.263 C 
HETATM    9  O3  UNL     1      20.679  -1.199   2.931  1.00  0.00    -0.314 OA
HETATM   10  C3  UNL     1      20.157  -0.191   2.153  1.00  0.00     0.292 C 
HETATM   11  C16 UNL     1      20.557  -0.494   0.744  1.00  0.00     0.113 C 
HETATM   12  N11 UNL     1      20.122  -1.642   0.027  1.00  0.00    -0.334 N 
HETATM   13  N12 UNL     1      21.341   0.309   0.120  1.00  0.00    -0.387 N 
HETATM   14  C15 UNL     1      19.507  -2.869   0.556  1.00  0.00     0.387 C 
ATOM     15  H11 UNL     1      20.254  -1.610  -0.984  1.00  0.00     0.164 HD
HETATM   16  N9  UNL     1      20.175  -3.174   1.784  1.00  0.00    -0.325 N 
ATOM     17  H9  UNL     1      20.844  -3.940   1.847  1.00  0.00     0.162 HD
ATOM     18 2H12 UNL     1      21.652   1.133   0.634  1.00  0.00     0.157 HD
ATOM     19 1H12 UNL     1      21.613   0.103  -0.841  1.00  0.00     0.157 HD
BRANCH  10  20
HETATM   20  C2  UNL     1      20.567   1.147   2.599  1.00  0.00     0.295 C 
HETATM   21  O2  UNL     1      20.951   1.278   3.789  1.00  0.00    -0.262 OA
BRANCH  20  22
HETATM   22  O1  UNL     1      20.560   2.274   1.799  1.00  0.00    -0.324 OA
HETATM   23  C1  UNL     1      19.752   3.404   2.160  1.00  0.00     0.213 C 
ENDBRANCH  20  22
ENDBRANCH  10  20
BRANCH  14  24
HETATM   24  N10 UNL     1      18.085  -2.766   0.656  1.00  0.00    -0.041 N 
ATOM     25 3H10 UNL     1      17.777  -1.839   0.365  1.00  0.00     0.279 HD
ATOM     26 2H10 UNL     1      17.638  -3.336  -0.063  1.00  0.00     0.279 HD
ATOM     27 1H10 UNL     1      17.703  -2.993   1.575  1.00  0.00     0.279 HD
ENDBRANCH  14  24
BRANCH   8  28
HETATM   28  O4  UNL     1      18.542  -1.954   2.959  1.00  0.00    -0.347 OA
ATOM     29  H4  UNL     1      18.142  -2.406   3.692  1.00  0.00     0.215 HD
ENDBRANCH   8  28
ENDBRANCH   7   8
ENDBRANCH   1   7
BRANCH   5  30
HETATM   30  N3  UNL     1      17.274  -7.170   4.353  1.00  0.00    -0.299 N 
HETATM   31  C7  UNL     1      16.363  -7.833   4.955  1.00  0.00     0.049 C 
HETATM   32  C8  UNL     1      15.795  -7.267   6.203  1.00  0.00     0.072 C 
ATOM     33  H3  UNL     1      17.674  -7.548   3.494  1.00  0.00     0.186 HD
BRANCH  31  34
HETATM   34  C9  UNL     1      15.911  -9.133   4.391  1.00  0.00     0.064 A 
HETATM   35  C10 UNL     1      14.732  -9.719   4.790  1.00  0.00     0.084 A 
HETATM   36  S1  UNL     1      14.713 -11.144   3.849  1.00  0.00    -0.062 SA
HETATM   37  C11 UNL     1      16.191 -10.911   3.012  1.00  0.00     0.170 A 
HETATM   38  N8  UNL     1      16.610  -9.767   3.497  1.00  0.00    -0.333 N 
ATOM     39  H8  UNL     1      17.491  -9.371   3.170  1.00  0.00     0.168 HD
BRANCH  37  40
HETATM   40  N4  UNL     1      16.818 -11.766   2.021  1.00  0.00    -0.202 N 
HETATM   41  N5  UNL     1      16.299 -12.861   1.498  1.00  0.00    -0.012 NA
HETATM   42  N6  UNL     1      17.134 -13.403   0.622  1.00  0.00    -0.282 N 
HETATM   43  C12 UNL     1      18.251 -12.646   0.553  1.00  0.00     0.090 A 
ATOM     44  H6  UNL     1      16.960 -14.253   0.086  1.00  0.00     0.184 HD
HETATM   45  C14 UNL     1      18.026 -11.616   1.449  1.00  0.00     0.164 A 
HETATM   46  N7  UNL     1      18.898 -10.549   1.752  1.00  0.00    -0.079 NA
BRANCH  43  47
HETATM   47  C13 UNL     1      19.463 -12.869  -0.298  1.00  0.00     0.226 C 
BRANCH  47  48
HETATM   48  O6  UNL     1      19.767 -11.684  -0.935  1.00  0.00    -0.395 OA
ATOM     49  H6  UNL     1      19.861 -11.860  -1.863  1.00  0.00     0.209 HD
ENDBRANCH  47  48
ENDBRANCH  43  47
ENDBRANCH  37  40
ENDBRANCH  31  34
ENDBRANCH   5  30
TORSDOF 11
ENDMDL
MODEL 3
REMARK VINA RESULT: -9.266241564      3.088      3.878
REMARK  11 active torsions:
REMARK  status: ('A' for Active; 'I' for Inactive)
REMARK    1  A    between atoms: O1_2  and  C2_3 
REMARK    2  A    between atoms: C2_3  and  C3_5 
REMARK    3  A    between atoms: C4_7  and  O4_8 
REMARK    4  A    between atoms: C4_7  and  C5_10 
REMARK    5  A    between atoms: C5_10  and  N1_11 
REMARK       I    between atoms: N1_11  and  C6_13 
REMARK       I    between atoms: C6_13  and  N2_15 
REMARK    6  A    between atoms: N2_15  and  N3_17 
REMARK    7  A    between atoms: C7_19  and  C9_21 
REMARK    8  A    between atoms: C11_24  and  N4_25 
REMARK    9  A    between atoms: C12_29  and  C13_30 
REMARK   10  A    between atoms: C13_30  and  O6_31 
REMARK   11  A    between atoms: C15_39  and  N10_40 
ROOT
HETATM    1  N1  UNL     1      19.371  -3.165   4.735  1.00  0.00    -0.335 N 
ATOM      2  H1  UNL     1      19.246  -2.592   5.569  1.00  0.00     0.164 HD
HETATM    3  C6  UNL     1      18.462  -4.222   4.589  1.00  0.00     0.335 C 
HETATM    4  O5  UNL     1      18.467  -5.033   3.647  1.00  0.00    -0.246 OA
HETATM    5  N2  UNL     1      17.413  -4.448   5.566  1.00  0.00    -0.252 N 
ATOM      6  H2  UNL     1      17.353  -3.817   6.365  1.00  0.00     0.191 HD
ENDROOT
BRANCH   1   7
HETATM    7  C5  UNL     1      20.434  -2.781   3.892  1.00  0.00     0.218 C 
BRANCH   7   8
HETATM    8  C4  UNL     1      20.098  -2.057   2.627  1.00  0.00     0.263 C 
HETATM    9  O3  UNL     1      20.835  -0.837   2.703  1.00  0.00    -0.314 OA
HETATM   10  C3  UNL     1      20.249   0.171   1.972  1.00  0.00     0.292 C 
HETATM   11  C16 UNL     1      20.655  -0.047   0.549  1.00  0.00     0.113 C 
HETATM   12  N11 UNL     1      20.283  -1.187  -0.215  1.00  0.00    -0.334 N 
HETATM   13  N12 UNL     1      21.386   0.826  -0.044  1.00  0.00    -0.387 N 
HETATM   14  C15 UNL     1      19.745  -2.470   0.263  1.00  0.00     0.387 C 
ATOM     15  H11 UNL     1      20.406  -1.104  -1.225  1.00  0.00     0.164 HD
HETATM   16  N9  UNL     1      20.439  -2.787   1.474  1.00  0.00    -0.325 N 
ATOM     17  H9  UNL     1      21.153  -3.515   1.500  1.00  0.00     0.162 HD
ATOM     18 2H12 UNL     1      21.653   1.644   0.504  1.00  0.00     0.157 HD
ATOM     19 1H12 UNL     1      21.663   0.678  -1.014  1.00  0.00     0.157 HD
BRANCH  10  20
HETATM   20  C2  UNL     1      20.584   1.510   2.473  1.00  0.00     0.295 C 
HETATM   21  O2  UNL     1      20.953   1.615   3.670  1.00  0.00    -0.262 OA
BRANCH  20  22
HETATM   22  O1  UNL     1      20.521   2.666   1.717  1.00  0.00    -0.324 OA
HETATM   23  C1  UNL     1      19.620   3.719   2.092  1.00  0.00     0.213 C 
ENDBRANCH  20  22
ENDBRANCH  10  20
BRANCH  14  24
HETATM   24  N10 UNL     1      18.320  -2.455   0.375  1.00  0.00    -0.041 N 
ATOM     25 3H10 UNL     1      17.962  -1.519   0.191  1.00  0.00     0.279 HD
ATOM     26 2H10 UNL     1      17.900  -2.963  -0.404  1.00  0.00     0.279 HD
ATOM     27 1H10 UNL     1      17.957  -2.805   1.262  1.00  0.00     0.279 HD
ENDBRANCH  14  24
BRANCH   8  28
HETATM   28  O4  UNL     1      18.746  -1.717   2.709  1.00  0.00    -0.347 OA
ATOM     29  H4  UNL     1      18.481  -1.434   1.842  1.00  0.00     0.215 HD
ENDBRANCH   8  28
ENDBRANCH   7   8
ENDBRANCH   1   7
BRANCH   5  30
HETATM   30  N3  UNL     1      16.497  -5.465   5.475  1.00  0.00    -0.299 N 
HETATM   31  C7  UNL     1      16.715  -6.621   5.973  1.00  0.00     0.049 C 
HETATM   32  C8  UNL     1      18.005  -6.851   6.668  1.00  0.00     0.072 C 
ATOM     33  H3  UNL     1      15.614  -5.293   4.994  1.00  0.00     0.186 HD
BRANCH  31  34
HETATM   34  C9  UNL     1      15.681  -7.681   5.840  1.00  0.00     0.064 A 
HETATM   35  C10 UNL     1      14.523  -7.653   6.582  1.00  0.00     0.084 A 
HETATM   36  S1  UNL     1      13.726  -9.064   6.042  1.00  0.00    -0.062 SA
HETATM   37  C11 UNL     1      14.902  -9.600   4.916  1.00  0.00     0.170 A 
HETATM   38  N8  UNL     1      15.828  -8.677   5.018  1.00  0.00    -0.333 N 
ATOM     39  H8  UNL     1      16.670  -8.739   4.446  1.00  0.00     0.168 HD
BRANCH  37  40
HETATM   40  N4  UNL     1      14.878 -10.777   4.067  1.00  0.00    -0.202 N 
HETATM   41  N5  UNL     1      13.881 -11.635   3.957  1.00  0.00    -0.012 NA
HETATM   42  N6  UNL     1      14.184 -12.597   3.096  1.00  0.00    -0.282 N 
HETATM   43  C12 UNL     1      15.427 -12.378   2.612  1.00  0.00     0.090 A 
ATOM     44  H6  UNL     1      13.577 -13.376   2.840  1.00  0.00     0.184 HD
HETATM   45  C14 UNL     1      15.844 -11.219   3.243  1.00  0.00     0.164 A 
HETATM   46  N7  UNL     1      17.082 -10.564   3.082  1.00  0.00    -0.079 NA
BRANCH  43  47
HETATM   47  C13 UNL     1      16.185 -13.200   1.617  1.00  0.00     0.226 C 
BRANCH  47  48
HETATM   48  O6  UNL     1      15.344 -14.182   1.137  1.00  0.00    -0.395 OA
ATOM     49  H6  UNL     1      15.772 -14.609   0.405  1.00  0.00     0.209 HD
ENDBRANCH  47  48
ENDBRANCH  43  47
ENDBRANCH  37  40
ENDBRANCH  31  34
ENDBRANCH   5  30
TORSDOF 11
ENDMDL
MODEL 4
REMARK VINA RESULT: -9.175529475      2.756      3.376
REMARK  11 active torsions:
REMARK  status: ('A' for Active; 'I' for Inactive)
REMARK    1  A    between atoms: O1_2  and  C2_3 
REMARK    2  A    between atoms: C2_3  and  C3_5 
REMARK    3  A    between atoms: C4_7  and  O4_8 
REMARK    4  A    between atoms: C4_7  and  C5_10 
REMARK    5  A    between atoms: C5_10  and  N1_11 
REMARK       I    between atoms: N1_11  and  C6_13 
REMARK       I    between atoms: C6_13  and  N2_15 
REMARK    6  A    between atoms: N2_15  and  N3_17 
REMARK    7  A    between atoms: C7_19  and  C9_21 
REMARK    8  A    between atoms: C11_24  and  N4_25 
REMARK    9  A    between atoms: C12_29  and  C13_30 
REMARK   10  A    between atoms: C13_30  and  O6_31 
REMARK   11  A    between atoms: C15_39  and  N10_40 
ROOT
HETATM    1  N1  UNL     1      18.894  -4.297   4.038  1.00  0.00    -0.335 N 
ATOM      2  H1  UNL     1      18.184  -4.237   4.767  1.00  0.00     0.164 HD
HETATM    3  C6  UNL     1      18.944  -5.515   3.345  1.00  0.00     0.335 C 
HETATM    4  O5  UNL     1      19.751  -5.778   2.438  1.00  0.00    -0.246 OA
HETATM    5  N2  UNL     1      18.022  -6.592   3.656  1.00  0.00    -0.252 N 
ATOM      6  H2  UNL     1      17.334  -6.440   4.393  1.00  0.00     0.191 HD
ENDROOT
BRANCH   1   7
HETATM    7  C5  UNL     1      19.686  -3.143   3.869  1.00  0.00     0.218 C 
BRANCH   7   8
HETATM    8  C4  UNL     1      19.581  -2.405   2.572  1.00  0.00     0.263 C 
HETATM    9  O3  UNL     1      20.260  -1.171   2.803  1.00  0.00    -0.314 OA
HETATM   10  C3  UNL     1      19.801  -0.164   1.985  1.00  0.00     0.292 C 
HETATM   11  C16 UNL     1      20.477  -0.350   0.664  1.00  0.00     0.113 C 
HETATM   12  N11 UNL     1      20.286  -1.485  -0.171  1.00  0.00    -0.334 N 
HETATM   13  N12 UNL     1      21.287   0.548   0.233  1.00  0.00    -0.387 N 
HETATM   14  C15 UNL     1      19.697  -2.787   0.180  1.00  0.00     0.387 C 
ATOM     15  H11 UNL     1      20.597  -1.383  -1.137  1.00  0.00     0.164 HD
HETATM   16  N9  UNL     1      20.153  -3.109   1.498  1.00  0.00    -0.325 N 
ATOM     17  H9  UNL     1      20.867  -3.822   1.651  1.00  0.00     0.162 HD
ATOM     18 2H12 UNL     1      21.424   1.363   0.831  1.00  0.00     0.157 HD
ATOM     19 1H12 UNL     1      21.748   0.422  -0.668  1.00  0.00     0.157 HD
BRANCH  10  20
HETATM   20  C2  UNL     1      20.002   1.174   2.557  1.00  0.00     0.295 C 
HETATM   21  O2  UNL     1      20.949   1.330   3.369  1.00  0.00    -0.262 OA
BRANCH  20  22
HETATM   22  O1  UNL     1      19.220   2.275   2.263  1.00  0.00    -0.324 OA
HETATM   23  C1  UNL     1      19.840   3.530   1.947  1.00  0.00     0.213 C 
ENDBRANCH  20  22
ENDBRANCH  10  20
BRANCH  14  24
HETATM   24  N10 UNL     1      18.277  -2.804   0.017  1.00  0.00    -0.041 N 
ATOM     25 3H10 UNL     1      17.820  -2.943   0.918  1.00  0.00     0.279 HD
ATOM     26 2H10 UNL     1      17.936  -1.870  -0.213  1.00  0.00     0.279 HD
ATOM     27 1H10 UNL     1      17.933  -3.483  -0.663  1.00  0.00     0.279 HD
ENDBRANCH  14  24
BRANCH   8  28
HETATM   28  O4  UNL     1      18.231  -2.095   2.397  1.00  0.00    -0.347 OA
ATOM     29  H4  UNL     1      17.822  -2.155   3.253  1.00  0.00     0.215 HD
ENDBRANCH   8  28
ENDBRANCH   7   8
ENDBRANCH   1   7
BRANCH   5  30
HETATM   30  N3  UNL     1      18.026  -7.803   3.013  1.00  0.00    -0.299 N 
HETATM   31  C7  UNL     1      17.314  -8.785   3.413  1.00  0.00     0.049 C 
HETATM   32  C8  UNL     1      16.463  -8.590   4.612  1.00  0.00     0.072 C 
ATOM     33  H3  UNL     1      18.615  -7.923   2.189  1.00  0.00     0.186 HD
BRANCH  31  34
HETATM   34  C9  UNL     1      17.362 -10.073   2.670  1.00  0.00     0.064 A 
HETATM   35  C10 UNL     1      18.313 -10.312   1.705  1.00  0.00     0.084 A 
HETATM   36  S1  UNL     1      17.911 -11.893   1.200  1.00  0.00    -0.062 SA
HETATM   37  C11 UNL     1      16.571 -12.154   2.237  1.00  0.00     0.170 A 
HETATM   38  N8  UNL     1      16.509 -11.026   2.903  1.00  0.00    -0.333 N 
ATOM     39  H8  UNL     1      15.786 -10.895   3.611  1.00  0.00     0.168 HD
BRANCH  37  40
HETATM   40  N4  UNL     1      15.722 -13.326   2.347  1.00  0.00    -0.202 N 
HETATM   41  N5  UNL     1      14.429 -13.376   2.088  1.00  0.00    -0.012 NA
HETATM   42  N6  UNL     1      13.958 -14.599   2.290  1.00  0.00    -0.282 N 
HETATM   43  C12 UNL     1      14.969 -15.397   2.699  1.00  0.00     0.090 A 
ATOM     44  H6  UNL     1      12.990 -14.890   2.157  1.00  0.00     0.184 HD
HETATM   45  C14 UNL     1      16.076 -14.566   2.727  1.00  0.00     0.164 A 
HETATM   46  N7  UNL     1      17.391 -14.918   3.092  1.00  0.00    -0.079 NA
BRANCH  43  47
HETATM   47  C13 UNL     1      14.911 -16.852   3.045  1.00  0.00     0.226 C 
BRANCH  47  48
HETATM   48  O6  UNL     1      15.684 -17.061   4.168  1.00  0.00    -0.395 OA
ATOM     49  H6  UNL     1      15.897 -17.985   4.215  1.00  0.00     0.209 HD
ENDBRANCH  47  48
ENDBRANCH  43  47
ENDBRANCH  37  40
ENDBRANCH  31  34
ENDBRANCH   5  30
TORSDOF 11
ENDMDL
MODEL 5
REMARK VINA RESULT: -8.972335016      2.815      3.408
REMARK  11 active torsions:
REMARK  status: ('A' for Active; 'I' for Inactive)
REMARK    1  A    between atoms: O1_2  and  C2_3 
REMARK    2  A    between atoms: C2_3  and  C3_5 
REMARK    3  A    between atoms: C4_7  and  O4_8 
REMARK    4  A    between atoms: C4_7  and  C5_10 
REMARK    5  A    between atoms: C5_10  and  N1_11 
REMARK       I    between atoms: N1_11  and  C6_13 
REMARK       I    between atoms: C6_13  and  N2_15 
REMARK    6  A    between atoms: N2_15  and  N3_17 
REMARK    7  A    between atoms: C7_19  and  C9_21 
REMARK    8  A    between atoms: C11_24  and  N4_25 
REMARK    9  A    between atoms: C12_29  and  C13_30 
REMARK   10  A    between atoms: C13_30  and  O6_31 
REMARK   11  A    between atoms: C15_39  and  N10_40 
ROOT
HETATM    1  N1  UNL     1      18.393  -4.695   4.291  1.00  0.00    -0.335 N 
ATOM      2  H1  UNL     1      17.506  -4.744   4.792  1.00  0.00     0.164 HD
HETATM    3  C6  UNL     1      18.753  -5.854   3.590  1.00  0.00     0.335 C 
HETATM    4  O5  UNL     1      19.801  -5.987   2.936  1.00  0.00    -0.246 OA
HETATM    5  N2  UNL     1      17.892  -7.022   3.581  1.00  0.00    -0.252 N 
ATOM      6  H2  UNL     1      17.014  -6.978   4.100  1.00  0.00     0.191 HD
ENDROOT
BRANCH   1   7
HETATM    7  C5  UNL     1      19.083  -3.470   4.403  1.00  0.00     0.218 C 
BRANCH   7   8
HETATM    8  C4  UNL     1      19.198  -2.618   3.179  1.00  0.00     0.263 C 
HETATM    9  O3  UNL     1      19.756  -1.390   3.645  1.00  0.00    -0.314 OA
HETATM   10  C3  UNL     1      19.416  -0.326   2.841  1.00  0.00     0.292 C 
HETATM   11  C16 UNL     1      20.348  -0.365   1.672  1.00  0.00     0.113 C 
HETATM   12  N11 UNL     1      20.381  -1.423   0.721  1.00  0.00    -0.334 N 
HETATM   13  N12 UNL     1      21.180   0.595   1.490  1.00  0.00    -0.387 N 
HETATM   14  C15 UNL     1      19.801  -2.770   0.835  1.00  0.00     0.387 C 
ATOM     15  H11 UNL     1      20.871  -1.221  -0.151  1.00  0.00     0.164 HD
HETATM   16  N9  UNL     1      20.005  -3.199   2.184  1.00  0.00    -0.325 N 
ATOM     17  H9  UNL     1      20.709  -3.900   2.416  1.00  0.00     0.162 HD
ATOM     18 2H12 UNL     1      21.156   1.353   2.171  1.00  0.00     0.157 HD
ATOM     19 1H12 UNL     1      21.815   0.568   0.692  1.00  0.00     0.157 HD
BRANCH  10  20
HETATM   20  C2  UNL     1      19.434   0.958   3.554  1.00  0.00     0.295 C 
HETATM   21  O2  UNL     1      19.726   0.948   4.777  1.00  0.00    -0.262 OA
BRANCH  20  22
HETATM   22  O1  UNL     1      19.150   2.179   2.972  1.00  0.00    -0.324 OA
HETATM   23  C1  UNL     1      17.874   2.397   2.350  1.00  0.00     0.213 C 
ENDBRANCH  20  22
ENDBRANCH  10  20
BRANCH  14  24
HETATM   24  N10 UNL     1      18.443  -2.817   0.390  1.00  0.00    -0.041 N 
ATOM     25 3H10 UNL     1      18.315  -3.584  -0.271  1.00  0.00     0.279 HD
ATOM     26 2H10 UNL     1      17.834  -3.132   1.146  1.00  0.00     0.279 HD
ATOM     27 1H10 UNL     1      18.093  -1.945  -0.008  1.00  0.00     0.279 HD
ENDBRANCH  14  24
BRANCH   8  28
HETATM   28  O4  UNL     1      17.894  -2.336   2.764  1.00  0.00    -0.347 OA
ATOM     29  H4  UNL     1      17.381  -2.193   3.550  1.00  0.00     0.215 HD
ENDBRANCH   8  28
ENDBRANCH   7   8
ENDBRANCH   1   7
BRANCH   5  30
HETATM   30  N3  UNL     1      18.192  -8.182   2.914  1.00  0.00    -0.299 N 
HETATM   31  C7  UNL     1      17.427  -9.204   2.952  1.00  0.00     0.049 C 
HETATM   32  C8  UNL     1      16.179  -9.115   3.748  1.00  0.00     0.072 C 
ATOM     33  H3  UNL     1      19.053  -8.229   2.370  1.00  0.00     0.186 HD
BRANCH  31  34
HETATM   34  C9  UNL     1      17.811 -10.432   2.206  1.00  0.00     0.064 A 
HETATM   35  C10 UNL     1      18.898 -10.452   1.364  1.00  0.00     0.084 A 
HETATM   36  S1  UNL     1      18.870 -12.061   0.793  1.00  0.00    -0.062 SA
HETATM   37  C11 UNL     1      17.490 -12.607   1.651  1.00  0.00     0.170 A 
HETATM   38  N8  UNL     1      17.134 -11.536   2.318  1.00  0.00    -0.333 N 
ATOM     39  H8  UNL     1      16.320 -11.570   2.931  1.00  0.00     0.168 HD
BRANCH  37  40
HETATM   40  N4  UNL     1      16.874 -13.921   1.639  1.00  0.00    -0.202 N 
HETATM   41  N5  UNL     1      17.485 -15.064   1.385  1.00  0.00    -0.012 NA
HETATM   42  N6  UNL     1      16.632 -16.077   1.456  1.00  0.00    -0.282 N 
HETATM   43  C12 UNL     1      15.407 -15.598   1.769  1.00  0.00     0.090 A 
ATOM     44  H6  UNL     1      16.863 -17.058   1.301  1.00  0.00     0.184 HD
HETATM   45  C14 UNL     1      15.588 -14.230   1.879  1.00  0.00     0.164 A 
HETATM   46  N7  UNL     1      14.606 -13.268   2.191  1.00  0.00    -0.079 NA
BRANCH  43  47
HETATM   47  C13 UNL     1      14.138 -16.370   1.955  1.00  0.00     0.226 C 
BRANCH  47  48
HETATM   48  O6  UNL     1      13.672 -16.134   3.231  1.00  0.00    -0.395 OA
ATOM     49  H6  UNL     1      12.729 -16.027   3.189  1.00  0.00     0.209 HD
ENDBRANCH  47  48
ENDBRANCH  43  47
ENDBRANCH  37  40
ENDBRANCH  31  34
ENDBRANCH   5  30
TORSDOF 11
ENDMDL
