MODEL 1
REMARK VINA RESULT: -8.045790014      0.000      0.000
REMARK  11 active torsions:
REMARK  status: ('A' for Active; 'I' for Inactive)
REMARK    1  A    between atoms: C2_2  and  C3_4 
REMARK    2  A    between atoms: C3_4  and  O2_5 
REMARK    3  A    between atoms: O2_5  and  C4_6 
REMARK    4  A    between atoms: C12_16  and  C13_17 
REMARK    5  A    between atoms: C13_17  and  C15_19 
REMARK    6  A    between atoms: C15_19  and  C16_20 
REMARK    7  A    between atoms: C16_20  and  C17_21 
REMARK    8  A    between atoms: C17_21  and  S1_22 
REMARK    9  A    between atoms: S1_22  and  N2_25 
REMARK   10  A    between atoms: N2_25  and  O6_27 
REMARK   11  A    between atoms: C19_30  and  O7_31 
ROOT
HETATM    1  C3  UNL     1      62.521  78.166  83.766  1.00  0.00     0.139 C 
HETATM    2  C5  UNL     1      61.372  77.273  83.451  1.00  0.00     0.048 C 
HETATM    3  C6  UNL     1      60.392  78.293  82.902  1.00  0.00     0.009 C 
HETATM    4  C7  UNL     1      61.193  79.276  82.080  1.00  0.00     0.002 C 
HETATM    5  C8  UNL     1      60.925  79.249  80.641  1.00  0.00    -0.005 C 
HETATM    6  C9  UNL     1      59.586  78.557  80.323  1.00  0.00     0.006 C 
HETATM    7  C10 UNL     1      59.168  78.874  78.882  1.00  0.00     0.006 C 
HETATM    8  C11 UNL     1      60.276  78.672  77.921  1.00  0.00    -0.003 C 
HETATM    9  C12 UNL     1      59.949  77.650  76.813  1.00  0.00    -0.004 C 
HETATM   10  C18 UNL     1      61.412  77.499  76.297  1.00  0.00     0.037 C 
HETATM   11  C19 UNL     1      62.292  77.576  77.507  1.00  0.00     0.123 C 
HETATM   12  C20 UNL     1      61.354  77.844  78.634  1.00  0.00     0.023 C 
HETATM   13  C21 UNL     1      61.953  78.693  79.728  1.00  0.00    -0.003 C 
HETATM   14  C22 UNL     1      63.004  77.856  80.393  1.00  0.00     0.006 C 
HETATM   15  C23 UNL     1      63.564  78.691  81.511  1.00  0.00     0.013 C 
HETATM   16  C24 UNL     1      62.608  79.091  82.546  1.00  0.00    -0.001 C 
HETATM   17  C25 UNL     1      63.182  80.408  83.124  1.00  0.00     0.019 C 
ENDROOT
BRANCH   9  18
HETATM   18  C13 UNL     1      59.084  78.202  75.784  1.00  0.00    -0.014 C 
HETATM   19  C14 UNL     1      59.802  78.574  74.490  1.00  0.00     0.010 C 
BRANCH  18  20
HETATM   20  C15 UNL     1      57.781  77.592  75.502  1.00  0.00     0.005 C 
BRANCH  20  21
HETATM   21  C16 UNL     1      56.654  78.419  75.063  1.00  0.00     0.017 C 
BRANCH  21  22
HETATM   22  C17 UNL     1      56.081  78.400  73.720  1.00  0.00     0.165 C 
BRANCH  22  23
HETATM   23  S1  UNL     1      56.428  79.828  72.760  1.00  0.00     0.248 S 
HETATM   24  O4  UNL     1      55.257  80.384  72.079  1.00  0.00    -0.204 OA
HETATM   25  O5  UNL     1      57.213  80.939  73.773  1.00  0.00    -0.204 OA
BRANCH  23  26
HETATM   26  N2  UNL     1      57.501  79.455  71.649  1.00  0.00    -0.194 N 
ATOM     27  H2  UNL     1      58.400  79.062  71.929  1.00  0.00     0.207 HD
BRANCH  26  28
HETATM   28  O6  UNL     1      57.230  79.656  70.308  1.00  0.00    -0.280 OA
ATOM     29  H6  UNL     1      57.935  79.774  69.683  1.00  0.00     0.245 HD
ENDBRANCH  26  28
ENDBRANCH  23  26
ENDBRANCH  22  23
ENDBRANCH  21  22
ENDBRANCH  20  21
ENDBRANCH  18  20
ENDBRANCH   9  18
BRANCH  11  30
HETATM   30  O7  UNL     1      62.880  76.300  77.660  1.00  0.00    -0.395 OA
ATOM     31  H7  UNL     1      62.177  75.666  77.584  1.00  0.00     0.210 HD
ENDBRANCH  11  30
BRANCH   1  32
HETATM   32  C2  UNL     1      63.756  77.523  84.165  1.00  0.00     0.159 C 
HETATM   33  C1  UNL     1      65.144  78.009  84.032  1.00  0.00     0.094 C 
HETATM   34  O1  UNL     1      63.669  76.393  84.696  1.00  0.00    -0.295 OA
ENDBRANCH   1  32
BRANCH   1  35
HETATM   35  O2  UNL     1      62.061  79.055  84.824  1.00  0.00    -0.286 OA
BRANCH  35  36
HETATM   36  C4  UNL     1      62.194  78.812  86.150  1.00  0.00     0.373 C 
HETATM   37  N1  UNL     1      63.230  79.469  86.883  1.00  0.00    -0.032 NA
HETATM   38  O3  UNL     1      61.409  78.013  86.722  1.00  0.00    -0.242 OA
ENDBRANCH  35  36
ENDBRANCH   1  35
TORSDOF 11
ENDMDL
MODEL 2
REMARK VINA RESULT: -7.992205928      4.414      5.424
REMARK  11 active torsions:
REMARK  status: ('A' for Active; 'I' for Inactive)
REMARK    1  A    between atoms: C2_2  and  C3_4 
REMARK    2  A    between atoms: C3_4  and  O2_5 
REMARK    3  A    between atoms: O2_5  and  C4_6 
REMARK    4  A    between atoms: C12_16  and  C13_17 
REMARK    5  A    between atoms: C13_17  and  C15_19 
REMARK    6  A    between atoms: C15_19  and  C16_20 
REMARK    7  A    between atoms: C16_20  and  C17_21 
REMARK    8  A    between atoms: C17_21  and  S1_22 
REMARK    9  A    between atoms: S1_22  and  N2_25 
REMARK   10  A    between atoms: N2_25  and  O6_27 
REMARK   11  A    between atoms: C19_30  and  O7_31 
ROOT
HETATM    1  C3  UNL     1      65.223  80.056  84.219  1.00  0.00     0.139 C 
HETATM    2  C5  UNL     1      64.925  78.598  84.189  1.00  0.00     0.048 C 
HETATM    3  C6  UNL     1      63.483  78.636  83.715  1.00  0.00     0.009 C 
HETATM    4  C7  UNL     1      63.389  79.733  82.680  1.00  0.00     0.002 C 
HETATM    5  C8  UNL     1      63.113  79.279  81.315  1.00  0.00    -0.005 C 
HETATM    6  C9  UNL     1      62.539  77.850  81.294  1.00  0.00     0.006 C 
HETATM    7  C10 UNL     1      61.925  77.558  79.920  1.00  0.00     0.006 C 
HETATM    8  C11 UNL     1      62.830  77.937  78.811  1.00  0.00    -0.003 C 
HETATM    9  C12 UNL     1      63.183  76.761  77.879  1.00  0.00    -0.004 C 
HETATM   10  C18 UNL     1      64.350  77.486  77.141  1.00  0.00     0.037 C 
HETATM   11  C19 UNL     1      65.039  78.325  78.174  1.00  0.00     0.123 C 
HETATM   12  C20 UNL     1      64.229  78.134  79.410  1.00  0.00     0.023 C 
HETATM   13  C21 UNL     1      64.192  79.351  80.301  1.00  0.00    -0.003 C 
HETATM   14  C22 UNL     1      65.575  79.515  80.859  1.00  0.00     0.006 C 
HETATM   15  C23 UNL     1      65.519  80.702  81.781  1.00  0.00     0.013 C 
HETATM   16  C24 UNL     1      64.604  80.581  82.918  1.00  0.00    -0.001 C 
HETATM   17  C25 UNL     1      64.209  82.038  83.261  1.00  0.00     0.019 C 
ENDROOT
BRANCH   9  18
HETATM   18  C13 UNL     1      62.104  76.435  76.960  1.00  0.00    -0.014 C 
HETATM   19  C14 UNL     1      61.477  77.643  76.271  1.00  0.00     0.010 C 
BRANCH  18  20
HETATM   20  C15 UNL     1      62.236  75.311  76.029  1.00  0.00     0.005 C 
BRANCH  20  21
HETATM   21  C16 UNL     1      63.405  74.431  76.087  1.00  0.00     0.017 C 
BRANCH  21  22
HETATM   22  C17 UNL     1      64.554  74.512  75.189  1.00  0.00     0.165 C 
BRANCH  22  23
HETATM   23  S1  UNL     1      64.457  73.464  73.784  1.00  0.00     0.248 S 
HETATM   24  O4  UNL     1      64.998  72.122  74.007  1.00  0.00    -0.204 OA
HETATM   25  O5  UNL     1      62.843  73.467  73.263  1.00  0.00    -0.204 OA
BRANCH  23  26
HETATM   26  N2  UNL     1      65.275  74.123  72.592  1.00  0.00    -0.194 N 
ATOM     27  H2  UNL     1      64.951  74.999  72.182  1.00  0.00     0.207 HD
BRANCH  26  28
HETATM   28  O6  UNL     1      66.421  73.523  72.105  1.00  0.00    -0.280 OA
ATOM     29  H6  UNL     1      66.819  73.821  71.295  1.00  0.00     0.245 HD
ENDBRANCH  26  28
ENDBRANCH  23  26
ENDBRANCH  22  23
ENDBRANCH  21  22
ENDBRANCH  20  21
ENDBRANCH  18  20
ENDBRANCH   9  18
BRANCH  11  30
HETATM   30  O7  UNL     1      66.327  77.773  78.349  1.00  0.00    -0.395 OA
ATOM     31  H7  UNL     1      66.830  78.007  77.577  1.00  0.00     0.210 HD
ENDBRANCH  11  30
BRANCH   1  32
HETATM   32  C2  UNL     1      66.600  80.435  84.465  1.00  0.00     0.159 C 
HETATM   33  C1  UNL     1      67.153  81.758  84.815  1.00  0.00     0.094 C 
HETATM   34  O1  UNL     1      67.467  79.537  84.371  1.00  0.00    -0.295 OA
ENDBRANCH   1  32
BRANCH   1  35
HETATM   35  O2  UNL     1      64.361  80.622  85.248  1.00  0.00    -0.286 OA
BRANCH  35  36
HETATM   36  C4  UNL     1      64.274  80.163  86.520  1.00  0.00     0.373 C 
HETATM   37  N1  UNL     1      63.006  79.743  87.027  1.00  0.00    -0.032 NA
HETATM   38  O3  UNL     1      65.303  80.111  87.239  1.00  0.00    -0.242 OA
ENDBRANCH  35  36
ENDBRANCH   1  35
TORSDOF 11
ENDMDL
MODEL 3
REMARK VINA RESULT: -7.975638130      2.521      3.385
REMARK  11 active torsions:
REMARK  status: ('A' for Active; 'I' for Inactive)
REMARK    1  A    between atoms: C2_2  and  C3_4 
REMARK    2  A    between atoms: C3_4  and  O2_5 
REMARK    3  A    between atoms: O2_5  and  C4_6 
REMARK    4  A    between atoms: C12_16  and  C13_17 
REMARK    5  A    between atoms: C13_17  and  C15_19 
REMARK    6  A    between atoms: C15_19  and  C16_20 
REMARK    7  A    between atoms: C16_20  and  C17_21 
REMARK    8  A    between atoms: C17_21  and  S1_22 
REMARK    9  A    between atoms: S1_22  and  N2_25 
REMARK   10  A    between atoms: N2_25  and  O6_27 
REMARK   11  A    between atoms: C19_30  and  O7_31 
ROOT
HETATM    1  C3  UNL     1      65.990  79.588  83.918  1.00  0.00     0.139 C 
HETATM    2  C5  UNL     1      65.579  78.165  83.767  1.00  0.00     0.048 C 
HETATM    3  C6  UNL     1      64.076  78.339  83.644  1.00  0.00     0.009 C 
HETATM    4  C7  UNL     1      63.844  79.576  82.808  1.00  0.00     0.002 C 
HETATM    5  C8  UNL     1      63.241  79.338  81.496  1.00  0.00    -0.005 C 
HETATM    6  C9  UNL     1      62.566  77.955  81.421  1.00  0.00     0.006 C 
HETATM    7  C10 UNL     1      61.644  77.893  80.197  1.00  0.00     0.006 C 
HETATM    8  C11 UNL     1      62.311  78.385  78.969  1.00  0.00    -0.003 C 
HETATM    9  C12 UNL     1      62.358  77.340  77.836  1.00  0.00    -0.004 C 
HETATM   10  C18 UNL     1      63.388  78.108  76.953  1.00  0.00     0.037 C 
HETATM   11  C19 UNL     1      64.350  78.757  77.901  1.00  0.00     0.123 C 
HETATM   12  C20 UNL     1      63.819  78.428  79.254  1.00  0.00     0.023 C 
HETATM   13  C21 UNL     1      64.074  79.504  80.280  1.00  0.00    -0.003 C 
HETATM   14  C22 UNL     1      65.553  79.521  80.525  1.00  0.00     0.006 C 
HETATM   15  C23 UNL     1      65.795  80.563  81.581  1.00  0.00     0.013 C 
HETATM   16  C24 UNL     1      65.144  80.323  82.871  1.00  0.00    -0.001 C 
HETATM   17  C25 UNL     1      64.949  81.733  83.482  1.00  0.00     0.019 C 
ENDROOT
BRANCH   9  18
HETATM   18  C13 UNL     1      61.082  77.201  77.154  1.00  0.00    -0.014 C 
HETATM   19  C14 UNL     1      59.924  77.931  77.829  1.00  0.00     0.010 C 
BRANCH  18  20
HETATM   20  C15 UNL     1      61.002  77.327  75.696  1.00  0.00     0.005 C 
BRANCH  20  21
HETATM   21  C16 UNL     1      60.025  78.230  75.081  1.00  0.00     0.017 C 
BRANCH  21  22
HETATM   22  C17 UNL     1      59.311  77.962  73.836  1.00  0.00     0.165 C 
BRANCH  22  23
HETATM   23  S1  UNL     1      57.578  77.753  74.020  1.00  0.00     0.248 S 
HETATM   24  O4  UNL     1      57.161  77.436  75.387  1.00  0.00    -0.204 OA
HETATM   25  O5  UNL     1      56.832  79.139  73.389  1.00  0.00    -0.204 OA
BRANCH  23  26
HETATM   26  N2  UNL     1      57.099  76.564  73.082  1.00  0.00    -0.194 N 
ATOM     27  H2  UNL     1      56.264  76.681  72.507  1.00  0.00     0.207 HD
BRANCH  26  28
HETATM   28  O6  UNL     1      57.801  75.374  73.034  1.00  0.00    -0.280 OA
ATOM     29  H6  UNL     1      57.778  74.828  72.257  1.00  0.00     0.245 HD
ENDBRANCH  26  28
ENDBRANCH  23  26
ENDBRANCH  22  23
ENDBRANCH  21  22
ENDBRANCH  20  21
ENDBRANCH  18  20
ENDBRANCH   9  18
BRANCH  11  30
HETATM   30  O7  UNL     1      65.599  78.124  77.704  1.00  0.00    -0.395 OA
ATOM     31  H7  UNL     1      65.442  77.391  77.121  1.00  0.00     0.210 HD
ENDBRANCH  11  30
BRANCH   1  32
HETATM   32  C2  UNL     1      67.413  79.861  83.891  1.00  0.00     0.159 C 
HETATM   33  C1  UNL     1      68.133  81.088  84.288  1.00  0.00     0.094 C 
HETATM   34  O1  UNL     1      68.164  78.952  83.472  1.00  0.00    -0.295 OA
ENDBRANCH   1  32
BRANCH   1  35
HETATM   35  O2  UNL     1      65.422  80.039  85.180  1.00  0.00    -0.286 OA
BRANCH  35  36
HETATM   36  C4  UNL     1      65.621  79.435  86.376  1.00  0.00     0.373 C 
HETATM   37  N1  UNL     1      64.510  78.850  87.059  1.00  0.00    -0.032 NA
HETATM   38  O3  UNL     1      66.775  79.393  86.873  1.00  0.00    -0.242 OA
ENDBRANCH  35  36
ENDBRANCH   1  35
TORSDOF 11
ENDMDL
MODEL 4
REMARK VINA RESULT: -7.881951148      2.296      3.632
REMARK  11 active torsions:
REMARK  status: ('A' for Active; 'I' for Inactive)
REMARK    1  A    between atoms: C2_2  and  C3_4 
REMARK    2  A    between atoms: C3_4  and  O2_5 
REMARK    3  A    between atoms: O2_5  and  C4_6 
REMARK    4  A    between atoms: C12_16  and  C13_17 
REMARK    5  A    between atoms: C13_17  and  C15_19 
REMARK    6  A    between atoms: C15_19  and  C16_20 
REMARK    7  A    between atoms: C16_20  and  C17_21 
REMARK    8  A    between atoms: C17_21  and  S1_22 
REMARK    9  A    between atoms: S1_22  and  N2_25 
REMARK   10  A    between atoms: N2_25  and  O6_27 
REMARK   11  A    between atoms: C19_30  and  O7_31 
ROOT
HETATM    1  C3  UNL     1      64.265  79.606  84.736  1.00  0.00     0.139 C 
HETATM    2  C5  UNL     1      64.406  80.590  83.628  1.00  0.00     0.048 C 
HETATM    3  C6  UNL     1      65.102  79.722  82.595  1.00  0.00     0.009 C 
HETATM    4  C7  UNL     1      64.481  78.347  82.685  1.00  0.00     0.002 C 
HETATM    5  C8  UNL     1      63.705  77.936  81.514  1.00  0.00    -0.005 C 
HETATM    6  C9  UNL     1      64.050  78.785  80.275  1.00  0.00     0.006 C 
HETATM    7  C10 UNL     1      63.514  78.100  79.012  1.00  0.00     0.006 C 
HETATM    8  C11 UNL     1      62.104  77.671  79.164  1.00  0.00    -0.003 C 
HETATM    9  C12 UNL     1      61.159  78.289  78.115  1.00  0.00    -0.004 C 
HETATM   10  C18 UNL     1      59.835  77.881  78.832  1.00  0.00     0.037 C 
HETATM   11  C19 UNL     1      60.098  78.013  80.301  1.00  0.00     0.123 C 
HETATM   12  C20 UNL     1      61.535  78.398  80.390  1.00  0.00     0.023 C 
HETATM   13  C21 UNL     1      62.228  77.864  81.619  1.00  0.00    -0.003 C 
HETATM   14  C22 UNL     1      61.640  78.590  82.792  1.00  0.00     0.006 C 
HETATM   15  C23 UNL     1      62.366  78.085  84.007  1.00  0.00     0.013 C 
HETATM   16  C24 UNL     1      63.811  78.324  84.028  1.00  0.00    -0.001 C 
HETATM   17  C25 UNL     1      64.384  77.192  84.917  1.00  0.00     0.019 C 
ENDROOT
BRANCH   9  18
HETATM   18  C13 UNL     1      61.271  77.648  76.816  1.00  0.00    -0.014 C 
HETATM   19  C14 UNL     1      61.967  76.289  76.843  1.00  0.00     0.010 C 
BRANCH  18  20
HETATM   20  C15 UNL     1      60.134  77.636  75.891  1.00  0.00     0.005 C 
BRANCH  20  21
HETATM   21  C16 UNL     1      60.124  78.510  74.716  1.00  0.00     0.017 C 
BRANCH  21  22
HETATM   22  C17 UNL     1      58.934  79.158  74.170  1.00  0.00     0.165 C 
BRANCH  22  23
HETATM   23  S1  UNL     1      57.678  78.051  73.644  1.00  0.00     0.248 S 
HETATM   24  O4  UNL     1      56.783  77.616  74.717  1.00  0.00    -0.204 OA
HETATM   25  O5  UNL     1      56.872  78.783  72.344  1.00  0.00    -0.204 OA
BRANCH  23  26
HETATM   26  N2  UNL     1      58.358  76.754  73.028  1.00  0.00    -0.194 N 
ATOM     27  H2  UNL     1      59.319  76.802  72.688  1.00  0.00     0.207 HD
BRANCH  26  28
HETATM   28  O6  UNL     1      57.664  75.561  72.947  1.00  0.00    -0.280 OA
ATOM     29  H6  UNL     1      58.022  74.822  72.470  1.00  0.00     0.245 HD
ENDBRANCH  26  28
ENDBRANCH  23  26
ENDBRANCH  22  23
ENDBRANCH  21  22
ENDBRANCH  20  21
ENDBRANCH  18  20
ENDBRANCH   9  18
BRANCH  11  30
HETATM   30  O7  UNL     1      59.284  79.072  80.762  1.00  0.00    -0.395 OA
ATOM     31  H7  UNL     1      59.707  79.878  80.489  1.00  0.00     0.210 HD
ENDBRANCH  11  30
BRANCH   1  32
HETATM   32  C2  UNL     1      63.471  80.018  85.876  1.00  0.00     0.159 C 
HETATM   33  C1  UNL     1      63.192  79.289  87.129  1.00  0.00     0.094 C 
HETATM   34  O1  UNL     1      62.926  81.143  85.818  1.00  0.00    -0.295 OA
ENDBRANCH   1  32
BRANCH   1  35
HETATM   35  O2  UNL     1      65.620  79.287  85.166  1.00  0.00    -0.286 OA
BRANCH  35  36
HETATM   36  C4  UNL     1      66.376  80.064  85.978  1.00  0.00     0.373 C 
HETATM   37  N1  UNL     1      66.745  79.577  87.269  1.00  0.00    -0.032 NA
HETATM   38  O3  UNL     1      66.744  81.203  85.591  1.00  0.00    -0.242 OA
ENDBRANCH  35  36
ENDBRANCH   1  35
TORSDOF 11
ENDMDL
MODEL 5
REMARK VINA RESULT: -7.803719912      4.585      5.916
REMARK  11 active torsions:
REMARK  status: ('A' for Active; 'I' for Inactive)
REMARK    1  A    between atoms: C2_2  and  C3_4 
REMARK    2  A    between atoms: C3_4  and  O2_5 
REMARK    3  A    between atoms: O2_5  and  C4_6 
REMARK    4  A    between atoms: C12_16  and  C13_17 
REMARK    5  A    between atoms: C13_17  and  C15_19 
REMARK    6  A    between atoms: C15_19  and  C16_20 
REMARK    7  A    between atoms: C16_20  and  C17_21 
REMARK    8  A    between atoms: C17_21  and  S1_22 
REMARK    9  A    between atoms: S1_22  and  N2_25 
REMARK   10  A    between atoms: N2_25  and  O6_27 
REMARK   11  A    between atoms: C19_30  and  O7_31 
ROOT
HETATM    1  C3  UNL     1      61.849  78.713  81.083  1.00  0.00     0.139 C 
HETATM    2  C5  UNL     1      61.192  77.399  80.841  1.00  0.00     0.048 C 
HETATM    3  C6  UNL     1      60.748  77.591  79.402  1.00  0.00     0.009 C 
HETATM    4  C7  UNL     1      61.855  78.339  78.696  1.00  0.00     0.002 C 
HETATM    5  C8  UNL     1      62.562  77.578  77.664  1.00  0.00    -0.005 C 
HETATM    6  C9  UNL     1      61.752  76.350  77.207  1.00  0.00     0.006 C 
HETATM    7  C10 UNL     1      62.332  75.805  75.895  1.00  0.00     0.006 C 
HETATM    8  C11 UNL     1      63.805  75.658  75.954  1.00  0.00    -0.003 C 
HETATM    9  C12 UNL     1      64.288  74.217  75.692  1.00  0.00    -0.004 C 
HETATM   10  C18 UNL     1      65.751  74.448  76.179  1.00  0.00     0.037 C 
HETATM   11  C19 UNL     1      65.661  75.391  77.339  1.00  0.00     0.123 C 
HETATM   12  C20 UNL     1      64.213  75.732  77.432  1.00  0.00     0.023 C 
HETATM   13  C21 UNL     1      63.953  77.135  77.922  1.00  0.00    -0.003 C 
HETATM   14  C22 UNL     1      64.371  77.169  79.362  1.00  0.00     0.006 C 
HETATM   15  C23 UNL     1      64.068  78.556  79.856  1.00  0.00     0.013 C 
HETATM   16  C24 UNL     1      62.659  78.955  79.804  1.00  0.00    -0.001 C 
HETATM   17  C25 UNL     1      62.692  80.498  79.677  1.00  0.00     0.019 C 
ENDROOT
BRANCH   9  18
HETATM   18  C13 UNL     1      64.253  73.866  74.282  1.00  0.00    -0.014 C 
HETATM   19  C14 UNL     1      65.128  72.673  73.908  1.00  0.00     0.010 C 
BRANCH  18  20
HETATM   20  C15 UNL     1      62.981  73.830  73.555  1.00  0.00     0.005 C 
BRANCH  20  21
HETATM   21  C16 UNL     1      62.954  73.971  72.097  1.00  0.00     0.017 C 
BRANCH  21  22
HETATM   22  C17 UNL     1      63.150  75.228  71.378  1.00  0.00     0.165 C 
BRANCH  22  23
HETATM   23  S1  UNL     1      64.643  75.317  70.461  1.00  0.00     0.248 S 
HETATM   24  O4  UNL     1      64.512  74.878  69.070  1.00  0.00    -0.204 OA
HETATM   25  O5  UNL     1      65.239  76.897  70.619  1.00  0.00    -0.204 OA
BRANCH  23  26
HETATM   26  N2  UNL     1      65.733  74.395  71.158  1.00  0.00    -0.194 N 
ATOM     27  H2  UNL     1      65.435  73.571  71.681  1.00  0.00     0.207 HD
BRANCH  26  28
HETATM   28  O6  UNL     1      67.079  74.695  71.063  1.00  0.00    -0.280 OA
ATOM     29  H6  UNL     1      67.449  75.425  71.546  1.00  0.00     0.245 HD
ENDBRANCH  26  28
ENDBRANCH  23  26
ENDBRANCH  22  23
ENDBRANCH  21  22
ENDBRANCH  20  21
ENDBRANCH  18  20
ENDBRANCH   9  18
BRANCH  11  30
HETATM   30  O7  UNL     1      66.061  74.664  78.483  1.00  0.00    -0.395 OA
ATOM     31  H7  UNL     1      66.088  75.283  79.202  1.00  0.00     0.210 HD
ENDBRANCH  11  30
BRANCH   1  32
HETATM   32  C2  UNL     1      62.572  78.860  82.330  1.00  0.00     0.159 C 
HETATM   33  C1  UNL     1      62.850  77.848  83.369  1.00  0.00     0.094 C 
HETATM   34  O1  UNL     1      63.034  79.992  82.595  1.00  0.00    -0.295 OA
ENDBRANCH   1  32
BRANCH   1  35
HETATM   35  O2  UNL     1      60.793  79.713  81.002  1.00  0.00    -0.286 OA
BRANCH  35  36
HETATM   36  C4  UNL     1      59.807  79.870  81.917  1.00  0.00     0.373 C 
HETATM   37  N1  UNL     1      58.642  79.045  81.841  1.00  0.00    -0.032 NA
HETATM   38  O3  UNL     1      59.923  80.736  82.821  1.00  0.00    -0.242 OA
ENDBRANCH  35  36
ENDBRANCH   1  35
TORSDOF 11
ENDMDL
