MODEL 1
REMARK VINA RESULT: -7.896122800      0.000      0.000
REMARK  9 active torsions:
REMARK  status: ('A' for Active; 'I' for Inactive)
REMARK    1  A    between atoms: C2_2  and  C4_4 
REMARK    2  A    between atoms: C4_4  and  C5_5 
REMARK    3  A    between atoms: C5_5  and  C6_6 
REMARK    4  A    between atoms: C6_6  and  C7_8 
REMARK    5  A    between atoms: C7_8  and  N1_9 
REMARK    6  A    between atoms: C7_8  and  C25_39 
REMARK    7  A    between atoms: C18_21  and  N2_22 
REMARK    8  A    between atoms: C20_29  and  C21_30 
REMARK    9  A    between atoms: C21_30  and  C23_32 
ROOT
HETATM    1  N1  UNL     1      63.653  75.815  76.884  1.00  0.00    -0.359 N 
ATOM      2  H1  UNL     1      63.017  75.118  77.270  1.00  0.00     0.162 HD
HETATM    3  C8  UNL     1      63.471  77.068  77.264  1.00  0.00     0.080 C 
HETATM    4  C9  UNL     1      64.388  78.129  76.711  1.00  0.00     0.076 C 
HETATM    5  C10 UNL     1      65.554  78.433  77.669  1.00  0.00     0.007 C 
HETATM    6  C11 UNL     1      64.998  78.523  79.042  1.00  0.00     0.000 C 
HETATM    7  C12 UNL     1      65.872  79.160  80.097  1.00  0.00     0.000 C 
HETATM    8  C13 UNL     1      65.225  78.759  81.435  1.00  0.00     0.000 C 
HETATM    9  C14 UNL     1      63.957  79.497  81.699  1.00  0.00     0.000 C 
HETATM   10  C15 UNL     1      63.045  78.896  82.712  1.00  0.00     0.000 C 
HETATM   11  C16 UNL     1      62.238  77.725  82.287  1.00  0.00     0.002 C 
HETATM   12  C17 UNL     1      60.744  77.946  82.232  1.00  0.00     0.043 C 
HETATM   13  C18 UNL     1      60.058  77.162  81.127  1.00  0.00     0.282 C 
HETATM   14  C19 UNL     1      59.228  77.997  80.229  1.00  0.00     0.290 C 
HETATM   15  O2  UNL     1      58.726  79.013  80.838  1.00  0.00    -0.263 OA
HETATM   16  O3  UNL     1      58.958  77.816  78.915  1.00  0.00    -0.304 OA
HETATM   17  C20 UNL     1      59.886  77.729  77.810  1.00  0.00     0.237 C 
HETATM   18  C24 UNL     1      61.266  77.981  78.298  1.00  0.00     0.253 C 
HETATM   19  O6  UNL     1      61.300  79.121  78.909  1.00  0.00    -0.270 OA
HETATM   20  N3  UNL     1      62.447  77.251  78.221  1.00  0.00    -0.315 N 
ATOM     21  H3  UNL     1      62.617  76.711  79.068  1.00  0.00     0.170 HD
ENDROOT
BRANCH   1  22
HETATM   22  C7  UNL     1      64.633  75.357  76.005  1.00  0.00     0.259 C 
BRANCH  22  23
HETATM   23  C6  UNL     1      64.425  74.167  75.201  1.00  0.00     0.189 C 
HETATM   24  O1  UNL     1      65.055  73.147  75.548  1.00  0.00    -0.290 OA
BRANCH  23  25
HETATM   25  C5  UNL     1      63.547  73.999  73.999  1.00  0.00     0.104 C 
BRANCH  25  26
HETATM   26  C4  UNL     1      64.226  74.300  72.795  1.00  0.00    -0.148 C 
BRANCH  26  27
HETATM   27  C2  UNL     1      64.836  74.570  71.714  1.00  0.00     0.048 C 
HETATM   28  C1  UNL     1      66.300  74.103  71.642  1.00  0.00     0.022 C 
HETATM   29  C3  UNL     1      64.372  75.252  70.495  1.00  0.00     0.022 C 
ENDBRANCH  26  27
ENDBRANCH  25  26
ENDBRANCH  23  25
ENDBRANCH  22  23
BRANCH  22  30
HETATM   30  C25 UNL     1      65.852  75.023  76.853  1.00  0.00     0.204 C 
HETATM   31  O7  UNL     1      65.788  74.726  78.053  1.00  0.00    -0.646 OA
HETATM   32  O8  UNL     1      67.104  75.056  76.234  1.00  0.00    -0.646 OA
ENDBRANCH  22  30
ENDBRANCH   1  22
BRANCH  17  33
HETATM   33  C21 UNL     1      59.446  78.787  76.819  1.00  0.00     0.121 C 
HETATM   34  C22 UNL     1      58.115  79.388  77.070  1.00  0.00     0.024 C 
BRANCH  33  35
HETATM   35  C23 UNL     1      59.362  78.089  75.489  1.00  0.00     0.179 C 
HETATM   36  O4  UNL     1      60.402  77.995  74.785  1.00  0.00    -0.648 OA
HETATM   37  O5  UNL     1      58.187  77.547  75.003  1.00  0.00    -0.648 OA
ENDBRANCH  33  35
ENDBRANCH  17  33
BRANCH  13  38
HETATM   38  N2  UNL     1      59.148  76.226  81.816  1.00  0.00    -0.066 N 
ATOM     39  H23 UNL     1      59.629  75.477  82.314  1.00  0.00     0.275 HD
ATOM     40  H22 UNL     1      58.683  76.630  82.628  1.00  0.00     0.275 HD
ATOM     41  H21 UNL     1      58.504  75.895  81.097  1.00  0.00     0.275 HD
ENDBRANCH  13  38
TORSDOF 9
ENDMDL
MODEL 2
REMARK VINA RESULT: -7.323073795      3.380      6.325
REMARK  9 active torsions:
REMARK  status: ('A' for Active; 'I' for Inactive)
REMARK    1  A    between atoms: C2_2  and  C4_4 
REMARK    2  A    between atoms: C4_4  and  C5_5 
REMARK    3  A    between atoms: C5_5  and  C6_6 
REMARK    4  A    between atoms: C6_6  and  C7_8 
REMARK    5  A    between atoms: C7_8  and  N1_9 
REMARK    6  A    between atoms: C7_8  and  C25_39 
REMARK    7  A    between atoms: C18_21  and  N2_22 
REMARK    8  A    between atoms: C20_29  and  C21_30 
REMARK    9  A    between atoms: C21_30  and  C23_32 
ROOT
HETATM    1  N1  UNL     1      61.319  78.516  78.733  1.00  0.00    -0.359 N 
ATOM      2  H1  UNL     1      61.406  79.403  78.239  1.00  0.00     0.162 HD
HETATM    3  C8  UNL     1      61.347  78.561  80.055  1.00  0.00     0.080 C 
HETATM    4  C9  UNL     1      61.227  77.269  80.822  1.00  0.00     0.076 C 
HETATM    5  C10 UNL     1      59.777  77.001  81.266  1.00  0.00     0.007 C 
HETATM    6  C11 UNL     1      59.223  78.273  81.791  1.00  0.00     0.000 C 
HETATM    7  C12 UNL     1      57.955  78.185  82.608  1.00  0.00     0.000 C 
HETATM    8  C13 UNL     1      57.425  79.629  82.664  1.00  0.00     0.000 C 
HETATM    9  C14 UNL     1      58.230  80.498  83.568  1.00  0.00     0.000 C 
HETATM   10  C15 UNL     1      58.087  81.968  83.367  1.00  0.00     0.000 C 
HETATM   11  C16 UNL     1      58.798  82.566  82.210  1.00  0.00     0.002 C 
HETATM   12  C17 UNL     1      59.918  83.521  82.554  1.00  0.00     0.043 C 
HETATM   13  C18 UNL     1      61.068  83.483  81.563  1.00  0.00     0.282 C 
HETATM   14  C19 UNL     1      62.390  83.252  82.191  1.00  0.00     0.290 C 
HETATM   15  O2  UNL     1      62.452  83.736  83.382  1.00  0.00    -0.263 OA
HETATM   16  O3  UNL     1      63.472  82.623  81.678  1.00  0.00    -0.304 OA
HETATM   17  C20 UNL     1      63.579  81.265  81.194  1.00  0.00     0.237 C 
HETATM   18  C24 UNL     1      62.299  80.550  81.434  1.00  0.00     0.253 C 
HETATM   19  O6  UNL     1      61.999  80.626  82.690  1.00  0.00    -0.270 OA
HETATM   20  N3  UNL     1      61.426  79.863  80.599  1.00  0.00    -0.315 N 
ATOM     21  H3  UNL     1      60.643  80.447  80.303  1.00  0.00     0.170 HD
ENDROOT
BRANCH   1  22
HETATM   22  C7  UNL     1      61.182  77.369  77.954  1.00  0.00     0.259 C 
BRANCH  22  23
HETATM   23  C6  UNL     1      62.332  76.743  77.329  1.00  0.00     0.189 C 
HETATM   24  O1  UNL     1      63.388  77.409  77.316  1.00  0.00    -0.290 OA
BRANCH  23  25
HETATM   25  C5  UNL     1      62.422  75.389  76.692  1.00  0.00     0.104 C 
BRANCH  25  26
HETATM   26  C4  UNL     1      63.759  75.011  76.428  1.00  0.00    -0.148 C 
BRANCH  26  27
HETATM   27  C2  UNL     1      64.960  74.671  76.191  1.00  0.00     0.048 C 
HETATM   28  C1  UNL     1      65.142  73.546  75.158  1.00  0.00     0.022 C 
HETATM   29  C3  UNL     1      66.227  75.185  76.735  1.00  0.00     0.022 C 
ENDBRANCH  26  27
ENDBRANCH  25  26
ENDBRANCH  23  25
ENDBRANCH  22  23
BRANCH  22  30
HETATM   30  C25 UNL     1      60.286  77.748  76.783  1.00  0.00     0.204 C 
HETATM   31  O7  UNL     1      60.713  77.993  75.648  1.00  0.00    -0.646 OA
HETATM   32  O8  UNL     1      58.910  77.818  77.013  1.00  0.00    -0.646 OA
ENDBRANCH  22  30
ENDBRANCH   1  22
BRANCH  17  33
HETATM   33  C21 UNL     1      64.719  80.639  81.970  1.00  0.00     0.121 C 
HETATM   34  C22 UNL     1      66.037  81.298  81.817  1.00  0.00     0.024 C 
BRANCH  33  35
HETATM   35  C23 UNL     1      64.865  79.245  81.425  1.00  0.00     0.179 C 
HETATM   36  O4  UNL     1      64.725  78.268  82.207  1.00  0.00    -0.648 OA
HETATM   37  O5  UNL     1      65.151  78.989  80.097  1.00  0.00    -0.648 OA
ENDBRANCH  33  35
ENDBRANCH  17  33
BRANCH  13  38
HETATM   38  N2  UNL     1      61.106  84.826  80.953  1.00  0.00    -0.066 N 
ATOM     39  H23 UNL     1      62.026  85.090  80.598  1.00  0.00     0.275 HD
ATOM     40  H22 UNL     1      60.613  84.886  80.062  1.00  0.00     0.275 HD
ATOM     41  H21 UNL     1      60.743  85.459  81.666  1.00  0.00     0.275 HD
ENDBRANCH  13  38
TORSDOF 9
ENDMDL
MODEL 3
REMARK VINA RESULT: -7.184675340      3.405      8.874
REMARK  9 active torsions:
REMARK  status: ('A' for Active; 'I' for Inactive)
REMARK    1  A    between atoms: C2_2  and  C4_4 
REMARK    2  A    between atoms: C4_4  and  C5_5 
REMARK    3  A    between atoms: C5_5  and  C6_6 
REMARK    4  A    between atoms: C6_6  and  C7_8 
REMARK    5  A    between atoms: C7_8  and  N1_9 
REMARK    6  A    between atoms: C7_8  and  C25_39 
REMARK    7  A    between atoms: C18_21  and  N2_22 
REMARK    8  A    between atoms: C20_29  and  C21_30 
REMARK    9  A    between atoms: C21_30  and  C23_32 
ROOT
HETATM    1  N1  UNL     1      60.777  77.898  82.640  1.00  0.00    -0.359 N 
ATOM      2  H1  UNL     1      61.413  77.102  82.661  1.00  0.00     0.162 HD
HETATM    3  C8  UNL     1      60.933  78.765  81.654  1.00  0.00     0.080 C 
HETATM    4  C9  UNL     1      60.016  79.959  81.592  1.00  0.00     0.076 C 
HETATM    5  C10 UNL     1      58.824  79.716  80.648  1.00  0.00     0.007 C 
HETATM    6  C11 UNL     1      59.346  79.071  79.418  1.00  0.00     0.000 C 
HETATM    7  C12 UNL     1      58.440  79.059  78.209  1.00  0.00     0.000 C 
HETATM    8  C13 UNL     1      59.061  78.015  77.265  1.00  0.00     0.000 C 
HETATM    9  C14 UNL     1      60.312  78.503  76.618  1.00  0.00     0.000 C 
HETATM   10  C15 UNL     1      61.209  77.458  76.048  1.00  0.00     0.000 C 
HETATM   11  C16 UNL     1      62.041  76.684  77.003  1.00  0.00     0.002 C 
HETATM   12  C17 UNL     1      63.533  76.900  76.894  1.00  0.00     0.043 C 
HETATM   13  C18 UNL     1      64.254  76.812  78.228  1.00  0.00     0.282 C 
HETATM   14  C19 UNL     1      65.094  77.994  78.531  1.00  0.00     0.290 C 
HETATM   15  O2  UNL     1      65.569  78.538  77.466  1.00  0.00    -0.263 OA
HETATM   16  O3  UNL     1      65.396  78.530  79.736  1.00  0.00    -0.304 OA
HETATM   17  C20 UNL     1      64.496  79.038  80.747  1.00  0.00     0.237 C 
HETATM   18  C24 UNL     1      63.102  78.997  80.236  1.00  0.00     0.253 C 
HETATM   19  O6  UNL     1      63.039  79.646  79.118  1.00  0.00    -0.270 OA
HETATM   20  N3  UNL     1      61.933  78.417  80.717  1.00  0.00    -0.315 N 
ATOM     21  H3  UNL     1      61.750  77.512  80.284  1.00  0.00     0.170 HD
ENDROOT
BRANCH   1  22
HETATM   22  C7  UNL     1      59.824  77.972  83.654  1.00  0.00     0.259 C 
BRANCH  22  23
HETATM   23  C6  UNL     1      60.129  78.592  84.929  1.00  0.00     0.189 C 
HETATM   24  O1  UNL     1      59.742  79.769  85.081  1.00  0.00    -0.290 OA
BRANCH  23  25
HETATM   25  C5  UNL     1      60.856  78.002  86.100  1.00  0.00     0.104 C 
BRANCH  25  26
HETATM   26  C4  UNL     1      62.251  77.925  85.879  1.00  0.00    -0.148 C 
BRANCH  26  27
HETATM   27  C2  UNL     1      63.504  77.857  85.682  1.00  0.00     0.048 C 
HETATM   28  C1  UNL     1      63.936  77.185  84.367  1.00  0.00     0.022 C 
HETATM   29  C3  UNL     1      64.631  78.330  86.502  1.00  0.00     0.022 C 
ENDBRANCH  26  27
ENDBRANCH  25  26
ENDBRANCH  23  25
ENDBRANCH  22  23
BRANCH  22  30
HETATM   30  C25 UNL     1      59.467  76.537  84.016  1.00  0.00     0.204 C 
HETATM   31  O7  UNL     1      58.433  76.222  84.618  1.00  0.00    -0.646 OA
HETATM   32  O8  UNL     1      60.361  75.531  83.643  1.00  0.00    -0.646 OA
ENDBRANCH  22  30
ENDBRANCH   1  22
BRANCH  17  33
HETATM   33  C21 UNL     1      64.945  80.458  81.022  1.00  0.00     0.121 C 
HETATM   34  C22 UNL     1      66.369  80.619  81.400  1.00  0.00     0.024 C 
BRANCH  33  35
HETATM   35  C23 UNL     1      64.129  80.921  82.198  1.00  0.00     0.179 C 
HETATM   36  O4  UNL     1      64.361  80.426  83.332  1.00  0.00    -0.648 OA
HETATM   37  O5  UNL     1      63.130  81.870  82.086  1.00  0.00    -0.648 OA
ENDBRANCH  33  35
ENDBRANCH  17  33
BRANCH  13  38
HETATM   38  N2  UNL     1      65.160  75.654  78.109  1.00  0.00    -0.066 N 
ATOM     39  H23 UNL     1      66.150  75.901  78.140  1.00  0.00     0.275 HD
ATOM     40  H22 UNL     1      65.162  75.048  78.930  1.00  0.00     0.275 HD
ATOM     41  H21 UNL     1      64.882  75.179  77.250  1.00  0.00     0.275 HD
ENDBRANCH  13  38
TORSDOF 9
ENDMDL
MODEL 4
REMARK VINA RESULT: -7.107898032      3.701      6.471
REMARK  9 active torsions:
REMARK  status: ('A' for Active; 'I' for Inactive)
REMARK    1  A    between atoms: C2_2  and  C4_4 
REMARK    2  A    between atoms: C4_4  and  C5_5 
REMARK    3  A    between atoms: C5_5  and  C6_6 
REMARK    4  A    between atoms: C6_6  and  C7_8 
REMARK    5  A    between atoms: C7_8  and  N1_9 
REMARK    6  A    between atoms: C7_8  and  C25_39 
REMARK    7  A    between atoms: C18_21  and  N2_22 
REMARK    8  A    between atoms: C20_29  and  C21_30 
REMARK    9  A    between atoms: C21_30  and  C23_32 
ROOT
HETATM    1  N1  UNL     1      62.516  78.808  79.289  1.00  0.00    -0.359 N 
ATOM      2  H1  UNL     1      62.504  79.661  78.731  1.00  0.00     0.162 HD
HETATM    3  C8  UNL     1      62.317  78.940  80.590  1.00  0.00     0.080 C 
HETATM    4  C9  UNL     1      62.332  77.702  81.450  1.00  0.00     0.076 C 
HETATM    5  C10 UNL     1      60.913  77.161  81.698  1.00  0.00     0.007 C 
HETATM    6  C11 UNL     1      60.037  78.317  82.013  1.00  0.00     0.000 C 
HETATM    7  C12 UNL     1      58.695  78.013  82.638  1.00  0.00     0.000 C 
HETATM    8  C13 UNL     1      57.887  79.312  82.478  1.00  0.00     0.000 C 
HETATM    9  C14 UNL     1      58.343  80.387  83.404  1.00  0.00     0.000 C 
HETATM   10  C15 UNL     1      57.944  81.778  83.046  1.00  0.00     0.000 C 
HETATM   11  C16 UNL     1      58.702  82.440  81.955  1.00  0.00     0.002 C 
HETATM   12  C17 UNL     1      59.536  83.630  82.368  1.00  0.00     0.043 C 
HETATM   13  C18 UNL     1      60.818  83.775  81.566  1.00  0.00     0.282 C 
HETATM   14  C19 UNL     1      62.038  83.869  82.402  1.00  0.00     0.290 C 
HETATM   15  O2  UNL     1      61.806  84.429  83.537  1.00  0.00    -0.263 OA
HETATM   16  O3  UNL     1      63.293  83.453  82.116  1.00  0.00    -0.304 OA
HETATM   17  C20 UNL     1      63.746  82.121  81.784  1.00  0.00     0.237 C 
HETATM   18  C24 UNL     1      62.613  81.168  81.900  1.00  0.00     0.253 C 
HETATM   19  O6  UNL     1      62.102  81.256  83.085  1.00  0.00    -0.270 OA
HETATM   20  N3  UNL     1      62.044  80.261  81.013  1.00  0.00    -0.315 N 
ATOM     21  H3  UNL     1      61.220  80.645  80.551  1.00  0.00     0.170 HD
ENDROOT
BRANCH   1  22
HETATM   22  C7  UNL     1      62.740  77.612  78.610  1.00  0.00     0.259 C 
BRANCH  22  23
HETATM   23  C6  UNL     1      63.900  77.439  77.756  1.00  0.00     0.189 C 
HETATM   24  O1  UNL     1      64.096  78.325  76.899  1.00  0.00    -0.290 OA
BRANCH  23  25
HETATM   25  C5  UNL     1      64.904  76.326  77.766  1.00  0.00     0.104 C 
BRANCH  25  26
HETATM   26  C4  UNL     1      64.684  75.398  76.721  1.00  0.00    -0.148 C 
BRANCH  26  27
HETATM   27  C2  UNL     1      64.487  74.566  75.783  1.00  0.00     0.048 C 
HETATM   28  C1  UNL     1      65.703  73.714  75.381  1.00  0.00     0.022 C 
HETATM   29  C3  UNL     1      63.272  74.261  75.010  1.00  0.00     0.022 C 
ENDBRANCH  26  27
ENDBRANCH  25  26
ENDBRANCH  23  25
ENDBRANCH  22  23
BRANCH  22  30
HETATM   30  C25 UNL     1      61.557  77.420  77.672  1.00  0.00     0.204 C 
HETATM   31  O7  UNL     1      61.458  76.471  76.884  1.00  0.00    -0.646 OA
HETATM   32  O8  UNL     1      60.535  78.371  77.711  1.00  0.00    -0.646 OA
ENDBRANCH  22  30
ENDBRANCH   1  22
BRANCH  17  33
HETATM   33  C21 UNL     1      64.845  81.801  82.776  1.00  0.00     0.121 C 
HETATM   34  C22 UNL     1      65.901  82.830  82.919  1.00  0.00     0.024 C 
BRANCH  33  35
HETATM   35  C23 UNL     1      65.517  80.561  82.253  1.00  0.00     0.179 C 
HETATM   36  O4  UNL     1      66.138  80.621  81.160  1.00  0.00    -0.648 OA
HETATM   37  O5  UNL     1      65.479  79.352  82.922  1.00  0.00    -0.648 OA
ENDBRANCH  33  35
ENDBRANCH  17  33
BRANCH  13  38
HETATM   38  N2  UNL     1      60.687  85.055  80.843  1.00  0.00    -0.066 N 
ATOM     39  H23 UNL     1      60.289  85.806  81.407  1.00  0.00     0.275 HD
ATOM     40  H22 UNL     1      61.579  85.510  80.650  1.00  0.00     0.275 HD
ATOM     41  H21 UNL     1      60.147  84.839  80.006  1.00  0.00     0.275 HD
ENDBRANCH  13  38
TORSDOF 9
ENDMDL
MODEL 5
REMARK VINA RESULT: -7.027175869      3.672      6.294
REMARK  9 active torsions:
REMARK  status: ('A' for Active; 'I' for Inactive)
REMARK    1  A    between atoms: C2_2  and  C4_4 
REMARK    2  A    between atoms: C4_4  and  C5_5 
REMARK    3  A    between atoms: C5_5  and  C6_6 
REMARK    4  A    between atoms: C6_6  and  C7_8 
REMARK    5  A    between atoms: C7_8  and  N1_9 
REMARK    6  A    between atoms: C7_8  and  C25_39 
REMARK    7  A    between atoms: C18_21  and  N2_22 
REMARK    8  A    between atoms: C20_29  and  C21_30 
REMARK    9  A    between atoms: C21_30  and  C23_32 
ROOT
HETATM    1  N1  UNL     1      63.451  78.504  80.522  1.00  0.00    -0.359 N 
ATOM      2  H1  UNL     1      64.011  77.815  81.023  1.00  0.00     0.162 HD
HETATM    3  C8  UNL     1      62.780  79.378  81.254  1.00  0.00     0.080 C 
HETATM    4  C9  UNL     1      61.937  80.410  80.550  1.00  0.00     0.076 C 
HETATM    5  C10 UNL     1      62.689  81.742  80.377  1.00  0.00     0.007 C 
HETATM    6  C11 UNL     1      63.377  82.041  81.657  1.00  0.00     0.000 C 
HETATM    7  C12 UNL     1      63.880  83.452  81.854  1.00  0.00     0.000 C 
HETATM    8  C13 UNL     1      64.860  83.356  83.037  1.00  0.00     0.000 C 
HETATM    9  C14 UNL     1      64.164  83.168  84.341  1.00  0.00     0.000 C 
HETATM   10  C15 UNL     1      64.994  82.636  85.459  1.00  0.00     0.000 C 
HETATM   11  C16 UNL     1      65.298  81.184  85.446  1.00  0.00     0.002 C 
HETATM   12  C17 UNL     1      64.686  80.379  86.570  1.00  0.00     0.043 C 
HETATM   13  C18 UNL     1      64.306  78.966  86.161  1.00  0.00     0.282 C 
HETATM   14  C19 UNL     1      62.897  78.617  86.456  1.00  0.00     0.290 C 
HETATM   15  O2  UNL     1      62.453  79.234  87.494  1.00  0.00    -0.263 OA
HETATM   16  O3  UNL     1      62.078  77.772  85.790  1.00  0.00    -0.304 OA
HETATM   17  C20 UNL     1      61.669  77.820  84.404  1.00  0.00     0.237 C 
HETATM   18  C24 UNL     1      62.207  79.050  83.770  1.00  0.00     0.253 C 
HETATM   19  O6  UNL     1      61.829  80.082  84.453  1.00  0.00    -0.270 OA
HETATM   20  N3  UNL     1      62.996  79.270  82.646  1.00  0.00    -0.315 N 
ATOM     21  H3  UNL     1      63.981  79.381  82.888  1.00  0.00     0.170 HD
ENDROOT
BRANCH   1  22
HETATM   22  C7  UNL     1      63.465  78.437  79.130  1.00  0.00     0.259 C 
BRANCH  22  23
HETATM   23  C6  UNL     1      62.474  77.663  78.406  1.00  0.00     0.189 C 
HETATM   24  O1  UNL     1      61.514  77.227  79.073  1.00  0.00    -0.290 OA
BRANCH  23  25
HETATM   25  C5  UNL     1      62.450  77.316  76.948  1.00  0.00     0.104 C 
BRANCH  25  26
HETATM   26  C4  UNL     1      61.225  77.670  76.334  1.00  0.00    -0.148 C 
BRANCH  26  27
HETATM   27  C2  UNL     1      60.126  77.988  75.783  1.00  0.00     0.048 C 
HETATM   28  C1  UNL     1      58.910  78.072  76.721  1.00  0.00     0.022 C 
HETATM   29  C3  UNL     1      59.813  78.307  74.381  1.00  0.00     0.022 C 
ENDBRANCH  26  27
ENDBRANCH  25  26
ENDBRANCH  23  25
ENDBRANCH  22  23
BRANCH  22  30
HETATM   30  C25 UNL     1      64.790  77.798  78.741  1.00  0.00     0.204 C 
HETATM   31  O7  UNL     1      65.101  76.638  79.037  1.00  0.00    -0.646 OA
HETATM   32  O8  UNL     1      65.696  78.572  78.012  1.00  0.00    -0.646 OA
ENDBRANCH  22  30
ENDBRANCH   1  22
BRANCH  17  33
HETATM   33  C21 UNL     1      60.154  77.821  84.421  1.00  0.00     0.121 C 
HETATM   34  C22 UNL     1      59.527  77.746  85.762  1.00  0.00     0.024 C 
BRANCH  33  35
HETATM   35  C23 UNL     1      59.738  76.581  83.678  1.00  0.00     0.179 C 
HETATM   36  O4  UNL     1      60.609  75.713  83.408  1.00  0.00    -0.648 OA
HETATM   37  O5  UNL     1      58.435  76.353  83.276  1.00  0.00    -0.648 OA
ENDBRANCH  33  35
ENDBRANCH  17  33
BRANCH  13  38
HETATM   38  N2  UNL     1      65.154  78.078  86.980  1.00  0.00    -0.066 N 
ATOM     39  H23 UNL     1      64.861  77.101  86.965  1.00  0.00     0.275 HD
ATOM     40  H22 UNL     1      66.086  77.929  86.592  1.00  0.00     0.275 HD
ATOM     41  H21 UNL     1      65.160  78.492  87.912  1.00  0.00     0.275 HD
ENDBRANCH  13  38
TORSDOF 9
ENDMDL
