MODEL 1
REMARK VINA RESULT: -8.619288440      0.000      0.000
REMARK  11 active torsions:
REMARK  status: ('A' for Active; 'I' for Inactive)
REMARK    1  A    between atoms: C2_2  and  C3_3 
REMARK    2  A    between atoms: C4_4  and  C5_5 
REMARK    3  A    between atoms: C9_10  and  O2_12 
REMARK    4  A    between atoms: C17_20  and  C18_21 
REMARK    5  A    between atoms: C19_22  and  C20_23 
REMARK    6  A    between atoms: C22_25  and  C23_26 
REMARK    7  A    between atoms: C23_26  and  O4_28 
REMARK    8  A    between atoms: O4_28  and  C24_29 
REMARK    9  A    between atoms: C25_30  and  O5_31 
REMARK   10  A    between atoms: C27_34  and  O6_35 
REMARK   11  A    between atoms: C28_37  and  C29_38 
ROOT
HETATM    1  C1  UNL     1      59.723  77.583  78.797  1.00  0.00     0.048 C 
HETATM    2  C2  UNL     1      60.283  77.927  77.482  1.00  0.00    -0.062 C 
HETATM    3  C17 UNL     1      61.603  77.621  77.289  1.00  0.00     0.007 C 
ENDROOT
BRANCH   3   4
HETATM    4  C18 UNL     1      62.381  77.004  78.309  1.00  0.00     0.001 C 
HETATM    5  C19 UNL     1      63.538  76.532  78.343  1.00  0.00     0.007 C 
BRANCH   5   6
HETATM    6  C20 UNL     1      64.584  76.415  77.335  1.00  0.00    -0.056 C 
HETATM    7  C21 UNL     1      65.189  77.581  76.685  1.00  0.00     0.048 C 
HETATM    8  C22 UNL     1      64.935  75.178  77.018  1.00  0.00     0.089 C 
BRANCH   8   9
HETATM    9  C23 UNL     1      65.912  74.746  76.086  1.00  0.00     0.283 C 
HETATM   10  O3  UNL     1      67.125  74.957  76.147  1.00  0.00    -0.260 OA
BRANCH   9  11
HETATM   11  O4  UNL     1      65.509  73.985  74.938  1.00  0.00    -0.309 OA
BRANCH  11  12
HETATM   12  C24 UNL     1      64.542  74.480  74.042  1.00  0.00     0.177 C 
HETATM   13  C25 UNL     1      63.166  74.051  74.539  1.00  0.00     0.151 C 
HETATM   14  C26 UNL     1      62.548  73.236  73.439  1.00  0.00     0.067 C 
HETATM   15  C27 UNL     1      63.281  73.721  72.200  1.00  0.00     0.137 C 
HETATM   16  C28 UNL     1      64.706  73.809  72.717  1.00  0.00     0.147 C 
BRANCH  13  17
HETATM   17  O5  UNL     1      62.377  75.182  74.770  1.00  0.00    -0.393 OA
ATOM     18  H5  UNL     1      61.586  75.132  74.245  1.00  0.00     0.210 HD
ENDBRANCH  13  17
BRANCH  15  19
HETATM   19  O6  UNL     1      62.765  74.951  71.854  1.00  0.00    -0.394 OA
ATOM     20  H6  UNL     1      62.243  74.840  71.068  1.00  0.00     0.210 HD
ENDBRANCH  15  19
BRANCH  16  21
HETATM   21  C29 UNL     1      65.590  74.518  71.777  1.00  0.00     0.182 C 
HETATM   22  O7  UNL     1      65.303  75.585  71.222  1.00  0.00    -0.648 OA
HETATM   23  O8  UNL     1      66.824  73.951  71.500  1.00  0.00    -0.648 OA
ENDBRANCH  16  21
ENDBRANCH  11  12
ENDBRANCH   9  11
ENDBRANCH   8   9
ENDBRANCH   5   6
ENDBRANCH   3   4
BRANCH   2  24
HETATM   24  C3  UNL     1      59.563  78.553  76.394  1.00  0.00     0.004 C 
HETATM   25  C4  UNL     1      58.561  77.993  75.747  1.00  0.00    -0.008 C 
BRANCH  25  26
HETATM   26  C5  UNL     1      57.840  78.634  74.649  1.00  0.00     0.049 C 
HETATM   27  C6  UNL     1      58.683  78.891  73.444  1.00  0.00     0.141 C 
HETATM   28  O1  UNL     1      59.874  79.101  73.472  1.00  0.00    -0.297 OA
HETATM   29  C7  UNL     1      57.809  78.842  72.243  1.00  0.00     0.088 C 
HETATM   30  C8  UNL     1      56.396  78.609  72.814  1.00  0.00     0.036 C 
HETATM   31  C9  UNL     1      55.851  79.982  73.066  1.00  0.00     0.059 C 
HETATM   32  C14 UNL     1      56.744  77.825  74.033  1.00  0.00    -0.022 C 
HETATM   33  C10 UNL     1      55.823  80.692  71.701  1.00  0.00     0.046 C 
HETATM   34  C11 UNL     1      56.775  80.779  73.935  1.00  0.00     0.043 C 
HETATM   35  C12 UNL     1      57.375  80.016  75.074  1.00  0.00     0.005 C 
HETATM   36  C13 UNL     1      56.474  80.050  76.249  1.00  0.00     0.011 C 
HETATM   37  C15 UNL     1      55.627  77.447  74.917  1.00  0.00     0.017 C 
HETATM   38  C16 UNL     1      57.358  76.518  73.538  1.00  0.00     0.017 C 
BRANCH  31  39
HETATM   39  O2  UNL     1      54.555  80.007  73.532  1.00  0.00    -0.390 OA
ATOM     40  H2  UNL     1      54.145  80.864  73.513  1.00  0.00     0.210 HD
ENDBRANCH  31  39
ENDBRANCH  25  26
ENDBRANCH   2  24
TORSDOF 11
ENDMDL
MODEL 2
REMARK VINA RESULT: -8.562184873      1.961      2.992
REMARK  11 active torsions:
REMARK  status: ('A' for Active; 'I' for Inactive)
REMARK    1  A    between atoms: C2_2  and  C3_3 
REMARK    2  A    between atoms: C4_4  and  C5_5 
REMARK    3  A    between atoms: C9_10  and  O2_12 
REMARK    4  A    between atoms: C17_20  and  C18_21 
REMARK    5  A    between atoms: C19_22  and  C20_23 
REMARK    6  A    between atoms: C22_25  and  C23_26 
REMARK    7  A    between atoms: C23_26  and  O4_28 
REMARK    8  A    between atoms: O4_28  and  C24_29 
REMARK    9  A    between atoms: C25_30  and  O5_31 
REMARK   10  A    between atoms: C27_34  and  O6_35 
REMARK   11  A    between atoms: C28_37  and  C29_38 
ROOT
HETATM    1  C1  UNL     1      59.598  76.973  79.247  1.00  0.00     0.048 C 
HETATM    2  C2  UNL     1      59.903  78.288  78.663  1.00  0.00    -0.062 C 
HETATM    3  C17 UNL     1      60.549  79.175  79.480  1.00  0.00     0.007 C 
ENDROOT
BRANCH   3   4
HETATM    4  C18 UNL     1      60.903  78.836  80.816  1.00  0.00     0.001 C 
HETATM    5  C19 UNL     1      61.986  78.565  81.378  1.00  0.00     0.007 C 
BRANCH   5   6
HETATM    6  C20 UNL     1      63.356  78.480  80.887  1.00  0.00    -0.056 C 
HETATM    7  C21 UNL     1      64.495  79.035  81.623  1.00  0.00     0.048 C 
HETATM    8  C22 UNL     1      63.505  77.890  79.711  1.00  0.00     0.089 C 
BRANCH   8   9
HETATM    9  C23 UNL     1      64.697  77.657  78.982  1.00  0.00     0.283 C 
HETATM   10  O3  UNL     1      65.579  78.483  78.738  1.00  0.00    -0.260 OA
BRANCH   9  11
HETATM   11  O4  UNL     1      64.959  76.350  78.450  1.00  0.00    -0.309 OA
BRANCH  11  12
HETATM   12  C24 UNL     1      64.589  76.016  77.132  1.00  0.00     0.177 C 
HETATM   13  C25 UNL     1      63.071  75.894  77.078  1.00  0.00     0.151 C 
HETATM   14  C26 UNL     1      62.769  74.494  76.622  1.00  0.00     0.067 C 
HETATM   15  C27 UNL     1      64.035  74.095  75.882  1.00  0.00     0.137 C 
HETATM   16  C28 UNL     1      65.104  74.650  76.806  1.00  0.00     0.147 C 
BRANCH  13  17
HETATM   17  O5  UNL     1      62.560  76.799  76.143  1.00  0.00    -0.393 OA
ATOM     18  H5  UNL     1      62.238  76.327  75.385  1.00  0.00     0.210 HD
ENDBRANCH  13  17
BRANCH  15  19
HETATM   19  O6  UNL     1      64.022  74.715  74.651  1.00  0.00    -0.394 OA
ATOM     20  H6  UNL     1      63.905  74.046  73.987  1.00  0.00     0.210 HD
ENDBRANCH  15  19
BRANCH  16  21
HETATM   21  C29 UNL     1      66.436  74.632  76.181  1.00  0.00     0.182 C 
HETATM   22  O7  UNL     1      67.408  75.275  76.595  1.00  0.00    -0.648 OA
HETATM   23  O8  UNL     1      66.610  73.841  75.057  1.00  0.00    -0.648 OA
ENDBRANCH  16  21
ENDBRANCH  11  12
ENDBRANCH   9  11
ENDBRANCH   8   9
ENDBRANCH   5   6
ENDBRANCH   3   4
BRANCH   2  24
HETATM   24  C3  UNL     1      59.579  78.711  77.317  1.00  0.00     0.004 C 
HETATM   25  C4  UNL     1      58.539  78.279  76.634  1.00  0.00    -0.008 C 
BRANCH  25  26
HETATM   26  C5  UNL     1      58.220  78.713  75.275  1.00  0.00     0.049 C 
HETATM   27  C6  UNL     1      59.097  78.106  74.229  1.00  0.00     0.141 C 
HETATM   28  O1  UNL     1      60.244  77.767  74.407  1.00  0.00    -0.297 OA
HETATM   29  C7  UNL     1      58.316  78.004  72.967  1.00  0.00     0.088 C 
HETATM   30  C8  UNL     1      56.956  78.644  73.312  1.00  0.00     0.036 C 
HETATM   31  C9  UNL     1      57.128  80.101  73.003  1.00  0.00     0.059 C 
HETATM   32  C14 UNL     1      56.878  78.302  74.761  1.00  0.00    -0.022 C 
HETATM   33  C10 UNL     1      57.455  80.188  71.502  1.00  0.00     0.046 C 
HETATM   34  C11 UNL     1      58.311  80.670  73.724  1.00  0.00     0.043 C 
HETATM   35  C12 UNL     1      58.465  80.206  75.139  1.00  0.00     0.005 C 
HETATM   36  C13 UNL     1      57.676  81.064  76.052  1.00  0.00     0.011 C 
HETATM   37  C15 UNL     1      55.707  78.811  75.498  1.00  0.00     0.017 C 
HETATM   38  C16 UNL     1      56.801  76.780  74.835  1.00  0.00     0.017 C 
BRANCH  31  39
HETATM   39  O2  UNL     1      55.995  80.863  73.188  1.00  0.00    -0.390 OA
ATOM     40  H2  UNL     1      56.128  81.649  73.704  1.00  0.00     0.210 HD
ENDBRANCH  31  39
ENDBRANCH  25  26
ENDBRANCH   2  24
TORSDOF 11
ENDMDL
MODEL 3
REMARK VINA RESULT: -8.417273633      5.250      9.787
REMARK  11 active torsions:
REMARK  status: ('A' for Active; 'I' for Inactive)
REMARK    1  A    between atoms: C2_2  and  C3_3 
REMARK    2  A    between atoms: C4_4  and  C5_5 
REMARK    3  A    between atoms: C9_10  and  O2_12 
REMARK    4  A    between atoms: C17_20  and  C18_21 
REMARK    5  A    between atoms: C19_22  and  C20_23 
REMARK    6  A    between atoms: C22_25  and  C23_26 
REMARK    7  A    between atoms: C23_26  and  O4_28 
REMARK    8  A    between atoms: O4_28  and  C24_29 
REMARK    9  A    between atoms: C25_30  and  O5_31 
REMARK   10  A    between atoms: C27_34  and  O6_35 
REMARK   11  A    between atoms: C28_37  and  C29_38 
ROOT
HETATM    1  C1  UNL     1      61.408  76.818  83.749  1.00  0.00     0.048 C 
HETATM    2  C2  UNL     1      62.160  77.609  82.763  1.00  0.00    -0.062 C 
HETATM    3  C17 UNL     1      61.534  77.836  81.568  1.00  0.00     0.007 C 
ENDROOT
BRANCH   3   4
HETATM    4  C18 UNL     1      60.230  77.333  81.302  1.00  0.00     0.001 C 
HETATM    5  C19 UNL     1      59.493  77.340  80.293  1.00  0.00     0.007 C 
BRANCH   5   6
HETATM    6  C20 UNL     1      59.668  77.877  78.949  1.00  0.00    -0.056 C 
HETATM    7  C21 UNL     1      59.019  79.113  78.501  1.00  0.00     0.048 C 
HETATM    8  C22 UNL     1      60.433  77.158  78.142  1.00  0.00     0.089 C 
BRANCH   8   9
HETATM    9  C23 UNL     1      60.789  77.417  76.795  1.00  0.00     0.283 C 
HETATM   10  O3  UNL     1      60.013  77.561  75.848  1.00  0.00    -0.260 OA
BRANCH   9  11
HETATM   11  O4  UNL     1      62.173  77.532  76.437  1.00  0.00    -0.309 OA
BRANCH  11  12
HETATM   12  C24 UNL     1      63.186  77.423  77.410  1.00  0.00     0.177 C 
HETATM   13  C25 UNL     1      63.688  78.825  77.737  1.00  0.00     0.151 C 
HETATM   14  C26 UNL     1      65.157  78.838  77.423  1.00  0.00     0.067 C 
HETATM   15  C27 UNL     1      65.541  77.371  77.517  1.00  0.00     0.137 C 
HETATM   16  C28 UNL     1      64.362  76.713  76.822  1.00  0.00     0.147 C 
BRANCH  13  17
HETATM   17  O5  UNL     1      63.509  79.082  79.100  1.00  0.00    -0.393 OA
ATOM     18  H5  UNL     1      63.230  79.982  79.221  1.00  0.00     0.210 HD
ENDBRANCH  13  17
BRANCH  15  19
HETATM   19  O6  UNL     1      65.623  77.038  78.852  1.00  0.00    -0.394 OA
ATOM     20  H6  UNL     1      65.113  77.671  79.344  1.00  0.00     0.210 HD
ENDBRANCH  15  19
BRANCH  16  21
HETATM   21  C29 UNL     1      64.355  75.253  77.013  1.00  0.00     0.182 C 
HETATM   22  O7  UNL     1      63.372  74.531  76.812  1.00  0.00    -0.648 OA
HETATM   23  O8  UNL     1      65.527  74.654  77.445  1.00  0.00    -0.648 OA
ENDBRANCH  16  21
ENDBRANCH  11  12
ENDBRANCH   9  11
ENDBRANCH   8   9
ENDBRANCH   5   6
ENDBRANCH   3   4
BRANCH   2  24
HETATM   24  C3  UNL     1      63.486  78.156  82.953  1.00  0.00     0.004 C 
HETATM   25  C4  UNL     1      63.794  79.428  82.799  1.00  0.00    -0.008 C 
BRANCH  25  26
HETATM   26  C5  UNL     1      65.137  79.971  82.993  1.00  0.00     0.049 C 
HETATM   27  C6  UNL     1      65.908  80.136  81.725  1.00  0.00     0.141 C 
HETATM   28  O1  UNL     1      65.767  79.448  80.741  1.00  0.00    -0.297 OA
HETATM   29  C7  UNL     1      66.853  81.272  81.898  1.00  0.00     0.088 C 
HETATM   30  C8  UNL     1      66.641  81.720  83.358  1.00  0.00     0.036 C 
HETATM   31  C9  UNL     1      67.602  80.893  84.158  1.00  0.00     0.059 C 
HETATM   32  C14 UNL     1      65.202  81.367  83.522  1.00  0.00    -0.022 C 
HETATM   33  C10 UNL     1      69.007  81.238  83.634  1.00  0.00     0.046 C 
HETATM   34  C11 UNL     1      67.404  79.431  83.895  1.00  0.00     0.043 C 
HETATM   35  C12 UNL     1      65.974  78.999  83.808  1.00  0.00     0.005 C 
HETATM   36  C13 UNL     1      65.447  78.683  85.155  1.00  0.00     0.011 C 
HETATM   37  C15 UNL     1      64.614  81.595  84.855  1.00  0.00     0.017 C 
HETATM   38  C16 UNL     1      64.431  82.263  82.557  1.00  0.00     0.017 C 
BRANCH  31  39
HETATM   39  O2  UNL     1      67.619  81.178  85.505  1.00  0.00    -0.390 OA
ATOM     40  H2  UNL     1      67.898  80.458  86.058  1.00  0.00     0.210 HD
ENDBRANCH  31  39
ENDBRANCH  25  26
ENDBRANCH   2  24
TORSDOF 11
ENDMDL
MODEL 4
REMARK VINA RESULT: -8.102452070      4.256      9.670
REMARK  11 active torsions:
REMARK  status: ('A' for Active; 'I' for Inactive)
REMARK    1  A    between atoms: C2_2  and  C3_3 
REMARK    2  A    between atoms: C4_4  and  C5_5 
REMARK    3  A    between atoms: C9_10  and  O2_12 
REMARK    4  A    between atoms: C17_20  and  C18_21 
REMARK    5  A    between atoms: C19_22  and  C20_23 
REMARK    6  A    between atoms: C22_25  and  C23_26 
REMARK    7  A    between atoms: C23_26  and  O4_28 
REMARK    8  A    between atoms: O4_28  and  C24_29 
REMARK    9  A    between atoms: C25_30  and  O5_31 
REMARK   10  A    between atoms: C27_34  and  O6_35 
REMARK   11  A    between atoms: C28_37  and  C29_38 
ROOT
HETATM    1  C1  UNL     1      64.886  76.451  77.825  1.00  0.00     0.048 C 
HETATM    2  C2  UNL     1      63.939  77.233  78.635  1.00  0.00    -0.062 C 
HETATM    3  C17 UNL     1      62.646  77.264  78.190  1.00  0.00     0.007 C 
ENDROOT
BRANCH   3   4
HETATM    4  C18 UNL     1      62.247  76.574  77.011  1.00  0.00     0.001 C 
HETATM    5  C19 UNL     1      61.364  76.778  76.150  1.00  0.00     0.007 C 
BRANCH   5   6
HETATM    6  C20 UNL     1      60.360  77.825  75.998  1.00  0.00    -0.056 C 
HETATM    7  C21 UNL     1      59.538  78.299  77.116  1.00  0.00     0.048 C 
HETATM    8  C22 UNL     1      60.216  78.303  74.772  1.00  0.00     0.089 C 
BRANCH   8   9
HETATM    9  C23 UNL     1      59.334  79.314  74.314  1.00  0.00     0.283 C 
HETATM   10  O3  UNL     1      59.493  80.531  74.431  1.00  0.00    -0.260 OA
BRANCH   9  11
HETATM   11  O4  UNL     1      58.122  78.946  73.641  1.00  0.00    -0.309 OA
BRANCH  11  12
HETATM   12  C24 UNL     1      56.884  79.504  74.018  1.00  0.00     0.177 C 
HETATM   13  C25 UNL     1      56.311  78.670  75.158  1.00  0.00     0.151 C 
HETATM   14  C26 UNL     1      54.981  78.155  74.685  1.00  0.00     0.067 C 
HETATM   15  C27 UNL     1      54.588  79.155  73.611  1.00  0.00     0.137 C 
HETATM   16  C28 UNL     1      55.911  79.351  72.893  1.00  0.00     0.147 C 
BRANCH  13  17
HETATM   17  O5  UNL     1      56.115  79.481  76.280  1.00  0.00    -0.393 OA
ATOM     18  H5  UNL     1      56.769  79.277  76.938  1.00  0.00     0.210 HD
ENDBRANCH  13  17
BRANCH  15  19
HETATM   19  O6  UNL     1      54.149  80.302  74.238  1.00  0.00    -0.394 OA
ATOM     20  H6  UNL     1      54.820  80.576  74.851  1.00  0.00     0.210 HD
ENDBRANCH  15  19
BRANCH  16  21
HETATM   21  C29 UNL     1      55.869  80.491  71.961  1.00  0.00     0.182 C 
HETATM   22  O7  UNL     1      55.687  80.386  70.742  1.00  0.00    -0.648 OA
HETATM   23  O8  UNL     1      56.042  81.760  72.488  1.00  0.00    -0.648 OA
ENDBRANCH  16  21
ENDBRANCH  11  12
ENDBRANCH   9  11
ENDBRANCH   8   9
ENDBRANCH   5   6
ENDBRANCH   3   4
BRANCH   2  24
HETATM   24  C3  UNL     1      64.263  77.961  79.843  1.00  0.00     0.004 C 
HETATM   25  C4  UNL     1      63.595  79.010  80.278  1.00  0.00    -0.008 C 
BRANCH  25  26
HETATM   26  C5  UNL     1      63.929  79.739  81.500  1.00  0.00     0.049 C 
HETATM   27  C6  UNL     1      65.214  80.496  81.417  1.00  0.00     0.141 C 
HETATM   28  O1  UNL     1      66.159  80.172  80.735  1.00  0.00    -0.297 OA
HETATM   29  C7  UNL     1      65.115  81.684  82.306  1.00  0.00     0.088 C 
HETATM   30  C8  UNL     1      63.728  81.547  82.965  1.00  0.00     0.036 C 
HETATM   31  C9  UNL     1      63.967  80.733  84.201  1.00  0.00     0.059 C 
HETATM   32  C14 UNL     1      62.997  80.848  81.870  1.00  0.00    -0.022 C 
HETATM   33  C10 UNL     1      64.952  81.541  85.064  1.00  0.00     0.046 C 
HETATM   34  C11 UNL     1      64.657  79.444  83.873  1.00  0.00     0.043 C 
HETATM   35  C12 UNL     1      64.152  78.761  82.641  1.00  0.00     0.005 C 
HETATM   36  C13 UNL     1      62.997  77.894  82.968  1.00  0.00     0.011 C 
HETATM   37  C15 UNL     1      61.599  80.469  82.145  1.00  0.00     0.017 C 
HETATM   38  C16 UNL     1      62.952  81.823  80.698  1.00  0.00     0.017 C 
BRANCH  31  39
HETATM   39  O2  UNL     1      62.851  80.537  84.983  1.00  0.00    -0.390 OA
ATOM     40  H2  UNL     1      62.902  80.924  85.849  1.00  0.00     0.210 HD
ENDBRANCH  31  39
ENDBRANCH  25  26
ENDBRANCH   2  24
TORSDOF 11
ENDMDL
MODEL 5
REMARK VINA RESULT: -8.090867217      4.620      9.993
REMARK  11 active torsions:
REMARK  status: ('A' for Active; 'I' for Inactive)
REMARK    1  A    between atoms: C2_2  and  C3_3 
REMARK    2  A    between atoms: C4_4  and  C5_5 
REMARK    3  A    between atoms: C9_10  and  O2_12 
REMARK    4  A    between atoms: C17_20  and  C18_21 
REMARK    5  A    between atoms: C19_22  and  C20_23 
REMARK    6  A    between atoms: C22_25  and  C23_26 
REMARK    7  A    between atoms: C23_26  and  O4_28 
REMARK    8  A    between atoms: O4_28  and  C24_29 
REMARK    9  A    between atoms: C25_30  and  O5_31 
REMARK   10  A    between atoms: C27_34  and  O6_35 
REMARK   11  A    between atoms: C28_37  and  C29_38 
ROOT
HETATM    1  C1  UNL     1      64.830  78.320  77.629  1.00  0.00     0.048 C 
HETATM    2  C2  UNL     1      63.870  78.389  78.741  1.00  0.00    -0.062 C 
HETATM    3  C17 UNL     1      62.748  77.615  78.619  1.00  0.00     0.007 C 
ENDROOT
BRANCH   3   4
HETATM    4  C18 UNL     1      62.532  76.792  77.478  1.00  0.00     0.001 C 
HETATM    5  C19 UNL     1      61.685  76.799  76.559  1.00  0.00     0.007 C 
BRANCH   5   6
HETATM    6  C20 UNL     1      60.549  77.667  76.273  1.00  0.00    -0.056 C 
HETATM    7  C21 UNL     1      59.517  77.972  77.268  1.00  0.00     0.048 C 
HETATM    8  C22 UNL     1      60.492  78.144  75.039  1.00  0.00     0.089 C 
BRANCH   8   9
HETATM    9  C23 UNL     1      59.522  79.004  74.466  1.00  0.00     0.283 C 
HETATM   10  O3  UNL     1      59.634  80.220  74.294  1.00  0.00    -0.260 OA
BRANCH   9  11
HETATM   11  O4  UNL     1      58.267  78.465  74.026  1.00  0.00    -0.309 OA
BRANCH  11  12
HETATM   12  C24 UNL     1      57.066  79.177  74.214  1.00  0.00     0.177 C 
HETATM   13  C25 UNL     1      56.282  78.503  75.334  1.00  0.00     0.151 C 
HETATM   14  C26 UNL     1      54.963  78.090  74.745  1.00  0.00     0.067 C 
HETATM   15  C27 UNL     1      54.803  79.033  73.565  1.00  0.00     0.137 C 
HETATM   16  C28 UNL     1      56.211  79.032  72.996  1.00  0.00     0.147 C 
BRANCH  13  17
HETATM   17  O5  UNL     1      56.056  79.419  76.365  1.00  0.00    -0.393 OA
ATOM     18  H5  UNL     1      56.109  78.976  77.204  1.00  0.00     0.210 HD
ENDBRANCH  13  17
BRANCH  15  19
HETATM   19  O6  UNL     1      54.429  80.266  74.053  1.00  0.00    -0.394 OA
ATOM     20  H6  UNL     1      55.196  80.675  74.436  1.00  0.00     0.210 HD
ENDBRANCH  15  19
BRANCH  16  21
HETATM   21  C29 UNL     1      56.398  80.089  71.988  1.00  0.00     0.182 C 
HETATM   22  O7  UNL     1      56.631  79.876  70.792  1.00  0.00    -0.648 OA
HETATM   23  O8  UNL     1      56.306  81.405  72.410  1.00  0.00    -0.648 OA
ENDBRANCH  16  21
ENDBRANCH  11  12
ENDBRANCH   9  11
ENDBRANCH   8   9
ENDBRANCH   5   6
ENDBRANCH   3   4
BRANCH   2  24
HETATM   24  C3  UNL     1      64.014  79.197  79.934  1.00  0.00     0.004 C 
HETATM   25  C4  UNL     1      63.855  78.744  81.160  1.00  0.00    -0.008 C 
BRANCH  25  26
HETATM   26  C5  UNL     1      64.003  79.569  82.359  1.00  0.00     0.049 C 
HETATM   27  C6  UNL     1      62.748  80.267  82.767  1.00  0.00     0.141 C 
HETATM   28  O1  UNL     1      61.877  80.617  82.004  1.00  0.00    -0.297 OA
HETATM   29  C7  UNL     1      62.771  80.445  84.243  1.00  0.00     0.088 C 
HETATM   30  C8  UNL     1      64.138  79.874  84.670  1.00  0.00     0.036 C 
HETATM   31  C9  UNL     1      65.084  81.035  84.587  1.00  0.00     0.059 C 
HETATM   32  C14 UNL     1      64.313  78.829  83.620  1.00  0.00    -0.022 C 
HETATM   33  C10 UNL     1      64.555  82.092  85.571  1.00  0.00     0.046 C 
HETATM   34  C11 UNL     1      65.043  81.667  83.229  1.00  0.00     0.043 C 
HETATM   35  C12 UNL     1      64.981  80.699  82.090  1.00  0.00     0.005 C 
HETATM   36  C13 UNL     1      66.345  80.279  81.696  1.00  0.00     0.011 C 
HETATM   37  C15 UNL     1      65.577  78.072  83.646  1.00  0.00     0.017 C 
HETATM   38  C16 UNL     1      63.200  77.811  83.844  1.00  0.00     0.017 C 
BRANCH  31  39
HETATM   39  O2  UNL     1      66.371  80.754  84.988  1.00  0.00    -0.390 OA
ATOM     40  H2  UNL     1      66.994  81.454  84.834  1.00  0.00     0.210 HD
ENDBRANCH  31  39
ENDBRANCH  25  26
ENDBRANCH   2  24
TORSDOF 11
ENDMDL
