MODEL 1
REMARK VINA RESULT: -8.662559647      0.000      0.000
REMARK  11 active torsions:
REMARK  status: ('A' for Active; 'I' for Inactive)
REMARK    1  A    between atoms: O1_2  and  C2_3 
REMARK    2  A    between atoms: C5_6  and  C6_7 
REMARK    3  A    between atoms: C6_7  and  C7_8 
REMARK    4  A    between atoms: C7_8  and  C8_10 
REMARK    5  A    between atoms: C9_11  and  C10_12 
REMARK    6  A    between atoms: C12_14  and  O3_15 
REMARK    7  A    between atoms: C14_18  and  C16_20 
REMARK    8  A    between atoms: C17_21  and  C18_22 
REMARK    9  A    between atoms: C19_23  and  O4_24 
REMARK   10  A    between atoms: C19_23  and  C20_26 
REMARK   11  A    between atoms: C26_35  and  O8_36 
ROOT
HETATM    1  C8  UNL     1      60.985  77.912  75.562  1.00  0.00     0.046 C 
HETATM    2  C9  UNL     1      60.724  77.543  76.799  1.00  0.00    -0.018 C 
ENDROOT
BRANCH   2   3
HETATM    3  C10 UNL     1      61.844  77.125  77.699  1.00  0.00     0.015 C 
HETATM    4  C11 UNL     1      63.123  77.604  77.051  1.00  0.00     0.040 C 
HETATM    5  C12 UNL     1      64.343  77.373  77.876  1.00  0.00     0.119 C 
HETATM    6  C13 UNL     1      64.118  77.434  79.355  1.00  0.00     0.045 C 
HETATM    7  C14 UNL     1      62.882  78.180  79.743  1.00  0.00    -0.020 C 
HETATM    8  C15 UNL     1      63.123  79.657  79.514  1.00  0.00     0.020 C 
HETATM    9  C21 UNL     1      61.646  77.667  79.089  1.00  0.00     0.001 C 
HETATM   10  C22 UNL     1      60.534  78.713  79.123  1.00  0.00     0.011 C 
BRANCH   5  11
HETATM   11  O3  UNL     1      65.340  78.274  77.446  1.00  0.00    -0.396 OA
ATOM     12  H3  UNL     1      65.975  78.367  78.146  1.00  0.00     0.210 HD
ENDBRANCH   5  11
BRANCH   7  13
HETATM   13  C16 UNL     1      62.701  78.001  81.228  1.00  0.00    -0.017 C 
HETATM   14  C17 UNL     1      63.708  78.309  82.037  1.00  0.00    -0.000 C 
BRANCH  14  15
HETATM   15  C18 UNL     1      63.576  78.152  83.475  1.00  0.00     0.043 C 
HETATM   16  C19 UNL     1      64.630  77.885  84.219  1.00  0.00     0.142 C 
BRANCH  16  17
HETATM   17  O4  UNL     1      65.868  77.753  83.626  1.00  0.00    -0.355 OA
ATOM     18  H4  UNL     1      66.341  78.530  83.350  1.00  0.00     0.218 HD
ENDBRANCH  16  17
BRANCH  16  19
HETATM   19  C20 UNL     1      64.497  77.730  85.643  1.00  0.00     0.233 C 
HETATM   20  O5  UNL     1      63.631  76.954  86.117  1.00  0.00    -0.642 OA
HETATM   21  O6  UNL     1      65.313  78.426  86.506  1.00  0.00    -0.642 OA
ENDBRANCH  16  19
ENDBRANCH  14  15
ENDBRANCH   7  13
ENDBRANCH   2   3
BRANCH   1  22
HETATM   22  C7  UNL     1      59.899  78.313  74.697  1.00  0.00     0.151 C 
HETATM   23  O2  UNL     1      59.596  77.588  73.727  1.00  0.00    -0.293 OA
BRANCH  22  24
HETATM   24  C6  UNL     1      59.164  79.550  74.952  1.00  0.00     0.114 C 
BRANCH  24  25
HETATM   25  C5  UNL     1      57.758  79.325  75.468  1.00  0.00     0.130 C 
HETATM   26  C4  UNL     1      57.608  79.745  76.916  1.00  0.00     0.035 C 
HETATM   27  C3  UNL     1      56.675  80.879  77.124  1.00  0.00     0.034 C 
HETATM   28  C2  UNL     1      55.323  80.521  77.641  1.00  0.00     0.120 C 
HETATM   29  C28 UNL     1      54.643  79.402  76.939  1.00  0.00     0.034 C 
HETATM   30  C27 UNL     1      54.349  79.743  75.480  1.00  0.00     0.037 C 
HETATM   31  C26 UNL     1      55.006  78.746  74.550  1.00  0.00     0.152 C 
HETATM   32  C23 UNL     1      56.121  79.476  73.827  1.00  0.00     0.087 A 
HETATM   33  O7  UNL     1      56.924  80.147  74.711  1.00  0.00    -0.372 OA
HETATM   34  C24 UNL     1      56.473  79.163  72.446  1.00  0.00     0.044 A 
HETATM   35  C25 UNL     1      55.619  80.360  72.677  1.00  0.00     0.044 A 
BRANCH  28  36
HETATM   36  O1  UNL     1      54.508  81.647  77.534  1.00  0.00    -0.391 OA
HETATM   37  C1  UNL     1      54.510  82.406  78.699  1.00  0.00     0.202 C 
ENDBRANCH  28  36
BRANCH  31  38
HETATM   38  O8  UNL     1      54.130  78.262  73.593  1.00  0.00    -0.393 OA
ATOM     39  H8  UNL     1      53.761  77.451  73.922  1.00  0.00     0.210 HD
ENDBRANCH  31  38
ENDBRANCH  24  25
ENDBRANCH  22  24
ENDBRANCH   1  22
TORSDOF 11
ENDMDL
MODEL 2
REMARK VINA RESULT: -8.277324175      3.041     10.901
REMARK  11 active torsions:
REMARK  status: ('A' for Active; 'I' for Inactive)
REMARK    1  A    between atoms: O1_2  and  C2_3 
REMARK    2  A    between atoms: C5_6  and  C6_7 
REMARK    3  A    between atoms: C6_7  and  C7_8 
REMARK    4  A    between atoms: C7_8  and  C8_10 
REMARK    5  A    between atoms: C9_11  and  C10_12 
REMARK    6  A    between atoms: C12_14  and  O3_15 
REMARK    7  A    between atoms: C14_18  and  C16_20 
REMARK    8  A    between atoms: C17_21  and  C18_22 
REMARK    9  A    between atoms: C19_23  and  O4_24 
REMARK   10  A    between atoms: C19_23  and  C20_26 
REMARK   11  A    between atoms: C26_35  and  O8_36 
ROOT
HETATM    1  C8  UNL     1      58.834  78.102  76.775  1.00  0.00     0.046 C 
HETATM    2  C9  UNL     1      59.271  78.919  75.838  1.00  0.00    -0.018 C 
ENDROOT
BRANCH   2   3
HETATM    3  C10 UNL     1      58.956  78.636  74.403  1.00  0.00     0.015 C 
HETATM    4  C11 UNL     1      58.038  77.436  74.389  1.00  0.00     0.040 C 
HETATM    5  C12 UNL     1      57.525  77.082  73.034  1.00  0.00     0.119 C 
HETATM    6  C13 UNL     1      57.342  78.247  72.112  1.00  0.00     0.045 C 
HETATM    7  C14 UNL     1      57.222  79.558  72.818  1.00  0.00    -0.020 C 
HETATM    8  C15 UNL     1      55.867  79.618  73.491  1.00  0.00     0.020 C 
HETATM    9  C21 UNL     1      58.358  79.847  73.737  1.00  0.00     0.001 C 
HETATM   10  C22 UNL     1      57.977  80.912  74.763  1.00  0.00     0.011 C 
BRANCH   5  11
HETATM   11  O3  UNL     1      56.341  76.332  73.197  1.00  0.00    -0.396 OA
ATOM     12  H3  UNL     1      55.603  76.910  73.039  1.00  0.00     0.210 HD
ENDBRANCH   5  11
BRANCH   7  13
HETATM   13  C16 UNL     1      57.224  80.635  71.764  1.00  0.00    -0.017 C 
HETATM   14  C17 UNL     1      57.046  80.288  70.496  1.00  0.00    -0.000 C 
BRANCH  14  15
HETATM   15  C18 UNL     1      57.041  81.294  69.448  1.00  0.00     0.043 C 
HETATM   16  C19 UNL     1      58.126  81.527  68.737  1.00  0.00     0.142 C 
BRANCH  16  17
HETATM   17  O4  UNL     1      59.276  80.807  68.992  1.00  0.00    -0.355 OA
ATOM     18  H4  UNL     1      59.263  79.860  68.915  1.00  0.00     0.218 HD
ENDBRANCH  16  17
BRANCH  16  19
HETATM   19  C20 UNL     1      58.120  82.523  67.700  1.00  0.00     0.233 C 
HETATM   20  O5  UNL     1      57.180  82.565  66.868  1.00  0.00    -0.642 OA
HETATM   21  O6  UNL     1      59.139  83.443  67.601  1.00  0.00    -0.642 OA
ENDBRANCH  16  19
ENDBRANCH  14  15
ENDBRANCH   7  13
ENDBRANCH   2   3
BRANCH   1  22
HETATM   22  C7  UNL     1      59.143  78.379  78.159  1.00  0.00     0.151 C 
HETATM   23  O2  UNL     1      58.591  79.348  78.722  1.00  0.00    -0.293 OA
BRANCH  22  24
HETATM   24  C6  UNL     1      60.088  77.541  78.892  1.00  0.00     0.114 C 
BRANCH  24  25
HETATM   25  C5  UNL     1      61.399  78.235  79.206  1.00  0.00     0.130 C 
HETATM   26  C4  UNL     1      61.451  78.735  80.635  1.00  0.00     0.035 C 
HETATM   27  C3  UNL     1      62.489  78.078  81.467  1.00  0.00     0.034 C 
HETATM   28  C2  UNL     1      63.729  78.872  81.703  1.00  0.00     0.120 C 
HETATM   29  C28 UNL     1      64.336  79.490  80.495  1.00  0.00     0.034 C 
HETATM   30  C27 UNL     1      64.814  78.437  79.499  1.00  0.00     0.037 C 
HETATM   31  C26 UNL     1      64.138  78.618  78.157  1.00  0.00     0.152 C 
HETATM   32  C23 UNL     1      63.198  77.444  77.968  1.00  0.00     0.087 A 
HETATM   33  O7  UNL     1      62.397  77.272  79.066  1.00  0.00    -0.372 OA
HETATM   34  C24 UNL     1      62.951  76.863  76.652  1.00  0.00     0.044 A 
HETATM   35  C25 UNL     1      63.916  76.157  77.538  1.00  0.00     0.044 A 
BRANCH  28  36
HETATM   36  O1  UNL     1      64.682  78.027  82.271  1.00  0.00    -0.391 OA
HETATM   37  C1  UNL     1      65.093  78.469  83.523  1.00  0.00     0.202 C 
ENDBRANCH  28  36
BRANCH  31  38
HETATM   38  O8  UNL     1      65.041  78.608  77.108  1.00  0.00    -0.393 OA
ATOM     39  H8  UNL     1      65.820  78.149  77.400  1.00  0.00     0.210 HD
ENDBRANCH  31  38
ENDBRANCH  24  25
ENDBRANCH  22  24
ENDBRANCH   1  22
TORSDOF 11
ENDMDL
MODEL 3
REMARK VINA RESULT: -8.100321222      4.718     11.715
REMARK  11 active torsions:
REMARK  status: ('A' for Active; 'I' for Inactive)
REMARK    1  A    between atoms: O1_2  and  C2_3 
REMARK    2  A    between atoms: C5_6  and  C6_7 
REMARK    3  A    between atoms: C6_7  and  C7_8 
REMARK    4  A    between atoms: C7_8  and  C8_10 
REMARK    5  A    between atoms: C9_11  and  C10_12 
REMARK    6  A    between atoms: C12_14  and  O3_15 
REMARK    7  A    between atoms: C14_18  and  C16_20 
REMARK    8  A    between atoms: C17_21  and  C18_22 
REMARK    9  A    between atoms: C19_23  and  O4_24 
REMARK   10  A    between atoms: C19_23  and  C20_26 
REMARK   11  A    between atoms: C26_35  and  O8_36 
ROOT
HETATM    1  C8  UNL     1      63.681  78.249  82.703  1.00  0.00     0.046 C 
HETATM    2  C9  UNL     1      63.553  78.683  81.466  1.00  0.00    -0.018 C 
ENDROOT
BRANCH   2   3
HETATM    3  C10 UNL     1      63.025  77.764  80.410  1.00  0.00     0.015 C 
HETATM    4  C11 UNL     1      61.743  78.380  79.899  1.00  0.00     0.040 C 
HETATM    5  C12 UNL     1      61.136  77.649  78.750  1.00  0.00     0.119 C 
HETATM    6  C13 UNL     1      62.122  76.976  77.847  1.00  0.00     0.045 C 
HETATM    7  C14 UNL     1      63.503  77.537  77.942  1.00  0.00    -0.020 C 
HETATM    8  C15 UNL     1      63.515  78.898  77.277  1.00  0.00     0.020 C 
HETATM    9  C21 UNL     1      64.049  77.546  79.328  1.00  0.00     0.001 C 
HETATM   10  C22 UNL     1      65.208  78.532  79.455  1.00  0.00     0.011 C 
BRANCH   5  11
HETATM   11  O3  UNL     1      60.294  78.544  78.057  1.00  0.00    -0.396 OA
ATOM     12  H3  UNL     1      59.491  78.085  77.841  1.00  0.00     0.210 HD
ENDBRANCH   5  11
BRANCH   7  13
HETATM   13  C16 UNL     1      64.403  76.652  77.120  1.00  0.00    -0.017 C 
HETATM   14  C17 UNL     1      64.042  75.392  76.910  1.00  0.00    -0.000 C 
BRANCH  14  15
HETATM   15  C18 UNL     1      64.880  74.504  76.123  1.00  0.00     0.043 C 
HETATM   16  C19 UNL     1      64.409  73.926  75.036  1.00  0.00     0.142 C 
BRANCH  16  17
HETATM   17  O4  UNL     1      63.108  74.170  74.643  1.00  0.00    -0.355 OA
ATOM     18  H4  UNL     1      62.480  73.457  74.632  1.00  0.00     0.218 HD
ENDBRANCH  16  17
BRANCH  16  19
HETATM   19  C20 UNL     1      65.239  73.047  74.259  1.00  0.00     0.233 C 
HETATM   20  O5  UNL     1      64.720  72.172  73.522  1.00  0.00    -0.642 OA
HETATM   21  O6  UNL     1      66.611  73.148  74.309  1.00  0.00    -0.642 OA
ENDBRANCH  16  19
ENDBRANCH  14  15
ENDBRANCH   7  13
ENDBRANCH   2   3
BRANCH   1  22
HETATM   22  C7  UNL     1      64.193  79.142  83.718  1.00  0.00     0.151 C 
HETATM   23  O2  UNL     1      63.969  78.887  84.920  1.00  0.00    -0.293 OA
BRANCH  22  24
HETATM   24  C6  UNL     1      64.961  80.327  83.347  1.00  0.00     0.114 C 
BRANCH  24  25
HETATM   25  C5  UNL     1      66.458  80.093  83.309  1.00  0.00     0.130 C 
HETATM   26  C4  UNL     1      67.065  80.499  81.981  1.00  0.00     0.035 C 
HETATM   27  C3  UNL     1      68.023  81.628  82.075  1.00  0.00     0.034 C 
HETATM   28  C2  UNL     1      69.467  81.260  82.019  1.00  0.00     0.120 C 
HETATM   29  C28 UNL     1      69.880  80.145  82.911  1.00  0.00     0.034 C 
HETATM   30  C27 UNL     1      69.694  80.498  84.384  1.00  0.00     0.037 C 
HETATM   31  C26 UNL     1      68.768  79.511  85.063  1.00  0.00     0.152 C 
HETATM   32  C23 UNL     1      67.485  80.252  85.386  1.00  0.00     0.087 A 
HETATM   33  O7  UNL     1      67.011  80.919  84.287  1.00  0.00    -0.372 OA
HETATM   34  C24 UNL     1      66.708  79.953  86.584  1.00  0.00     0.044 A 
HETATM   35  C25 UNL     1      67.598  81.145  86.629  1.00  0.00     0.044 A 
BRANCH  28  36
HETATM   36  O1  UNL     1      70.213  82.384  82.373  1.00  0.00    -0.391 OA
HETATM   37  C1  UNL     1      71.172  82.696  81.417  1.00  0.00     0.202 C 
ENDBRANCH  28  36
BRANCH  31  38
HETATM   38  O8  UNL     1      69.289  79.033  86.253  1.00  0.00    -0.393 OA
ATOM     39  H8  UNL     1      68.938  78.162  86.393  1.00  0.00     0.210 HD
ENDBRANCH  31  38
ENDBRANCH  24  25
ENDBRANCH  22  24
ENDBRANCH   1  22
TORSDOF 11
ENDMDL
MODEL 4
REMARK VINA RESULT: -8.011804025      2.561     11.056
REMARK  11 active torsions:
REMARK  status: ('A' for Active; 'I' for Inactive)
REMARK    1  A    between atoms: O1_2  and  C2_3 
REMARK    2  A    between atoms: C5_6  and  C6_7 
REMARK    3  A    between atoms: C6_7  and  C7_8 
REMARK    4  A    between atoms: C7_8  and  C8_10 
REMARK    5  A    between atoms: C9_11  and  C10_12 
REMARK    6  A    between atoms: C12_14  and  O3_15 
REMARK    7  A    between atoms: C14_18  and  C16_20 
REMARK    8  A    between atoms: C17_21  and  C18_22 
REMARK    9  A    between atoms: C19_23  and  O4_24 
REMARK   10  A    between atoms: C19_23  and  C20_26 
REMARK   11  A    between atoms: C26_35  and  O8_36 
ROOT
HETATM    1  C8  UNL     1      59.270  78.167  77.113  1.00  0.00     0.046 C 
HETATM    2  C9  UNL     1      58.730  79.187  76.477  1.00  0.00    -0.018 C 
ENDROOT
BRANCH   2   3
HETATM    3  C10 UNL     1      58.509  79.104  75.000  1.00  0.00     0.015 C 
HETATM    4  C11 UNL     1      58.612  77.644  74.626  1.00  0.00     0.040 C 
HETATM    5  C12 UNL     1      58.300  77.361  73.196  1.00  0.00     0.119 C 
HETATM    6  C13 UNL     1      57.288  78.279  72.584  1.00  0.00     0.045 C 
HETATM    7  C14 UNL     1      56.422  78.970  73.587  1.00  0.00    -0.020 C 
HETATM    8  C15 UNL     1      55.455  77.958  74.164  1.00  0.00     0.020 C 
HETATM    9  C21 UNL     1      57.188  79.720  74.620  1.00  0.00     0.001 C 
HETATM   10  C22 UNL     1      56.328  79.990  75.853  1.00  0.00     0.011 C 
BRANCH   5  11
HETATM   11  O3  UNL     1      57.931  76.004  73.088  1.00  0.00    -0.396 OA
ATOM     12  H3  UNL     1      58.104  75.585  73.923  1.00  0.00     0.210 HD
ENDBRANCH   5  11
BRANCH   7  13
HETATM   13  C16 UNL     1      55.589  79.979  72.838  1.00  0.00    -0.017 C 
HETATM   14  C17 UNL     1      56.195  80.815  72.004  1.00  0.00    -0.000 C 
BRANCH  14  15
HETATM   15  C18 UNL     1      55.431  81.802  71.262  1.00  0.00     0.043 C 
HETATM   16  C19 UNL     1      55.412  81.783  69.945  1.00  0.00     0.142 C 
BRANCH  16  17
HETATM   17  O4  UNL     1      56.124  80.816  69.266  1.00  0.00    -0.355 OA
ATOM     18  H4  UNL     1      56.891  80.427  69.671  1.00  0.00     0.218 HD
ENDBRANCH  16  17
BRANCH  16  19
HETATM   19  C20 UNL     1      54.655  82.762  69.212  1.00  0.00     0.233 C 
HETATM   20  O5  UNL     1      54.824  83.987  69.430  1.00  0.00    -0.642 OA
HETATM   21  O6  UNL     1      53.736  82.375  68.263  1.00  0.00    -0.642 OA
ENDBRANCH  16  19
ENDBRANCH  14  15
ENDBRANCH   7  13
ENDBRANCH   2   3
BRANCH   1  22
HETATM   22  C7  UNL     1      59.483  78.253  78.540  1.00  0.00     0.151 C 
HETATM   23  O2  UNL     1      58.785  79.041  79.212  1.00  0.00    -0.293 OA
BRANCH  22  24
HETATM   24  C6  UNL     1      60.500  77.431  79.191  1.00  0.00     0.114 C 
BRANCH  24  25
HETATM   25  C5  UNL     1      61.774  78.185  79.515  1.00  0.00     0.130 C 
HETATM   26  C4  UNL     1      61.781  78.706  80.937  1.00  0.00     0.035 C 
HETATM   27  C3  UNL     1      62.833  78.107  81.795  1.00  0.00     0.034 C 
HETATM   28  C2  UNL     1      64.033  78.957  82.040  1.00  0.00     0.120 C 
HETATM   29  C28 UNL     1      64.633  79.584  80.834  1.00  0.00     0.034 C 
HETATM   30  C27 UNL     1      65.172  78.540  79.861  1.00  0.00     0.037 C 
HETATM   31  C26 UNL     1      64.512  78.672  78.505  1.00  0.00     0.152 C 
HETATM   32  C23 UNL     1      63.626  77.456  78.318  1.00  0.00     0.087 A 
HETATM   33  O7  UNL     1      62.816  77.265  79.405  1.00  0.00    -0.372 OA
HETATM   34  C24 UNL     1      63.427  76.848  77.007  1.00  0.00     0.044 A 
HETATM   35  C25 UNL     1      64.406  76.196  77.919  1.00  0.00     0.044 A 
BRANCH  28  36
HETATM   36  O1  UNL     1      65.011  78.162  82.636  1.00  0.00    -0.391 OA
HETATM   37  C1  UNL     1      64.955  78.215  84.024  1.00  0.00     0.202 C 
ENDBRANCH  28  36
BRANCH  31  38
HETATM   38  O8  UNL     1      65.431  78.687  77.471  1.00  0.00    -0.393 OA
ATOM     39  H8  UNL     1      65.276  79.472  76.957  1.00  0.00     0.210 HD
ENDBRANCH  31  38
ENDBRANCH  24  25
ENDBRANCH  22  24
ENDBRANCH   1  22
TORSDOF 11
ENDMDL
MODEL 5
REMARK VINA RESULT: -7.977991614      2.688     11.153
REMARK  11 active torsions:
REMARK  status: ('A' for Active; 'I' for Inactive)
REMARK    1  A    between atoms: O1_2  and  C2_3 
REMARK    2  A    between atoms: C5_6  and  C6_7 
REMARK    3  A    between atoms: C6_7  and  C7_8 
REMARK    4  A    between atoms: C7_8  and  C8_10 
REMARK    5  A    between atoms: C9_11  and  C10_12 
REMARK    6  A    between atoms: C12_14  and  O3_15 
REMARK    7  A    between atoms: C14_18  and  C16_20 
REMARK    8  A    between atoms: C17_21  and  C18_22 
REMARK    9  A    between atoms: C19_23  and  O4_24 
REMARK   10  A    between atoms: C19_23  and  C20_26 
REMARK   11  A    between atoms: C26_35  and  O8_36 
ROOT
HETATM    1  C8  UNL     1      59.414  78.452  77.292  1.00  0.00     0.046 C 
HETATM    2  C9  UNL     1      58.418  79.068  76.687  1.00  0.00    -0.018 C 
ENDROOT
BRANCH   2   3
HETATM    3  C10 UNL     1      58.333  79.046  75.193  1.00  0.00     0.015 C 
HETATM    4  C11 UNL     1      58.490  77.603  74.771  1.00  0.00     0.040 C 
HETATM    5  C12 UNL     1      58.313  77.379  73.308  1.00  0.00     0.119 C 
HETATM    6  C13 UNL     1      57.348  78.312  72.644  1.00  0.00     0.045 C 
HETATM    7  C14 UNL     1      56.385  78.951  73.591  1.00  0.00    -0.020 C 
HETATM    8  C15 UNL     1      55.384  77.906  74.035  1.00  0.00     0.020 C 
HETATM    9  C21 UNL     1      57.045  79.664  74.721  1.00  0.00     0.001 C 
HETATM   10  C22 UNL     1      56.072  79.873  75.879  1.00  0.00     0.011 C 
BRANCH   5  11
HETATM   11  O3  UNL     1      57.974  76.023  73.111  1.00  0.00    -0.396 OA
ATOM     12  H3  UNL     1      57.895  75.613  73.964  1.00  0.00     0.210 HD
ENDBRANCH   5  11
BRANCH   7  13
HETATM   13  C16 UNL     1      55.611  79.982  72.812  1.00  0.00    -0.017 C 
HETATM   14  C17 UNL     1      56.279  80.873  72.091  1.00  0.00    -0.000 C 
BRANCH  14  15
HETATM   15  C18 UNL     1      55.573  81.884  71.324  1.00  0.00     0.043 C 
HETATM   16  C19 UNL     1      55.537  81.825  70.008  1.00  0.00     0.142 C 
BRANCH  16  17
HETATM   17  O4  UNL     1      56.178  80.792  69.355  1.00  0.00    -0.355 OA
ATOM     18  H4  UNL     1      55.998  79.893  69.608  1.00  0.00     0.218 HD
ENDBRANCH  16  17
BRANCH  16  19
HETATM   19  C20 UNL     1      54.838  82.827  69.251  1.00  0.00     0.233 C 
HETATM   20  O5  UNL     1      55.417  83.890  68.920  1.00  0.00    -0.642 OA
HETATM   21  O6  UNL     1      53.525  82.639  68.878  1.00  0.00    -0.642 OA
ENDBRANCH  16  19
ENDBRANCH  14  15
ENDBRANCH   7  13
ENDBRANCH   2   3
BRANCH   1  22
HETATM   22  C7  UNL     1      59.492  78.479  78.735  1.00  0.00     0.151 C 
HETATM   23  O2  UNL     1      58.868  79.360  79.361  1.00  0.00    -0.293 OA
BRANCH  22  24
HETATM   24  C6  UNL     1      60.290  77.489  79.454  1.00  0.00     0.114 C 
BRANCH  24  25
HETATM   25  C5  UNL     1      61.183  78.088  80.522  1.00  0.00     0.130 C 
HETATM   26  C4  UNL     1      60.633  77.868  81.916  1.00  0.00     0.035 C 
HETATM   27  C3  UNL     1      61.488  77.011  82.774  1.00  0.00     0.034 C 
HETATM   28  C2  UNL     1      62.314  77.728  83.788  1.00  0.00     0.120 C 
HETATM   29  C28 UNL     1      63.080  78.896  83.281  1.00  0.00     0.034 C 
HETATM   30  C27 UNL     1      64.125  78.484  82.248  1.00  0.00     0.037 C 
HETATM   31  C26 UNL     1      63.895  79.198  80.933  1.00  0.00     0.152 C 
HETATM   32  C23 UNL     1      63.429  78.157  79.935  1.00  0.00     0.087 A 
HETATM   33  O7  UNL     1      62.400  77.411  80.444  1.00  0.00    -0.372 OA
HETATM   34  C24 UNL     1      63.790  78.233  78.523  1.00  0.00     0.044 A 
HETATM   35  C25 UNL     1      64.574  77.300  79.376  1.00  0.00     0.044 A 
BRANCH  28  36
HETATM   36  O1  UNL     1      63.228  76.819  84.320  1.00  0.00    -0.391 OA
HETATM   37  C1  UNL     1      63.716  77.231  85.555  1.00  0.00     0.202 C 
ENDBRANCH  28  36
BRANCH  31  38
HETATM   38  O8  UNL     1      65.052  79.771  80.436  1.00  0.00    -0.393 OA
ATOM     39  H8  UNL     1      65.767  79.165  80.593  1.00  0.00     0.210 HD
ENDBRANCH  31  38
ENDBRANCH  24  25
ENDBRANCH  22  24
ENDBRANCH   1  22
TORSDOF 11
ENDMDL
