MODEL 1
REMARK VINA RESULT: -7.582233814      0.000      0.000
REMARK  11 active torsions:
REMARK  status: ('A' for Active; 'I' for Inactive)
REMARK    1  A    between atoms: C2_2  and  C4_4 
REMARK    2  A    between atoms: C7_9  and  O1_10 
REMARK    3  A    between atoms: C13_17  and  O2_18 
REMARK    4  A    between atoms: C14_20  and  C15_21 
REMARK    5  A    between atoms: C19_25  and  O3_26 
REMARK    6  A    between atoms: C23_31  and  O4_32 
REMARK    7  A    between atoms: O4_32  and  C24_33 
REMARK    8  A    between atoms: C24_33  and  C25_35 
REMARK    9  A    between atoms: C25_35  and  C26_36 
REMARK   10  A    between atoms: C26_36  and  C27_37 
REMARK   11  A    between atoms: C27_37  and  C28_38 
ROOT
HETATM    1  C4  UNL     1      59.675  78.217  77.500  1.00  0.00     0.016 C 
HETATM    2  N1  UNL     1      58.892  79.023  78.057  1.00  0.00    -0.393 N 
ATOM      3  H1  UNL     1      58.124  79.405  77.506  1.00  0.00     0.159 HD
HETATM    4  C5  UNL     1      59.015  79.432  79.401  1.00  0.00     0.127 C 
HETATM    5  C6  UNL     1      59.419  78.167  80.180  1.00  0.00     0.039 C 
HETATM    6  C7  UNL     1      59.309  78.485  81.623  1.00  0.00     0.125 C 
HETATM    7  C8  UNL     1      60.566  78.984  82.281  1.00  0.00     0.042 C 
HETATM    8  C9  UNL     1      61.760  78.233  81.884  1.00  0.00    -0.031 C 
HETATM    9  C10 UNL     1      61.524  76.743  82.158  1.00  0.00     0.016 C 
HETATM   10  C11 UNL     1      61.833  78.468  80.357  1.00  0.00     0.004 C 
HETATM   11  C12 UNL     1      63.232  78.108  80.082  1.00  0.00     0.038 C 
HETATM   12  C13 UNL     1      63.933  79.021  81.112  1.00  0.00     0.124 C 
HETATM   13  C14 UNL     1      63.079  78.662  82.333  1.00  0.00     0.031 C 
HETATM   14  C22 UNL     1      60.753  77.674  79.715  1.00  0.00     0.034 C 
HETATM   15  C23 UNL     1      60.808  77.632  78.227  1.00  0.00     0.182 C 
ENDROOT
BRANCH  13  16
HETATM   16  C15 UNL     1      63.266  79.578  83.477  1.00  0.00    -0.037 C 
HETATM   17  C16 UNL     1      62.767  80.948  83.400  1.00  0.00     0.015 C 
HETATM   18  C17 UNL     1      62.856  78.950  84.793  1.00  0.00     0.012 C 
HETATM   19  C18 UNL     1      63.891  77.982  85.316  1.00  0.00     0.032 C 
HETATM   20  C19 UNL     1      65.011  78.778  85.925  1.00  0.00     0.118 C 
HETATM   21  C20 UNL     1      65.193  80.015  85.040  1.00  0.00     0.032 C 
HETATM   22  C21 UNL     1      64.807  79.688  83.613  1.00  0.00     0.012 C 
BRANCH  20  23
HETATM   23  O3  UNL     1      64.674  79.180  87.236  1.00  0.00    -0.396 OA
ATOM     24  H3  UNL     1      65.450  79.207  87.784  1.00  0.00     0.210 HD
ENDBRANCH  20  23
ENDBRANCH  13  16
BRANCH  12  25
HETATM   25  O2  UNL     1      63.757  80.297  80.670  1.00  0.00    -0.395 OA
ATOM     26  H2  UNL     1      63.612  80.828  81.444  1.00  0.00     0.210 HD
ENDBRANCH  12  25
BRANCH   6  27
HETATM   27  O1  UNL     1      58.353  79.514  81.801  1.00  0.00    -0.395 OA
ATOM     28  H1  UNL     1      58.652  80.104  82.483  1.00  0.00     0.210 HD
ENDBRANCH   6  27
BRANCH  15  29
HETATM   29  O4  UNL     1      61.210  76.379  77.713  1.00  0.00    -0.310 OA
BRANCH  29  30
HETATM   30  C24 UNL     1      62.348  76.081  77.038  1.00  0.00     0.259 C 
HETATM   31  O5  UNL     1      63.136  76.992  76.774  1.00  0.00    -0.265 OA
BRANCH  30  32
HETATM   32  C25 UNL     1      62.643  74.672  76.620  1.00  0.00     0.111 C 
BRANCH  32  33
HETATM   33  C26 UNL     1      63.730  74.584  75.608  1.00  0.00     0.020 C 
BRANCH  33  34
HETATM   34  C27 UNL     1      64.953  73.880  76.088  1.00  0.00     0.113 C 
BRANCH  34  35
HETATM   35  C28 UNL     1      66.084  74.739  76.439  1.00  0.00     0.172 C 
HETATM   36  O6  UNL     1      66.064  75.582  77.356  1.00  0.00    -0.648 OA
HETATM   37  O7  UNL     1      67.256  74.611  75.706  1.00  0.00    -0.648 OA
ENDBRANCH  34  35
ENDBRANCH  33  34
ENDBRANCH  32  33
ENDBRANCH  30  32
ENDBRANCH  29  30
ENDBRANCH  15  29
BRANCH   1  38
HETATM   38  C2  UNL     1      59.371  77.908  76.060  1.00  0.00     0.025 C 
HETATM   39  C1  UNL     1      60.368  78.621  75.131  1.00  0.00     0.016 C 
HETATM   40  C3  UNL     1      58.015  78.445  75.652  1.00  0.00     0.016 C 
ENDBRANCH   1  38
TORSDOF 11
ENDMDL
MODEL 2
REMARK VINA RESULT: -7.434040861      2.834      5.564
REMARK  11 active torsions:
REMARK  status: ('A' for Active; 'I' for Inactive)
REMARK    1  A    between atoms: C2_2  and  C4_4 
REMARK    2  A    between atoms: C7_9  and  O1_10 
REMARK    3  A    between atoms: C13_17  and  O2_18 
REMARK    4  A    between atoms: C14_20  and  C15_21 
REMARK    5  A    between atoms: C19_25  and  O3_26 
REMARK    6  A    between atoms: C23_31  and  O4_32 
REMARK    7  A    between atoms: O4_32  and  C24_33 
REMARK    8  A    between atoms: C24_33  and  C25_35 
REMARK    9  A    between atoms: C25_35  and  C26_36 
REMARK   10  A    between atoms: C26_36  and  C27_37 
REMARK   11  A    between atoms: C27_37  and  C28_38 
ROOT
HETATM    1  C4  UNL     1      63.461  76.786  77.918  1.00  0.00     0.016 C 
HETATM    2  N1  UNL     1      64.318  77.334  78.652  1.00  0.00    -0.393 N 
ATOM      3  H1  UNL     1      65.302  77.228  78.405  1.00  0.00     0.159 HD
HETATM    4  C5  UNL     1      63.998  78.090  79.799  1.00  0.00     0.127 C 
HETATM    5  C6  UNL     1      62.747  78.904  79.419  1.00  0.00     0.039 C 
HETATM    6  C7  UNL     1      62.527  79.899  80.495  1.00  0.00     0.125 C 
HETATM    7  C8  UNL     1      61.602  79.472  81.602  1.00  0.00     0.042 C 
HETATM    8  C9  UNL     1      60.403  78.783  81.115  1.00  0.00    -0.031 C 
HETATM    9  C10 UNL     1      59.695  79.680  80.092  1.00  0.00     0.016 C 
HETATM   10  C11 UNL     1      60.977  77.541  80.396  1.00  0.00     0.004 C 
HETATM   11  C12 UNL     1      59.789  76.676  80.333  1.00  0.00     0.038 C 
HETATM   12  C13 UNL     1      59.394  76.682  81.826  1.00  0.00     0.124 C 
HETATM   13  C14 UNL     1      59.461  78.196  82.059  1.00  0.00     0.031 C 
HETATM   14  C22 UNL     1      61.601  77.989  79.124  1.00  0.00     0.034 C 
HETATM   15  C23 UNL     1      62.028  76.889  78.215  1.00  0.00     0.182 C 
ENDROOT
BRANCH  13  16
HETATM   16  C15 UNL     1      59.429  78.577  83.487  1.00  0.00    -0.037 C 
HETATM   17  C16 UNL     1      60.533  78.197  84.365  1.00  0.00     0.015 C 
HETATM   18  C17 UNL     1      59.088  80.039  83.687  1.00  0.00     0.012 C 
HETATM   19  C18 UNL     1      57.613  80.314  83.513  1.00  0.00     0.032 C 
HETATM   20  C19 UNL     1      56.904  79.870  84.762  1.00  0.00     0.118 C 
HETATM   21  C20 UNL     1      57.609  78.592  85.229  1.00  0.00     0.032 C 
HETATM   22  C21 UNL     1      58.173  77.852  84.034  1.00  0.00     0.012 C 
BRANCH  20  23
HETATM   23  O3  UNL     1      57.007  80.858  85.766  1.00  0.00    -0.396 OA
ATOM     24  H3  UNL     1      57.232  80.462  86.600  1.00  0.00     0.210 HD
ENDBRANCH  20  23
ENDBRANCH  13  16
BRANCH  12  25
HETATM   25  O2  UNL     1      60.363  75.979  82.477  1.00  0.00    -0.395 OA
ATOM     26  H2  UNL     1      59.912  75.435  83.112  1.00  0.00     0.210 HD
ENDBRANCH  12  25
BRANCH   6  27
HETATM   27  O1  UNL     1      63.763  80.187  81.123  1.00  0.00    -0.395 OA
ATOM     28  H1  UNL     1      63.597  80.539  81.990  1.00  0.00     0.210 HD
ENDBRANCH   6  27
BRANCH  15  29
HETATM   29  O4  UNL     1      61.213  76.758  77.068  1.00  0.00    -0.310 OA
BRANCH  29  30
HETATM   30  C24 UNL     1      60.497  77.723  76.440  1.00  0.00     0.259 C 
HETATM   31  O5  UNL     1      61.044  78.385  75.554  1.00  0.00    -0.265 OA
BRANCH  30  32
HETATM   32  C25 UNL     1      59.069  77.983  76.814  1.00  0.00     0.111 C 
BRANCH  32  33
HETATM   33  C26 UNL     1      58.276  78.571  75.701  1.00  0.00     0.020 C 
BRANCH  33  34
HETATM   34  C27 UNL     1      57.460  77.578  74.946  1.00  0.00     0.113 C 
BRANCH  34  35
HETATM   35  C28 UNL     1      57.967  77.214  73.623  1.00  0.00     0.172 C 
HETATM   36  O6  UNL     1      59.020  77.661  73.130  1.00  0.00    -0.648 OA
HETATM   37  O7  UNL     1      57.230  76.315  72.864  1.00  0.00    -0.648 OA
ENDBRANCH  34  35
ENDBRANCH  33  34
ENDBRANCH  32  33
ENDBRANCH  30  32
ENDBRANCH  29  30
ENDBRANCH  15  29
BRANCH   1  38
HETATM   38  C2  UNL     1      64.008  76.026  76.741  1.00  0.00     0.025 C 
HETATM   39  C1  UNL     1      63.432  74.601  76.702  1.00  0.00     0.016 C 
HETATM   40  C3  UNL     1      65.505  75.833  76.852  1.00  0.00     0.016 C 
ENDBRANCH   1  38
TORSDOF 11
ENDMDL
MODEL 3
REMARK VINA RESULT: -7.378163224      2.856      5.778
REMARK  11 active torsions:
REMARK  status: ('A' for Active; 'I' for Inactive)
REMARK    1  A    between atoms: C2_2  and  C4_4 
REMARK    2  A    between atoms: C7_9  and  O1_10 
REMARK    3  A    between atoms: C13_17  and  O2_18 
REMARK    4  A    between atoms: C14_20  and  C15_21 
REMARK    5  A    between atoms: C19_25  and  O3_26 
REMARK    6  A    between atoms: C23_31  and  O4_32 
REMARK    7  A    between atoms: O4_32  and  C24_33 
REMARK    8  A    between atoms: C24_33  and  C25_35 
REMARK    9  A    between atoms: C25_35  and  C26_36 
REMARK   10  A    between atoms: C26_36  and  C27_37 
REMARK   11  A    between atoms: C27_37  and  C28_38 
ROOT
HETATM    1  C4  UNL     1      63.425  76.746  77.728  1.00  0.00     0.016 C 
HETATM    2  N1  UNL     1      64.298  77.304  78.434  1.00  0.00    -0.393 N 
ATOM      3  H1  UNL     1      65.277  77.186  78.172  1.00  0.00     0.159 HD
HETATM    4  C5  UNL     1      64.003  78.088  79.569  1.00  0.00     0.127 C 
HETATM    5  C6  UNL     1      62.752  78.902  79.193  1.00  0.00     0.039 C 
HETATM    6  C7  UNL     1      62.557  79.922  80.250  1.00  0.00     0.125 C 
HETATM    7  C8  UNL     1      61.649  79.527  81.382  1.00  0.00     0.042 C 
HETATM    8  C9  UNL     1      60.437  78.835  80.932  1.00  0.00    -0.031 C 
HETATM    9  C10 UNL     1      59.717  79.713  79.902  1.00  0.00     0.016 C 
HETATM   10  C11 UNL     1      60.990  77.573  80.231  1.00  0.00     0.004 C 
HETATM   11  C12 UNL     1      59.795  76.715  80.209  1.00  0.00     0.038 C 
HETATM   12  C13 UNL     1      59.427  76.758  81.708  1.00  0.00     0.124 C 
HETATM   13  C14 UNL     1      59.508  78.275  81.906  1.00  0.00     0.031 C 
HETATM   14  C22 UNL     1      61.594  77.988  78.939  1.00  0.00     0.034 C 
HETATM   15  C23 UNL     1      61.998  76.865  78.047  1.00  0.00     0.182 C 
ENDROOT
BRANCH  13  16
HETATM   16  C15 UNL     1      59.504  78.689  83.325  1.00  0.00    -0.037 C 
HETATM   17  C16 UNL     1      60.645  78.367  84.178  1.00  0.00     0.015 C 
HETATM   18  C17 UNL     1      59.117  80.142  83.502  1.00  0.00     0.012 C 
HETATM   19  C18 UNL     1      57.629  80.362  83.366  1.00  0.00     0.032 C 
HETATM   20  C19 UNL     1      56.973  79.923  84.645  1.00  0.00     0.118 C 
HETATM   21  C20 UNL     1      57.736  78.682  85.119  1.00  0.00     0.032 C 
HETATM   22  C21 UNL     1      58.290  77.933  83.925  1.00  0.00     0.012 C 
BRANCH  20  23
HETATM   23  O3  UNL     1      57.070  80.938  85.623  1.00  0.00    -0.396 OA
ATOM     24  H3  UNL     1      56.213  81.306  85.805  1.00  0.00     0.210 HD
ENDBRANCH  20  23
ENDBRANCH  13  16
BRANCH  12  25
HETATM   25  O2  UNL     1      60.403  76.062  82.357  1.00  0.00    -0.395 OA
ATOM     26  H2  UNL     1      60.254  75.147  82.154  1.00  0.00     0.210 HD
ENDBRANCH  12  25
BRANCH   6  27
HETATM   27  O1  UNL     1      63.805  80.216  80.850  1.00  0.00    -0.395 OA
ATOM     28  H1  UNL     1      63.782  79.954  81.763  1.00  0.00     0.210 HD
ENDBRANCH   6  27
BRANCH  15  29
HETATM   29  O4  UNL     1      61.162  76.714  76.918  1.00  0.00    -0.310 OA
BRANCH  29  30
HETATM   30  C24 UNL     1      60.474  77.677  76.256  1.00  0.00     0.259 C 
HETATM   31  O5  UNL     1      61.060  78.339  75.396  1.00  0.00    -0.265 OA
BRANCH  30  32
HETATM   32  C25 UNL     1      59.029  77.934  76.562  1.00  0.00     0.111 C 
BRANCH  32  33
HETATM   33  C26 UNL     1      58.642  79.358  76.377  1.00  0.00     0.020 C 
BRANCH  33  34
HETATM   34  C27 UNL     1      57.496  79.561  75.446  1.00  0.00     0.113 C 
BRANCH  34  35
HETATM   35  C28 UNL     1      57.838  80.081  74.122  1.00  0.00     0.172 C 
HETATM   36  O6  UNL     1      58.891  79.809  73.514  1.00  0.00    -0.648 OA
HETATM   37  O7  UNL     1      56.936  80.933  73.500  1.00  0.00    -0.648 OA
ENDBRANCH  34  35
ENDBRANCH  33  34
ENDBRANCH  32  33
ENDBRANCH  30  32
ENDBRANCH  29  30
ENDBRANCH  15  29
BRANCH   1  38
HETATM   38  C2  UNL     1      63.946  75.956  76.558  1.00  0.00     0.025 C 
HETATM   39  C1  UNL     1      63.303  74.560  76.519  1.00  0.00     0.016 C 
HETATM   40  C3  UNL     1      65.431  75.693  76.685  1.00  0.00     0.016 C 
ENDBRANCH   1  38
TORSDOF 11
ENDMDL
MODEL 4
REMARK VINA RESULT: -7.277769336      3.116      5.938
REMARK  11 active torsions:
REMARK  status: ('A' for Active; 'I' for Inactive)
REMARK    1  A    between atoms: C2_2  and  C4_4 
REMARK    2  A    between atoms: C7_9  and  O1_10 
REMARK    3  A    between atoms: C13_17  and  O2_18 
REMARK    4  A    between atoms: C14_20  and  C15_21 
REMARK    5  A    between atoms: C19_25  and  O3_26 
REMARK    6  A    between atoms: C23_31  and  O4_32 
REMARK    7  A    between atoms: O4_32  and  C24_33 
REMARK    8  A    between atoms: C24_33  and  C25_35 
REMARK    9  A    between atoms: C25_35  and  C26_36 
REMARK   10  A    between atoms: C26_36  and  C27_37 
REMARK   11  A    between atoms: C27_37  and  C28_38 
ROOT
HETATM    1  C4  UNL     1      63.178  77.867  78.450  1.00  0.00     0.016 C 
HETATM    2  N1  UNL     1      63.746  78.719  79.174  1.00  0.00    -0.393 N 
ATOM      3  H1  UNL     1      64.709  78.974  78.952  1.00  0.00     0.159 HD
HETATM    4  C5  UNL     1      63.129  79.346  80.277  1.00  0.00     0.127 C 
HETATM    5  C6  UNL     1      61.682  79.628  79.833  1.00  0.00     0.039 C 
HETATM    6  C7  UNL     1      61.073  80.510  80.856  1.00  0.00     0.125 C 
HETATM    7  C8  UNL     1      60.329  79.813  81.963  1.00  0.00     0.042 C 
HETATM    8  C9  UNL     1      59.486  78.714  81.485  1.00  0.00    -0.031 C 
HETATM    9  C10 UNL     1      58.536  79.249  80.406  1.00  0.00     0.016 C 
HETATM   10  C11 UNL     1      60.501  77.744  80.837  1.00  0.00     0.004 C 
HETATM   11  C12 UNL     1      59.716  76.502  80.792  1.00  0.00     0.038 C 
HETATM   12  C13 UNL     1      59.293  76.417  82.275  1.00  0.00     0.124 C 
HETATM   13  C14 UNL     1      58.791  77.856  82.437  1.00  0.00     0.031 C 
HETATM   14  C22 UNL     1      60.963  78.344  79.559  1.00  0.00     0.034 C 
HETATM   15  C23 UNL     1      61.797  77.446  78.712  1.00  0.00     0.182 C 
ENDROOT
BRANCH  13  16
HETATM   16  C15 UNL     1      58.569  78.251  83.843  1.00  0.00    -0.037 C 
HETATM   17  C16 UNL     1      59.711  78.428  84.737  1.00  0.00     0.015 C 
HETATM   18  C17 UNL     1      57.624  79.427  83.971  1.00  0.00     0.012 C 
HETATM   19  C18 UNL     1      56.179  79.027  83.788  1.00  0.00     0.032 C 
HETATM   20  C19 UNL     1      55.709  78.377  85.059  1.00  0.00     0.118 C 
HETATM   21  C20 UNL     1      56.890  77.554  85.587  1.00  0.00     0.032 C 
HETATM   22  C21 UNL     1      57.741  77.078  84.429  1.00  0.00     0.012 C 
BRANCH  20  23
HETATM   23  O3  UNL     1      55.354  79.357  86.012  1.00  0.00    -0.396 OA
ATOM     24  H3  UNL     1      56.062  79.980  86.126  1.00  0.00     0.210 HD
ENDBRANCH  20  23
ENDBRANCH  13  16
BRANCH  12  25
HETATM   25  O2  UNL     1      60.428  76.144  82.978  1.00  0.00    -0.395 OA
ATOM     26  H2  UNL     1      60.263  75.331  83.439  1.00  0.00     0.210 HD
ENDBRANCH  12  25
BRANCH   6  27
HETATM   27  O1  UNL     1      62.092  81.256  81.495  1.00  0.00    -0.395 OA
ATOM     28  H1  UNL     1      61.878  81.353  82.415  1.00  0.00     0.210 HD
ENDBRANCH   6  27
BRANCH  15  29
HETATM   29  O4  UNL     1      61.130  76.982  77.556  1.00  0.00    -0.310 OA
BRANCH  29  30
HETATM   30  C24 UNL     1      60.424  77.708  76.653  1.00  0.00     0.259 C 
HETATM   31  O5  UNL     1      61.013  78.165  75.670  1.00  0.00    -0.265 OA
BRANCH  30  32
HETATM   32  C25 UNL     1      58.958  77.952  76.845  1.00  0.00     0.111 C 
BRANCH  32  33
HETATM   33  C26 UNL     1      58.595  79.392  76.759  1.00  0.00     0.020 C 
BRANCH  33  34
HETATM   34  C27 UNL     1      57.554  79.696  75.736  1.00  0.00     0.113 C 
BRANCH  34  35
HETATM   35  C28 UNL     1      58.029  80.364  74.525  1.00  0.00     0.172 C 
HETATM   36  O6  UNL     1      59.229  80.470  74.210  1.00  0.00    -0.648 OA
HETATM   37  O7  UNL     1      57.087  80.919  73.669  1.00  0.00    -0.648 OA
ENDBRANCH  34  35
ENDBRANCH  33  34
ENDBRANCH  32  33
ENDBRANCH  30  32
ENDBRANCH  29  30
ENDBRANCH  15  29
BRANCH   1  38
HETATM   38  C2  UNL     1      64.008  77.320  77.321  1.00  0.00     0.025 C 
HETATM   39  C1  UNL     1      64.840  76.117  77.795  1.00  0.00     0.016 C 
HETATM   40  C3  UNL     1      65.029  78.330  76.844  1.00  0.00     0.016 C 
ENDBRANCH   1  38
TORSDOF 11
ENDMDL
MODEL 5
REMARK VINA RESULT: -7.163711057      1.385      1.677
REMARK  11 active torsions:
REMARK  status: ('A' for Active; 'I' for Inactive)
REMARK    1  A    between atoms: C2_2  and  C4_4 
REMARK    2  A    between atoms: C7_9  and  O1_10 
REMARK    3  A    between atoms: C13_17  and  O2_18 
REMARK    4  A    between atoms: C14_20  and  C15_21 
REMARK    5  A    between atoms: C19_25  and  O3_26 
REMARK    6  A    between atoms: C23_31  and  O4_32 
REMARK    7  A    between atoms: O4_32  and  C24_33 
REMARK    8  A    between atoms: C24_33  and  C25_35 
REMARK    9  A    between atoms: C25_35  and  C26_36 
REMARK   10  A    between atoms: C26_36  and  C27_37 
REMARK   11  A    between atoms: C27_37  and  C28_38 
ROOT
HETATM    1  C4  UNL     1      58.340  79.446  77.704  1.00  0.00     0.016 C 
HETATM    2  N1  UNL     1      57.717  80.053  78.607  1.00  0.00    -0.393 N 
ATOM      3  H1  UNL     1      56.821  80.479  78.371  1.00  0.00     0.159 HD
HETATM    4  C5  UNL     1      58.185  80.180  79.932  1.00  0.00     0.127 C 
HETATM    5  C6  UNL     1      58.810  78.816  80.280  1.00  0.00     0.039 C 
HETATM    6  C7  UNL     1      59.082  78.816  81.736  1.00  0.00     0.125 C 
HETATM    7  C8  UNL     1      60.458  79.266  82.145  1.00  0.00     0.042 C 
HETATM    8  C9  UNL     1      61.519  78.713  81.298  1.00  0.00    -0.031 C 
HETATM    9  C10 UNL     1      61.398  77.184  81.285  1.00  0.00     0.016 C 
HETATM   10  C11 UNL     1      61.176  79.266  79.896  1.00  0.00     0.004 C 
HETATM   11  C12 UNL     1      62.459  79.085  79.199  1.00  0.00     0.038 C 
HETATM   12  C13 UNL     1      63.389  79.816  80.193  1.00  0.00     0.124 C 
HETATM   13  C14 UNL     1      62.900  79.142  81.479  1.00  0.00     0.031 C 
HETATM   14  C22 UNL     1      59.982  78.540  79.391  1.00  0.00     0.034 C 
HETATM   15  C23 UNL     1      59.638  78.815  77.968  1.00  0.00     0.182 C 
ENDROOT
BRANCH  13  16
HETATM   16  C15 UNL     1      63.366  79.810  82.712  1.00  0.00    -0.037 C 
HETATM   17  C16 UNL     1      62.796  81.098  83.100  1.00  0.00     0.015 C 
HETATM   18  C17 UNL     1      63.392  78.875  83.903  1.00  0.00     0.012 C 
HETATM   19  C18 UNL     1      64.582  77.946  83.879  1.00  0.00     0.032 C 
HETATM   20  C19 UNL     1      65.789  78.720  84.329  1.00  0.00     0.118 C 
HETATM   21  C20 UNL     1      65.641  80.130  83.747  1.00  0.00     0.032 C 
HETATM   22  C21 UNL     1      64.872  80.069  82.445  1.00  0.00     0.012 C 
BRANCH  20  23
HETATM   23  O3  UNL     1      65.830  78.794  85.739  1.00  0.00    -0.396 OA
ATOM     24  H3  UNL     1      65.979  79.689  86.021  1.00  0.00     0.210 HD
ENDBRANCH  20  23
ENDBRANCH  13  16
BRANCH  12  25
HETATM   25  O2  UNL     1      63.073  81.138  80.106  1.00  0.00    -0.395 OA
ATOM     26  H2  UNL     1      63.574  81.481  79.375  1.00  0.00     0.210 HD
ENDBRANCH  12  25
BRANCH   6  27
HETATM   27  O1  UNL     1      58.186  79.705  82.377  1.00  0.00    -0.395 OA
ATOM     28  H1  UNL     1      57.747  80.233  81.721  1.00  0.00     0.210 HD
ENDBRANCH   6  27
BRANCH  15  29
HETATM   29  O4  UNL     1      59.915  77.733  77.102  1.00  0.00    -0.310 OA
BRANCH  29  30
HETATM   30  C24 UNL     1      60.880  77.652  76.152  1.00  0.00     0.259 C 
HETATM   31  O5  UNL     1      60.583  77.904  74.982  1.00  0.00    -0.265 OA
BRANCH  30  32
HETATM   32  C25 UNL     1      62.281  77.262  76.516  1.00  0.00     0.111 C 
BRANCH  32  33
HETATM   33  C26 UNL     1      62.353  75.957  77.226  1.00  0.00     0.020 C 
BRANCH  33  34
HETATM   34  C27 UNL     1      63.139  74.915  76.506  1.00  0.00     0.113 C 
BRANCH  34  35
HETATM   35  C28 UNL     1      64.594  75.048  76.586  1.00  0.00     0.172 C 
HETATM   36  O6  UNL     1      65.220  75.257  77.641  1.00  0.00    -0.648 OA
HETATM   37  O7  UNL     1      65.327  74.935  75.413  1.00  0.00    -0.648 OA
ENDBRANCH  34  35
ENDBRANCH  33  34
ENDBRANCH  32  33
ENDBRANCH  30  32
ENDBRANCH  29  30
ENDBRANCH  15  29
BRANCH   1  38
HETATM   38  C2  UNL     1      57.669  79.422  76.358  1.00  0.00     0.025 C 
HETATM   39  C1  UNL     1      58.289  80.476  75.426  1.00  0.00     0.016 C 
HETATM   40  C3  UNL     1      56.209  79.809  76.460  1.00  0.00     0.016 C 
ENDBRANCH   1  38
TORSDOF 11
ENDMDL
