MODEL 1
REMARK VINA RESULT: -8.963793794      0.000      0.000
REMARK  11 active torsions:
REMARK  status: ('A' for Active; 'I' for Inactive)
REMARK    1  A    between atoms: C2_2  and  C3_3 
REMARK    2  A    between atoms: C3_3  and  C4_4 
REMARK    3  A    between atoms: C4_4  and  C5_5 
REMARK    4  A    between atoms: C9_10  and  O1_11 
REMARK    5  A    between atoms: C11_13  and  O2_14 
REMARK    6  A    between atoms: C12_16  and  O3_17 
REMARK    7  A    between atoms: C15_21  and  C16_22 
REMARK       I    between atoms: C16_22  and  N1_24 
REMARK    8  A    between atoms: N1_24  and  C17_26 
REMARK    9  A    between atoms: C17_26  and  C18_27 
REMARK   10  A    between atoms: N2_32  and  N3_34 
REMARK   11  A    between atoms: N3_34  and  C22_36 
ROOT
HETATM    1  C5  UNL     1      12.038  37.886  77.482  1.00  0.00    -0.017 A 
HETATM    2  C6  UNL     1      10.785  37.339  77.268  1.00  0.00     0.026 A 
HETATM    3  C7  UNL     1       9.842  37.193  78.262  1.00  0.00    -0.002 A 
HETATM    4  C8  UNL     1       8.587  36.647  78.071  1.00  0.00     0.058 A 
HETATM    5 BR1  UNL     1       8.127  36.053  76.303  1.00  0.00    -0.047 Br
HETATM    6  C9  UNL     1       7.678  36.522  79.113  1.00  0.00     0.122 A 
HETATM    7  C11 UNL     1       8.027  36.953  80.387  1.00  0.00     0.135 A 
HETATM    8  C12 UNL     1       9.272  37.495  80.571  1.00  0.00     0.113 A 
HETATM    9  C13 UNL     1      10.193  37.630  79.545  1.00  0.00     0.013 A 
HETATM   10  C14 UNL     1      11.407  38.168  79.785  1.00  0.00     0.033 A 
HETATM   11  C15 UNL     1      12.366  38.309  78.749  1.00  0.00     0.043 A 
ENDROOT
BRANCH   1  12
HETATM   12  C4  UNL     1      12.964  38.004  76.372  1.00  0.00     0.043 C 
BRANCH  12  13
HETATM   13  C3  UNL     1      13.042  36.980  75.365  1.00  0.00     0.048 C 
HETATM   14  N2  UNL     1      12.688  37.081  74.162  1.00  0.00    -0.299 N 
ATOM     15  H2  UNL     1      12.854  36.233  73.623  1.00  0.00     0.187 HD
BRANCH  13  16
HETATM   16  C2  UNL     1      13.622  35.679  75.760  1.00  0.00     0.021 C 
HETATM   17  C1  UNL     1      12.888  34.582  75.802  1.00  0.00     0.013 C 
ENDBRANCH  13  16
BRANCH  14  18
HETATM   18  N3  UNL     1      12.131  38.080  73.428  1.00  0.00    -0.285 N 
ATOM     19  H3  UNL     1      12.744  38.672  72.868  1.00  0.00     0.188 HD
BRANCH  18  20
HETATM   20  C22 UNL     1      10.837  38.318  73.406  1.00  0.00     0.119 A 
HETATM   21  C23 UNL     1      10.243  39.269  74.200  1.00  0.00     0.050 A 
HETATM   22  C24 UNL     1       8.901  39.555  74.174  1.00  0.00     0.005 A 
HETATM   23  C25 UNL     1       8.116  38.819  73.278  1.00  0.00     0.017 A 
HETATM   24  C26 UNL     1       8.731  37.855  72.476  1.00  0.00     0.089 A 
HETATM   25  N4  UNL     1      10.047  37.630  72.555  1.00  0.00    -0.351 N 
ATOM     26  H4  UNL     1      10.465  36.918  71.955  1.00  0.00     0.166 HD
ENDBRANCH  18  20
ENDBRANCH  14  18
ENDBRANCH  12  13
ENDBRANCH   1  12
BRANCH  11  27
HETATM   27  C16 UNL     1      13.594  38.912  79.177  1.00  0.00     0.252 C 
HETATM   28  O4  UNL     1      14.554  38.104  79.475  1.00  0.00    -0.268 OA
HETATM   29  N1  UNL     1      13.849  40.271  79.291  1.00  0.00    -0.354 N 
ATOM     30  H1  UNL     1      13.122  40.943  79.044  1.00  0.00     0.162 HD
BRANCH  29  31
HETATM   31  C17 UNL     1      15.164  40.755  79.767  1.00  0.00     0.155 C 
BRANCH  31  32
HETATM   32  C18 UNL     1      14.896  41.916  80.699  1.00  0.00     0.139 C 
HETATM   33  C19 UNL     1      16.048  42.121  81.661  1.00  0.00     0.035 C 
HETATM   34  C20 UNL     1      15.247  42.625  82.881  1.00  0.00     0.029 C 
HETATM   35  C21 UNL     1      14.084  41.640  82.790  1.00  0.00     0.168 C 
HETATM   36  O5  UNL     1      13.784  41.648  81.445  1.00  0.00    -0.384 OA
ENDBRANCH  31  32
ENDBRANCH  29  31
ENDBRANCH  11  27
BRANCH   6  37
HETATM   37  O1  UNL     1       6.448  35.967  78.842  1.00  0.00    -0.352 OA
HETATM   38  C10 UNL     1       6.070  34.634  79.035  1.00  0.00     0.210 C 
ENDBRANCH   6  37
BRANCH   8  39
HETATM   39  O3  UNL     1       9.660  37.940  81.826  1.00  0.00    -0.357 OA
ATOM     40  H3  UNL     1       9.070  38.472  82.347  1.00  0.00     0.217 HD
ENDBRANCH   8  39
BRANCH   7  41
HETATM   41  O2  UNL     1       7.115  36.824  81.426  1.00  0.00    -0.356 OA
ATOM     42  H2  UNL     1       6.504  37.531  81.601  1.00  0.00     0.218 HD
ENDBRANCH   7  41
TORSDOF 11
ENDMDL
MODEL 2
REMARK VINA RESULT: -8.629081465      1.948      2.568
REMARK  11 active torsions:
REMARK  status: ('A' for Active; 'I' for Inactive)
REMARK    1  A    between atoms: C2_2  and  C3_3 
REMARK    2  A    between atoms: C3_3  and  C4_4 
REMARK    3  A    between atoms: C4_4  and  C5_5 
REMARK    4  A    between atoms: C9_10  and  O1_11 
REMARK    5  A    between atoms: C11_13  and  O2_14 
REMARK    6  A    between atoms: C12_16  and  O3_17 
REMARK    7  A    between atoms: C15_21  and  C16_22 
REMARK       I    between atoms: C16_22  and  N1_24 
REMARK    8  A    between atoms: N1_24  and  C17_26 
REMARK    9  A    between atoms: C17_26  and  C18_27 
REMARK   10  A    between atoms: N2_32  and  N3_34 
REMARK   11  A    between atoms: N3_34  and  C22_36 
ROOT
HETATM    1  C5  UNL     1      11.780  37.748  77.298  1.00  0.00    -0.017 A 
HETATM    2  C6  UNL     1      10.513  37.201  77.194  1.00  0.00     0.026 A 
HETATM    3  C7  UNL     1       9.651  37.080  78.263  1.00  0.00    -0.002 A 
HETATM    4  C8  UNL     1       8.384  36.533  78.183  1.00  0.00     0.058 A 
HETATM    5 BR1  UNL     1       7.786  35.902  76.470  1.00  0.00    -0.047 Br
HETATM    6  C9  UNL     1       7.559  36.433  79.295  1.00  0.00     0.122 A 
HETATM    7  C11 UNL     1       8.009  36.891  80.528  1.00  0.00     0.135 A 
HETATM    8  C12 UNL     1       9.264  37.432  80.602  1.00  0.00     0.113 A 
HETATM    9  C13 UNL     1      10.103  37.542  79.505  1.00  0.00     0.013 A 
HETATM   10  C14 UNL     1      11.332  38.082  79.636  1.00  0.00     0.033 A 
HETATM   11  C15 UNL     1      12.207  38.198  78.525  1.00  0.00     0.043 A 
ENDROOT
BRANCH   1  12
HETATM   12  C4  UNL     1      12.615  37.840  76.116  1.00  0.00     0.043 C 
BRANCH  12  13
HETATM   13  C3  UNL     1      13.411  36.721  75.687  1.00  0.00     0.048 C 
HETATM   14  N2  UNL     1      14.341  36.743  74.840  1.00  0.00    -0.299 N 
ATOM     15  H2  UNL     1      14.782  35.833  74.706  1.00  0.00     0.187 HD
BRANCH  13  16
HETATM   16  C2  UNL     1      13.140  35.411  76.316  1.00  0.00     0.021 C 
HETATM   17  C1  UNL     1      12.529  34.444  75.656  1.00  0.00     0.013 C 
ENDBRANCH  13  16
BRANCH  14  18
HETATM   18  N3  UNL     1      14.885  37.718  74.066  1.00  0.00    -0.285 N 
ATOM     19  H3  UNL     1      15.412  38.463  74.521  1.00  0.00     0.188 HD
BRANCH  18  20
HETATM   20  C22 UNL     1      14.763  37.745  72.756  1.00  0.00     0.119 A 
HETATM   21  C23 UNL     1      13.828  38.520  72.113  1.00  0.00     0.050 A 
HETATM   22  C24 UNL     1      13.702  38.586  70.749  1.00  0.00     0.005 A 
HETATM   23  C25 UNL     1      14.588  37.810  69.993  1.00  0.00     0.017 A 
HETATM   24  C26 UNL     1      15.534  37.026  70.658  1.00  0.00     0.089 A 
HETATM   25  N4  UNL     1      15.601  37.010  71.994  1.00  0.00    -0.351 N 
ATOM     26  H4  UNL     1      16.304  36.427  72.449  1.00  0.00     0.166 HD
ENDBRANCH  18  20
ENDBRANCH  14  18
ENDBRANCH  12  13
ENDBRANCH   1  12
BRANCH  11  27
HETATM   27  C16 UNL     1      13.466  38.806  78.842  1.00  0.00     0.252 C 
HETATM   28  O4  UNL     1      14.483  38.016  78.902  1.00  0.00    -0.268 OA
HETATM   29  N1  UNL     1      13.693  40.154  79.079  1.00  0.00    -0.354 N 
ATOM     30  H1  UNL     1      12.917  40.815  79.021  1.00  0.00     0.162 HD
BRANCH  29  31
HETATM   31  C17 UNL     1      15.048  40.644  79.417  1.00  0.00     0.155 C 
BRANCH  31  32
HETATM   32  C18 UNL     1      15.102  40.792  80.922  1.00  0.00     0.139 C 
HETATM   33  C19 UNL     1      13.835  41.428  81.454  1.00  0.00     0.035 C 
HETATM   34  C20 UNL     1      14.443  42.203  82.643  1.00  0.00     0.029 C 
HETATM   35  C21 UNL     1      15.692  42.724  81.937  1.00  0.00     0.168 C 
HETATM   36  O5  UNL     1      16.142  41.613  81.256  1.00  0.00    -0.384 OA
ENDBRANCH  31  32
ENDBRANCH  29  31
ENDBRANCH  11  27
BRANCH   6  37
HETATM   37  O1  UNL     1       6.312  35.876  79.134  1.00  0.00    -0.352 OA
HETATM   38  C10 UNL     1       5.940  34.558  79.419  1.00  0.00     0.210 C 
ENDBRANCH   6  37
BRANCH   8  39
HETATM   39  O3  UNL     1       9.751  37.903  81.813  1.00  0.00    -0.357 OA
ATOM     40  H3  UNL     1       9.169  37.992  82.558  1.00  0.00     0.217 HD
ENDBRANCH   8  39
BRANCH   7  41
HETATM   41  O2  UNL     1       7.181  36.787  81.638  1.00  0.00    -0.356 OA
ATOM     42  H2  UNL     1       6.674  35.994  81.769  1.00  0.00     0.218 HD
ENDBRANCH   7  41
TORSDOF 11
ENDMDL
MODEL 3
REMARK VINA RESULT: -8.461092597      1.685      3.545
REMARK  11 active torsions:
REMARK  status: ('A' for Active; 'I' for Inactive)
REMARK    1  A    between atoms: C2_2  and  C3_3 
REMARK    2  A    between atoms: C3_3  and  C4_4 
REMARK    3  A    between atoms: C4_4  and  C5_5 
REMARK    4  A    between atoms: C9_10  and  O1_11 
REMARK    5  A    between atoms: C11_13  and  O2_14 
REMARK    6  A    between atoms: C12_16  and  O3_17 
REMARK    7  A    between atoms: C15_21  and  C16_22 
REMARK       I    between atoms: C16_22  and  N1_24 
REMARK    8  A    between atoms: N1_24  and  C17_26 
REMARK    9  A    between atoms: C17_26  and  C18_27 
REMARK   10  A    between atoms: N2_32  and  N3_34 
REMARK   11  A    between atoms: N3_34  and  C22_36 
ROOT
HETATM    1  C5  UNL     1      10.171  37.801  78.165  1.00  0.00    -0.017 A 
HETATM    2  C6  UNL     1       9.019  37.053  78.340  1.00  0.00     0.026 A 
HETATM    3  C7  UNL     1       8.569  36.634  79.573  1.00  0.00    -0.002 A 
HETATM    4  C8  UNL     1       7.425  35.884  79.771  1.00  0.00     0.058 A 
HETATM    5 BR1  UNL     1       6.394  35.397  78.225  1.00  0.00    -0.047 Br
HETATM    6  C9  UNL     1       7.021  35.486  81.038  1.00  0.00     0.122 A 
HETATM    7  C11 UNL     1       7.781  35.844  82.146  1.00  0.00     0.135 A 
HETATM    8  C12 UNL     1       8.913  36.587  81.945  1.00  0.00     0.113 A 
HETATM    9  C13 UNL     1       9.333  36.996  80.690  1.00  0.00     0.013 A 
HETATM   10  C14 UNL     1      10.459  37.724  80.550  1.00  0.00     0.033 A 
HETATM   11  C15 UNL     1      10.909  38.148  79.273  1.00  0.00     0.043 A 
ENDROOT
BRANCH   1  12
HETATM   12  C4  UNL     1      10.563  38.202  76.828  1.00  0.00     0.043 C 
BRANCH  12  13
HETATM   13  C3  UNL     1      10.255  37.377  75.690  1.00  0.00     0.048 C 
HETATM   14  N2  UNL     1      10.740  36.247  75.429  1.00  0.00    -0.299 N 
ATOM     15  H2  UNL     1      10.360  35.835  74.577  1.00  0.00     0.187 HD
BRANCH  13  16
HETATM   16  C2  UNL     1       9.245  37.883  74.736  1.00  0.00     0.021 C 
HETATM   17  C1  UNL     1       8.977  39.172  74.636  1.00  0.00     0.013 C 
ENDBRANCH  13  16
BRANCH  14  18
HETATM   18  N3  UNL     1      11.663  35.457  76.038  1.00  0.00    -0.285 N 
ATOM     19  H3  UNL     1      11.339  34.752  76.700  1.00  0.00     0.188 HD
BRANCH  18  20
HETATM   20  C22 UNL     1      12.956  35.560  75.814  1.00  0.00     0.119 A 
HETATM   21  C23 UNL     1      13.621  34.758  74.919  1.00  0.00     0.050 A 
HETATM   22  C24 UNL     1      14.961  34.866  74.648  1.00  0.00     0.005 A 
HETATM   23  C25 UNL     1      15.667  35.859  75.338  1.00  0.00     0.017 A 
HETATM   24  C26 UNL     1      14.980  36.668  76.246  1.00  0.00     0.089 A 
HETATM   25  N4  UNL     1      13.670  36.506  76.460  1.00  0.00    -0.351 N 
ATOM     26  H4  UNL     1      13.198  37.114  77.130  1.00  0.00     0.166 HD
ENDBRANCH  18  20
ENDBRANCH  14  18
ENDBRANCH  12  13
ENDBRANCH   1  12
BRANCH  11  27
HETATM   27  C16 UNL     1      12.113  38.923  79.310  1.00  0.00     0.252 C 
HETATM   28  O4  UNL     1      13.181  38.341  78.883  1.00  0.00    -0.268 OA
HETATM   29  N1  UNL     1      12.236  40.232  79.752  1.00  0.00    -0.354 N 
ATOM     30  H1  UNL     1      11.411  40.735  80.079  1.00  0.00     0.162 HD
BRANCH  29  31
HETATM   31  C17 UNL     1      13.553  40.908  79.755  1.00  0.00     0.155 C 
BRANCH  31  32
HETATM   32  C18 UNL     1      14.095  40.816  81.164  1.00  0.00     0.139 C 
HETATM   33  C19 UNL     1      13.266  41.645  82.123  1.00  0.00     0.035 C 
HETATM   34  C20 UNL     1      14.389  42.072  83.093  1.00  0.00     0.029 C 
HETATM   35  C21 UNL     1      15.460  42.384  82.051  1.00  0.00     0.168 C 
HETATM   36  O5  UNL     1      15.367  41.312  81.191  1.00  0.00    -0.384 OA
ENDBRANCH  31  32
ENDBRANCH  29  31
ENDBRANCH  11  27
BRANCH   6  37
HETATM   37  O1  UNL     1       5.871  34.741  81.153  1.00  0.00    -0.352 OA
HETATM   38  C10 UNL     1       5.783  33.352  81.297  1.00  0.00     0.210 C 
ENDBRANCH   6  37
BRANCH   8  39
HETATM   39  O3  UNL     1       9.698  36.967  83.024  1.00  0.00    -0.357 OA
ATOM     40  H3  UNL     1      10.144  37.806  83.018  1.00  0.00     0.217 HD
ENDBRANCH   8  39
BRANCH   7  41
HETATM   41  O2  UNL     1       7.374  35.442  83.411  1.00  0.00    -0.356 OA
ATOM     42  H2  UNL     1       7.617  35.963  84.167  1.00  0.00     0.218 HD
ENDBRANCH   7  41
TORSDOF 11
ENDMDL
MODEL 4
REMARK VINA RESULT: -8.434632800      0.935      1.183
REMARK  11 active torsions:
REMARK  status: ('A' for Active; 'I' for Inactive)
REMARK    1  A    between atoms: C2_2  and  C3_3 
REMARK    2  A    between atoms: C3_3  and  C4_4 
REMARK    3  A    between atoms: C4_4  and  C5_5 
REMARK    4  A    between atoms: C9_10  and  O1_11 
REMARK    5  A    between atoms: C11_13  and  O2_14 
REMARK    6  A    between atoms: C12_16  and  O3_17 
REMARK    7  A    between atoms: C15_21  and  C16_22 
REMARK       I    between atoms: C16_22  and  N1_24 
REMARK    8  A    between atoms: N1_24  and  C17_26 
REMARK    9  A    between atoms: C17_26  and  C18_27 
REMARK   10  A    between atoms: N2_32  and  N3_34 
REMARK   11  A    between atoms: N3_34  and  C22_36 
ROOT
HETATM    1  C5  UNL     1      11.334  37.732  77.536  1.00  0.00    -0.017 A 
HETATM    2  C6  UNL     1      10.105  37.103  77.435  1.00  0.00     0.026 A 
HETATM    3  C7  UNL     1       9.245  36.944  78.500  1.00  0.00    -0.002 A 
HETATM    4  C8  UNL     1       8.017  36.315  78.422  1.00  0.00     0.058 A 
HETATM    5 BR1  UNL     1       7.472  35.620  76.716  1.00  0.00    -0.047 Br
HETATM    6  C9  UNL     1       7.193  36.180  79.531  1.00  0.00     0.122 A 
HETATM    7  C11 UNL     1       7.604  36.686  80.759  1.00  0.00     0.135 A 
HETATM    8  C12 UNL     1       8.821  37.308  80.831  1.00  0.00     0.113 A 
HETATM    9  C13 UNL     1       9.658  37.454  79.737  1.00  0.00     0.013 A 
HETATM   10  C14 UNL     1      10.849  38.074  79.867  1.00  0.00     0.033 A 
HETATM   11  C15 UNL     1      11.723  38.229  78.759  1.00  0.00     0.043 A 
ENDROOT
BRANCH   1  12
HETATM   12  C4  UNL     1      12.169  37.858  76.358  1.00  0.00     0.043 C 
BRANCH  12  13
HETATM   13  C3  UNL     1      12.521  36.704  75.576  1.00  0.00     0.048 C 
HETATM   14  N2  UNL     1      12.450  36.594  74.325  1.00  0.00    -0.299 N 
ATOM     15  H2  UNL     1      12.772  35.689  73.983  1.00  0.00     0.187 HD
BRANCH  13  16
HETATM   16  C2  UNL     1      13.049  35.527  76.298  1.00  0.00     0.021 C 
HETATM   17  C1  UNL     1      12.776  34.297  75.903  1.00  0.00     0.013 C 
ENDBRANCH  13  16
BRANCH  14  18
HETATM   18  N3  UNL     1      12.036  37.424  73.332  1.00  0.00    -0.285 N 
ATOM     19  H3  UNL     1      12.666  37.600  72.550  1.00  0.00     0.188 HD
BRANCH  18  20
HETATM   20  C22 UNL     1      10.858  38.011  73.332  1.00  0.00     0.119 A 
HETATM   21  C23 UNL     1       9.691  37.336  73.599  1.00  0.00     0.050 A 
HETATM   22  C24 UNL     1       8.456  37.931  73.633  1.00  0.00     0.005 A 
HETATM   23  C25 UNL     1       8.411  39.307  73.376  1.00  0.00     0.017 A 
HETATM   24  C26 UNL     1       9.603  39.982  73.105  1.00  0.00     0.089 A 
HETATM   25  N4  UNL     1      10.774  39.336  73.089  1.00  0.00    -0.351 N 
ATOM     26  H4  UNL     1      11.626  39.859  72.888  1.00  0.00     0.166 HD
ENDBRANCH  18  20
ENDBRANCH  14  18
ENDBRANCH  12  13
ENDBRANCH   1  12
BRANCH  11  27
HETATM   27  C16 UNL     1      12.937  38.921  79.073  1.00  0.00     0.252 C 
HETATM   28  O4  UNL     1      14.015  38.213  79.073  1.00  0.00    -0.268 OA
HETATM   29  N1  UNL     1      13.064  40.271  79.365  1.00  0.00    -0.354 N 
ATOM     30  H1  UNL     1      12.237  40.870  79.354  1.00  0.00     0.162 HD
BRANCH  29  31
HETATM   31  C17 UNL     1      14.384  40.853  79.693  1.00  0.00     0.155 C 
BRANCH  31  32
HETATM   32  C18 UNL     1      14.486  40.899  81.201  1.00  0.00     0.139 C 
HETATM   33  C19 UNL     1      13.219  41.455  81.817  1.00  0.00     0.035 C 
HETATM   34  C20 UNL     1      13.845  42.165  83.038  1.00  0.00     0.029 C 
HETATM   35  C21 UNL     1      15.052  42.774  82.330  1.00  0.00     0.168 C 
HETATM   36  O5  UNL     1      15.511  41.728  81.559  1.00  0.00    -0.384 OA
ENDBRANCH  31  32
ENDBRANCH  29  31
ENDBRANCH  11  27
BRANCH   6  37
HETATM   37  O1  UNL     1       5.985  35.541  79.372  1.00  0.00    -0.352 OA
HETATM   38  C10 UNL     1       4.715  36.124  79.432  1.00  0.00     0.210 C 
ENDBRANCH   6  37
BRANCH   8  39
HETATM   39  O3  UNL     1       9.268  37.828  82.037  1.00  0.00    -0.357 OA
ATOM     40  H3  UNL     1       9.791  37.294  82.623  1.00  0.00     0.217 HD
ENDBRANCH   8  39
BRANCH   7  41
HETATM   41  O2  UNL     1       6.777  36.547  81.866  1.00  0.00    -0.356 OA
ATOM     42  H2  UNL     1       6.808  35.744  82.373  1.00  0.00     0.218 HD
ENDBRANCH   7  41
TORSDOF 11
ENDMDL
MODEL 5
REMARK VINA RESULT: -8.335342964      1.666      2.942
REMARK  11 active torsions:
REMARK  status: ('A' for Active; 'I' for Inactive)
REMARK    1  A    between atoms: C2_2  and  C3_3 
REMARK    2  A    between atoms: C3_3  and  C4_4 
REMARK    3  A    between atoms: C4_4  and  C5_5 
REMARK    4  A    between atoms: C9_10  and  O1_11 
REMARK    5  A    between atoms: C11_13  and  O2_14 
REMARK    6  A    between atoms: C12_16  and  O3_17 
REMARK    7  A    between atoms: C15_21  and  C16_22 
REMARK       I    between atoms: C16_22  and  N1_24 
REMARK    8  A    between atoms: N1_24  and  C17_26 
REMARK    9  A    between atoms: C17_26  and  C18_27 
REMARK   10  A    between atoms: N2_32  and  N3_34 
REMARK   11  A    between atoms: N3_34  and  C22_36 
ROOT
HETATM    1  C5  UNL     1      10.571  37.695  77.962  1.00  0.00    -0.017 A 
HETATM    2  C6  UNL     1       9.392  36.968  77.989  1.00  0.00     0.026 A 
HETATM    3  C7  UNL     1       8.711  36.674  79.150  1.00  0.00    -0.002 A 
HETATM    4  C8  UNL     1       7.536  35.948  79.200  1.00  0.00     0.058 A 
HETATM    5 BR1  UNL     1       6.805  35.308  77.543  1.00  0.00    -0.047 Br
HETATM    6  C9  UNL     1       6.894  35.679  80.401  1.00  0.00     0.122 A 
HETATM    7  C11 UNL     1       7.438  36.146  81.592  1.00  0.00     0.135 A 
HETATM    8  C12 UNL     1       8.601  36.865  81.537  1.00  0.00     0.113 A 
HETATM    9  C13 UNL     1       9.258  37.146  80.349  1.00  0.00     0.013 A 
HETATM   10  C14 UNL     1      10.403  37.857  80.355  1.00  0.00     0.033 A 
HETATM   11  C15 UNL     1      11.093  38.151  79.150  1.00  0.00     0.043 A 
ENDROOT
BRANCH   1  12
HETATM   12  C4  UNL     1      11.215  37.960  76.690  1.00  0.00     0.043 C 
BRANCH  12  13
HETATM   13  C3  UNL     1      10.442  38.089  75.484  1.00  0.00     0.048 C 
HETATM   14  N2  UNL     1      10.685  37.547  74.376  1.00  0.00    -0.299 N 
ATOM     15  H2  UNL     1       9.988  37.762  73.663  1.00  0.00     0.187 HD
BRANCH  13  16
HETATM   16  C2  UNL     1       9.218  38.916  75.545  1.00  0.00     0.021 C 
HETATM   17  C1  UNL     1       8.851  39.677  74.530  1.00  0.00     0.013 C 
ENDBRANCH  13  16
BRANCH  14  18
HETATM   18  N3  UNL     1      11.677  36.735  73.924  1.00  0.00    -0.285 N 
ATOM     19  H3  UNL     1      11.587  35.730  74.069  1.00  0.00     0.188 HD
BRANCH  18  20
HETATM   20  C22 UNL     1      12.748  37.187  73.308  1.00  0.00     0.119 A 
HETATM   21  C23 UNL     1      12.697  38.182  72.361  1.00  0.00     0.050 A 
HETATM   22  C24 UNL     1      13.802  38.689  71.727  1.00  0.00     0.005 A 
HETATM   23  C25 UNL     1      15.041  38.142  72.083  1.00  0.00     0.017 A 
HETATM   24  C26 UNL     1      15.081  37.131  73.046  1.00  0.00     0.089 A 
HETATM   25  N4  UNL     1      13.961  36.685  73.625  1.00  0.00    -0.351 N 
ATOM     26  H4  UNL     1      14.024  35.946  74.325  1.00  0.00     0.166 HD
ENDBRANCH  18  20
ENDBRANCH  14  18
ENDBRANCH  12  13
ENDBRANCH   1  12
BRANCH  11  27
HETATM   27  C16 UNL     1      12.283  38.926  79.338  1.00  0.00     0.252 C 
HETATM   28  O4  UNL     1      13.401  38.306  79.175  1.00  0.00    -0.268 OA
HETATM   29  N1  UNL     1      12.346  40.272  79.670  1.00  0.00    -0.354 N 
ATOM     30  H1  UNL     1      11.483  40.804  79.788  1.00  0.00     0.162 HD
BRANCH  29  31
HETATM   31  C17 UNL     1      13.651  40.945  79.854  1.00  0.00     0.155 C 
BRANCH  31  32
HETATM   32  C18 UNL     1      13.963  40.907  81.334  1.00  0.00     0.139 C 
HETATM   33  C19 UNL     1      12.868  41.574  82.140  1.00  0.00     0.035 C 
HETATM   34  C20 UNL     1      13.735  42.150  83.281  1.00  0.00     0.029 C 
HETATM   35  C21 UNL     1      14.899  42.649  82.428  1.00  0.00     0.168 C 
HETATM   36  O5  UNL     1      15.119  41.595  81.568  1.00  0.00    -0.384 OA
ENDBRANCH  31  32
ENDBRANCH  29  31
ENDBRANCH  11  27
BRANCH   6  37
HETATM   37  O1  UNL     1       5.729  34.948  80.368  1.00  0.00    -0.352 OA
HETATM   38  C10 UNL     1       5.591  33.578  80.612  1.00  0.00     0.210 C 
ENDBRANCH   6  37
BRANCH   8  39
HETATM   39  O3  UNL     1       9.176  37.351  82.702  1.00  0.00    -0.357 OA
ATOM     40  H3  UNL     1       9.235  38.288  82.850  1.00  0.00     0.217 HD
ENDBRANCH   8  39
BRANCH   7  41
HETATM   41  O2  UNL     1       6.793  35.872  82.791  1.00  0.00    -0.356 OA
ATOM     42  H2  UNL     1       6.036  35.297  82.793  1.00  0.00     0.218 HD
ENDBRANCH   7  41
TORSDOF 11
ENDMDL
