MODEL 1
REMARK VINA RESULT: -6.560653890      0.000      0.000
REMARK  12 active torsions:
REMARK  status: ('A' for Active; 'I' for Inactive)
REMARK    1  A    between atoms: S1_2  and  C2_3 
REMARK    2  A    between atoms: C3_4  and  C4_5 
REMARK    3  A    between atoms: C4_5  and  O2_7 
REMARK    4  A    between atoms: O2_7  and  C5_8 
REMARK    5  A    between atoms: C5_8  and  C6_9 
REMARK    6  A    between atoms: C6_9  and  C7_10 
REMARK    7  A    between atoms: C9_12  and  C10_13 
REMARK    8  A    between atoms: C10_13  and  C11_14 
REMARK    9  A    between atoms: C11_14  and  O3_16 
REMARK   10  A    between atoms: C16_21  and  O4_22 
REMARK   11  A    between atoms: C17_24  and  O5_25 
REMARK   12  A    between atoms: C23_33  and  O6_34 
ROOT
HETATM    1  C7  UNL     1      -1.255 -14.864  -7.408  1.00  0.00    -0.060 C 
HETATM    2  C8  UNL     1       0.129 -14.940  -6.906  1.00  0.00     0.033 C 
HETATM    3  C9  UNL     1       0.553 -13.766  -5.975  1.00  0.00     0.019 C 
HETATM    4  C13 UNL     1       1.655 -14.442  -5.228  1.00  0.00    -0.025 C 
HETATM    5  C14 UNL     1       1.362 -15.754  -5.115  1.00  0.00    -0.022 C 
HETATM    6  C15 UNL     1       0.099 -15.977  -5.764  1.00  0.00     0.049 C 
HETATM    7  C16 UNL     1      -0.117 -17.272  -6.435  1.00  0.00     0.166 C 
HETATM    8  C17 UNL     1      -1.646 -17.310  -6.686  1.00  0.00     0.117 C 
HETATM    9  C18 UNL     1      -1.970 -18.544  -7.393  1.00  0.00     0.024 C 
HETATM   10  C19 UNL     1      -1.118 -19.033  -8.515  1.00  0.00     0.013 C 
HETATM   11  C20 UNL     1      -3.413 -18.812  -7.732  1.00  0.00     0.013 C 
HETATM   12  C21 UNL     1      -3.906 -17.983  -8.888  1.00  0.00     0.050 C 
HETATM   13  C22 UNL     1      -4.211 -16.598  -8.361  1.00  0.00     0.022 C 
HETATM   14 BR1  UNL     1      -5.876 -15.850  -8.894  1.00  0.00    -0.053 Br
HETATM   15  C23 UNL     1      -3.493 -15.834  -7.586  1.00  0.00     0.088 C 
HETATM   16  C24 UNL     1      -2.188 -15.984  -6.950  1.00  0.00     0.016 C 
ENDROOT
BRANCH   1  17
HETATM   17  C6  UNL     1      -1.464 -14.375  -8.806  1.00  0.00     0.062 C 
BRANCH  17  18
HETATM   18  C5  UNL     1      -1.843 -12.961  -9.015  1.00  0.00     0.183 C 
BRANCH  18  19
HETATM   19  O2  UNL     1      -2.272 -12.375  -7.826  1.00  0.00    -0.318 OA
BRANCH  19  20
HETATM   20  C4  UNL     1      -3.340 -11.526  -7.702  1.00  0.00     0.283 C 
HETATM   21  O1  UNL     1      -4.518 -11.974  -7.801  1.00  0.00    -0.260 OA
BRANCH  20  22
HETATM   22  C3  UNL     1      -3.176 -10.093  -7.456  1.00  0.00     0.089 C 
HETATM   23  C2  UNL     1      -3.385  -9.586  -6.285  1.00  0.00     0.050 C 
BRANCH  23  24
HETATM   24  S1  UNL     1      -3.888 -10.499  -4.838  1.00  0.00    -0.146 SA
HETATM   25  C1  UNL     1      -4.637  -9.305  -3.666  1.00  0.00     0.095 C 
ENDBRANCH  23  24
ENDBRANCH  20  22
ENDBRANCH  19  20
ENDBRANCH  18  19
ENDBRANCH  17  18
ENDBRANCH   1  17
BRANCH   3  26
HETATM   26  C10 UNL     1       1.151 -12.668  -6.787  1.00  0.00     0.040 C 
BRANCH  26  27
HETATM   27  C11 UNL     1       0.569 -11.333  -6.691  1.00  0.00     0.114 C 
HETATM   28  C12 UNL     1       1.432 -10.118  -6.627  1.00  0.00     0.039 C 
BRANCH  27  29
HETATM   29  O3  UNL     1      -0.410 -11.273  -5.638  1.00  0.00    -0.396 OA
ATOM     30  H3  UNL     1      -1.239 -10.942  -5.964  1.00  0.00     0.210 HD
ENDBRANCH  27  29
ENDBRANCH  26  27
ENDBRANCH   3  26
BRANCH   8  31
HETATM   31  O5  UNL     1      -2.051 -17.644  -5.321  1.00  0.00    -0.382 OA
ATOM     32  H5  UNL     1      -1.830 -18.567  -5.351  1.00  0.00     0.211 HD
ENDBRANCH   8  31
BRANCH  15  33
HETATM   33  O6  UNL     1      -4.116 -14.597  -7.304  1.00  0.00    -0.359 OA
ATOM     34  H6  UNL     1      -4.988 -14.696  -6.941  1.00  0.00     0.217 HD
ENDBRANCH  15  33
BRANCH   7  35
HETATM   35  O4  UNL     1       0.627 -17.371  -7.571  1.00  0.00    -0.391 OA
ATOM     36  H4  UNL     1       0.123 -17.120  -8.337  1.00  0.00     0.210 HD
ENDBRANCH   7  35
TORSDOF 12
ENDMDL
MODEL 2
REMARK VINA RESULT: -6.302376855      2.518      5.133
REMARK  12 active torsions:
REMARK  status: ('A' for Active; 'I' for Inactive)
REMARK    1  A    between atoms: S1_2  and  C2_3 
REMARK    2  A    between atoms: C3_4  and  C4_5 
REMARK    3  A    between atoms: C4_5  and  O2_7 
REMARK    4  A    between atoms: O2_7  and  C5_8 
REMARK    5  A    between atoms: C5_8  and  C6_9 
REMARK    6  A    between atoms: C6_9  and  C7_10 
REMARK    7  A    between atoms: C9_12  and  C10_13 
REMARK    8  A    between atoms: C10_13  and  C11_14 
REMARK    9  A    between atoms: C11_14  and  O3_16 
REMARK   10  A    between atoms: C16_21  and  O4_22 
REMARK   11  A    between atoms: C17_24  and  O5_25 
REMARK   12  A    between atoms: C23_33  and  O6_34 
ROOT
HETATM    1  C7  UNL     1      -1.002 -13.704  -7.013  1.00  0.00    -0.060 C 
HETATM    2  C8  UNL     1      -0.644 -12.276  -7.086  1.00  0.00     0.033 C 
HETATM    3  C9  UNL     1      -1.547 -11.330  -6.241  1.00  0.00     0.019 C 
HETATM    4  C13 UNL     1      -0.595 -10.193  -6.061  1.00  0.00    -0.025 C 
HETATM    5  C14 UNL     1       0.661 -10.682  -6.016  1.00  0.00    -0.022 C 
HETATM    6  C15 UNL     1       0.581 -12.109  -6.162  1.00  0.00     0.049 C 
HETATM    7  C16 UNL     1       1.680 -12.798  -6.862  1.00  0.00     0.166 C 
HETATM    8  C17 UNL     1       1.460 -14.293  -6.519  1.00  0.00     0.117 C 
HETATM    9  C18 UNL     1       2.478 -15.082  -7.204  1.00  0.00     0.024 C 
HETATM   10  C19 UNL     1       2.852 -14.792  -8.618  1.00  0.00     0.013 C 
HETATM   11  C20 UNL     1       2.477 -16.575  -7.004  1.00  0.00     0.013 C 
HETATM   12  C21 UNL     1       1.381 -17.266  -7.770  1.00  0.00     0.050 C 
HETATM   13  C22 UNL     1       0.096 -17.088  -6.992  1.00  0.00     0.022 C 
HETATM   14 BR1  UNL     1      -0.960 -18.650  -6.753  1.00  0.00    -0.053 Br
HETATM   15  C23 UNL     1      -0.399 -16.008  -6.454  1.00  0.00     0.088 C 
HETATM   16  C24 UNL     1       0.047 -14.620  -6.384  1.00  0.00     0.016 C 
ENDROOT
BRANCH   1  17
HETATM   17  C6  UNL     1      -1.776 -14.288  -8.151  1.00  0.00     0.062 C 
BRANCH  17  18
HETATM   18  C5  UNL     1      -3.250 -14.362  -8.046  1.00  0.00     0.183 C 
BRANCH  18  19
HETATM   19  O2  UNL     1      -3.733 -15.547  -8.598  1.00  0.00    -0.318 OA
BRANCH  19  20
HETATM   20  C4  UNL     1      -4.307 -16.572  -7.892  1.00  0.00     0.283 C 
HETATM   21  O1  UNL     1      -4.266 -16.571  -6.629  1.00  0.00    -0.260 OA
BRANCH  20  22
HETATM   22  C3  UNL     1      -4.982 -17.692  -8.549  1.00  0.00     0.089 C 
HETATM   23  C2  UNL     1      -6.215 -17.602  -8.929  1.00  0.00     0.050 C 
BRANCH  23  24
HETATM   24  S1  UNL     1      -7.257 -16.170  -8.727  1.00  0.00    -0.146 SA
HETATM   25  C1  UNL     1      -6.937 -15.053 -10.146  1.00  0.00     0.095 C 
ENDBRANCH  23  24
ENDBRANCH  20  22
ENDBRANCH  19  20
ENDBRANCH  18  19
ENDBRANCH  17  18
ENDBRANCH   1  17
BRANCH   3  26
HETATM   26  C10 UNL     1      -2.689 -10.849  -7.069  1.00  0.00     0.040 C 
BRANCH  26  27
HETATM   27  C11 UNL     1      -3.960 -10.567  -6.409  1.00  0.00     0.114 C 
HETATM   28  C12 UNL     1      -4.007 -10.105  -4.992  1.00  0.00     0.039 C 
BRANCH  27  29
HETATM   29  O3  UNL     1      -4.882 -11.658  -6.581  1.00  0.00    -0.396 OA
ATOM     30  H3  UNL     1      -5.427 -11.524  -7.348  1.00  0.00     0.210 HD
ENDBRANCH  27  29
ENDBRANCH  26  27
ENDBRANCH   3  26
BRANCH   8  31
HETATM   31  O5  UNL     1       1.993 -14.253  -5.158  1.00  0.00    -0.382 OA
ATOM     32  H5  UNL     1       1.161 -14.217  -4.702  1.00  0.00     0.211 HD
ENDBRANCH   8  31
BRANCH  15  33
HETATM   33  O6  UNL     1      -1.631 -16.234  -5.800  1.00  0.00    -0.359 OA
ATOM     34  H6  UNL     1      -1.532 -16.390  -4.868  1.00  0.00     0.217 HD
ENDBRANCH  15  33
BRANCH   7  35
HETATM   35  O4  UNL     1       1.658 -12.534  -8.198  1.00  0.00    -0.391 OA
ATOM     36  H4  UNL     1       1.725 -13.333  -8.709  1.00  0.00     0.210 HD
ENDBRANCH   7  35
TORSDOF 12
ENDMDL
MODEL 3
REMARK VINA RESULT: -6.159858857      2.520      4.567
REMARK  12 active torsions:
REMARK  status: ('A' for Active; 'I' for Inactive)
REMARK    1  A    between atoms: S1_2  and  C2_3 
REMARK    2  A    between atoms: C3_4  and  C4_5 
REMARK    3  A    between atoms: C4_5  and  O2_7 
REMARK    4  A    between atoms: O2_7  and  C5_8 
REMARK    5  A    between atoms: C5_8  and  C6_9 
REMARK    6  A    between atoms: C6_9  and  C7_10 
REMARK    7  A    between atoms: C9_12  and  C10_13 
REMARK    8  A    between atoms: C10_13  and  C11_14 
REMARK    9  A    between atoms: C11_14  and  O3_16 
REMARK   10  A    between atoms: C16_21  and  O4_22 
REMARK   11  A    between atoms: C17_24  and  O5_25 
REMARK   12  A    between atoms: C23_33  and  O6_34 
ROOT
HETATM    1  C7  UNL     1      -1.277 -14.869  -7.055  1.00  0.00    -0.060 C 
HETATM    2  C8  UNL     1      -0.577 -13.579  -7.187  1.00  0.00     0.033 C 
HETATM    3  C9  UNL     1      -1.235 -12.395  -6.419  1.00  0.00     0.019 C 
HETATM    4  C13 UNL     1      -0.037 -11.517  -6.265  1.00  0.00    -0.025 C 
HETATM    5  C14 UNL     1       1.060 -12.294  -6.158  1.00  0.00    -0.022 C 
HETATM    6  C15 UNL     1       0.634 -13.665  -6.235  1.00  0.00     0.049 C 
HETATM    7  C16 UNL     1       1.542 -14.639  -6.867  1.00  0.00     0.166 C 
HETATM    8  C17 UNL     1       0.956 -16.014  -6.456  1.00  0.00     0.117 C 
HETATM    9  C18 UNL     1       1.761 -17.064  -7.070  1.00  0.00     0.024 C 
HETATM   10  C19 UNL     1       2.221 -16.953  -8.484  1.00  0.00     0.013 C 
HETATM   11  C20 UNL     1       1.390 -18.498  -6.796  1.00  0.00     0.013 C 
HETATM   12  C21 UNL     1       0.171 -18.942  -7.561  1.00  0.00     0.050 C 
HETATM   13  C22 UNL     1      -1.045 -18.412  -6.833  1.00  0.00     0.022 C 
HETATM   14 BR1  UNL     1      -2.456 -19.653  -6.550  1.00  0.00    -0.053 Br
HETATM   15  C23 UNL     1      -1.268 -17.216  -6.365  1.00  0.00     0.088 C 
HETATM   16  C24 UNL     1      -0.496 -15.978  -6.350  1.00  0.00     0.016 C 
ENDROOT
BRANCH   1  17
HETATM   17  C6  UNL     1      -2.150 -15.309  -8.187  1.00  0.00     0.062 C 
BRANCH  17  18
HETATM   18  C5  UNL     1      -3.582 -14.937  -8.167  1.00  0.00     0.183 C 
BRANCH  18  19
HETATM   19  O2  UNL     1      -4.373 -16.012  -7.765  1.00  0.00    -0.318 OA
BRANCH  19  20
HETATM   20  C4  UNL     1      -5.047 -16.857  -8.607  1.00  0.00     0.283 C 
HETATM   21  O1  UNL     1      -5.218 -18.067  -8.285  1.00  0.00    -0.260 OA
BRANCH  20  22
HETATM   22  C3  UNL     1      -5.589 -16.412  -9.892  1.00  0.00     0.089 C 
HETATM   23  C2  UNL     1      -6.768 -15.886  -9.975  1.00  0.00     0.050 C 
BRANCH  23  24
HETATM   24  S1  UNL     1      -7.883 -15.626  -8.609  1.00  0.00    -0.146 SA
HETATM   25  C1  UNL     1      -8.812 -17.186  -8.352  1.00  0.00     0.095 C 
ENDBRANCH  23  24
ENDBRANCH  20  22
ENDBRANCH  19  20
ENDBRANCH  18  19
ENDBRANCH  17  18
ENDBRANCH   1  17
BRANCH   3  26
HETATM   26  C10 UNL     1      -2.210 -11.696  -7.305  1.00  0.00     0.040 C 
BRANCH  26  27
HETATM   27  C11 UNL     1      -3.467 -11.231  -6.729  1.00  0.00     0.114 C 
HETATM   28  C12 UNL     1      -3.556  -9.915  -6.032  1.00  0.00     0.039 C 
BRANCH  27  29
HETATM   29  O3  UNL     1      -4.060 -12.246  -5.899  1.00  0.00    -0.396 OA
ATOM     30  H3  UNL     1      -4.815 -11.906  -5.434  1.00  0.00     0.210 HD
ENDBRANCH  27  29
ENDBRANCH  26  27
ENDBRANCH   3  26
BRANCH   8  31
HETATM   31  O5  UNL     1       1.458 -16.029  -5.083  1.00  0.00    -0.382 OA
ATOM     32  H5  UNL     1       0.988 -16.801  -4.790  1.00  0.00     0.211 HD
ENDBRANCH   8  31
BRANCH  15  33
HETATM   33  O6  UNL     1      -2.530 -17.097  -5.739  1.00  0.00    -0.359 OA
ATOM     34  H6  UNL     1      -2.474 -17.099  -4.791  1.00  0.00     0.217 HD
ENDBRANCH  15  33
BRANCH   7  35
HETATM   35  O4  UNL     1       1.610 -14.453  -8.213  1.00  0.00    -0.391 OA
ATOM     36  H4  UNL     1       2.475 -14.658  -8.548  1.00  0.00     0.210 HD
ENDBRANCH   7  35
TORSDOF 12
ENDMDL
MODEL 4
REMARK VINA RESULT: -6.154334316      2.641      5.252
REMARK  12 active torsions:
REMARK  status: ('A' for Active; 'I' for Inactive)
REMARK    1  A    between atoms: S1_2  and  C2_3 
REMARK    2  A    between atoms: C3_4  and  C4_5 
REMARK    3  A    between atoms: C4_5  and  O2_7 
REMARK    4  A    between atoms: O2_7  and  C5_8 
REMARK    5  A    between atoms: C5_8  and  C6_9 
REMARK    6  A    between atoms: C6_9  and  C7_10 
REMARK    7  A    between atoms: C9_12  and  C10_13 
REMARK    8  A    between atoms: C10_13  and  C11_14 
REMARK    9  A    between atoms: C11_14  and  O3_16 
REMARK   10  A    between atoms: C16_21  and  O4_22 
REMARK   11  A    between atoms: C17_24  and  O5_25 
REMARK   12  A    between atoms: C23_33  and  O6_34 
ROOT
HETATM    1  C7  UNL     1      -0.982 -13.635  -7.181  1.00  0.00    -0.060 C 
HETATM    2  C8  UNL     1      -0.681 -12.192  -7.188  1.00  0.00     0.033 C 
HETATM    3  C9  UNL     1      -1.677 -11.311  -6.377  1.00  0.00     0.019 C 
HETATM    4  C13 UNL     1      -0.788 -10.143  -6.101  1.00  0.00    -0.025 C 
HETATM    5  C14 UNL     1       0.482 -10.581  -5.988  1.00  0.00    -0.022 C 
HETATM    6  C15 UNL     1       0.473 -12.005  -6.181  1.00  0.00     0.049 C 
HETATM    7  C16 UNL     1       1.644 -12.624  -6.828  1.00  0.00     0.166 C 
HETATM    8  C17 UNL     1       1.467 -14.138  -6.544  1.00  0.00     0.117 C 
HETATM    9  C18 UNL     1       2.560 -14.862  -7.184  1.00  0.00     0.024 C 
HETATM   10  C19 UNL     1       3.012 -14.510  -8.561  1.00  0.00     0.013 C 
HETATM   11  C20 UNL     1       2.611 -16.359  -7.028  1.00  0.00     0.013 C 
HETATM   12  C21 UNL     1       1.597 -17.070  -7.885  1.00  0.00     0.050 C 
HETATM   13  C22 UNL     1       0.258 -16.969  -7.188  1.00  0.00     0.022 C 
HETATM   14 BR1  UNL     1      -0.743 -18.581  -7.065  1.00  0.00    -0.053 Br
HETATM   15  C23 UNL     1      -0.317 -15.929  -6.652  1.00  0.00     0.088 C 
HETATM   16  C24 UNL     1       0.064 -14.527  -6.512  1.00  0.00     0.016 C 
ENDROOT
BRANCH   1  17
HETATM   17  C6  UNL     1      -1.655 -14.213  -8.384  1.00  0.00     0.062 C 
BRANCH  17  18
HETATM   18  C5  UNL     1      -3.124 -14.090  -8.506  1.00  0.00     0.183 C 
BRANCH  18  19
HETATM   19  O2  UNL     1      -3.774 -14.903  -7.579  1.00  0.00    -0.318 OA
BRANCH  19  20
HETATM   20  C4  UNL     1      -4.436 -16.066  -7.875  1.00  0.00     0.283 C 
HETATM   21  O1  UNL     1      -4.124 -17.139  -7.283  1.00  0.00    -0.260 OA
BRANCH  20  22
HETATM   22  C3  UNL     1      -5.511 -16.124  -8.866  1.00  0.00     0.089 C 
HETATM   23  C2  UNL     1      -5.292 -16.548 -10.068  1.00  0.00     0.050 C 
BRANCH  23  24
HETATM   24  S1  UNL     1      -3.720 -17.107 -10.696  1.00  0.00    -0.146 SA
HETATM   25  C1  UNL     1      -3.082 -15.806 -11.821  1.00  0.00     0.095 C 
ENDBRANCH  23  24
ENDBRANCH  20  22
ENDBRANCH  19  20
ENDBRANCH  18  19
ENDBRANCH  17  18
ENDBRANCH   1  17
BRANCH   3  26
HETATM   26  C10 UNL     1      -2.783 -10.852  -7.263  1.00  0.00     0.040 C 
BRANCH  26  27
HETATM   27  C11 UNL     1      -4.128 -10.749  -6.706  1.00  0.00     0.114 C 
HETATM   28  C12 UNL     1      -4.364 -10.122  -5.373  1.00  0.00     0.039 C 
BRANCH  27  29
HETATM   29  O3  UNL     1      -4.804 -12.018  -6.757  1.00  0.00    -0.396 OA
ATOM     30  H3  UNL     1      -5.013 -12.255  -7.653  1.00  0.00     0.210 HD
ENDBRANCH  27  29
ENDBRANCH  26  27
ENDBRANCH   3  26
BRANCH   8  31
HETATM   31  O5  UNL     1       1.909 -14.119  -5.150  1.00  0.00    -0.382 OA
ATOM     32  H5  UNL     1       1.523 -14.947  -4.889  1.00  0.00     0.211 HD
ENDBRANCH   8  31
BRANCH  15  33
HETATM   33  O6  UNL     1      -1.578 -16.227  -6.087  1.00  0.00    -0.359 OA
ATOM     34  H6  UNL     1      -1.515 -16.756  -5.300  1.00  0.00     0.217 HD
ENDBRANCH  15  33
BRANCH   7  35
HETATM   35  O4  UNL     1       1.696 -12.319  -8.154  1.00  0.00    -0.391 OA
ATOM     36  H4  UNL     1       0.866 -11.974  -8.462  1.00  0.00     0.210 HD
ENDBRANCH   7  35
TORSDOF 12
ENDMDL
MODEL 5
REMARK VINA RESULT: -6.149056177      2.660      5.469
REMARK  12 active torsions:
REMARK  status: ('A' for Active; 'I' for Inactive)
REMARK    1  A    between atoms: S1_2  and  C2_3 
REMARK    2  A    between atoms: C3_4  and  C4_5 
REMARK    3  A    between atoms: C4_5  and  O2_7 
REMARK    4  A    between atoms: O2_7  and  C5_8 
REMARK    5  A    between atoms: C5_8  and  C6_9 
REMARK    6  A    between atoms: C6_9  and  C7_10 
REMARK    7  A    between atoms: C9_12  and  C10_13 
REMARK    8  A    between atoms: C10_13  and  C11_14 
REMARK    9  A    between atoms: C11_14  and  O3_16 
REMARK   10  A    between atoms: C16_21  and  O4_22 
REMARK   11  A    between atoms: C17_24  and  O5_25 
REMARK   12  A    between atoms: C23_33  and  O6_34 
ROOT
HETATM    1  C7  UNL     1      -1.053 -13.434  -7.107  1.00  0.00    -0.060 C 
HETATM    2  C8  UNL     1      -0.740 -11.994  -7.084  1.00  0.00     0.033 C 
HETATM    3  C9  UNL     1      -1.679 -11.133  -6.188  1.00  0.00     0.019 C 
HETATM    4  C13 UNL     1      -0.765  -9.982  -5.926  1.00  0.00    -0.025 C 
HETATM    5  C14 UNL     1       0.506 -10.432  -5.902  1.00  0.00    -0.022 C 
HETATM    6  C15 UNL     1       0.473 -11.849  -6.141  1.00  0.00     0.049 C 
HETATM    7  C16 UNL     1       1.597 -12.455  -6.876  1.00  0.00     0.166 C 
HETATM    8  C17 UNL     1       1.424 -13.976  -6.632  1.00  0.00     0.117 C 
HETATM    9  C18 UNL     1       2.471 -14.685  -7.358  1.00  0.00     0.024 C 
HETATM   10  C19 UNL     1       2.845 -14.292  -8.747  1.00  0.00     0.013 C 
HETATM   11  C20 UNL     1       2.517 -16.187  -7.255  1.00  0.00     0.013 C 
HETATM   12  C21 UNL     1       1.448 -16.862  -8.074  1.00  0.00     0.050 C 
HETATM   13  C22 UNL     1       0.153 -16.775  -7.297  1.00  0.00     0.022 C 
HETATM   14 BR1  UNL     1      -0.854 -18.383  -7.170  1.00  0.00    -0.053 Br
HETATM   15  C23 UNL     1      -0.380 -15.749  -6.695  1.00  0.00     0.088 C 
HETATM   16  C24 UNL     1       0.021 -14.355  -6.531  1.00  0.00     0.016 C 
ENDROOT
BRANCH   1  17
HETATM   17  C6  UNL     1      -1.800 -13.967  -8.288  1.00  0.00     0.062 C 
BRANCH  17  18
HETATM   18  C5  UNL     1      -3.256 -14.197  -8.164  1.00  0.00     0.183 C 
BRANCH  18  19
HETATM   19  O2  UNL     1      -3.589 -15.504  -8.516  1.00  0.00    -0.318 OA
BRANCH  19  20
HETATM   20  C4  UNL     1      -4.480 -16.301  -7.846  1.00  0.00     0.283 C 
HETATM   21  O1  UNL     1      -4.228 -16.679  -6.667  1.00  0.00    -0.260 OA
BRANCH  20  22
HETATM   22  C3  UNL     1      -5.739 -16.743  -8.447  1.00  0.00     0.089 C 
HETATM   23  C2  UNL     1      -5.793 -17.802  -9.188  1.00  0.00     0.050 C 
BRANCH  23  24
HETATM   24  S1  UNL     1      -4.410 -18.855  -9.586  1.00  0.00    -0.146 SA
HETATM   25  C1  UNL     1      -4.218 -20.055  -8.213  1.00  0.00     0.095 C 
ENDBRANCH  23  24
ENDBRANCH  20  22
ENDBRANCH  19  20
ENDBRANCH  18  19
ENDBRANCH  17  18
ENDBRANCH   1  17
BRANCH   3  26
HETATM   26  C10 UNL     1      -2.831 -10.636  -6.993  1.00  0.00     0.040 C 
BRANCH  26  27
HETATM   27  C11 UNL     1      -4.118 -10.454  -6.330  1.00  0.00     0.114 C 
HETATM   28  C12 UNL     1      -4.197 -10.066  -4.892  1.00  0.00     0.039 C 
BRANCH  27  29
HETATM   29  O3  UNL     1      -4.981 -11.582  -6.563  1.00  0.00    -0.396 OA
ATOM     30  H3  UNL     1      -4.549 -12.234  -7.102  1.00  0.00     0.210 HD
ENDBRANCH  27  29
ENDBRANCH  26  27
ENDBRANCH   3  26
BRANCH   8  31
HETATM   31  O5  UNL     1       1.946 -14.007  -5.267  1.00  0.00    -0.382 OA
ATOM     32  H5  UNL     1       1.174 -13.664  -4.833  1.00  0.00     0.211 HD
ENDBRANCH   8  31
BRANCH  15  33
HETATM   33  O6  UNL     1      -1.608 -16.056  -6.067  1.00  0.00    -0.359 OA
ATOM     34  H6  UNL     1      -1.975 -15.320  -5.592  1.00  0.00     0.217 HD
ENDBRANCH  15  33
BRANCH   7  35
HETATM   35  O4  UNL     1       1.575 -12.106  -8.191  1.00  0.00    -0.391 OA
ATOM     36  H4  UNL     1       2.135 -12.673  -8.709  1.00  0.00     0.210 HD
ENDBRANCH   7  35
TORSDOF 12
ENDMDL
