MODEL 1
REMARK VINA RESULT: -7.223008611      0.000      0.000
REMARK  11 active torsions:
REMARK  status: ('A' for Active; 'I' for Inactive)
REMARK    1  A    between atoms: O1_2  and  C2_3 
REMARK    2  A    between atoms: C3_4  and  O2_5 
REMARK    3  A    between atoms: C4_7  and  O3_8 
REMARK    4  A    between atoms: C5_10  and  N1_11 
REMARK    5  A    between atoms: N1_11  and  C6_12 
REMARK    6  A    between atoms: N1_11  and  C14_21 
REMARK    7  A    between atoms: C6_12  and  C7_13 
REMARK    8  A    between atoms: C8_14  and  C9_15 
REMARK    9  A    between atoms: C10_16  and  C11_17 
REMARK   10  A    between atoms: C21_29  and  O5_30 
REMARK   11  A    between atoms: C28_38  and  O6_39 
ROOT
HETATM    1  C2  UNL     1      -2.128 -17.825  -8.814  1.00  0.00     0.129 C 
HETATM    2  C3  UNL     1      -2.052 -16.423  -9.207  1.00  0.00     0.187 C 
HETATM    3  C4  UNL     1      -0.847 -15.618  -8.891  1.00  0.00     0.183 C 
HETATM    4  C5  UNL     1      -0.203 -15.931  -7.615  1.00  0.00     0.261 C 
HETATM    5  C17 UNL     1      -0.777 -17.097  -6.944  1.00  0.00     0.056 C 
HETATM    6  C18 UNL     1      -2.037 -16.889  -6.172  1.00  0.00     0.043 C 
HETATM    7  C19 UNL     1      -3.282 -17.495  -6.642  1.00  0.00     0.146 C 
HETATM    8  O4  UNL     1      -4.161 -16.266  -6.972  1.00  0.00    -0.341 OA
HETATM    9  C20 UNL     1      -5.098 -16.797  -7.887  1.00  0.00     0.110 A 
HETATM   10  C21 UNL     1      -6.304 -16.522  -8.548  1.00  0.00     0.099 A 
HETATM   11  C22 UNL     1      -6.865 -17.467  -9.405  1.00  0.00     0.040 A 
HETATM   12  C23 UNL     1      -6.215 -18.708  -9.601  1.00  0.00     0.011 A 
HETATM   13  C24 UNL     1      -5.014 -18.977  -8.936  1.00  0.00    -0.047 A 
HETATM   14  C25 UNL     1      -4.661 -17.982  -8.208  1.00  0.00    -0.001 A 
HETATM   15  C26 UNL     1      -3.273 -18.234  -7.893  1.00  0.00     0.057 C 
HETATM   16  C27 UNL     1      -3.744 -19.597  -8.329  1.00  0.00     0.059 C 
HETATM   17  C28 UNL     1      -0.921 -18.229  -7.935  1.00  0.00     0.163 C 
ENDROOT
BRANCH   4  18
HETATM   18  N1  UNL     1       0.019 -14.744  -6.765  1.00  0.00     0.103 N 
BRANCH  18  19
HETATM   19  C6  UNL     1      -0.720 -13.636  -7.375  1.00  0.00     0.301 C 
BRANCH  19  20
HETATM   20  C7  UNL     1      -1.626 -12.866  -6.593  1.00  0.00     0.003 C 
HETATM   21  C8  UNL     1      -2.890 -12.603  -6.882  1.00  0.00    -0.002 C 
BRANCH  21  22
HETATM   22  C9  UNL     1      -3.737 -11.804  -6.012  1.00  0.00    -0.000 C 
HETATM   23  C10 UNL     1      -3.280 -10.671  -5.521  1.00  0.00     0.001 C 
BRANCH  23  24
HETATM   24  C11 UNL     1      -4.087  -9.830  -4.645  1.00  0.00     0.019 C 
HETATM   25  C12 UNL     1      -3.526  -9.125  -3.700  1.00  0.00     0.008 C 
HETATM   26  C13 UNL     1      -2.068  -9.151  -3.485  1.00  0.00     0.062 C 
HETATM   27 CL1  UNL     1      -4.563  -8.132  -2.676  1.00  0.00    -0.089 Cl
ENDBRANCH  23  24
ENDBRANCH  21  22
ENDBRANCH  19  20
ENDBRANCH  18  19
BRANCH  18  28
HETATM   28  C14 UNL     1       1.386 -14.360  -6.715  1.00  0.00     0.216 C 
HETATM   29  C15 UNL     1       1.848 -13.319  -7.680  1.00  0.00     0.042 C 
HETATM   30  C16 UNL     1       1.797 -14.000  -5.325  1.00  0.00     0.042 C 
ENDBRANCH  18  28
ENDBRANCH   4  18
BRANCH   3  31
HETATM   31  O3  UNL     1       0.023 -15.697 -10.003  1.00  0.00    -0.391 OA
ATOM     32  H3  UNL     1       0.041 -14.841 -10.413  1.00  0.00     0.210 HD
ENDBRANCH   3  31
BRANCH   2  33
HETATM   33  O2  UNL     1      -2.354 -16.243 -10.605  1.00  0.00    -0.390 OA
ATOM     34  H2  UNL     1      -1.822 -15.560 -10.996  1.00  0.00     0.210 HD
ENDBRANCH   2  33
BRANCH  17  35
HETATM   35  O6  UNL     1      -1.246 -19.372  -7.234  1.00  0.00    -0.392 OA
ATOM     36  H6  UNL     1      -0.587 -19.518  -6.565  1.00  0.00     0.210 HD
ENDBRANCH  17  35
BRANCH   1  37
HETATM   37  O1  UNL     1      -2.207 -18.623  -9.919  1.00  0.00    -0.378 OA
HETATM   38  C1  UNL     1      -1.154 -19.114 -10.563  1.00  0.00     0.202 C 
ENDBRANCH   1  37
BRANCH  10  39
HETATM   39  O5  UNL     1      -6.866 -15.285  -8.288  1.00  0.00    -0.358 OA
ATOM     40  H5  UNL     1      -7.685 -15.099  -8.734  1.00  0.00     0.217 HD
ENDBRANCH  10  39
TORSDOF 11
ENDMDL
MODEL 2
REMARK VINA RESULT: -6.734975895      3.393      5.439
REMARK  11 active torsions:
REMARK  status: ('A' for Active; 'I' for Inactive)
REMARK    1  A    between atoms: O1_2  and  C2_3 
REMARK    2  A    between atoms: C3_4  and  O2_5 
REMARK    3  A    between atoms: C4_7  and  O3_8 
REMARK    4  A    between atoms: C5_10  and  N1_11 
REMARK    5  A    between atoms: N1_11  and  C6_12 
REMARK    6  A    between atoms: N1_11  and  C14_21 
REMARK    7  A    between atoms: C6_12  and  C7_13 
REMARK    8  A    between atoms: C8_14  and  C9_15 
REMARK    9  A    between atoms: C10_16  and  C11_17 
REMARK   10  A    between atoms: C21_29  and  O5_30 
REMARK   11  A    between atoms: C28_38  and  O6_39 
ROOT
HETATM    1  C2  UNL     1      -1.855 -15.681  -8.051  1.00  0.00     0.129 C 
HETATM    2  C3  UNL     1      -0.758 -14.722  -8.083  1.00  0.00     0.187 C 
HETATM    3  C4  UNL     1      -0.686 -13.628  -7.083  1.00  0.00     0.183 C 
HETATM    4  C5  UNL     1      -1.975 -13.071  -6.674  1.00  0.00     0.261 C 
HETATM    5  C17 UNL     1      -3.122 -13.800  -7.212  1.00  0.00     0.056 C 
HETATM    6  C18 UNL     1      -3.524 -13.500  -8.617  1.00  0.00     0.043 C 
HETATM    7  C19 UNL     1      -3.355 -14.520  -9.652  1.00  0.00     0.146 C 
HETATM    8  O4  UNL     1      -2.315 -13.879 -10.600  1.00  0.00    -0.341 OA
HETATM    9  C20 UNL     1      -1.766 -15.004 -11.256  1.00  0.00     0.110 A 
HETATM   10  C21 UNL     1      -0.952 -15.394 -12.331  1.00  0.00     0.099 A 
HETATM   11  C22 UNL     1      -0.717 -16.745 -12.578  1.00  0.00     0.040 A 
HETATM   12  C23 UNL     1      -1.307 -17.723 -11.744  1.00  0.00     0.011 A 
HETATM   13  C24 UNL     1      -2.119 -17.328 -10.676  1.00  0.00    -0.047 A 
HETATM   14  C25 UNL     1      -2.201 -16.050 -10.611  1.00  0.00    -0.001 A 
HETATM   15  C26 UNL     1      -2.733 -15.784  -9.294  1.00  0.00     0.057 C 
HETATM   16  C27 UNL     1      -3.086 -17.237  -9.483  1.00  0.00     0.059 C 
HETATM   17  C28 UNL     1      -2.920 -15.284  -7.003  1.00  0.00     0.163 C 
ENDROOT
BRANCH   4  18
HETATM   18  N1  UNL     1      -2.037 -11.599  -6.785  1.00  0.00     0.103 N 
BRANCH  18  19
HETATM   19  C6  UNL     1      -1.204 -11.052  -5.712  1.00  0.00     0.301 C 
BRANCH  19  20
HETATM   20  C7  UNL     1      -0.086 -10.228  -6.026  1.00  0.00     0.003 C 
HETATM   21  C8  UNL     1      -0.104  -9.118  -6.744  1.00  0.00    -0.002 C 
BRANCH  21  22
HETATM   22  C9  UNL     1       1.099  -8.343  -7.008  1.00  0.00    -0.000 C 
HETATM   23  C10 UNL     1       2.280  -8.887  -6.806  1.00  0.00     0.001 C 
BRANCH  23  24
HETATM   24  C11 UNL     1       3.517  -8.156  -7.055  1.00  0.00     0.019 C 
HETATM   25  C12 UNL     1       4.277  -8.466  -8.070  1.00  0.00     0.008 C 
HETATM   26  C13 UNL     1       3.917  -9.557  -8.996  1.00  0.00     0.062 C 
HETATM   27 CL1  UNL     1       5.760  -7.543  -8.313  1.00  0.00    -0.089 Cl
ENDBRANCH  23  24
ENDBRANCH  21  22
ENDBRANCH  19  20
ENDBRANCH  18  19
BRANCH  18  28
HETATM   28  C14 UNL     1      -3.351 -11.095  -6.594  1.00  0.00     0.216 C 
HETATM   29  C15 UNL     1      -3.747 -10.699  -5.210  1.00  0.00     0.042 C 
HETATM   30  C16 UNL     1      -3.655  -9.994  -7.557  1.00  0.00     0.042 C 
ENDBRANCH  18  28
ENDBRANCH   4  18
BRANCH   3  31
HETATM   31  O3  UNL     1       0.106 -14.088  -6.006  1.00  0.00    -0.391 OA
ATOM     32  H3  UNL     1       0.261 -13.349  -5.429  1.00  0.00     0.210 HD
ENDBRANCH   3  31
BRANCH   2  33
HETATM   33  O2  UNL     1       0.526 -15.377  -8.120  1.00  0.00    -0.390 OA
ATOM     34  H2  UNL     1       1.101 -15.067  -7.431  1.00  0.00     0.210 HD
ENDBRANCH   2  33
BRANCH  17  35
HETATM   35  O6  UNL     1      -4.104 -15.923  -7.308  1.00  0.00    -0.392 OA
ATOM     36  H6  UNL     1      -4.467 -15.534  -8.095  1.00  0.00     0.210 HD
ENDBRANCH  17  35
BRANCH   1  37
HETATM   37  O1  UNL     1      -1.379 -16.936  -7.800  1.00  0.00    -0.378 OA
HETATM   38  C1  UNL     1      -1.224 -17.448  -6.584  1.00  0.00     0.202 C 
ENDBRANCH   1  37
BRANCH  10  39
HETATM   39  O5  UNL     1      -0.425 -14.365 -13.092  1.00  0.00    -0.358 OA
ATOM     40  H5  UNL     1       0.124 -14.629 -13.821  1.00  0.00     0.217 HD
ENDBRANCH  10  39
TORSDOF 11
ENDMDL
MODEL 3
REMARK VINA RESULT: -6.725136559      3.584      5.397
REMARK  11 active torsions:
REMARK  status: ('A' for Active; 'I' for Inactive)
REMARK    1  A    between atoms: O1_2  and  C2_3 
REMARK    2  A    between atoms: C3_4  and  O2_5 
REMARK    3  A    between atoms: C4_7  and  O3_8 
REMARK    4  A    between atoms: C5_10  and  N1_11 
REMARK    5  A    between atoms: N1_11  and  C6_12 
REMARK    6  A    between atoms: N1_11  and  C14_21 
REMARK    7  A    between atoms: C6_12  and  C7_13 
REMARK    8  A    between atoms: C8_14  and  C9_15 
REMARK    9  A    between atoms: C10_16  and  C11_17 
REMARK   10  A    between atoms: C21_29  and  O5_30 
REMARK   11  A    between atoms: C28_38  and  O6_39 
ROOT
HETATM    1  C2  UNL     1      -1.510 -15.558  -7.997  1.00  0.00     0.129 C 
HETATM    2  C3  UNL     1      -0.472 -14.536  -8.041  1.00  0.00     0.187 C 
HETATM    3  C4  UNL     1      -0.454 -13.438  -7.044  1.00  0.00     0.183 C 
HETATM    4  C5  UNL     1      -1.770 -12.956  -6.622  1.00  0.00     0.261 C 
HETATM    5  C17 UNL     1      -2.878 -13.752  -7.148  1.00  0.00     0.056 C 
HETATM    6  C18 UNL     1      -3.309 -13.480  -8.549  1.00  0.00     0.043 C 
HETATM    7  C19 UNL     1      -3.091 -14.490  -9.584  1.00  0.00     0.146 C 
HETATM    8  O4  UNL     1      -2.100 -13.791 -10.544  1.00  0.00    -0.341 OA
HETATM    9  C20 UNL     1      -1.493 -14.883 -11.204  1.00  0.00     0.110 A 
HETATM   10  C21 UNL     1      -0.668 -15.226 -12.286  1.00  0.00     0.099 A 
HETATM   11  C22 UNL     1      -0.357 -16.561 -12.534  1.00  0.00     0.040 A 
HETATM   12  C23 UNL     1      -0.880 -17.570 -11.693  1.00  0.00     0.011 A 
HETATM   13  C24 UNL     1      -1.704 -17.222 -10.617  1.00  0.00    -0.047 A 
HETATM   14  C25 UNL     1      -1.859 -15.951 -10.553  1.00  0.00    -0.001 A 
HETATM   15  C26 UNL     1      -2.393 -15.714  -9.231  1.00  0.00     0.057 C 
HETATM   16  C27 UNL     1      -2.662 -17.186  -9.415  1.00  0.00     0.059 C 
HETATM   17  C28 UNL     1      -2.586 -15.222  -6.939  1.00  0.00     0.163 C 
ENDROOT
BRANCH   4  18
HETATM   18  N1  UNL     1      -1.919 -11.491  -6.735  1.00  0.00     0.103 N 
BRANCH  18  19
HETATM   19  C6  UNL     1      -0.813 -10.889  -5.987  1.00  0.00     0.301 C 
BRANCH  19  20
HETATM   20  C7  UNL     1       0.040  -9.939  -6.616  1.00  0.00     0.003 C 
HETATM   21  C8  UNL     1       1.355 -10.016  -6.731  1.00  0.00    -0.002 C 
BRANCH  21  22
HETATM   22  C9  UNL     1       2.140  -8.988  -7.397  1.00  0.00    -0.000 C 
HETATM   23  C10 UNL     1       1.677  -7.758  -7.463  1.00  0.00     0.001 C 
BRANCH  23  24
HETATM   24  C11 UNL     1       2.423  -6.689  -8.118  1.00  0.00     0.019 C 
HETATM   25  C12 UNL     1       3.153  -5.865  -7.416  1.00  0.00     0.008 C 
HETATM   26  C13 UNL     1       3.252  -5.983  -5.950  1.00  0.00     0.062 C 
HETATM   27 CL1  UNL     1       4.028  -4.594  -8.271  1.00  0.00    -0.089 Cl
ENDBRANCH  23  24
ENDBRANCH  21  22
ENDBRANCH  19  20
ENDBRANCH  18  19
BRANCH  18  28
HETATM   28  C14 UNL     1      -3.126 -11.022  -6.151  1.00  0.00     0.216 C 
HETATM   29  C15 UNL     1      -3.040 -10.375  -4.808  1.00  0.00     0.042 C 
HETATM   30  C16 UNL     1      -3.885 -10.153  -7.099  1.00  0.00     0.042 C 
ENDBRANCH  18  28
ENDBRANCH   4  18
BRANCH   3  31
HETATM   31  O3  UNL     1       0.374 -13.849  -5.973  1.00  0.00    -0.391 OA
ATOM     32  H3  UNL     1       0.530 -13.089  -5.425  1.00  0.00     0.210 HD
ENDBRANCH   3  31
BRANCH   2  33
HETATM   33  O2  UNL     1       0.848 -15.115  -8.090  1.00  0.00    -0.390 OA
ATOM     34  H2  UNL     1       1.352 -14.782  -8.823  1.00  0.00     0.210 HD
ENDBRANCH   2  33
BRANCH  17  35
HETATM   35  O6  UNL     1      -3.734 -15.930  -7.232  1.00  0.00    -0.392 OA
ATOM     36  H6  UNL     1      -4.062 -15.644  -8.076  1.00  0.00     0.210 HD
ENDBRANCH  17  35
BRANCH   1  37
HETATM   37  O1  UNL     1      -0.959 -16.783  -7.750  1.00  0.00    -0.378 OA
HETATM   38  C1  UNL     1      -0.764 -17.282  -6.535  1.00  0.00     0.202 C 
ENDBRANCH   1  37
BRANCH  10  39
HETATM   39  O5  UNL     1      -0.209 -14.170 -13.053  1.00  0.00    -0.358 OA
ATOM     40  H5  UNL     1      -0.793 -13.874 -13.742  1.00  0.00     0.217 HD
ENDBRANCH  10  39
TORSDOF 11
ENDMDL
MODEL 4
REMARK VINA RESULT: -6.576738583      3.441      5.937
REMARK  11 active torsions:
REMARK  status: ('A' for Active; 'I' for Inactive)
REMARK    1  A    between atoms: O1_2  and  C2_3 
REMARK    2  A    between atoms: C3_4  and  O2_5 
REMARK    3  A    between atoms: C4_7  and  O3_8 
REMARK    4  A    between atoms: C5_10  and  N1_11 
REMARK    5  A    between atoms: N1_11  and  C6_12 
REMARK    6  A    between atoms: N1_11  and  C14_21 
REMARK    7  A    between atoms: C6_12  and  C7_13 
REMARK    8  A    between atoms: C8_14  and  C9_15 
REMARK    9  A    between atoms: C10_16  and  C11_17 
REMARK   10  A    between atoms: C21_29  and  O5_30 
REMARK   11  A    between atoms: C28_38  and  O6_39 
ROOT
HETATM    1  C2  UNL     1      -1.279 -15.938  -8.483  1.00  0.00     0.129 C 
HETATM    2  C3  UNL     1      -1.666 -15.421  -7.176  1.00  0.00     0.187 C 
HETATM    3  C4  UNL     1      -2.623 -14.293  -7.066  1.00  0.00     0.183 C 
HETATM    4  C5  UNL     1      -2.520 -13.281  -8.118  1.00  0.00     0.261 C 
HETATM    5  C17 UNL     1      -1.587 -13.643  -9.184  1.00  0.00     0.056 C 
HETATM    6  C18 UNL     1      -0.135 -13.416  -8.927  1.00  0.00     0.043 C 
HETATM    7  C19 UNL     1       0.764 -14.562  -8.790  1.00  0.00     0.146 C 
HETATM    8  O4  UNL     1       1.249 -14.446  -7.326  1.00  0.00    -0.341 OA
HETATM    9  C20 UNL     1       1.654 -15.767  -7.033  1.00  0.00     0.110 A 
HETATM   10  C21 UNL     1       2.345 -16.550  -6.096  1.00  0.00     0.099 A 
HETATM   11  C22 UNL     1       2.491 -17.921  -6.299  1.00  0.00     0.040 A 
HETATM   12  C23 UNL     1       1.943 -18.520  -7.458  1.00  0.00     0.011 A 
HETATM   13  C24 UNL     1       1.258 -17.733  -8.390  1.00  0.00    -0.047 A 
HETATM   14  C25 UNL     1       1.224 -16.507  -8.016  1.00  0.00    -0.001 A 
HETATM   15  C26 UNL     1       0.203 -15.902  -8.841  1.00  0.00     0.057 C 
HETATM   16  C27 UNL     1       0.516 -17.160  -9.609  1.00  0.00     0.059 C 
HETATM   17  C28 UNL     1      -1.851 -15.065  -9.624  1.00  0.00     0.163 C 
ENDROOT
BRANCH   4  18
HETATM   18  N1  UNL     1      -2.398 -11.905  -7.595  1.00  0.00     0.103 N 
BRANCH  18  19
HETATM   19  C6  UNL     1      -1.532 -11.970  -6.415  1.00  0.00     0.301 C 
BRANCH  19  20
HETATM   20  C7  UNL     1      -0.416 -11.094  -6.300  1.00  0.00     0.003 C 
HETATM   21  C8  UNL     1      -0.365  -9.829  -6.683  1.00  0.00    -0.002 C 
BRANCH  21  22
HETATM   22  C9  UNL     1       0.829  -9.015  -6.519  1.00  0.00    -0.000 C 
HETATM   23  C10 UNL     1       0.927  -7.868  -7.159  1.00  0.00     0.001 C 
BRANCH  23  24
HETATM   24  C11 UNL     1       2.101  -7.012  -7.029  1.00  0.00     0.019 C 
HETATM   25  C12 UNL     1       2.895  -6.817  -8.047  1.00  0.00     0.008 C 
HETATM   26  C13 UNL     1       2.638  -7.448  -9.355  1.00  0.00     0.062 C 
HETATM   27 CL1  UNL     1       4.297  -5.772  -7.820  1.00  0.00    -0.089 Cl
ENDBRANCH  23  24
ENDBRANCH  21  22
ENDBRANCH  19  20
ENDBRANCH  18  19
BRANCH  18  28
HETATM   28  C14 UNL     1      -3.645 -11.372  -7.172  1.00  0.00     0.216 C 
HETATM   29  C15 UNL     1      -3.912 -11.315  -5.705  1.00  0.00     0.042 C 
HETATM   30  C16 UNL     1      -3.908 -10.043  -7.801  1.00  0.00     0.042 C 
ENDBRANCH  18  28
ENDBRANCH   4  18
BRANCH   3  31
HETATM   31  O3  UNL     1      -3.918 -14.845  -6.930  1.00  0.00    -0.391 OA
ATOM     32  H3  UNL     1      -3.821 -15.716  -6.566  1.00  0.00     0.210 HD
ENDBRANCH   3  31
BRANCH   2  33
HETATM   33  O2  UNL     1      -2.112 -16.472  -6.295  1.00  0.00    -0.390 OA
ATOM     34  H2  UNL     1      -2.300 -16.145  -5.423  1.00  0.00     0.210 HD
ENDBRANCH   2  33
BRANCH  17  35
HETATM   35  O6  UNL     1      -1.121 -15.300 -10.771  1.00  0.00    -0.392 OA
ATOM     36  H6  UNL     1      -1.715 -15.321 -11.512  1.00  0.00     0.210 HD
ENDBRANCH  17  35
BRANCH   1  37
HETATM   37  O1  UNL     1      -1.686 -17.234  -8.619  1.00  0.00    -0.378 OA
HETATM   38  C1  UNL     1      -2.873 -17.599  -9.092  1.00  0.00     0.202 C 
ENDBRANCH   1  37
BRANCH  10  39
HETATM   39  O5  UNL     1       2.848 -15.874  -4.998  1.00  0.00    -0.358 OA
ATOM     40  H5  UNL     1       3.702 -15.474  -5.114  1.00  0.00     0.217 HD
ENDBRANCH  10  39
TORSDOF 11
ENDMDL
MODEL 5
REMARK VINA RESULT: -6.567015187      2.571      5.667
REMARK  11 active torsions:
REMARK  status: ('A' for Active; 'I' for Inactive)
REMARK    1  A    between atoms: O1_2  and  C2_3 
REMARK    2  A    between atoms: C3_4  and  O2_5 
REMARK    3  A    between atoms: C4_7  and  O3_8 
REMARK    4  A    between atoms: C5_10  and  N1_11 
REMARK    5  A    between atoms: N1_11  and  C6_12 
REMARK    6  A    between atoms: N1_11  and  C14_21 
REMARK    7  A    between atoms: C6_12  and  C7_13 
REMARK    8  A    between atoms: C8_14  and  C9_15 
REMARK    9  A    between atoms: C10_16  and  C11_17 
REMARK   10  A    between atoms: C21_29  and  O5_30 
REMARK   11  A    between atoms: C28_38  and  O6_39 
ROOT
HETATM    1  C2  UNL     1      -0.949 -17.845  -7.595  1.00  0.00     0.129 C 
HETATM    2  C3  UNL     1      -1.820 -16.921  -6.878  1.00  0.00     0.187 C 
HETATM    3  C4  UNL     1      -3.130 -16.525  -7.450  1.00  0.00     0.183 C 
HETATM    4  C5  UNL     1      -3.159 -16.388  -8.907  1.00  0.00     0.261 C 
HETATM    5  C17 UNL     1      -1.923 -16.820  -9.558  1.00  0.00     0.056 C 
HETATM    6  C18 UNL     1      -0.783 -15.857  -9.565  1.00  0.00     0.043 C 
HETATM    7  C19 UNL     1       0.419 -16.152  -8.786  1.00  0.00     0.146 C 
HETATM    8  O4  UNL     1       0.437 -15.014  -7.739  1.00  0.00    -0.341 OA
HETATM    9  C20 UNL     1       1.228 -15.564  -6.705  1.00  0.00     0.110 A 
HETATM   10  C21 UNL     1       1.906 -15.248  -5.517  1.00  0.00     0.099 A 
HETATM   11  C22 UNL     1       2.610 -16.234  -4.829  1.00  0.00     0.040 A 
HETATM   12  C23 UNL     1       2.644 -17.554  -5.335  1.00  0.00     0.011 A 
HETATM   13  C24 UNL     1       1.969 -17.862  -6.521  1.00  0.00    -0.047 A 
HETATM   14  C25 UNL     1       1.376 -16.827  -6.992  1.00  0.00    -0.001 A 
HETATM   15  C26 UNL     1       0.445 -17.350  -7.965  1.00  0.00     0.057 C 
HETATM   16  C27 UNL     1       1.398 -18.506  -7.796  1.00  0.00     0.059 C 
HETATM   17  C28 UNL     1      -1.504 -18.163  -9.003  1.00  0.00     0.163 C 
ENDROOT
BRANCH   4  18
HETATM   18  N1  UNL     1      -3.709 -15.095  -9.362  1.00  0.00     0.103 N 
BRANCH  18  19
HETATM   19  C6  UNL     1      -3.916 -14.273  -8.167  1.00  0.00     0.301 C 
BRANCH  19  20
HETATM   20  C7  UNL     1      -3.096 -13.134  -7.934  1.00  0.00     0.003 C 
HETATM   21  C8  UNL     1      -2.734 -12.652  -6.757  1.00  0.00    -0.002 C 
BRANCH  21  22
HETATM   22  C9  UNL     1      -1.888 -11.477  -6.624  1.00  0.00    -0.000 C 
HETATM   23  C10 UNL     1      -0.587 -11.625  -6.482  1.00  0.00     0.001 C 
BRANCH  23  24
HETATM   24  C11 UNL     1       0.307 -10.480  -6.346  1.00  0.00     0.019 C 
HETATM   25  C12 UNL     1       1.471 -10.475  -6.938  1.00  0.00     0.008 C 
HETATM   26  C13 UNL     1       1.922 -11.614  -7.758  1.00  0.00     0.062 C 
HETATM   27 CL1  UNL     1       2.503  -9.060  -6.730  1.00  0.00    -0.089 Cl
ENDBRANCH  23  24
ENDBRANCH  21  22
ENDBRANCH  19  20
ENDBRANCH  18  19
BRANCH  18  28
HETATM   28  C14 UNL     1      -4.970 -15.235 -10.000  1.00  0.00     0.216 C 
HETATM   29  C15 UNL     1      -5.241 -16.510 -10.728  1.00  0.00     0.042 C 
HETATM   30  C16 UNL     1      -6.089 -14.925  -9.060  1.00  0.00     0.042 C 
ENDBRANCH  18  28
ENDBRANCH   4  18
BRANCH   3  31
HETATM   31  O3  UNL     1      -4.105 -17.413  -6.940  1.00  0.00    -0.391 OA
ATOM     32  H3  UNL     1      -4.954 -17.104  -7.232  1.00  0.00     0.210 HD
ENDBRANCH   3  31
BRANCH   2  33
HETATM   33  O2  UNL     1      -2.037 -17.338  -5.515  1.00  0.00    -0.390 OA
ATOM     34  H2  UNL     1      -1.989 -18.282  -5.423  1.00  0.00     0.210 HD
ENDBRANCH   2  33
BRANCH  17  35
HETATM   35  O6  UNL     1      -0.475 -18.646  -9.786  1.00  0.00    -0.392 OA
ATOM     36  H6  UNL     1       0.051 -17.914 -10.084  1.00  0.00     0.210 HD
ENDBRANCH  17  35
BRANCH   1  37
HETATM   37  O1  UNL     1      -0.782 -18.993  -6.874  1.00  0.00    -0.378 OA
HETATM   38  C1  UNL     1      -1.596 -20.040  -6.937  1.00  0.00     0.202 C 
ENDBRANCH   1  37
BRANCH  10  39
HETATM   39  O5  UNL     1       1.818 -13.930  -5.105  1.00  0.00    -0.358 OA
ATOM     40  H5  UNL     1       1.367 -13.782  -4.282  1.00  0.00     0.217 HD
ENDBRANCH  10  39
TORSDOF 11
ENDMDL
