MODEL 1
REMARK VINA RESULT: -8.220158704      0.000      0.000
REMARK  9 active torsions:
REMARK  status: ('A' for Active; 'I' for Inactive)
REMARK    1  A    between atoms: C2_2  and  C3_3 
REMARK    2  A    between atoms: C2_2  and  C12_17 
REMARK    3  A    between atoms: C3_3  and  O1_4 
REMARK    4  A    between atoms: O1_4  and  C4_5 
REMARK    5  A    between atoms: C4_5  and  C5_6 
REMARK       I    between atoms: C5_6  and  N1_8 
REMARK    6  A    between atoms: N1_8  and  C6_10 
REMARK    7  A    between atoms: C12_17  and  O3_18 
REMARK    8  A    between atoms: C27_34  and  O4_35 
REMARK    9  A    between atoms: C28_37  and  O5_38 
ROOT
HETATM    1  C12 UNL     1       0.411 -13.741  -7.988  1.00  0.00     0.071 C 
HETATM    2  C13 UNL     1       0.536 -14.645  -6.756  1.00  0.00     0.039 C 
HETATM    3  C14 UNL     1      -0.920 -15.110  -6.589  1.00  0.00     0.009 C 
HETATM    4  C15 UNL     1      -1.605 -14.718  -7.848  1.00  0.00     0.001 C 
HETATM    5  C16 UNL     1      -2.687 -15.601  -8.307  1.00  0.00    -0.005 C 
HETATM    6  C17 UNL     1      -3.773 -15.696  -7.271  1.00  0.00     0.006 C 
HETATM    7  C18 UNL     1      -3.957 -17.152  -6.902  1.00  0.00     0.014 C 
HETATM    8  C19 UNL     1      -4.344 -17.916  -8.124  1.00  0.00     0.010 C 
HETATM    9  C20 UNL     1      -5.788 -17.661  -8.508  1.00  0.00     0.020 C 
HETATM   10  C21 UNL     1      -3.355 -17.726  -9.273  1.00  0.00     0.035 C 
HETATM   11  C22 UNL     1      -2.186 -16.969  -8.731  1.00  0.00    -0.003 C 
HETATM   12  C23 UNL     1      -1.172 -16.695  -9.828  1.00  0.00     0.006 C 
HETATM   13  C24 UNL     1      -0.034 -15.847  -9.303  1.00  0.00     0.013 C 
HETATM   14  C25 UNL     1      -0.473 -14.488  -8.843  1.00  0.00    -0.009 C 
HETATM   15  C26 UNL     1      -1.099 -13.747 -10.001  1.00  0.00     0.019 C 
HETATM   16  C27 UNL     1      -3.229 -19.209  -9.369  1.00  0.00     0.173 C 
HETATM   17  C28 UNL     1      -3.988 -19.369  -8.066  1.00  0.00     0.180 C 
HETATM   18  C29 UNL     1      -3.146 -19.739  -6.951  1.00  0.00     0.101 C 
HETATM   19  N2  UNL     1      -2.464 -20.055  -6.061  1.00  0.00    -0.194 NA
ENDROOT
BRANCH  17  20
HETATM   20  O5  UNL     1      -5.080 -20.236  -8.150  1.00  0.00    -0.372 OA
ATOM     21  H5  UNL     1      -5.247 -20.735  -7.360  1.00  0.00     0.212 HD
ENDBRANCH  17  20
BRANCH  16  22
HETATM   22  O4  UNL     1      -4.039 -19.684 -10.425  1.00  0.00    -0.391 OA
ATOM     23  H4  UNL     1      -3.602 -20.408 -10.858  1.00  0.00     0.210 HD
ENDBRANCH  16  22
BRANCH   1  24
HETATM   24  C2  UNL     1       1.725 -13.203  -8.321  1.00  0.00     0.040 C 
HETATM   25  C1  UNL     1       2.811 -14.251  -8.437  1.00  0.00     0.015 C 
BRANCH  24  26
HETATM   26  C3  UNL     1       2.185 -11.981  -7.635  1.00  0.00     0.175 C 
BRANCH  26  27
HETATM   27  O1  UNL     1       1.603 -10.787  -7.845  1.00  0.00    -0.382 OA
BRANCH  27  28
HETATM   28  C4  UNL     1       1.783  -9.711  -7.080  1.00  0.00     0.270 C 
BRANCH  28  29
HETATM   29  C5  UNL     1       0.471  -9.202  -6.498  1.00  0.00     0.245 C 
HETATM   30  O2  UNL     1       0.188  -8.033  -6.682  1.00  0.00    -0.271 OA
HETATM   31  N1  UNL     1      -0.300 -10.124  -5.799  1.00  0.00    -0.324 N 
ATOM     32  H1  UNL     1       0.074 -11.071  -5.730  1.00  0.00     0.169 HD
BRANCH  31  33
HETATM   33  C6  UNL     1      -1.558  -9.890  -5.167  1.00  0.00     0.056 A 
HETATM   34  C7  UNL     1      -1.708  -9.436  -3.878  1.00  0.00     0.031 A 
HETATM   35  C8  UNL     1      -2.975  -9.227  -3.318  1.00  0.00     0.002 A 
HETATM   36  C9  UNL     1      -4.125  -9.466  -4.032  1.00  0.00     0.002 A 
HETATM   37  C10 UNL     1      -3.972  -9.917  -5.317  1.00  0.00     0.026 A 
HETATM   38  C11 UNL     1      -2.740 -10.127  -5.878  1.00  0.00     0.060 A 
HETATM   39 CL1  UNL     1      -2.673 -10.707  -7.532  1.00  0.00    -0.082 Cl
ENDBRANCH  31  33
ENDBRANCH  28  29
ENDBRANCH  27  28
ENDBRANCH  26  27
ENDBRANCH  24  26
ENDBRANCH   1  24
BRANCH   1  40
HETATM   40  O3  UNL     1      -0.325 -12.633  -7.456  1.00  0.00    -0.389 OA
ATOM     41  H3  UNL     1      -0.836 -12.994  -6.742  1.00  0.00     0.210 HD
ENDBRANCH   1  40
TORSDOF 9
ENDMDL
MODEL 2
REMARK VINA RESULT: -8.017309447      2.104      2.615
REMARK  9 active torsions:
REMARK  status: ('A' for Active; 'I' for Inactive)
REMARK    1  A    between atoms: C2_2  and  C3_3 
REMARK    2  A    between atoms: C2_2  and  C12_17 
REMARK    3  A    between atoms: C3_3  and  O1_4 
REMARK    4  A    between atoms: O1_4  and  C4_5 
REMARK    5  A    between atoms: C4_5  and  C5_6 
REMARK       I    between atoms: C5_6  and  N1_8 
REMARK    6  A    between atoms: N1_8  and  C6_10 
REMARK    7  A    between atoms: C12_17  and  O3_18 
REMARK    8  A    between atoms: C27_34  and  O4_35 
REMARK    9  A    between atoms: C28_37  and  O5_38 
ROOT
HETATM    1  C12 UNL     1      -1.037 -14.498  -7.252  1.00  0.00     0.071 C 
HETATM    2  C13 UNL     1      -1.680 -15.732  -6.607  1.00  0.00     0.039 C 
HETATM    3  C14 UNL     1      -3.138 -15.574  -7.067  1.00  0.00     0.009 C 
HETATM    4  C15 UNL     1      -3.106 -14.528  -8.123  1.00  0.00     0.001 C 
HETATM    5  C16 UNL     1      -4.087 -14.664  -9.209  1.00  0.00    -0.005 C 
HETATM    6  C17 UNL     1      -5.490 -14.644  -8.666  1.00  0.00     0.006 C 
HETATM    7  C18 UNL     1      -6.185 -15.919  -9.090  1.00  0.00     0.014 C 
HETATM    8  C19 UNL     1      -6.212 -15.984 -10.580  1.00  0.00     0.010 C 
HETATM    9  C20 UNL     1      -7.241 -15.036 -11.163  1.00  0.00     0.020 C 
HETATM   10  C21 UNL     1      -4.822 -15.845 -11.199  1.00  0.00     0.035 C 
HETATM   11  C22 UNL     1      -3.833 -15.880 -10.079  1.00  0.00    -0.003 C 
HETATM   12  C23 UNL     1      -2.421 -15.698 -10.608  1.00  0.00     0.006 C 
HETATM   13  C24 UNL     1      -1.428 -15.637  -9.468  1.00  0.00     0.013 C 
HETATM   14  C25 UNL     1      -1.646 -14.467  -8.555  1.00  0.00    -0.009 C 
HETATM   15  C26 UNL     1      -1.513 -13.186  -9.346  1.00  0.00     0.019 C 
HETATM   16  C27 UNL     1      -5.061 -17.114 -11.946  1.00  0.00     0.173 C 
HETATM   17  C28 UNL     1      -6.307 -17.377 -11.124  1.00  0.00     0.180 C 
HETATM   18  C29 UNL     1      -6.136 -18.420 -10.138  1.00  0.00     0.101 C 
HETATM   19  N2  UNL     1      -5.997 -19.275  -9.358  1.00  0.00    -0.194 NA
ENDROOT
BRANCH  17  20
HETATM   20  O5  UNL     1      -7.448 -17.622 -11.889  1.00  0.00    -0.372 OA
ATOM     21  H5  UNL     1      -8.265 -17.564 -11.407  1.00  0.00     0.212 HD
ENDBRANCH  17  20
BRANCH  16  22
HETATM   22  O4  UNL     1      -5.448 -16.815 -13.271  1.00  0.00    -0.391 OA
ATOM     23  H4  UNL     1      -5.370 -17.595 -13.808  1.00  0.00     0.210 HD
ENDBRANCH  16  22
BRANCH   1  24
HETATM   24  C2  UNL     1       0.386 -14.480  -6.934  1.00  0.00     0.040 C 
HETATM   25  C1  UNL     1       0.728 -15.091  -5.592  1.00  0.00     0.015 C 
BRANCH  24  26
HETATM   26  C3  UNL     1       1.159 -13.256  -7.215  1.00  0.00     0.175 C 
BRANCH  26  27
HETATM   27  O1  UNL     1       0.924 -12.102  -6.565  1.00  0.00    -0.382 OA
BRANCH  27  28
HETATM   28  C4  UNL     1       0.801 -10.913  -7.152  1.00  0.00     0.270 C 
BRANCH  28  29
HETATM   29  C5  UNL     1      -0.178 -10.012  -6.411  1.00  0.00     0.245 C 
HETATM   30  O2  UNL     1      -0.042  -8.810  -6.533  1.00  0.00    -0.271 OA
HETATM   31  N1  UNL     1      -1.153 -10.646  -5.647  1.00  0.00    -0.324 N 
ATOM     32  H1  UNL     1      -1.136 -11.666  -5.644  1.00  0.00     0.169 HD
BRANCH  31  33
HETATM   33  C6  UNL     1      -2.173 -10.024  -4.869  1.00  0.00     0.056 A 
HETATM   34  C7  UNL     1      -1.939  -9.219  -3.778  1.00  0.00     0.031 A 
HETATM   35  C8  UNL     1      -2.990  -8.639  -3.057  1.00  0.00     0.002 A 
HETATM   36  C9  UNL     1      -4.302  -8.848  -3.406  1.00  0.00     0.002 A 
HETATM   37  C10 UNL     1      -4.533  -9.649  -4.492  1.00  0.00     0.026 A 
HETATM   38  C11 UNL     1      -3.516 -10.224  -5.208  1.00  0.00     0.060 A 
HETATM   39 CL1  UNL     1      -3.938 -11.231  -6.580  1.00  0.00    -0.082 Cl
ENDBRANCH  31  33
ENDBRANCH  28  29
ENDBRANCH  27  28
ENDBRANCH  26  27
ENDBRANCH  24  26
ENDBRANCH   1  24
BRANCH   1  40
HETATM   40  O3  UNL     1      -1.610 -13.440  -6.475  1.00  0.00    -0.389 OA
ATOM     41  H3  UNL     1      -1.467 -13.690  -5.570  1.00  0.00     0.210 HD
ENDBRANCH   1  40
TORSDOF 9
ENDMDL
MODEL 3
REMARK VINA RESULT: -7.779034744      3.936      6.839
REMARK  9 active torsions:
REMARK  status: ('A' for Active; 'I' for Inactive)
REMARK    1  A    between atoms: C2_2  and  C3_3 
REMARK    2  A    between atoms: C2_2  and  C12_17 
REMARK    3  A    between atoms: C3_3  and  O1_4 
REMARK    4  A    between atoms: O1_4  and  C4_5 
REMARK    5  A    between atoms: C4_5  and  C5_6 
REMARK       I    between atoms: C5_6  and  N1_8 
REMARK    6  A    between atoms: N1_8  and  C6_10 
REMARK    7  A    between atoms: C12_17  and  O3_18 
REMARK    8  A    between atoms: C27_34  and  O4_35 
REMARK    9  A    between atoms: C28_37  and  O5_38 
ROOT
HETATM    1  C12 UNL     1       1.421  -9.144  -7.158  1.00  0.00     0.071 C 
HETATM    2  C13 UNL     1       2.168  -9.888  -8.272  1.00  0.00     0.039 C 
HETATM    3  C14 UNL     1       2.334 -11.276  -7.633  1.00  0.00     0.009 C 
HETATM    4  C15 UNL     1       1.436 -11.273  -6.447  1.00  0.00     0.001 C 
HETATM    5  C16 UNL     1       0.818 -12.558  -6.092  1.00  0.00    -0.005 C 
HETATM    6  C17 UNL     1       1.869 -13.593  -5.797  1.00  0.00     0.006 C 
HETATM    7  C18 UNL     1       1.655 -14.770  -6.723  1.00  0.00     0.014 C 
HETATM    8  C19 UNL     1       0.296 -15.336  -6.482  1.00  0.00     0.010 C 
HETATM    9  C20 UNL     1       0.243 -16.130  -5.192  1.00  0.00     0.020 C 
HETATM   10  C21 UNL     1      -0.807 -14.287  -6.608  1.00  0.00     0.035 C 
HETATM   11  C22 UNL     1      -0.175 -13.039  -7.133  1.00  0.00    -0.003 C 
HETATM   12  C23 UNL     1      -1.201 -11.925  -7.243  1.00  0.00     0.006 C 
HETATM   13  C24 UNL     1      -0.544 -10.635  -7.684  1.00  0.00     0.013 C 
HETATM   14  C25 UNL     1       0.470 -10.123  -6.703  1.00  0.00    -0.009 C 
HETATM   15  C26 UNL     1      -0.206  -9.862  -5.378  1.00  0.00     0.019 C 
HETATM   16  C27 UNL     1      -1.497 -15.174  -7.588  1.00  0.00     0.173 C 
HETATM   17  C28 UNL     1      -0.273 -16.066  -7.658  1.00  0.00     0.180 C 
HETATM   18  C29 UNL     1       0.480 -15.915  -8.882  1.00  0.00     0.101 C 
HETATM   19  N2  UNL     1       1.072 -15.801  -9.880  1.00  0.00    -0.194 NA
ENDROOT
BRANCH  17  20
HETATM   20  O5  UNL     1      -0.543 -17.416  -7.425  1.00  0.00    -0.372 OA
ATOM     21  H5  UNL     1      -0.122 -17.774  -6.652  1.00  0.00     0.212 HD
ENDBRANCH  17  20
BRANCH  16  22
HETATM   22  O4  UNL     1      -2.534 -15.879  -6.938  1.00  0.00    -0.391 OA
ATOM     23  H4  UNL     1      -2.718 -15.471  -6.100  1.00  0.00     0.210 HD
ENDBRANCH  16  22
BRANCH   1  24
HETATM   24  C2  UNL     1       1.153  -7.778  -7.593  1.00  0.00     0.040 C 
HETATM   25  C1  UNL     1       1.658  -7.462  -8.985  1.00  0.00     0.015 C 
BRANCH  24  26
HETATM   26  C3  UNL     1       1.378  -6.674  -6.642  1.00  0.00     0.175 C 
BRANCH  26  27
HETATM   27  O1  UNL     1       2.611  -6.343  -6.217  1.00  0.00    -0.382 OA
BRANCH  27  28
HETATM   28  C4  UNL     1       3.414  -5.473  -6.828  1.00  0.00     0.270 C 
BRANCH  28  29
HETATM   29  C5  UNL     1       4.575  -6.168  -7.527  1.00  0.00     0.245 C 
HETATM   30  O2  UNL     1       5.092  -5.596  -8.467  1.00  0.00    -0.271 OA
HETATM   31  N1  UNL     1       4.950  -7.411  -7.027  1.00  0.00    -0.324 N 
ATOM     32  H1  UNL     1       4.418  -7.760  -6.230  1.00  0.00     0.169 HD
BRANCH  31  33
HETATM   33  C6  UNL     1       5.999  -8.249  -7.508  1.00  0.00     0.056 A 
HETATM   34  C7  UNL     1       5.879  -9.113  -8.571  1.00  0.00     0.031 A 
HETATM   35  C8  UNL     1       6.951  -9.910  -8.991  1.00  0.00     0.002 A 
HETATM   36  C9  UNL     1       8.171  -9.865  -8.361  1.00  0.00     0.002 A 
HETATM   37  C10 UNL     1       8.288  -9.004  -7.302  1.00  0.00     0.026 A 
HETATM   38  C11 UNL     1       7.249  -8.218  -6.879  1.00  0.00     0.060 A 
HETATM   39 CL1  UNL     1       7.521  -7.154  -5.511  1.00  0.00    -0.082 Cl
ENDBRANCH  31  33
ENDBRANCH  28  29
ENDBRANCH  27  28
ENDBRANCH  26  27
ENDBRANCH  24  26
ENDBRANCH   1  24
BRANCH   1  40
HETATM   40  O3  UNL     1       2.442  -9.027  -6.160  1.00  0.00    -0.389 OA
ATOM     41  H3  UNL     1       2.989  -9.795  -6.272  1.00  0.00     0.210 HD
ENDBRANCH   1  40
TORSDOF 9
ENDMDL
MODEL 4
REMARK VINA RESULT: -7.678719772      1.786      2.114
REMARK  9 active torsions:
REMARK  status: ('A' for Active; 'I' for Inactive)
REMARK    1  A    between atoms: C2_2  and  C3_3 
REMARK    2  A    between atoms: C2_2  and  C12_17 
REMARK    3  A    between atoms: C3_3  and  O1_4 
REMARK    4  A    between atoms: O1_4  and  C4_5 
REMARK    5  A    between atoms: C4_5  and  C5_6 
REMARK       I    between atoms: C5_6  and  N1_8 
REMARK    6  A    between atoms: N1_8  and  C6_10 
REMARK    7  A    between atoms: C12_17  and  O3_18 
REMARK    8  A    between atoms: C27_34  and  O4_35 
REMARK    9  A    between atoms: C28_37  and  O5_38 
ROOT
HETATM    1  C12 UNL     1       0.042 -13.920  -7.940  1.00  0.00     0.071 C 
HETATM    2  C13 UNL     1       0.248 -15.440  -7.920  1.00  0.00     0.039 C 
HETATM    3  C14 UNL     1      -1.169 -15.921  -7.569  1.00  0.00     0.009 C 
HETATM    4  C15 UNL     1      -2.042 -14.730  -7.744  1.00  0.00     0.001 C 
HETATM    5  C16 UNL     1      -3.415 -14.987  -8.202  1.00  0.00    -0.005 C 
HETATM    6  C17 UNL     1      -4.142 -15.881  -7.235  1.00  0.00     0.006 C 
HETATM    7  C18 UNL     1      -4.621 -17.106  -7.982  1.00  0.00     0.014 C 
HETATM    8  C19 UNL     1      -5.541 -16.678  -9.075  1.00  0.00     0.010 C 
HETATM    9  C20 UNL     1      -6.899 -16.273  -8.537  1.00  0.00     0.020 C 
HETATM   10  C21 UNL     1      -4.908 -15.640 -10.002  1.00  0.00     0.035 C 
HETATM   11  C22 UNL     1      -3.469 -15.525  -9.620  1.00  0.00    -0.003 C 
HETATM   12  C23 UNL     1      -2.774 -14.472 -10.466  1.00  0.00     0.006 C 
HETATM   13  C24 UNL     1      -1.342 -14.286 -10.017  1.00  0.00     0.013 C 
HETATM   14  C25 UNL     1      -1.224 -13.780  -8.609  1.00  0.00    -0.009 C 
HETATM   15  C26 UNL     1      -1.915 -12.441  -8.501  1.00  0.00     0.019 C 
HETATM   16  C27 UNL     1      -5.245 -16.516 -11.162  1.00  0.00     0.173 C 
HETATM   17  C28 UNL     1      -5.614 -17.643 -10.218  1.00  0.00     0.180 C 
HETATM   18  C29 UNL     1      -4.632 -18.702 -10.174  1.00  0.00     0.101 C 
HETATM   19  N2  UNL     1      -3.845 -19.562 -10.158  1.00  0.00    -0.194 NA
ENDROOT
BRANCH  17  20
HETATM   20  O5  UNL     1      -6.885 -18.176 -10.443  1.00  0.00    -0.372 OA
ATOM     21  H5  UNL     1      -7.264 -17.947 -11.284  1.00  0.00     0.212 HD
ENDBRANCH  17  20
BRANCH  16  22
HETATM   22  O4  UNL     1      -6.421 -16.043 -11.784  1.00  0.00    -0.391 OA
ATOM     23  H4  UNL     1      -6.806 -16.738 -12.305  1.00  0.00     0.210 HD
ENDBRANCH  16  22
BRANCH   1  24
HETATM   24  C2  UNL     1       1.304 -13.271  -8.277  1.00  0.00     0.040 C 
HETATM   25  C1  UNL     1       2.455 -14.231  -8.491  1.00  0.00     0.015 C 
BRANCH  24  26
HETATM   26  C3  UNL     1       1.701 -12.063  -7.531  1.00  0.00     0.175 C 
BRANCH  26  27
HETATM   27  O1  UNL     1       0.861 -11.026  -7.359  1.00  0.00    -0.382 OA
BRANCH  27  28
HETATM   28  C4  UNL     1       0.859 -10.221  -6.298  1.00  0.00     0.270 C 
BRANCH  28  29
HETATM   29  C5  UNL     1      -0.538  -9.704  -5.980  1.00  0.00     0.245 C 
HETATM   30  O2  UNL     1      -1.209  -9.285  -6.904  1.00  0.00    -0.271 OA
HETATM   31  N1  UNL     1      -0.932  -9.753  -4.647  1.00  0.00    -0.324 N 
ATOM     32  H1  UNL     1      -0.254 -10.131  -3.986  1.00  0.00     0.169 HD
BRANCH  31  33
HETATM   33  C6  UNL     1      -2.183  -9.330  -4.105  1.00  0.00     0.056 A 
HETATM   34  C7  UNL     1      -2.343  -8.251  -3.268  1.00  0.00     0.031 A 
HETATM   35  C8  UNL     1      -3.601  -7.891  -2.770  1.00  0.00     0.002 A 
HETATM   36  C9  UNL     1      -4.733  -8.600  -3.096  1.00  0.00     0.002 A 
HETATM   37  C10 UNL     1      -4.571  -9.674  -3.930  1.00  0.00     0.026 A 
HETATM   38  C11 UNL     1      -3.346 -10.039  -4.425  1.00  0.00     0.060 A 
HETATM   39 CL1  UNL     1      -3.266 -11.433  -5.485  1.00  0.00    -0.082 Cl
ENDBRANCH  31  33
ENDBRANCH  28  29
ENDBRANCH  27  28
ENDBRANCH  26  27
ENDBRANCH  24  26
ENDBRANCH   1  24
BRANCH   1  40
HETATM   40  O3  UNL     1      -0.164 -13.642  -6.550  1.00  0.00    -0.389 OA
ATOM     41  H3  UNL     1      -0.725 -12.876  -6.529  1.00  0.00     0.210 HD
ENDBRANCH   1  40
TORSDOF 9
ENDMDL
MODEL 5
REMARK VINA RESULT: -7.658524431      1.901      2.749
REMARK  9 active torsions:
REMARK  status: ('A' for Active; 'I' for Inactive)
REMARK    1  A    between atoms: C2_2  and  C3_3 
REMARK    2  A    between atoms: C2_2  and  C12_17 
REMARK    3  A    between atoms: C3_3  and  O1_4 
REMARK    4  A    between atoms: O1_4  and  C4_5 
REMARK    5  A    between atoms: C4_5  and  C5_6 
REMARK       I    between atoms: C5_6  and  N1_8 
REMARK    6  A    between atoms: N1_8  and  C6_10 
REMARK    7  A    between atoms: C12_17  and  O3_18 
REMARK    8  A    between atoms: C27_34  and  O4_35 
REMARK    9  A    between atoms: C28_37  and  O5_38 
ROOT
HETATM    1  C12 UNL     1       1.073 -14.870  -7.487  1.00  0.00     0.071 C 
HETATM    2  C13 UNL     1       0.848 -14.733  -8.998  1.00  0.00     0.039 C 
HETATM    3  C14 UNL     1      -0.034 -15.961  -9.273  1.00  0.00     0.009 C 
HETATM    4  C15 UNL     1      -0.464 -16.444  -7.934  1.00  0.00     0.001 C 
HETATM    5  C16 UNL     1      -1.798 -17.057  -7.856  1.00  0.00    -0.005 C 
HETATM    6  C17 UNL     1      -1.888 -18.254  -8.763  1.00  0.00     0.006 C 
HETATM    7  C18 UNL     1      -3.031 -18.036  -9.731  1.00  0.00     0.014 C 
HETATM    8  C19 UNL     1      -4.297 -17.881  -8.958  1.00  0.00     0.010 C 
HETATM    9  C20 UNL     1      -4.790 -19.209  -8.419  1.00  0.00     0.020 C 
HETATM   10  C21 UNL     1      -4.209 -16.779  -7.902  1.00  0.00     0.035 C 
HETATM   11  C22 UNL     1      -2.915 -16.064  -8.115  1.00  0.00    -0.003 C 
HETATM   12  C23 UNL     1      -2.727 -14.978  -7.070  1.00  0.00     0.006 C 
HETATM   13  C24 UNL     1      -1.375 -14.317  -7.225  1.00  0.00     0.013 C 
HETATM   14  C25 UNL     1      -0.227 -15.259  -7.006  1.00  0.00    -0.009 C 
HETATM   15  C26 UNL     1      -0.303 -15.821  -5.606  1.00  0.00     0.019 C 
HETATM   16  C27 UNL     1      -5.439 -16.166  -8.483  1.00  0.00     0.173 C 
HETATM   17  C28 UNL     1      -5.353 -17.098  -9.676  1.00  0.00     0.180 C 
HETATM   18  C29 UNL     1      -4.901 -16.446 -10.884  1.00  0.00     0.101 C 
HETATM   19  N2  UNL     1      -4.554 -15.910 -11.859  1.00  0.00    -0.194 NA
ENDROOT
BRANCH  17  20
HETATM   20  O5  UNL     1      -6.529 -17.807  -9.925  1.00  0.00    -0.372 OA
ATOM     21  H5  UNL     1      -6.996 -17.533 -10.706  1.00  0.00     0.212 HD
ENDBRANCH  17  20
BRANCH  16  22
HETATM   22  O4  UNL     1      -6.560 -16.529  -7.705  1.00  0.00    -0.391 OA
ATOM     23  H4  UNL     1      -7.068 -15.753  -7.499  1.00  0.00     0.210 HD
ENDBRANCH  16  22
BRANCH   1  24
HETATM   24  C2  UNL     1       1.896 -13.759  -7.024  1.00  0.00     0.040 C 
HETATM   25  C1  UNL     1       1.703 -13.412  -5.563  1.00  0.00     0.015 C 
BRANCH  24  26
HETATM   26  C3  UNL     1       2.022 -12.565  -7.881  1.00  0.00     0.175 C 
BRANCH  26  27
HETATM   27  O1  UNL     1       1.195 -11.511  -7.754  1.00  0.00    -0.382 OA
BRANCH  27  28
HETATM   28  C4  UNL     1       1.542 -10.334  -7.234  1.00  0.00     0.270 C 
BRANCH  28  29
HETATM   29  C5  UNL     1       0.357  -9.625  -6.593  1.00  0.00     0.245 C 
HETATM   30  O2  UNL     1       0.248  -8.428  -6.776  1.00  0.00    -0.271 OA
HETATM   31  N1  UNL     1      -0.509 -10.414  -5.843  1.00  0.00    -0.324 N 
ATOM     32  H1  UNL     1      -0.283 -11.407  -5.781  1.00  0.00     0.169 HD
BRANCH  31  33
HETATM   33  C6  UNL     1      -1.681  -9.985  -5.151  1.00  0.00     0.056 A 
HETATM   34  C7  UNL     1      -1.677  -9.377  -3.917  1.00  0.00     0.031 A 
HETATM   35  C8  UNL     1      -2.866  -8.980  -3.293  1.00  0.00     0.002 A 
HETATM   36  C9  UNL     1      -4.090  -9.180  -3.884  1.00  0.00     0.002 A 
HETATM   37  C10 UNL     1      -4.091  -9.785  -5.113  1.00  0.00     0.026 A 
HETATM   38  C11 UNL     1      -2.937 -10.179  -5.737  1.00  0.00     0.060 A 
HETATM   39 CL1  UNL     1      -3.067 -10.943  -7.310  1.00  0.00    -0.082 Cl
ENDBRANCH  31  33
ENDBRANCH  28  29
ENDBRANCH  27  28
ENDBRANCH  26  27
ENDBRANCH  24  26
ENDBRANCH   1  24
BRANCH   1  40
HETATM   40  O3  UNL     1       1.924 -16.020  -7.428  1.00  0.00    -0.389 OA
ATOM     41  H3  UNL     1       2.433 -15.995  -8.230  1.00  0.00     0.210 HD
ENDBRANCH   1  40
TORSDOF 9
ENDMDL
