MODEL 1
REMARK VINA RESULT: -7.856748995      0.000      0.000
REMARK  12 active torsions:
REMARK  status: ('A' for Active; 'I' for Inactive)
REMARK    1  A    between atoms: C3_3  and  C5_5 
REMARK    2  A    between atoms: C6_6  and  O1_7 
REMARK    3  A    between atoms: O1_7  and  C7_8 
REMARK    4  A    between atoms: C7_8  and  C8_10 
REMARK    5  A    between atoms: C8_10  and  C9_11 
REMARK    6  A    between atoms: C9_11  and  C10_12 
REMARK    7  A    between atoms: C18_20  and  O3_21 
REMARK    8  A    between atoms: C19_23  and  O4_24 
REMARK    9  A    between atoms: C20_26  and  O5_27 
REMARK   10  A    between atoms: C21_29  and  O6_30 
REMARK   11  A    between atoms: C22_32  and  S1_33 
REMARK   12  A    between atoms: S1_33  and  C23_34 
ROOT
HETATM    1  C1  UNL     1      -2.910 -16.142 -10.482  1.00  0.00     0.017 C 
HETATM    2  C2  UNL     1      -2.105 -15.391  -9.971  1.00  0.00    -0.082 C 
HETATM    3  C3  UNL     1      -1.099 -14.468  -9.382  1.00  0.00    -0.004 C 
HETATM    4  C4  UNL     1      -1.138 -13.274  -9.937  1.00  0.00     0.029 C 
ENDROOT
BRANCH   3   5
HETATM    5  C5  UNL     1      -0.175 -15.064  -8.478  1.00  0.00     0.107 C 
HETATM    6  C6  UNL     1       0.132 -14.341  -7.156  1.00  0.00     0.122 C 
HETATM    7  C16 UNL     1       0.850 -15.344  -6.322  1.00  0.00    -0.021 C 
HETATM    8  C22 UNL     1       1.095 -13.304  -7.699  1.00  0.00     0.125 C 
HETATM    9  C17 UNL     1       0.723 -15.369  -4.994  1.00  0.00     0.020 C 
HETATM   10  C18 UNL     1       1.715 -16.435  -6.849  1.00  0.00     0.181 C 
HETATM   11  C19 UNL     1       1.690 -16.613  -8.320  1.00  0.00     0.189 C 
HETATM   12  C20 UNL     1       1.252 -15.280  -8.978  1.00  0.00     0.124 C 
HETATM   13  C21 UNL     1       2.112 -14.164  -8.399  1.00  0.00     0.173 C 
BRANCH   6  14
HETATM   14  O1  UNL     1      -0.850 -13.803  -6.418  1.00  0.00    -0.303 OA
BRANCH  14  15
HETATM   15  C7  UNL     1      -1.988 -13.158  -6.721  1.00  0.00     0.260 C 
HETATM   16  O2  UNL     1      -3.017 -13.866  -6.849  1.00  0.00    -0.265 OA
BRANCH  15  17
HETATM   17  C8  UNL     1      -2.090 -11.658  -6.910  1.00  0.00     0.116 C 
BRANCH  17  18
HETATM   18  C9  UNL     1      -3.457 -11.241  -6.494  1.00  0.00     0.048 C 
BRANCH  18  19
HETATM   19  C10 UNL     1      -3.345 -10.361  -5.296  1.00  0.00    -0.058 A 
HETATM   20  C11 UNL     1      -2.137  -9.941  -4.780  1.00  0.00     0.007 A 
HETATM   21  C12 UNL     1      -2.070  -9.123  -3.663  1.00  0.00     0.001 A 
HETATM   22  C13 UNL     1      -3.239  -8.723  -3.059  1.00  0.00     0.000 A 
HETATM   23  C14 UNL     1      -4.444  -9.139  -3.568  1.00  0.00     0.001 A 
HETATM   24  C15 UNL     1      -4.509  -9.959  -4.688  1.00  0.00     0.007 A 
ENDBRANCH  18  19
ENDBRANCH  17  18
ENDBRANCH  15  17
ENDBRANCH  14  15
ENDBRANCH   6  14
BRANCH  10  25
HETATM   25  O3  UNL     1       3.012 -16.402  -6.354  1.00  0.00    -0.388 OA
ATOM     26  H3  UNL     1       3.678 -16.414  -7.032  1.00  0.00     0.210 HD
ENDBRANCH  10  25
BRANCH  11  27
HETATM   27  O4  UNL     1       0.702 -17.533  -8.654  1.00  0.00    -0.390 OA
ATOM     28  H4  UNL     1      -0.116 -17.279  -8.243  1.00  0.00     0.210 HD
ENDBRANCH  11  27
BRANCH  12  29
HETATM   29  O5  UNL     1       1.371 -15.447 -10.325  1.00  0.00    -0.384 OA
ATOM     30  H5  UNL     1       1.321 -14.646 -10.834  1.00  0.00     0.210 HD
ENDBRANCH  12  29
BRANCH  13  31
HETATM   31  O6  UNL     1       2.640 -13.507  -9.532  1.00  0.00    -0.391 OA
ATOM     32  H6  UNL     1       3.125 -14.183  -9.991  1.00  0.00     0.210 HD
ENDBRANCH  13  31
BRANCH   8  33
HETATM   33  S1  UNL     1       1.655 -11.983  -6.764  1.00  0.00    -0.117 SA
BRANCH  33  34
HETATM   34  C23 UNL     1       1.618 -10.330  -7.229  1.00  0.00     0.022 A 
HETATM   35  C24 UNL     1       0.677  -9.479  -6.670  1.00  0.00     0.020 A 
HETATM   36  C25 UNL     1       0.602  -8.176  -7.011  1.00  0.00     0.001 A 
HETATM   37  C26 UNL     1       1.452  -7.611  -7.935  1.00  0.00     0.002 A 
HETATM   38  C27 UNL     1       2.389  -8.443  -8.497  1.00  0.00     0.025 A 
HETATM   39  C28 UNL     1       2.487  -9.771  -8.169  1.00  0.00     0.050 A 
HETATM   40 CL1  UNL     1       3.703 -10.803  -8.947  1.00  0.00    -0.083 Cl
ENDBRANCH  33  34
ENDBRANCH   8  33
ENDBRANCH   3   5
TORSDOF 12
ENDMDL
MODEL 2
REMARK VINA RESULT: -7.641394253      2.861      5.823
REMARK  12 active torsions:
REMARK  status: ('A' for Active; 'I' for Inactive)
REMARK    1  A    between atoms: C3_3  and  C5_5 
REMARK    2  A    between atoms: C6_6  and  O1_7 
REMARK    3  A    between atoms: O1_7  and  C7_8 
REMARK    4  A    between atoms: C7_8  and  C8_10 
REMARK    5  A    between atoms: C8_10  and  C9_11 
REMARK    6  A    between atoms: C9_11  and  C10_12 
REMARK    7  A    between atoms: C18_20  and  O3_21 
REMARK    8  A    between atoms: C19_23  and  O4_24 
REMARK    9  A    between atoms: C20_26  and  O5_27 
REMARK   10  A    between atoms: C21_29  and  O6_30 
REMARK   11  A    between atoms: C22_32  and  S1_33 
REMARK   12  A    between atoms: S1_33  and  C23_34 
ROOT
HETATM    1  C1  UNL     1       2.080 -11.052  -7.804  1.00  0.00     0.017 C 
HETATM    2  C2  UNL     1       1.638 -12.102  -7.389  1.00  0.00    -0.082 C 
HETATM    3  C3  UNL     1       1.133 -13.397  -6.859  1.00  0.00    -0.004 C 
HETATM    4  C4  UNL     1       1.081 -13.408  -5.543  1.00  0.00     0.029 C 
ENDROOT
BRANCH   3   5
HETATM    5  C5  UNL     1       0.970 -14.432  -7.823  1.00  0.00     0.107 C 
HETATM    6  C6  UNL     1      -0.351 -15.220  -7.840  1.00  0.00     0.122 C 
HETATM    7  C16 UNL     1      -0.337 -15.974  -9.124  1.00  0.00    -0.021 C 
HETATM    8  C22 UNL     1      -0.064 -16.142  -6.671  1.00  0.00     0.125 C 
HETATM    9  C17 UNL     1      -1.460 -16.232  -9.796  1.00  0.00     0.020 C 
HETATM   10  C18 UNL     1       0.887 -16.461  -9.818  1.00  0.00     0.181 C 
HETATM   11  C19 UNL     1       2.172 -15.984  -9.253  1.00  0.00     0.189 C 
HETATM   12  C20 UNL     1       1.952 -15.600  -7.768  1.00  0.00     0.124 C 
HETATM   13  C21 UNL     1       1.245 -16.760  -7.080  1.00  0.00     0.173 C 
BRANCH   6  14
HETATM   14  O1  UNL     1      -1.531 -14.593  -7.731  1.00  0.00    -0.303 OA
BRANCH  14  15
HETATM   15  C7  UNL     1      -1.910 -13.308  -7.830  1.00  0.00     0.260 C 
HETATM   16  O2  UNL     1      -1.724 -12.753  -8.940  1.00  0.00    -0.265 OA
BRANCH  15  17
HETATM   17  C8  UNL     1      -2.534 -12.518  -6.697  1.00  0.00     0.116 C 
BRANCH  17  18
HETATM   18  C9  UNL     1      -1.901 -11.170  -6.683  1.00  0.00     0.048 C 
BRANCH  18  19
HETATM   19  C10 UNL     1      -2.368 -10.435  -5.473  1.00  0.00    -0.058 A 
HETATM   20  C11 UNL     1      -1.522  -9.714  -4.657  1.00  0.00     0.007 A 
HETATM   21  C12 UNL     1      -1.991  -9.044  -3.537  1.00  0.00     0.001 A 
HETATM   22  C13 UNL     1      -3.333  -9.102  -3.240  1.00  0.00     0.000 A 
HETATM   23  C14 UNL     1      -4.178  -9.819  -4.049  1.00  0.00     0.001 A 
HETATM   24  C15 UNL     1      -3.706 -10.491  -5.170  1.00  0.00     0.007 A 
ENDBRANCH  18  19
ENDBRANCH  17  18
ENDBRANCH  15  17
ENDBRANCH  14  15
ENDBRANCH   6  14
BRANCH  10  25
HETATM   25  O3  UNL     1       0.893 -17.832 -10.034  1.00  0.00    -0.388 OA
ATOM     26  H3  UNL     1       1.402 -18.095 -10.793  1.00  0.00     0.210 HD
ENDBRANCH  10  25
BRANCH  11  27
HETATM   27  O4  UNL     1       2.545 -14.806  -9.891  1.00  0.00    -0.390 OA
ATOM     28  H4  UNL     1       2.254 -14.064  -9.374  1.00  0.00     0.210 HD
ENDBRANCH  11  27
BRANCH  12  29
HETATM   29  O5  UNL     1       3.178 -15.297  -7.254  1.00  0.00    -0.384 OA
ATOM     30  H5  UNL     1       3.692 -16.045  -6.977  1.00  0.00     0.210 HD
ENDBRANCH  12  29
BRANCH  13  31
HETATM   31  O6  UNL     1       2.049 -17.039  -5.953  1.00  0.00    -0.391 OA
ATOM     32  H6  UNL     1       1.426 -17.196  -5.253  1.00  0.00     0.210 HD
ENDBRANCH  13  31
BRANCH   8  33
HETATM   33  S1  UNL     1      -1.258 -17.155  -5.978  1.00  0.00    -0.117 SA
BRANCH  33  34
HETATM   34  C23 UNL     1      -2.202 -18.320  -6.815  1.00  0.00     0.022 A 
HETATM   35  C24 UNL     1      -1.685 -19.585  -7.049  1.00  0.00     0.020 A 
HETATM   36  C25 UNL     1      -2.384 -20.531  -7.711  1.00  0.00     0.001 A 
HETATM   37  C26 UNL     1      -3.651 -20.298  -8.195  1.00  0.00     0.002 A 
HETATM   38  C27 UNL     1      -4.176 -19.049  -7.971  1.00  0.00     0.025 A 
HETATM   39  C28 UNL     1      -3.487 -18.070  -7.302  1.00  0.00     0.050 A 
HETATM   40 CL1  UNL     1      -4.207 -16.467  -7.063  1.00  0.00    -0.083 Cl
ENDBRANCH  33  34
ENDBRANCH   8  33
ENDBRANCH   3   5
TORSDOF 12
ENDMDL
MODEL 3
REMARK VINA RESULT: -7.623237386      2.394      5.416
REMARK  12 active torsions:
REMARK  status: ('A' for Active; 'I' for Inactive)
REMARK    1  A    between atoms: C3_3  and  C5_5 
REMARK    2  A    between atoms: C6_6  and  O1_7 
REMARK    3  A    between atoms: O1_7  and  C7_8 
REMARK    4  A    between atoms: C7_8  and  C8_10 
REMARK    5  A    between atoms: C8_10  and  C9_11 
REMARK    6  A    between atoms: C9_11  and  C10_12 
REMARK    7  A    between atoms: C18_20  and  O3_21 
REMARK    8  A    between atoms: C19_23  and  O4_24 
REMARK    9  A    between atoms: C20_26  and  O5_27 
REMARK   10  A    between atoms: C21_29  and  O6_30 
REMARK   11  A    between atoms: C22_32  and  S1_33 
REMARK   12  A    between atoms: S1_33  and  C23_34 
ROOT
HETATM    1  C1  UNL     1       2.083 -10.297  -7.576  1.00  0.00     0.017 C 
HETATM    2  C2  UNL     1       1.667 -11.425  -7.411  1.00  0.00    -0.082 C 
HETATM    3  C3  UNL     1       1.196 -12.820  -7.198  1.00  0.00    -0.004 C 
HETATM    4  C4  UNL     1       1.354 -13.211  -5.949  1.00  0.00     0.029 C 
ENDROOT
BRANCH   3   5
HETATM    5  C5  UNL     1       0.837 -13.532  -8.377  1.00  0.00     0.107 C 
HETATM    6  C6  UNL     1      -0.654 -13.658  -8.734  1.00  0.00     0.122 C 
HETATM    7  C16 UNL     1      -0.676 -14.151 -10.139  1.00  0.00    -0.021 C 
HETATM    8  C22 UNL     1      -1.012 -14.769  -7.767  1.00  0.00     0.125 C 
HETATM    9  C17 UNL     1      -1.642 -13.798 -10.989  1.00  0.00     0.020 C 
HETATM   10  C18 UNL     1       0.364 -15.016 -10.759  1.00  0.00     0.181 C 
HETATM   11  C19 UNL     1       1.584 -15.230  -9.944  1.00  0.00     0.189 C 
HETATM   12  C20 UNL     1       1.233 -15.005  -8.452  1.00  0.00     0.124 C 
HETATM   13  C21 UNL     1      -0.007 -15.828  -8.129  1.00  0.00     0.173 C 
BRANCH   6  14
HETATM   14  O1  UNL     1      -1.477 -12.604  -8.644  1.00  0.00    -0.303 OA
BRANCH  14  15
HETATM   15  C7  UNL     1      -2.282 -12.137  -7.675  1.00  0.00     0.260 C 
HETATM   16  O2  UNL     1      -3.473 -11.907  -7.998  1.00  0.00    -0.265 OA
BRANCH  15  17
HETATM   17  C8  UNL     1      -1.835 -11.882  -6.249  1.00  0.00     0.116 C 
BRANCH  17  18
HETATM   18  C9  UNL     1      -1.616 -10.418  -6.099  1.00  0.00     0.048 C 
BRANCH  18  19
HETATM   19  C10 UNL     1      -2.528  -9.904  -5.038  1.00  0.00    -0.058 A 
HETATM   20  C11 UNL     1      -3.896 -10.070  -5.075  1.00  0.00     0.007 A 
HETATM   21  C12 UNL     1      -4.715  -9.577  -4.070  1.00  0.00     0.001 A 
HETATM   22  C13 UNL     1      -4.143  -8.909  -3.013  1.00  0.00     0.000 A 
HETATM   23  C14 UNL     1      -2.782  -8.741  -2.972  1.00  0.00     0.001 A 
HETATM   24  C15 UNL     1      -1.963  -9.235  -3.980  1.00  0.00     0.007 A 
ENDBRANCH  18  19
ENDBRANCH  17  18
ENDBRANCH  15  17
ENDBRANCH  14  15
ENDBRANCH   6  14
BRANCH  10  25
HETATM   25  O3  UNL     1      -0.135 -16.209 -11.266  1.00  0.00    -0.388 OA
ATOM     26  H3  UNL     1      -0.254 -16.200 -12.209  1.00  0.00     0.210 HD
ENDBRANCH  10  25
BRANCH  11  27
HETATM   27  O4  UNL     1       2.522 -14.253 -10.257  1.00  0.00    -0.390 OA
ATOM     28  H4  UNL     1       3.388 -14.561 -10.014  1.00  0.00     0.210 HD
ENDBRANCH  11  27
BRANCH  12  29
HETATM   29  O5  UNL     1       2.340 -15.341  -7.731  1.00  0.00    -0.384 OA
ATOM     30  H5  UNL     1       3.134 -15.443  -8.241  1.00  0.00     0.210 HD
ENDBRANCH  12  29
BRANCH  13  31
HETATM   31  O6  UNL     1       0.363 -16.586  -6.996  1.00  0.00    -0.391 OA
ATOM     32  H6  UNL     1       1.103 -17.104  -7.291  1.00  0.00     0.210 HD
ENDBRANCH  13  31
BRANCH   8  33
HETATM   33  S1  UNL     1      -2.628 -15.251  -7.470  1.00  0.00    -0.117 SA
BRANCH  33  34
HETATM   34  C23 UNL     1      -3.810 -15.605  -8.664  1.00  0.00     0.022 A 
HETATM   35  C24 UNL     1      -4.822 -14.692  -8.923  1.00  0.00     0.020 A 
HETATM   36  C25 UNL     1      -5.779 -14.930  -9.844  1.00  0.00     0.001 A 
HETATM   37  C26 UNL     1      -5.811 -16.092 -10.582  1.00  0.00     0.002 A 
HETATM   38  C27 UNL     1      -4.815 -17.005 -10.336  1.00  0.00     0.025 A 
HETATM   39  C28 UNL     1      -3.831 -16.788  -9.406  1.00  0.00     0.050 A 
HETATM   40 CL1  UNL     1      -2.584 -18.016  -9.114  1.00  0.00    -0.083 Cl
ENDBRANCH  33  34
ENDBRANCH   8  33
ENDBRANCH   3   5
TORSDOF 12
ENDMDL
MODEL 4
REMARK VINA RESULT: -7.622721236      2.600      5.713
REMARK  12 active torsions:
REMARK  status: ('A' for Active; 'I' for Inactive)
REMARK    1  A    between atoms: C3_3  and  C5_5 
REMARK    2  A    between atoms: C6_6  and  O1_7 
REMARK    3  A    between atoms: O1_7  and  C7_8 
REMARK    4  A    between atoms: C7_8  and  C8_10 
REMARK    5  A    between atoms: C8_10  and  C9_11 
REMARK    6  A    between atoms: C9_11  and  C10_12 
REMARK    7  A    between atoms: C18_20  and  O3_21 
REMARK    8  A    between atoms: C19_23  and  O4_24 
REMARK    9  A    between atoms: C20_26  and  O5_27 
REMARK   10  A    between atoms: C21_29  and  O6_30 
REMARK   11  A    between atoms: C22_32  and  S1_33 
REMARK   12  A    between atoms: S1_33  and  C23_34 
ROOT
HETATM    1  C1  UNL     1       1.563  -9.997  -7.064  1.00  0.00     0.017 C 
HETATM    2  C2  UNL     1       1.302 -11.174  -6.929  1.00  0.00    -0.082 C 
HETATM    3  C3  UNL     1       1.024 -12.625  -6.756  1.00  0.00    -0.004 C 
HETATM    4  C4  UNL     1       1.338 -13.049  -5.549  1.00  0.00     0.029 C 
ENDROOT
BRANCH   3   5
HETATM    5  C5  UNL     1       0.649 -13.322  -7.939  1.00  0.00     0.107 C 
HETATM    6  C6  UNL     1      -0.838 -13.365  -8.328  1.00  0.00     0.122 C 
HETATM    7  C16 UNL     1      -0.859 -13.864  -9.731  1.00  0.00    -0.021 C 
HETATM    8  C22 UNL     1      -1.280 -14.448  -7.364  1.00  0.00     0.125 C 
HETATM    9  C17 UNL     1      -1.784 -13.461 -10.604  1.00  0.00     0.020 C 
HETATM   10  C18 UNL     1       0.144 -14.791 -10.325  1.00  0.00     0.181 C 
HETATM   11  C19 UNL     1       1.331 -15.070  -9.482  1.00  0.00     0.189 C 
HETATM   12  C20 UNL     1       0.962 -14.816  -7.999  1.00  0.00     0.124 C 
HETATM   13  C21 UNL     1      -0.330 -15.565  -7.700  1.00  0.00     0.173 C 
BRANCH   6  14
HETATM   14  O1  UNL     1      -1.601 -12.265  -8.261  1.00  0.00    -0.303 OA
BRANCH  14  15
HETATM   15  C7  UNL     1      -2.546 -11.844  -7.404  1.00  0.00     0.260 C 
HETATM   16  O2  UNL     1      -3.734 -11.906  -7.805  1.00  0.00    -0.265 OA
BRANCH  15  17
HETATM   17  C8  UNL     1      -2.257 -11.314  -6.014  1.00  0.00     0.116 C 
BRANCH  17  18
HETATM   18  C9  UNL     1      -3.557 -11.177  -5.302  1.00  0.00     0.048 C 
BRANCH  18  19
HETATM   19  C10 UNL     1      -3.478 -10.006  -4.383  1.00  0.00    -0.058 A 
HETATM   20  C11 UNL     1      -4.582  -9.457  -3.765  1.00  0.00     0.007 A 
HETATM   21  C12 UNL     1      -4.471  -8.366  -2.917  1.00  0.00     0.001 A 
HETATM   22  C13 UNL     1      -3.228  -7.823  -2.690  1.00  0.00     0.000 A 
HETATM   23  C14 UNL     1      -2.127  -8.365  -3.303  1.00  0.00     0.001 A 
HETATM   24  C15 UNL     1      -2.240  -9.458  -4.153  1.00  0.00     0.007 A 
ENDBRANCH  18  19
ENDBRANCH  17  18
ENDBRANCH  15  17
ENDBRANCH  14  15
ENDBRANCH   6  14
BRANCH  10  25
HETATM   25  O3  UNL     1      -0.412 -15.956 -10.837  1.00  0.00    -0.388 OA
ATOM     26  H3  UNL     1      -1.262 -16.165 -10.467  1.00  0.00     0.210 HD
ENDBRANCH  10  25
BRANCH  11  27
HETATM   27  O4  UNL     1       2.331 -14.150  -9.779  1.00  0.00    -0.390 OA
ATOM     28  H4  UNL     1       2.729 -14.377 -10.611  1.00  0.00     0.210 HD
ENDBRANCH  11  27
BRANCH  12  29
HETATM   29  O5  UNL     1       2.033 -15.210  -7.253  1.00  0.00    -0.384 OA
ATOM     30  H5  UNL     1       2.839 -14.742  -7.432  1.00  0.00     0.210 HD
ENDBRANCH  12  29
BRANCH  13  31
HETATM   31  O6  UNL     1      -0.028 -16.336  -6.555  1.00  0.00    -0.391 OA
ATOM     32  H6  UNL     1       0.668 -16.918  -6.840  1.00  0.00     0.210 HD
ENDBRANCH  13  31
BRANCH   8  33
HETATM   33  S1  UNL     1      -2.927 -14.835  -7.100  1.00  0.00    -0.117 SA
BRANCH  33  34
HETATM   34  C23 UNL     1      -3.737 -16.239  -7.669  1.00  0.00     0.022 A 
HETATM   35  C24 UNL     1      -3.338 -17.491  -7.226  1.00  0.00     0.020 A 
HETATM   36  C25 UNL     1      -3.937 -18.622  -7.653  1.00  0.00     0.001 A 
HETATM   37  C26 UNL     1      -4.978 -18.604  -8.553  1.00  0.00     0.002 A 
HETATM   38  C27 UNL     1      -5.383 -17.370  -9.000  1.00  0.00     0.025 A 
HETATM   39  C28 UNL     1      -4.792 -16.205  -8.583  1.00  0.00     0.050 A 
HETATM   40 CL1  UNL     1      -5.342 -14.642  -9.215  1.00  0.00    -0.083 Cl
ENDBRANCH  33  34
ENDBRANCH   8  33
ENDBRANCH   3   5
TORSDOF 12
ENDMDL
MODEL 5
REMARK VINA RESULT: -7.598826478      2.353      5.364
REMARK  12 active torsions:
REMARK  status: ('A' for Active; 'I' for Inactive)
REMARK    1  A    between atoms: C3_3  and  C5_5 
REMARK    2  A    between atoms: C6_6  and  O1_7 
REMARK    3  A    between atoms: O1_7  and  C7_8 
REMARK    4  A    between atoms: C7_8  and  C8_10 
REMARK    5  A    between atoms: C8_10  and  C9_11 
REMARK    6  A    between atoms: C9_11  and  C10_12 
REMARK    7  A    between atoms: C18_20  and  O3_21 
REMARK    8  A    between atoms: C19_23  and  O4_24 
REMARK    9  A    between atoms: C20_26  and  O5_27 
REMARK   10  A    between atoms: C21_29  and  O6_30 
REMARK   11  A    between atoms: C22_32  and  S1_33 
REMARK   12  A    between atoms: S1_33  and  C23_34 
ROOT
HETATM    1  C1  UNL     1       1.626 -10.502  -6.906  1.00  0.00     0.017 C 
HETATM    2  C2  UNL     1       1.200 -11.639  -6.934  1.00  0.00    -0.082 C 
HETATM    3  C3  UNL     1       0.716 -13.045  -6.953  1.00  0.00    -0.004 C 
HETATM    4  C4  UNL     1       0.643 -13.559  -5.742  1.00  0.00     0.029 C 
ENDROOT
BRANCH   3   5
HETATM    5  C5  UNL     1       0.592 -13.633  -8.243  1.00  0.00     0.107 C 
HETATM    6  C6  UNL     1      -0.814 -13.982  -8.760  1.00  0.00     0.122 C 
HETATM    7  C16 UNL     1      -0.636 -14.262 -10.211  1.00  0.00    -0.021 C 
HETATM    8  C22 UNL     1      -1.014 -15.268  -7.983  1.00  0.00     0.125 C 
HETATM    9  C17 UNL     1      -1.587 -13.976 -11.102  1.00  0.00     0.020 C 
HETATM   10  C18 UNL     1       0.599 -14.819 -10.831  1.00  0.00     0.181 C 
HETATM   11  C19 UNL     1       1.773 -14.918  -9.932  1.00  0.00     0.189 C 
HETATM   12  C20 UNL     1       1.277 -14.980  -8.465  1.00  0.00     0.124 C 
HETATM   13  C21 UNL     1       0.205 -16.058  -8.376  1.00  0.00     0.173 C 
BRANCH   6  14
HETATM   14  O1  UNL     1      -1.835 -13.124  -8.618  1.00  0.00    -0.303 OA
BRANCH  14  15
HETATM   15  C7  UNL     1      -2.330 -12.438  -7.575  1.00  0.00     0.260 C 
HETATM   16  O2  UNL     1      -2.809 -13.117  -6.635  1.00  0.00    -0.265 OA
BRANCH  15  17
HETATM   17  C8  UNL     1      -2.338 -10.926  -7.481  1.00  0.00     0.116 C 
BRANCH  17  18
HETATM   18  C9  UNL     1      -3.640 -10.517  -6.886  1.00  0.00     0.048 C 
BRANCH  18  19
HETATM   19  C10 UNL     1      -3.399 -10.027  -5.499  1.00  0.00    -0.058 A 
HETATM   20  C11 UNL     1      -2.137  -9.814  -4.984  1.00  0.00     0.007 A 
HETATM   21  C12 UNL     1      -1.949  -9.359  -3.687  1.00  0.00     0.001 A 
HETATM   22  C13 UNL     1      -3.051  -9.115  -2.902  1.00  0.00     0.000 A 
HETATM   23  C14 UNL     1      -4.308  -9.326  -3.409  1.00  0.00     0.001 A 
HETATM   24  C15 UNL     1      -4.494  -9.782  -4.708  1.00  0.00     0.007 A 
ENDBRANCH  18  19
ENDBRANCH  17  18
ENDBRANCH  15  17
ENDBRANCH  14  15
ENDBRANCH   6  14
BRANCH  10  25
HETATM   25  O3  UNL     1       0.384 -15.998 -11.533  1.00  0.00    -0.388 OA
ATOM     26  H3  UNL     1       0.844 -16.746 -11.169  1.00  0.00     0.210 HD
ENDBRANCH  10  25
BRANCH  11  27
HETATM   27  O4  UNL     1       2.519 -13.748 -10.022  1.00  0.00    -0.390 OA
ATOM     28  H4  UNL     1       2.497 -13.430 -10.917  1.00  0.00     0.210 HD
ENDBRANCH  11  27
BRANCH  12  29
HETATM   29  O5  UNL     1       2.373 -15.204  -7.687  1.00  0.00    -0.384 OA
ATOM     30  H5  UNL     1       2.219 -15.145  -6.752  1.00  0.00     0.210 HD
ENDBRANCH  12  29
BRANCH  13  31
HETATM   31  O6  UNL     1       0.634 -16.889  -7.318  1.00  0.00    -0.391 OA
ATOM     32  H6  UNL     1      -0.159 -17.072  -6.826  1.00  0.00     0.210 HD
ENDBRANCH  13  31
BRANCH   8  33
HETATM   33  S1  UNL     1      -2.520 -16.081  -7.913  1.00  0.00    -0.117 SA
BRANCH  33  34
HETATM   34  C23 UNL     1      -3.778 -15.976  -9.076  1.00  0.00     0.022 A 
HETATM   35  C24 UNL     1      -4.839 -15.107  -8.867  1.00  0.00     0.020 A 
HETATM   36  C25 UNL     1      -5.856 -14.997  -9.747  1.00  0.00     0.001 A 
HETATM   37  C26 UNL     1      -5.904 -15.740 -10.905  1.00  0.00     0.002 A 
HETATM   38  C27 UNL     1      -4.860 -16.605 -11.126  1.00  0.00     0.025 A 
HETATM   39  C28 UNL     1      -3.814 -16.736 -10.248  1.00  0.00     0.050 A 
HETATM   40 CL1  UNL     1      -2.505 -17.888 -10.574  1.00  0.00    -0.083 Cl
ENDBRANCH  33  34
ENDBRANCH   8  33
ENDBRANCH   3   5
TORSDOF 12
ENDMDL
