MODEL 1
REMARK VINA RESULT: -8.203787374      0.000      0.000
REMARK  9 active torsions:
REMARK  status: ('A' for Active; 'I' for Inactive)
REMARK    1  A    between atoms: C2_2  and  C3_3 
REMARK    2  A    between atoms: C4_4  and  O1_5 
REMARK    3  A    between atoms: C5_9  and  S1_10 
REMARK    4  A    between atoms: S1_10  and  C6_11 
REMARK    5  A    between atoms: C6_11  and  C7_12 
REMARK    6  A    between atoms: C7_12  and  N2_13 
REMARK    7  A    between atoms: N3_16  and  C10_17 
REMARK    8  A    between atoms: C10_17  and  C11_18 
REMARK    9  A    between atoms: C11_18  and  O2_19 
ROOT
HETATM    1  N2  UNL     1       1.483 -13.818  -6.704  1.00  0.00     0.092 N 
HETATM    2  C8  UNL     1       0.934 -13.967  -8.040  1.00  0.00     0.302 C 
HETATM    3  C9  UNL     1       0.173 -15.225  -8.237  1.00  0.00     0.302 C 
HETATM    4  N3  UNL     1      -1.091 -15.274  -7.459  1.00  0.00     0.095 N 
HETATM    5  C25 UNL     1      -0.756 -14.541  -6.244  1.00  0.00     0.302 C 
HETATM    6  C26 UNL     1       0.729 -14.740  -5.870  1.00  0.00     0.302 C 
ENDROOT
BRANCH   4   7
HETATM    7  C10 UNL     1      -2.114 -14.626  -8.187  1.00  0.00     0.313 C 
BRANCH   7   8
HETATM    8  C11 UNL     1      -3.551 -14.925  -8.000  1.00  0.00     0.115 C 
HETATM    9  C12 UNL     1      -4.375 -14.543  -9.212  1.00  0.00     0.043 C 
HETATM   10  C13 UNL     1      -4.902 -15.695  -9.976  1.00  0.00     0.018 C 
HETATM   11  C14 UNL     1      -5.617 -16.731  -9.158  1.00  0.00     0.001 C 
HETATM   12  C15 UNL     1      -5.877 -17.894 -10.132  1.00  0.00     0.017 C 
HETATM   13  C22 UNL     1      -6.962 -16.417  -8.729  1.00  0.00    -0.003 C 
HETATM   14  C23 UNL     1      -4.649 -17.197  -8.120  1.00  0.00     0.056 C 
HETATM   15  C16 UNL     1      -7.015 -17.325 -10.953  1.00  0.00     0.016 C 
HETATM   16  C17 UNL     1      -7.841 -16.543  -9.962  1.00  0.00    -0.001 C 
HETATM   17  C18 UNL     1      -9.118 -17.277  -9.598  1.00  0.00     0.015 C 
HETATM   18  C21 UNL     1      -8.337 -15.232 -10.457  1.00  0.00     0.015 C 
HETATM   19  C19 UNL     1     -10.010 -16.207  -8.998  1.00  0.00     0.001 C 
HETATM   20  C20 UNL     1      -9.463 -14.896  -9.501  1.00  0.00     0.001 C 
HETATM   21  N4  UNL     1      -7.459 -16.107  -7.633  1.00  0.00    -0.404 N 
ATOM     22  H42 UNL     1      -6.869 -16.022  -6.805  1.00  0.00     0.155 HD
ATOM     23  H41 UNL     1      -8.408 -15.885  -7.330  1.00  0.00     0.155 HD
HETATM   24  C24 UNL     1      -4.031 -16.117  -7.305  1.00  0.00     0.207 C 
HETATM   25  F1  UNL     1      -3.138 -16.669  -6.440  1.00  0.00    -0.246 F 
BRANCH   8  26
HETATM   26  O2  UNL     1      -3.912 -13.863  -7.050  1.00  0.00    -0.385 OA
ATOM     27  H2  UNL     1      -4.384 -14.373  -6.402  1.00  0.00     0.210 HD
ENDBRANCH   8  26
ENDBRANCH   7   8
ENDBRANCH   4   7
BRANCH   1  28
HETATM   28  C7  UNL     1       1.372 -12.456  -6.327  1.00  0.00     0.283 C 
BRANCH  28  29
HETATM   29  C6  UNL     1       1.213 -11.529  -7.495  1.00  0.00     0.112 C 
BRANCH  29  30
HETATM   30  S1  UNL     1       0.621  -9.937  -6.998  1.00  0.00    -0.092 SA
BRANCH  30  31
HETATM   31  C5  UNL     1      -0.771 -10.025  -5.943  1.00  0.00     0.149 A 
HETATM   32  N1  UNL     1      -0.811  -9.174  -4.882  1.00  0.00    -0.317 N 
HETATM   33  C4  UNL     1      -1.831  -9.132  -4.041  1.00  0.00     0.153 A 
ATOM     34  H1  UNL     1      -0.024  -8.544  -4.729  1.00  0.00     0.170 HD
HETATM   35  C3  UNL     1      -2.901  -9.973  -4.234  1.00  0.00     0.060 A 
HETATM   36  C27 UNL     1      -2.855 -10.839  -5.318  1.00  0.00     0.257 A 
HETATM   37  N5  UNL     1      -1.793 -10.838  -6.137  1.00  0.00    -0.303 N 
HETATM   38  O3  UNL     1      -3.841 -11.596  -5.481  1.00  0.00    -0.267 OA
ATOM     39  H5  UNL     1      -1.775 -11.481  -6.929  1.00  0.00     0.171 HD
BRANCH  33  40
HETATM   40  O1  UNL     1      -1.847  -8.264  -2.974  1.00  0.00    -0.345 OA
ATOM     41  H1  UNL     1      -1.478  -7.394  -3.081  1.00  0.00     0.219 HD
ENDBRANCH  33  40
BRANCH  35  42
HETATM   42  C2  UNL     1      -4.027  -9.914  -3.300  1.00  0.00     0.044 C 
HETATM   43  C1  UNL     1      -5.162  -9.180  -4.011  1.00  0.00     0.010 C 
ENDBRANCH  35  42
ENDBRANCH  30  31
ENDBRANCH  29  30
ENDBRANCH  28  29
ENDBRANCH   1  28
TORSDOF 9
ENDMDL
MODEL 2
REMARK VINA RESULT: -8.188424860      0.663      1.410
REMARK  9 active torsions:
REMARK  status: ('A' for Active; 'I' for Inactive)
REMARK    1  A    between atoms: C2_2  and  C3_3 
REMARK    2  A    between atoms: C4_4  and  O1_5 
REMARK    3  A    between atoms: C5_9  and  S1_10 
REMARK    4  A    between atoms: S1_10  and  C6_11 
REMARK    5  A    between atoms: C6_11  and  C7_12 
REMARK    6  A    between atoms: C7_12  and  N2_13 
REMARK    7  A    between atoms: N3_16  and  C10_17 
REMARK    8  A    between atoms: C10_17  and  C11_18 
REMARK    9  A    between atoms: C11_18  and  O2_19 
ROOT
HETATM    1  N2  UNL     1       1.594 -13.214  -7.259  1.00  0.00     0.092 N 
HETATM    2  C8  UNL     1       1.036 -14.114  -8.252  1.00  0.00     0.302 C 
HETATM    3  C9  UNL     1       0.172 -15.175  -7.679  1.00  0.00     0.302 C 
HETATM    4  N3  UNL     1      -1.093 -14.654  -7.102  1.00  0.00     0.095 N 
HETATM    5  C25 UNL     1      -0.699 -13.354  -6.572  1.00  0.00     0.302 C 
HETATM    6  C26 UNL     1       0.762 -13.379  -6.076  1.00  0.00     0.302 C 
ENDROOT
BRANCH   4   7
HETATM    7  C10 UNL     1      -2.056 -14.523  -8.127  1.00  0.00     0.313 C 
BRANCH   7   8
HETATM    8  C11 UNL     1      -3.487 -14.848  -7.936  1.00  0.00     0.115 C 
HETATM    9  C12 UNL     1      -4.322 -14.479  -9.145  1.00  0.00     0.043 C 
HETATM   10  C13 UNL     1      -4.830 -15.639  -9.909  1.00  0.00     0.018 C 
HETATM   11  C14 UNL     1      -5.524 -16.689  -9.091  1.00  0.00     0.001 C 
HETATM   12  C15 UNL     1      -5.766 -17.854 -10.068  1.00  0.00     0.017 C 
HETATM   13  C22 UNL     1      -6.874 -16.399  -8.658  1.00  0.00    -0.003 C 
HETATM   14  C23 UNL     1      -4.545 -17.139  -8.057  1.00  0.00     0.056 C 
HETATM   15  C16 UNL     1      -6.917 -17.303 -10.883  1.00  0.00     0.016 C 
HETATM   16  C17 UNL     1      -7.754 -16.538  -9.888  1.00  0.00    -0.001 C 
HETATM   17  C18 UNL     1      -9.017 -17.296  -9.522  1.00  0.00     0.015 C 
HETATM   18  C21 UNL     1      -8.274 -15.236 -10.378  1.00  0.00     0.015 C 
HETATM   19  C19 UNL     1      -9.925 -16.244  -8.917  1.00  0.00     0.001 C 
HETATM   20  C20 UNL     1      -9.403 -14.922  -9.419  1.00  0.00     0.001 C 
HETATM   21  N4  UNL     1      -7.373 -16.100  -7.559  1.00  0.00    -0.404 N 
ATOM     22  H42 UNL     1      -6.782 -16.007  -6.733  1.00  0.00     0.155 HD
ATOM     23  H41 UNL     1      -8.324 -15.896  -7.253  1.00  0.00     0.155 HD
HETATM   24  C24 UNL     1      -3.944 -16.051  -7.242  1.00  0.00     0.207 C 
HETATM   25  F1  UNL     1      -3.038 -16.588  -6.381  1.00  0.00    -0.246 F 
BRANCH   8  26
HETATM   26  O2  UNL     1      -3.864 -13.795  -6.982  1.00  0.00    -0.385 OA
ATOM     27  H2  UNL     1      -4.115 -14.328  -6.237  1.00  0.00     0.210 HD
ENDBRANCH   8  26
ENDBRANCH   7   8
ENDBRANCH   4   7
BRANCH   1  28
HETATM   28  C7  UNL     1       1.597 -11.903  -7.799  1.00  0.00     0.283 C 
BRANCH  28  29
HETATM   29  C6  UNL     1       1.905 -10.844  -6.783  1.00  0.00     0.112 C 
BRANCH  29  30
HETATM   30  S1  UNL     1       0.834  -9.445  -6.942  1.00  0.00    -0.092 SA
BRANCH  30  31
HETATM   31  C5  UNL     1      -0.682  -9.644  -6.093  1.00  0.00     0.149 A 
HETATM   32  N1  UNL     1      -1.753 -10.079  -6.811  1.00  0.00    -0.317 N 
HETATM   33  C4  UNL     1      -2.937 -10.297  -6.263  1.00  0.00     0.153 A 
ATOM     34  H1  UNL     1      -1.639 -10.243  -7.811  1.00  0.00     0.170 HD
HETATM   35  C3  UNL     1      -3.108 -10.082  -4.917  1.00  0.00     0.060 A 
HETATM   36  C27 UNL     1      -2.012  -9.640  -4.188  1.00  0.00     0.257 A 
HETATM   37  N5  UNL     1      -0.836  -9.434  -4.798  1.00  0.00    -0.303 N 
HETATM   38  O3  UNL     1      -2.185  -9.453  -2.961  1.00  0.00    -0.267 OA
ATOM     39  H5  UNL     1      -0.041  -9.108  -4.249  1.00  0.00     0.171 HD
BRANCH  33  40
HETATM   40  O1  UNL     1      -4.005 -10.734  -7.012  1.00  0.00    -0.345 OA
ATOM     41  H1  UNL     1      -3.902 -10.829  -7.952  1.00  0.00     0.219 HD
ENDBRANCH  33  40
BRANCH  35  42
HETATM   42  C2  UNL     1      -4.421 -10.333  -4.320  1.00  0.00     0.044 C 
HETATM   43  C1  UNL     1      -4.946  -8.992  -3.811  1.00  0.00     0.010 C 
ENDBRANCH  35  42
ENDBRANCH  30  31
ENDBRANCH  29  30
ENDBRANCH  28  29
ENDBRANCH   1  28
TORSDOF 9
ENDMDL
MODEL 3
REMARK VINA RESULT: -7.752978149      4.267      5.854
REMARK  9 active torsions:
REMARK  status: ('A' for Active; 'I' for Inactive)
REMARK    1  A    between atoms: C2_2  and  C3_3 
REMARK    2  A    between atoms: C4_4  and  O1_5 
REMARK    3  A    between atoms: C5_9  and  S1_10 
REMARK    4  A    between atoms: S1_10  and  C6_11 
REMARK    5  A    between atoms: C6_11  and  C7_12 
REMARK    6  A    between atoms: C7_12  and  N2_13 
REMARK    7  A    between atoms: N3_16  and  C10_17 
REMARK    8  A    between atoms: C10_17  and  C11_18 
REMARK    9  A    between atoms: C11_18  and  O2_19 
ROOT
HETATM    1  N2  UNL     1       0.714  -9.351  -6.458  1.00  0.00     0.092 N 
HETATM    2  C8  UNL     1       0.817 -10.666  -7.065  1.00  0.00     0.302 C 
HETATM    3  C9  UNL     1       0.161 -11.740  -6.278  1.00  0.00     0.302 C 
HETATM    4  N3  UNL     1      -1.318 -11.619  -6.240  1.00  0.00     0.095 N 
HETATM    5  C25 UNL     1      -1.528 -10.175  -6.245  1.00  0.00     0.302 C 
HETATM    6  C26 UNL     1      -0.384  -9.448  -5.508  1.00  0.00     0.302 C 
ENDROOT
BRANCH   4   7
HETATM    7  C10 UNL     1      -1.868 -12.224  -7.392  1.00  0.00     0.313 C 
BRANCH   7   8
HETATM    8  C11 UNL     1      -2.913 -13.270  -7.333  1.00  0.00     0.115 C 
HETATM    9  C12 UNL     1      -4.002 -13.046  -8.361  1.00  0.00     0.043 C 
HETATM   10  C13 UNL     1      -4.001 -14.026  -9.470  1.00  0.00     0.018 C 
HETATM   11  C14 UNL     1      -3.962 -15.466  -9.050  1.00  0.00     0.001 C 
HETATM   12  C15 UNL     1      -3.763 -16.254 -10.358  1.00  0.00     0.017 C 
HETATM   13  C22 UNL     1      -5.195 -16.042  -8.560  1.00  0.00    -0.003 C 
HETATM   14  C23 UNL     1      -2.737 -15.632  -8.212  1.00  0.00     0.056 C 
HETATM   15  C16 UNL     1      -5.149 -16.156 -10.959  1.00  0.00     0.016 C 
HETATM   16  C17 UNL     1      -6.082 -16.248  -9.776  1.00  0.00    -0.001 C 
HETATM   17  C18 UNL     1      -6.745 -17.610  -9.693  1.00  0.00     0.015 C 
HETATM   18  C21 UNL     1      -7.236 -15.314  -9.816  1.00  0.00     0.015 C 
HETATM   19  C19 UNL     1      -7.939 -17.392  -8.784  1.00  0.00     0.001 C 
HETATM   20  C20 UNL     1      -8.208 -15.909  -8.818  1.00  0.00     0.001 C 
HETATM   21  N4  UNL     1      -5.595 -16.370  -7.429  1.00  0.00    -0.404 N 
ATOM     22  H42 UNL     1      -5.000 -16.231  -6.612  1.00  0.00     0.155 HD
ATOM     23  H41 UNL     1      -6.464 -16.776  -7.082  1.00  0.00     0.155 HD
HETATM   24  C24 UNL     1      -2.615 -14.678  -7.077  1.00  0.00     0.207 C 
HETATM   25  F1  UNL     1      -1.439 -14.903  -6.432  1.00  0.00    -0.246 F 
BRANCH   8  26
HETATM   26  O2  UNL     1      -3.595 -12.882  -6.090  1.00  0.00    -0.385 OA
ATOM     27  H2  UNL     1      -2.904 -13.054  -5.461  1.00  0.00     0.210 HD
ENDBRANCH   8  26
ENDBRANCH   7   8
ENDBRANCH   4   7
BRANCH   1  28
HETATM   28  C7  UNL     1       0.516  -8.400  -7.491  1.00  0.00     0.283 C 
BRANCH  28  29
HETATM   29  C6  UNL     1       1.798  -7.853  -8.045  1.00  0.00     0.112 C 
BRANCH  29  30
HETATM   30  S1  UNL     1       2.757  -7.036  -6.803  1.00  0.00    -0.092 SA
BRANCH  30  31
HETATM   31  C5  UNL     1       4.473  -7.341  -6.954  1.00  0.00     0.149 A 
HETATM   32  N1  UNL     1       5.281  -6.905  -5.950  1.00  0.00    -0.317 N 
HETATM   33  C4  UNL     1       6.587  -7.113  -5.946  1.00  0.00     0.153 A 
ATOM     34  H1  UNL     1       4.863  -6.398  -5.170  1.00  0.00     0.170 HD
HETATM   35  C3  UNL     1       7.166  -7.795  -6.989  1.00  0.00     0.060 A 
HETATM   36  C27 UNL     1       6.338  -8.238  -8.011  1.00  0.00     0.257 A 
HETATM   37  N5  UNL     1       5.019  -7.997  -7.962  1.00  0.00    -0.303 N 
HETATM   38  O3  UNL     1       6.882  -8.863  -8.951  1.00  0.00    -0.267 OA
ATOM     39  H5  UNL     1       4.424  -8.329  -8.721  1.00  0.00     0.171 HD
BRANCH  33  40
HETATM   40  O1  UNL     1       7.383  -6.660  -4.919  1.00  0.00    -0.345 OA
ATOM     41  H1  UNL     1       7.678  -5.757  -4.927  1.00  0.00     0.219 HD
ENDBRANCH  33  40
BRANCH  35  42
HETATM   42  C2  UNL     1       8.612  -8.025  -6.971  1.00  0.00     0.044 C 
HETATM   43  C1  UNL     1       8.846  -9.365  -6.278  1.00  0.00     0.010 C 
ENDBRANCH  35  42
ENDBRANCH  30  31
ENDBRANCH  29  30
ENDBRANCH  28  29
ENDBRANCH   1  28
TORSDOF 9
ENDMDL
MODEL 4
REMARK VINA RESULT: -7.720121705      2.927      3.874
REMARK  9 active torsions:
REMARK  status: ('A' for Active; 'I' for Inactive)
REMARK    1  A    between atoms: C2_2  and  C3_3 
REMARK    2  A    between atoms: C4_4  and  O1_5 
REMARK    3  A    between atoms: C5_9  and  S1_10 
REMARK    4  A    between atoms: S1_10  and  C6_11 
REMARK    5  A    between atoms: C6_11  and  C7_12 
REMARK    6  A    between atoms: C7_12  and  N2_13 
REMARK    7  A    between atoms: N3_16  and  C10_17 
REMARK    8  A    between atoms: C10_17  and  C11_18 
REMARK    9  A    between atoms: C11_18  and  O2_19 
ROOT
HETATM    1  N2  UNL     1       1.505 -13.972  -6.764  1.00  0.00     0.092 N 
HETATM    2  C8  UNL     1       0.935 -14.041  -8.097  1.00  0.00     0.302 C 
HETATM    3  C9  UNL     1       0.167 -15.284  -8.355  1.00  0.00     0.302 C 
HETATM    4  N3  UNL     1      -1.086 -15.374  -7.563  1.00  0.00     0.095 N 
HETATM    5  C25 UNL     1      -0.730 -14.714  -6.312  1.00  0.00     0.302 C 
HETATM    6  C26 UNL     1       0.759 -14.938  -5.973  1.00  0.00     0.302 C 
ENDROOT
BRANCH   4   7
HETATM    7  C10 UNL     1      -2.116 -14.682  -8.237  1.00  0.00     0.313 C 
BRANCH   7   8
HETATM    8  C11 UNL     1      -3.553 -14.975  -8.033  1.00  0.00     0.115 C 
HETATM    9  C12 UNL     1      -4.393 -14.567  -9.226  1.00  0.00     0.043 C 
HETATM   10  C13 UNL     1      -4.939 -15.702 -10.001  1.00  0.00     0.018 C 
HETATM   11  C14 UNL     1      -5.648 -16.748  -9.191  1.00  0.00     0.001 C 
HETATM   12  C15 UNL     1      -5.930 -17.892 -10.181  1.00  0.00     0.017 C 
HETATM   13  C22 UNL     1      -6.985 -16.432  -8.736  1.00  0.00    -0.003 C 
HETATM   14  C23 UNL     1      -4.667 -17.237  -8.176  1.00  0.00     0.056 C 
HETATM   15  C16 UNL     1      -7.077 -17.301 -10.974  1.00  0.00     0.016 C 
HETATM   16  C17 UNL     1      -7.883 -16.531  -9.958  1.00  0.00    -0.001 C 
HETATM   17  C18 UNL     1      -9.159 -17.264  -9.587  1.00  0.00     0.015 C 
HETATM   18  C21 UNL     1      -8.377 -15.209 -10.421  1.00  0.00     0.015 C 
HETATM   19  C19 UNL     1     -10.034 -16.199  -8.955  1.00  0.00     0.001 C 
HETATM   20  C20 UNL     1      -9.486 -14.883  -9.443  1.00  0.00     0.001 C 
HETATM   21  N4  UNL     1      -7.463 -16.138  -7.627  1.00  0.00    -0.404 N 
ATOM     22  H42 UNL     1      -6.860 -16.072  -6.807  1.00  0.00     0.155 HD
ATOM     23  H41 UNL     1      -8.405 -15.916  -7.306  1.00  0.00     0.155 HD
HETATM   24  C24 UNL     1      -4.030 -16.177  -7.352  1.00  0.00     0.207 C 
HETATM   25  F1  UNL     1      -3.127 -16.749  -6.511  1.00  0.00    -0.246 F 
BRANCH   8  26
HETATM   26  O2  UNL     1      -3.892 -13.928  -7.059  1.00  0.00    -0.385 OA
ATOM     27  H2  UNL     1      -4.417 -14.432  -6.449  1.00  0.00     0.210 HD
ENDBRANCH   8  26
ENDBRANCH   7   8
ENDBRANCH   4   7
BRANCH   1  28
HETATM   28  C7  UNL     1       1.404 -12.634  -6.307  1.00  0.00     0.283 C 
BRANCH  28  29
HETATM   29  C6  UNL     1       0.896 -11.687  -7.353  1.00  0.00     0.112 C 
BRANCH  29  30
HETATM   30  S1  UNL     1       0.519 -10.096  -6.677  1.00  0.00    -0.092 SA
BRANCH  30  31
HETATM   31  C5  UNL     1       1.702  -8.878  -7.095  1.00  0.00     0.149 A 
HETATM   32  N1  UNL     1       1.810  -7.797  -6.275  1.00  0.00    -0.317 N 
HETATM   33  C4  UNL     1       2.694  -6.835  -6.478  1.00  0.00     0.153 A 
ATOM     34  H1  UNL     1       1.185  -7.727  -5.473  1.00  0.00     0.170 HD
HETATM   35  C3  UNL     1       3.546  -6.915  -7.553  1.00  0.00     0.060 A 
HETATM   36  C27 UNL     1       3.432  -8.020  -8.387  1.00  0.00     0.257 A 
HETATM   37  N5  UNL     1       2.515  -8.965  -8.132  1.00  0.00    -0.303 N 
HETATM   38  O3  UNL     1       4.219  -8.079  -9.361  1.00  0.00    -0.267 OA
ATOM     39  H5  UNL     1       2.444  -9.770  -8.755  1.00  0.00     0.171 HD
BRANCH  33  40
HETATM   40  O1  UNL     1       2.782  -5.752  -5.635  1.00  0.00    -0.345 OA
ATOM     41  H1  UNL     1       3.633  -5.362  -5.470  1.00  0.00     0.219 HD
ENDBRANCH  33  40
BRANCH  35  42
HETATM   42  C2  UNL     1       4.524  -5.847  -7.765  1.00  0.00     0.044 C 
HETATM   43  C1  UNL     1       3.848  -4.782  -8.624  1.00  0.00     0.010 C 
ENDBRANCH  35  42
ENDBRANCH  30  31
ENDBRANCH  29  30
ENDBRANCH  28  29
ENDBRANCH   1  28
TORSDOF 9
ENDMDL
MODEL 5
REMARK VINA RESULT: -7.704748917      3.895     10.329
REMARK  9 active torsions:
REMARK  status: ('A' for Active; 'I' for Inactive)
REMARK    1  A    between atoms: C2_2  and  C3_3 
REMARK    2  A    between atoms: C4_4  and  O1_5 
REMARK    3  A    between atoms: C5_9  and  S1_10 
REMARK    4  A    between atoms: S1_10  and  C6_11 
REMARK    5  A    between atoms: C6_11  and  C7_12 
REMARK    6  A    between atoms: C7_12  and  N2_13 
REMARK    7  A    between atoms: N3_16  and  C10_17 
REMARK    8  A    between atoms: C10_17  and  C11_18 
REMARK    9  A    between atoms: C11_18  and  O2_19 
ROOT
HETATM    1  N2  UNL     1      -2.658 -15.005  -7.692  1.00  0.00     0.092 N 
HETATM    2  C8  UNL     1      -2.680 -13.557  -7.794  1.00  0.00     0.302 C 
HETATM    3  C9  UNL     1      -2.018 -12.868  -6.659  1.00  0.00     0.302 C 
HETATM    4  N3  UNL     1      -0.548 -13.075  -6.623  1.00  0.00     0.095 N 
HETATM    5  C25 UNL     1      -0.397 -14.433  -7.135  1.00  0.00     0.302 C 
HETATM    6  C26 UNL     1      -1.603 -15.310  -6.738  1.00  0.00     0.302 C 
ENDROOT
BRANCH   4   7
HETATM    7  C10 UNL     1       0.079 -12.133  -7.468  1.00  0.00     0.313 C 
BRANCH   7   8
HETATM    8  C11 UNL     1       1.042 -11.123  -6.975  1.00  0.00     0.115 C 
HETATM    9  C12 UNL     1       2.251 -10.999  -7.880  1.00  0.00     0.043 C 
HETATM   10  C13 UNL     1       2.310  -9.734  -8.645  1.00  0.00     0.018 C 
HETATM   11  C14 UNL     1       2.132  -8.486  -7.831  1.00  0.00     0.001 C 
HETATM   12  C15 UNL     1       2.029  -7.351  -8.866  1.00  0.00     0.017 C 
HETATM   13  C22 UNL     1       3.264  -8.047  -7.043  1.00  0.00    -0.003 C 
HETATM   14  C23 UNL     1       0.813  -8.612  -7.141  1.00  0.00     0.056 C 
HETATM   15  C16 UNL     1       3.478  -7.225  -9.290  1.00  0.00     0.016 C 
HETATM   16  C17 UNL     1       4.265  -7.464  -8.026  1.00  0.00    -0.001 C 
HETATM   17  C18 UNL     1       4.826  -6.170  -7.465  1.00  0.00     0.015 C 
HETATM   18  C21 UNL     1       5.474  -8.310  -8.192  1.00  0.00     0.015 C 
HETATM   19  C19 UNL     1       5.923  -6.615  -6.518  1.00  0.00     0.001 C 
HETATM   20  C20 UNL     1       6.288  -8.012  -6.950  1.00  0.00     0.001 C 
HETATM   21  N4  UNL     1       3.513  -8.060  -5.825  1.00  0.00    -0.404 N 
ATOM     22  H42 UNL     1       2.841  -8.452  -5.166  1.00  0.00     0.155 HD
ATOM     23  H41 UNL     1       4.311  -7.751  -5.269  1.00  0.00     0.155 HD
HETATM   24  C24 UNL     1       0.628  -9.863  -6.359  1.00  0.00     0.207 C 
HETATM   25  F1  UNL     1      -0.625  -9.875  -5.829  1.00  0.00    -0.246 F 
BRANCH   8  26
HETATM   26  O2  UNL     1       1.605 -11.844  -5.825  1.00  0.00    -0.385 OA
ATOM     27  H2  UNL     1       1.001 -11.569  -5.145  1.00  0.00     0.210 HD
ENDBRANCH   8  26
ENDBRANCH   7   8
ENDBRANCH   4   7
BRANCH   1  28
HETATM   28  C7  UNL     1      -2.452 -15.538  -8.989  1.00  0.00     0.283 C 
BRANCH  28  29
HETATM   29  C6  UNL     1      -3.647 -16.265  -9.528  1.00  0.00     0.112 C 
BRANCH  29  30
HETATM   30  S1  UNL     1      -4.775 -16.723  -8.243  1.00  0.00    -0.092 SA
BRANCH  30  31
HETATM   31  C5  UNL     1      -6.418 -16.216  -8.563  1.00  0.00     0.149 A 
HETATM   32  N1  UNL     1      -6.643 -15.482  -9.686  1.00  0.00    -0.317 N 
HETATM   33  C4  UNL     1      -7.851 -15.076 -10.041  1.00  0.00     0.153 A 
ATOM     34  H1  UNL     1      -5.850 -15.235 -10.277  1.00  0.00     0.170 HD
HETATM   35  C3  UNL     1      -8.931 -15.401  -9.257  1.00  0.00     0.060 A 
HETATM   36  C27 UNL     1      -8.696 -16.150  -8.112  1.00  0.00     0.257 A 
HETATM   37  N5  UNL     1      -7.449 -16.533  -7.801  1.00  0.00    -0.303 N 
HETATM   38  O3  UNL     1      -9.693 -16.442  -7.410  1.00  0.00    -0.267 OA
ATOM     39  H5  UNL     1      -7.294 -17.083  -6.955  1.00  0.00     0.171 HD
BRANCH  33  40
HETATM   40  O1  UNL     1      -8.052 -14.334 -11.182  1.00  0.00    -0.345 OA
ATOM     41  H1  UNL     1      -7.743 -14.673 -12.014  1.00  0.00     0.219 HD
ENDBRANCH  33  40
BRANCH  35  42
HETATM   42  C2  UNL     1     -10.264 -14.952  -9.663  1.00  0.00     0.044 C 
HETATM   43  C1  UNL     1     -10.871 -16.061 -10.518  1.00  0.00     0.010 C 
ENDBRANCH  35  42
ENDBRANCH  30  31
ENDBRANCH  29  30
ENDBRANCH  28  29
ENDBRANCH   1  28
TORSDOF 9
ENDMDL
