MODEL 1
REMARK VINA RESULT: -7.324309084      0.000      0.000
REMARK  11 active torsions:
REMARK  status: ('A' for Active; 'I' for Inactive)
REMARK    1  A    between atoms: C5_8  and  N2_9 
REMARK    2  A    between atoms: C7_13  and  N4_14 
REMARK    3  A    between atoms: C10_22  and  C11_23 
REMARK    4  A    between atoms: C11_23  and  S1_24 
REMARK    5  A    between atoms: S1_24  and  C12_25 
REMARK    6  A    between atoms: N6_29  and  C16_30 
REMARK    7  A    between atoms: C18_32  and  C19_33 
REMARK    8  A    between atoms: C19_33  and  O2_34 
REMARK    9  A    between atoms: O2_34  and  C20_35 
REMARK   10  A    between atoms: C20_35  and  C21_37 
REMARK   11  A    between atoms: C25_41  and  C26_42 
ROOT
HETATM    1  C1  UNL     1       6.286 -10.311   1.159  1.00  0.00     0.012 C 
HETATM    2  C2  UNL     1       6.846  -9.261   1.165  1.00  0.00    -0.111 C 
HETATM    3  C3  UNL     1       7.517  -7.988   1.149  1.00  0.00     0.093 C 
HETATM    4  C4  UNL     1       8.646  -7.935   2.169  1.00  0.00     0.252 C 
HETATM    5  N1  UNL     1       9.721  -7.220   1.555  1.00  0.00    -0.053 N 
ATOM      6  H11 UNL     1      10.543  -7.803   1.395  1.00  0.00     0.279 HD
ATOM      7  H12 UNL     1      10.155  -6.544   2.183  1.00  0.00     0.279 HD
HETATM    8  C5  UNL     1       9.212  -6.609   0.328  1.00  0.00     0.290 C 
HETATM    9  C27 UNL     1       8.307  -7.759  -0.132  1.00  0.00     0.073 C 
ENDROOT
BRANCH   8  10
HETATM   10  N2  UNL     1      10.205  -6.309  -0.635  1.00  0.00    -0.311 N 
HETATM   11  C6  UNL     1      11.403  -5.631  -0.245  1.00  0.00     0.136 A 
HETATM   12  N3  UNL     1      11.398  -4.697   0.702  1.00  0.00    -0.176 N 
HETATM   13  C9  UNL     1      12.615  -5.956  -0.874  1.00  0.00     0.078 A 
HETATM   14  C7  UNL     1      12.489  -4.047   1.095  1.00  0.00     0.680 A 
ATOM     15  H3  UNL     1      10.510  -4.468   1.150  1.00  0.00     0.186 HD
HETATM   16  N5  UNL     1      13.646  -4.353   0.502  1.00  0.00    -0.156 N 
HETATM   17  C8  UNL     1      13.746  -5.299  -0.483  1.00  0.00     0.271 A 
ATOM     18  H5  UNL     1      14.490  -3.861   0.795  1.00  0.00     0.187 HD
HETATM   19  O1  UNL     1      14.906  -5.484  -0.953  1.00  0.00    -0.267 OA
HETATM   20  C10 UNL     1      12.630  -6.982  -1.922  1.00  0.00     0.138 C 
HETATM   21  N6  UNL     1      11.327  -7.266  -2.498  1.00  0.00    -0.349 N 
HETATM   22  C25 UNL     1      10.089  -6.638  -2.065  1.00  0.00     0.256 C 
BRANCH  14  23
HETATM   23  N4  UNL     1      12.414  -3.149   2.026  1.00  0.00    -0.234 N 
ATOM     24  H42 UNL     1      11.530  -2.705   2.276  1.00  0.00     0.174 HD
ATOM     25  H41 UNL     1      13.252  -2.864   2.534  1.00  0.00     0.174 HD
ENDBRANCH  14  23
BRANCH  20  26
HETATM   26  C11 UNL     1      13.729  -6.874  -2.921  1.00  0.00     0.105 C 
BRANCH  26  27
HETATM   27  S1  UNL     1      14.876  -8.275  -2.915  1.00  0.00    -0.158 SA
BRANCH  27  28
HETATM   28  C12 UNL     1      15.305  -8.755  -4.588  1.00  0.00    -0.003 C 
HETATM   29  C13 UNL     1      16.804  -8.910  -4.771  1.00  0.00     0.026 C 
HETATM   30  C14 UNL     1      14.790  -7.713  -5.582  1.00  0.00     0.026 C 
HETATM   31  C15 UNL     1      14.662 -10.072  -4.961  1.00  0.00     0.026 C 
ENDBRANCH  27  28
ENDBRANCH  26  27
ENDBRANCH  20  26
BRANCH  21  32
HETATM   32  C16 UNL     1      11.212  -8.240  -3.509  1.00  0.00     0.004 C 
HETATM   33  C17 UNL     1      11.390  -9.669  -3.045  1.00  0.00     0.068 C 
HETATM   34  C18 UNL     1      10.975  -8.071  -4.776  1.00  0.00     0.024 C 
BRANCH  34  35
HETATM   35  C19 UNL     1      10.881  -9.230  -5.736  1.00  0.00     0.208 C 
BRANCH  35  36
HETATM   36  O2  UNL     1      11.729  -9.034  -6.838  1.00  0.00    -0.314 OA
BRANCH  36  37
HETATM   37  C20 UNL     1      11.343  -8.211  -7.897  1.00  0.00     0.283 C 
HETATM   38  O3  UNL     1      10.126  -8.129  -8.106  1.00  0.00    -0.260 OA
BRANCH  37  39
HETATM   39  C21 UNL     1      12.291  -7.496  -8.708  1.00  0.00     0.084 C 
HETATM   40  C22 UNL     1      12.702  -6.279  -8.469  1.00  0.00    -0.082 C 
HETATM   41  C23 UNL     1      12.201  -5.532  -7.310  1.00  0.00     0.043 C 
HETATM   42  C24 UNL     1      13.707  -5.638  -9.403  1.00  0.00     0.043 C 
ENDBRANCH  37  39
ENDBRANCH  36  37
ENDBRANCH  35  36
ENDBRANCH  34  35
ENDBRANCH  21  32
BRANCH  22  43
HETATM   43  C26 UNL     1       9.718  -5.382  -2.760  1.00  0.00     0.395 C 
HETATM   44  F1  UNL     1       8.388  -5.277  -3.020  1.00  0.00    -0.210 F 
HETATM   45  F2  UNL     1      10.510  -5.063  -3.847  1.00  0.00    -0.210 F 
ENDBRANCH  22  43
ENDBRANCH   8  10
TORSDOF 11
ENDMDL
MODEL 2
REMARK VINA RESULT: -7.287116994      1.350      2.438
REMARK  11 active torsions:
REMARK  status: ('A' for Active; 'I' for Inactive)
REMARK    1  A    between atoms: C5_8  and  N2_9 
REMARK    2  A    between atoms: C7_13  and  N4_14 
REMARK    3  A    between atoms: C10_22  and  C11_23 
REMARK    4  A    between atoms: C11_23  and  S1_24 
REMARK    5  A    between atoms: S1_24  and  C12_25 
REMARK    6  A    between atoms: N6_29  and  C16_30 
REMARK    7  A    between atoms: C18_32  and  C19_33 
REMARK    8  A    between atoms: C19_33  and  O2_34 
REMARK    9  A    between atoms: O2_34  and  C20_35 
REMARK   10  A    between atoms: C20_35  and  C21_37 
REMARK   11  A    between atoms: C25_41  and  C26_42 
ROOT
HETATM    1  C1  UNL     1       6.094 -10.213   0.789  1.00  0.00     0.012 C 
HETATM    2  C2  UNL     1       6.692  -9.187   0.859  1.00  0.00    -0.111 C 
HETATM    3  C3  UNL     1       7.408  -7.940   0.919  1.00  0.00     0.093 C 
HETATM    4  C4  UNL     1       8.513  -7.977   1.966  1.00  0.00     0.252 C 
HETATM    5  N1  UNL     1       9.628  -7.275   1.412  1.00  0.00    -0.053 N 
ATOM      6  H11 UNL     1      10.432  -7.880   1.243  1.00  0.00     0.279 HD
ATOM      7  H12 UNL     1      10.071  -6.646   2.081  1.00  0.00     0.279 HD
HETATM    8  C5  UNL     1       9.172  -6.588   0.204  1.00  0.00     0.290 C 
HETATM    9  C27 UNL     1       8.238  -7.681  -0.331  1.00  0.00     0.073 C 
ENDROOT
BRANCH   8  10
HETATM   10  N2  UNL     1      10.199  -6.281  -0.721  1.00  0.00    -0.311 N 
HETATM   11  C6  UNL     1      11.389  -5.621  -0.280  1.00  0.00     0.136 A 
HETATM   12  N3  UNL     1      11.361  -4.704   0.683  1.00  0.00    -0.176 N 
HETATM   13  C9  UNL     1      12.618  -5.945  -0.874  1.00  0.00     0.078 A 
HETATM   14  C7  UNL     1      12.444  -4.070   1.123  1.00  0.00     0.680 A 
ATOM     15  H3  UNL     1      10.461  -4.474   1.107  1.00  0.00     0.186 HD
HETATM   16  N5  UNL     1      13.617  -4.376   0.563  1.00  0.00    -0.156 N 
HETATM   17  C8  UNL     1      13.741  -5.306  -0.435  1.00  0.00     0.271 A 
ATOM     18  H5  UNL     1      14.455  -3.898   0.892  1.00  0.00     0.187 HD
HETATM   19  O1  UNL     1      14.914  -5.493  -0.870  1.00  0.00    -0.267 OA
HETATM   20  C10 UNL     1      12.659  -6.953  -1.939  1.00  0.00     0.138 C 
HETATM   21  N6  UNL     1      11.372  -7.215  -2.563  1.00  0.00    -0.349 N 
HETATM   22  C25 UNL     1      10.127  -6.584  -2.159  1.00  0.00     0.256 C 
BRANCH  14  23
HETATM   23  N4  UNL     1      12.346  -3.189   2.068  1.00  0.00    -0.234 N 
ATOM     24  H42 UNL     1      11.857  -3.386   2.940  1.00  0.00     0.174 HD
ATOM     25  H41 UNL     1      12.762  -2.264   1.953  1.00  0.00     0.174 HD
ENDBRANCH  14  23
BRANCH  20  26
HETATM   26  C11 UNL     1      13.790  -6.838  -2.900  1.00  0.00     0.105 C 
BRANCH  26  27
HETATM   27  S1  UNL     1      14.900  -8.269  -2.913  1.00  0.00    -0.158 SA
BRANCH  27  28
HETATM   28  C12 UNL     1      15.317  -8.736  -4.592  1.00  0.00    -0.003 C 
HETATM   29  C13 UNL     1      16.811  -8.936  -4.774  1.00  0.00     0.026 C 
HETATM   30  C14 UNL     1      14.839  -7.663  -5.571  1.00  0.00     0.026 C 
HETATM   31  C15 UNL     1      14.633 -10.026  -4.987  1.00  0.00     0.026 C 
ENDBRANCH  27  28
ENDBRANCH  26  27
ENDBRANCH  20  26
BRANCH  21  32
HETATM   32  C16 UNL     1      11.283  -8.170  -3.594  1.00  0.00     0.004 C 
HETATM   33  C17 UNL     1      11.297  -9.611  -3.135  1.00  0.00     0.068 C 
HETATM   34  C18 UNL     1      11.190  -7.975  -4.876  1.00  0.00     0.024 C 
BRANCH  34  35
HETATM   35  C19 UNL     1      11.100  -9.116  -5.857  1.00  0.00     0.208 C 
BRANCH  35  36
HETATM   36  O2  UNL     1      10.072  -8.892  -6.788  1.00  0.00    -0.314 OA
BRANCH  36  37
HETATM   37  C20 UNL     1       8.827  -9.502  -6.635  1.00  0.00     0.283 C 
HETATM   38  O3  UNL     1       8.173  -9.672  -7.672  1.00  0.00    -0.260 OA
BRANCH  37  39
HETATM   39  C21 UNL     1       8.317  -9.912  -5.355  1.00  0.00     0.084 C 
HETATM   40  C22 UNL     1       7.689  -9.127  -4.519  1.00  0.00    -0.082 C 
HETATM   41  C23 UNL     1       7.456  -7.717  -4.848  1.00  0.00     0.043 C 
HETATM   42  C24 UNL     1       7.201  -9.686  -3.200  1.00  0.00     0.043 C 
ENDBRANCH  37  39
ENDBRANCH  36  37
ENDBRANCH  35  36
ENDBRANCH  34  35
ENDBRANCH  21  32
BRANCH  22  43
HETATM   43  C26 UNL     1       9.790  -5.312  -2.843  1.00  0.00     0.395 C 
HETATM   44  F1  UNL     1       8.453  -5.110  -2.987  1.00  0.00    -0.210 F 
HETATM   45  F2  UNL     1      10.503  -5.068  -4.002  1.00  0.00    -0.210 F 
ENDBRANCH  22  43
ENDBRANCH   8  10
TORSDOF 11
ENDMDL
MODEL 3
REMARK VINA RESULT: -7.253588473      1.659      3.040
REMARK  11 active torsions:
REMARK  status: ('A' for Active; 'I' for Inactive)
REMARK    1  A    between atoms: C5_8  and  N2_9 
REMARK    2  A    between atoms: C7_13  and  N4_14 
REMARK    3  A    between atoms: C10_22  and  C11_23 
REMARK    4  A    between atoms: C11_23  and  S1_24 
REMARK    5  A    between atoms: S1_24  and  C12_25 
REMARK    6  A    between atoms: N6_29  and  C16_30 
REMARK    7  A    between atoms: C18_32  and  C19_33 
REMARK    8  A    between atoms: C19_33  and  O2_34 
REMARK    9  A    between atoms: O2_34  and  C20_35 
REMARK   10  A    between atoms: C20_35  and  C21_37 
REMARK   11  A    between atoms: C25_41  and  C26_42 
ROOT
HETATM    1  C1  UNL     1       6.273 -10.309   1.295  1.00  0.00     0.012 C 
HETATM    2  C2  UNL     1       6.838  -9.262   1.296  1.00  0.00    -0.111 C 
HETATM    3  C3  UNL     1       7.514  -7.992   1.274  1.00  0.00     0.093 C 
HETATM    4  C4  UNL     1       8.658  -7.946   2.277  1.00  0.00     0.252 C 
HETATM    5  N1  UNL     1       9.728  -7.235   1.650  1.00  0.00    -0.053 N 
ATOM      6  H11 UNL     1      10.544  -7.821   1.477  1.00  0.00     0.279 HD
ATOM      7  H12 UNL     1      10.174  -6.562   2.273  1.00  0.00     0.279 HD
HETATM    8  C5  UNL     1       9.204  -6.619   0.431  1.00  0.00     0.290 C 
HETATM    9  C27 UNL     1       8.288  -7.764  -0.018  1.00  0.00     0.073 C 
ENDROOT
BRANCH   8  10
HETATM   10  N2  UNL     1      10.185  -6.322  -0.545  1.00  0.00    -0.311 N 
HETATM   11  C6  UNL     1      11.386  -5.639  -0.172  1.00  0.00     0.136 A 
HETATM   12  N3  UNL     1      11.391  -4.702   0.771  1.00  0.00    -0.176 N 
HETATM   13  C9  UNL     1      12.591  -5.965  -0.814  1.00  0.00     0.078 A 
HETATM   14  C7  UNL     1      12.485  -4.048   1.148  1.00  0.00     0.680 A 
ATOM     15  H3  UNL     1      10.508  -4.473   1.229  1.00  0.00     0.186 HD
HETATM   16  N5  UNL     1      13.636  -4.354   0.542  1.00  0.00    -0.156 N 
HETATM   17  C8  UNL     1      13.725  -5.304  -0.440  1.00  0.00     0.271 A 
ATOM     18  H5  UNL     1      14.482  -3.859   0.822  1.00  0.00     0.187 HD
HETATM   19  O1  UNL     1      14.880  -5.489  -0.924  1.00  0.00    -0.267 OA
HETATM   20  C10 UNL     1      12.595  -6.995  -1.859  1.00  0.00     0.138 C 
HETATM   21  N6  UNL     1      11.285  -7.284  -2.418  1.00  0.00    -0.349 N 
HETATM   22  C25 UNL     1      10.052  -6.657  -1.972  1.00  0.00     0.256 C 
BRANCH  14  23
HETATM   23  N4  UNL     1      12.420  -3.146   2.076  1.00  0.00    -0.234 N 
ATOM     24  H42 UNL     1      11.534  -2.726   2.357  1.00  0.00     0.174 HD
ATOM     25  H41 UNL     1      13.268  -2.834   2.550  1.00  0.00     0.174 HD
ENDBRANCH  14  23
BRANCH  20  26
HETATM   26  C11 UNL     1      13.681  -6.889  -2.872  1.00  0.00     0.105 C 
BRANCH  26  27
HETATM   27  S1  UNL     1      14.772  -8.334  -2.942  1.00  0.00    -0.158 SA
BRANCH  27  28
HETATM   28  C12 UNL     1      15.272  -8.673  -4.630  1.00  0.00    -0.003 C 
HETATM   29  C13 UNL     1      16.766  -8.913  -4.745  1.00  0.00     0.026 C 
HETATM   30  C14 UNL     1      14.887  -7.503  -5.537  1.00  0.00     0.026 C 
HETATM   31  C15 UNL     1      14.570  -9.898  -5.172  1.00  0.00     0.026 C 
ENDBRANCH  27  28
ENDBRANCH  26  27
ENDBRANCH  20  26
BRANCH  21  32
HETATM   32  C16 UNL     1      11.160  -8.263  -3.423  1.00  0.00     0.004 C 
HETATM   33  C17 UNL     1      11.176  -7.731  -4.839  1.00  0.00     0.068 C 
HETATM   34  C18 UNL     1      11.035  -9.550  -3.293  1.00  0.00     0.024 C 
BRANCH  34  35
HETATM   35  C19 UNL     1      10.913 -10.468  -4.482  1.00  0.00     0.208 C 
BRANCH  35  36
HETATM   36  O2  UNL     1       9.833 -11.351  -4.319  1.00  0.00    -0.314 OA
BRANCH  36  37
HETATM   37  C20 UNL     1       8.540 -10.971  -4.684  1.00  0.00     0.283 C 
HETATM   38  O3  UNL     1       8.326 -10.869  -5.899  1.00  0.00    -0.260 OA
BRANCH  37  39
HETATM   39  C21 UNL     1       7.508 -10.709  -3.719  1.00  0.00     0.084 C 
HETATM   40  C22 UNL     1       7.039  -9.522  -3.437  1.00  0.00    -0.082 C 
HETATM   41  C23 UNL     1       7.559  -8.331  -4.117  1.00  0.00     0.043 C 
HETATM   42  C24 UNL     1       5.948  -9.383  -2.397  1.00  0.00     0.043 C 
ENDBRANCH  37  39
ENDBRANCH  36  37
ENDBRANCH  35  36
ENDBRANCH  34  35
ENDBRANCH  21  32
BRANCH  22  43
HETATM   43  C26 UNL     1       9.670  -5.404  -2.667  1.00  0.00     0.395 C 
HETATM   44  F1  UNL     1       8.348  -5.334  -2.974  1.00  0.00    -0.210 F 
HETATM   45  F2  UNL     1      10.490  -5.052  -3.723  1.00  0.00    -0.210 F 
ENDBRANCH  22  43
ENDBRANCH   8  10
TORSDOF 11
ENDMDL
MODEL 4
REMARK VINA RESULT: -7.207392829      1.316      1.954
REMARK  11 active torsions:
REMARK  status: ('A' for Active; 'I' for Inactive)
REMARK    1  A    between atoms: C5_8  and  N2_9 
REMARK    2  A    between atoms: C7_13  and  N4_14 
REMARK    3  A    between atoms: C10_22  and  C11_23 
REMARK    4  A    between atoms: C11_23  and  S1_24 
REMARK    5  A    between atoms: S1_24  and  C12_25 
REMARK    6  A    between atoms: N6_29  and  C16_30 
REMARK    7  A    between atoms: C18_32  and  C19_33 
REMARK    8  A    between atoms: C19_33  and  O2_34 
REMARK    9  A    between atoms: O2_34  and  C20_35 
REMARK   10  A    between atoms: C20_35  and  C21_37 
REMARK   11  A    between atoms: C25_41  and  C26_42 
ROOT
HETATM    1  C1  UNL     1       6.074 -10.136   0.692  1.00  0.00     0.012 C 
HETATM    2  C2  UNL     1       6.692  -9.124   0.795  1.00  0.00    -0.111 C 
HETATM    3  C3  UNL     1       7.433  -7.895   0.896  1.00  0.00     0.093 C 
HETATM    4  C4  UNL     1       8.534  -7.987   1.944  1.00  0.00     0.252 C 
HETATM    5  N1  UNL     1       9.665  -7.291   1.416  1.00  0.00    -0.053 N 
ATOM      6  H11 UNL     1      10.456  -7.906   1.230  1.00  0.00     0.279 HD
ATOM      7  H12 UNL     1      10.117  -6.692   2.105  1.00  0.00     0.279 HD
HETATM    8  C5  UNL     1       9.227  -6.558   0.228  1.00  0.00     0.290 C 
HETATM    9  C27 UNL     1       8.273  -7.614  -0.343  1.00  0.00     0.073 C 
ENDROOT
BRANCH   8  10
HETATM   10  N2  UNL     1      10.263  -6.243  -0.684  1.00  0.00    -0.311 N 
HETATM   11  C6  UNL     1      11.448  -5.584  -0.226  1.00  0.00     0.136 A 
HETATM   12  N3  UNL     1      11.408  -4.674   0.743  1.00  0.00    -0.176 N 
HETATM   13  C9  UNL     1      12.683  -5.904  -0.809  1.00  0.00     0.078 A 
HETATM   14  C7  UNL     1      12.486  -4.042   1.198  1.00  0.00     0.680 A 
ATOM     15  H3  UNL     1      10.503  -4.448   1.158  1.00  0.00     0.186 HD
HETATM   16  N5  UNL     1      13.665  -4.342   0.649  1.00  0.00    -0.156 N 
HETATM   17  C8  UNL     1      13.801  -5.265  -0.353  1.00  0.00     0.271 A 
ATOM     18  H5  UNL     1      14.499  -3.865   0.990  1.00  0.00     0.187 HD
HETATM   19  O1  UNL     1      14.979  -5.449  -0.777  1.00  0.00    -0.267 OA
HETATM   20  C10 UNL     1      12.737  -6.904  -1.880  1.00  0.00     0.138 C 
HETATM   21  N6  UNL     1      11.458  -7.164  -2.519  1.00  0.00    -0.349 N 
HETATM   22  C25 UNL     1      10.207  -6.537  -2.125  1.00  0.00     0.256 C 
BRANCH  14  23
HETATM   23  N4  UNL     1      12.376  -3.166   2.147  1.00  0.00    -0.234 N 
ATOM     24  H42 UNL     1      12.412  -3.431   3.132  1.00  0.00     0.174 HD
ATOM     25  H41 UNL     1      12.248  -2.179   1.924  1.00  0.00     0.174 HD
ENDBRANCH  14  23
BRANCH  20  26
HETATM   26  C11 UNL     1      13.879  -6.781  -2.828  1.00  0.00     0.105 C 
BRANCH  26  27
HETATM   27  S1  UNL     1      14.939  -8.248  -2.905  1.00  0.00    -0.158 SA
BRANCH  27  28
HETATM   28  C12 UNL     1      15.365  -8.637  -4.602  1.00  0.00    -0.003 C 
HETATM   29  C13 UNL     1      14.913  -7.556  -5.566  1.00  0.00     0.026 C 
HETATM   30  C14 UNL     1      14.727  -9.965  -5.013  1.00  0.00     0.026 C 
HETATM   31  C15 UNL     1      16.859  -8.799  -4.767  1.00  0.00     0.026 C 
ENDBRANCH  27  28
ENDBRANCH  26  27
ENDBRANCH  20  26
BRANCH  21  32
HETATM   32  C16 UNL     1      11.381  -8.113  -3.558  1.00  0.00     0.004 C 
HETATM   33  C17 UNL     1      11.392  -9.557  -3.107  1.00  0.00     0.068 C 
HETATM   34  C18 UNL     1      11.301  -7.909  -4.839  1.00  0.00     0.024 C 
BRANCH  34  35
HETATM   35  C19 UNL     1      11.223  -9.044  -5.828  1.00  0.00     0.208 C 
BRANCH  35  36
HETATM   36  O2  UNL     1      10.734  -8.594  -7.064  1.00  0.00    -0.314 OA
BRANCH  36  37
HETATM   37  C20 UNL     1       9.374  -8.333  -7.241  1.00  0.00     0.283 C 
HETATM   38  O3  UNL     1       8.666  -9.308  -7.522  1.00  0.00    -0.260 OA
BRANCH  37  39
HETATM   39  C21 UNL     1       8.814  -7.016  -7.109  1.00  0.00     0.084 C 
HETATM   40  C22 UNL     1       8.079  -6.619  -6.104  1.00  0.00    -0.082 C 
HETATM   41  C23 UNL     1       7.763  -7.532  -5.000  1.00  0.00     0.043 C 
HETATM   42  C24 UNL     1       7.550  -5.201  -6.086  1.00  0.00     0.043 C 
ENDBRANCH  37  39
ENDBRANCH  36  37
ENDBRANCH  35  36
ENDBRANCH  34  35
ENDBRANCH  21  32
BRANCH  22  43
HETATM   43  C26 UNL     1       9.876  -5.261  -2.804  1.00  0.00     0.395 C 
HETATM   44  F1  UNL     1       8.540  -5.032  -2.908  1.00  0.00    -0.210 F 
HETATM   45  F2  UNL     1      10.557  -5.038  -3.986  1.00  0.00    -0.210 F 
ENDBRANCH  22  43
ENDBRANCH   8  10
TORSDOF 11
ENDMDL
MODEL 5
REMARK VINA RESULT: -6.971080023      1.797      3.429
REMARK  11 active torsions:
REMARK  status: ('A' for Active; 'I' for Inactive)
REMARK    1  A    between atoms: C5_8  and  N2_9 
REMARK    2  A    between atoms: C7_13  and  N4_14 
REMARK    3  A    between atoms: C10_22  and  C11_23 
REMARK    4  A    between atoms: C11_23  and  S1_24 
REMARK    5  A    between atoms: S1_24  and  C12_25 
REMARK    6  A    between atoms: N6_29  and  C16_30 
REMARK    7  A    between atoms: C18_32  and  C19_33 
REMARK    8  A    between atoms: C19_33  and  O2_34 
REMARK    9  A    between atoms: O2_34  and  C20_35 
REMARK   10  A    between atoms: C20_35  and  C21_37 
REMARK   11  A    between atoms: C25_41  and  C26_42 
ROOT
HETATM    1  C1  UNL     1       6.170  -9.920   1.838  1.00  0.00     0.012 C 
HETATM    2  C2  UNL     1       6.794  -8.915   1.712  1.00  0.00    -0.111 C 
HETATM    3  C3  UNL     1       7.543  -7.699   1.535  1.00  0.00     0.093 C 
HETATM    4  C4  UNL     1       8.651  -7.567   2.570  1.00  0.00     0.252 C 
HETATM    5  N1  UNL     1       9.782  -7.012   1.894  1.00  0.00    -0.053 N 
ATOM      6  H11 UNL     1      10.568  -7.659   1.844  1.00  0.00     0.279 HD
ATOM      7  H12 UNL     1      10.243  -6.279   2.432  1.00  0.00     0.279 HD
HETATM    8  C5  UNL     1       9.338  -6.555   0.578  1.00  0.00     0.290 C 
HETATM    9  C27 UNL     1       8.374  -7.704   0.259  1.00  0.00     0.073 C 
ENDROOT
BRANCH   8  10
HETATM   10  N2  UNL     1      10.369  -6.456  -0.388  1.00  0.00    -0.311 N 
HETATM   11  C6  UNL     1      11.602  -5.809  -0.059  1.00  0.00     0.136 A 
HETATM   12  N3  UNL     1      11.641  -4.755   0.752  1.00  0.00    -0.176 N 
HETATM   13  C9  UNL     1      12.801  -6.295  -0.601  1.00  0.00     0.078 A 
HETATM   14  C7  UNL     1      12.766  -4.129   1.084  1.00  0.00     0.680 A 
ATOM     15  H3  UNL     1      10.762  -4.410   1.139  1.00  0.00     0.186 HD
HETATM   16  N5  UNL     1      13.911  -4.587   0.573  1.00  0.00    -0.156 N 
HETATM   17  C8  UNL     1      13.966  -5.665  -0.271  1.00  0.00     0.271 A 
ATOM     18  H5  UNL     1      14.781  -4.115   0.821  1.00  0.00     0.187 HD
HETATM   19  O1  UNL     1      15.120  -5.987  -0.677  1.00  0.00    -0.267 OA
HETATM   20  C10 UNL     1      12.768  -7.454  -1.499  1.00  0.00     0.138 C 
HETATM   21  N6  UNL     1      11.460  -7.731  -2.069  1.00  0.00    -0.349 N 
HETATM   22  C25 UNL     1      10.260  -6.971  -1.762  1.00  0.00     0.256 C 
BRANCH  14  23
HETATM   23  N4  UNL     1      12.733  -3.108   1.882  1.00  0.00    -0.234 N 
ATOM     24  H42 UNL     1      12.563  -3.212   2.882  1.00  0.00     0.174 HD
ATOM     25  H41 UNL     1      12.878  -2.166   1.518  1.00  0.00     0.174 HD
ENDBRANCH  14  23
BRANCH  20  26
HETATM   26  C11 UNL     1      13.891  -7.557  -2.471  1.00  0.00     0.105 C 
BRANCH  26  27
HETATM   27  S1  UNL     1      13.661  -6.574  -3.975  1.00  0.00    -0.158 SA
BRANCH  27  28
HETATM   28  C12 UNL     1      14.243  -7.468  -5.415  1.00  0.00    -0.003 C 
HETATM   29  C13 UNL     1      13.099  -8.065  -6.216  1.00  0.00     0.026 C 
HETATM   30  C14 UNL     1      15.189  -8.592  -4.991  1.00  0.00     0.026 C 
HETATM   31  C15 UNL     1      15.024  -6.564  -6.342  1.00  0.00     0.026 C 
ENDBRANCH  27  28
ENDBRANCH  26  27
ENDBRANCH  20  26
BRANCH  21  32
HETATM   32  C16 UNL     1      11.300  -8.826  -2.941  1.00  0.00     0.004 C 
HETATM   33  C17 UNL     1      12.323  -9.928  -2.779  1.00  0.00     0.068 C 
HETATM   34  C18 UNL     1      10.396  -9.009  -3.856  1.00  0.00     0.024 C 
BRANCH  34  35
HETATM   35  C19 UNL     1      10.362 -10.249  -4.713  1.00  0.00     0.208 C 
BRANCH  35  36
HETATM   36  O2  UNL     1       9.359 -11.129  -4.274  1.00  0.00    -0.314 OA
BRANCH  36  37
HETATM   37  C20 UNL     1       8.013 -10.857  -4.522  1.00  0.00     0.283 C 
HETATM   38  O3  UNL     1       7.714 -10.618  -5.699  1.00  0.00    -0.260 OA
BRANCH  37  39
HETATM   39  C21 UNL     1       7.020 -10.850  -3.482  1.00  0.00     0.084 C 
HETATM   40  C22 UNL     1       6.593  -9.776  -2.871  1.00  0.00    -0.082 C 
HETATM   41  C23 UNL     1       7.124  -8.454  -3.221  1.00  0.00     0.043 C 
HETATM   42  C24 UNL     1       5.541  -9.906  -1.791  1.00  0.00     0.043 C 
ENDBRANCH  37  39
ENDBRANCH  36  37
ENDBRANCH  35  36
ENDBRANCH  34  35
ENDBRANCH  21  32
BRANCH  22  43
HETATM   43  C26 UNL     1       9.989  -5.801  -2.632  1.00  0.00     0.395 C 
HETATM   44  F1  UNL     1       8.670  -5.489  -2.729  1.00  0.00    -0.210 F 
HETATM   45  F2  UNL     1      10.631  -5.826  -3.856  1.00  0.00    -0.210 F 
ENDBRANCH  22  43
ENDBRANCH   8  10
TORSDOF 11
ENDMDL
