MODEL 1
REMARK VINA RESULT: -8.370772459      0.000      0.000
REMARK  9 active torsions:
REMARK  status: ('A' for Active; 'I' for Inactive)
REMARK    1  A    between atoms: C10_12  and  O1_13 
REMARK    2  A    between atoms: C12_16  and  O2_17 
REMARK    3  A    between atoms: O2_17  and  C13_18 
REMARK    4  A    between atoms: C13_18  and  C14_19 
REMARK    5  A    between atoms: C14_19  and  N1_20 
REMARK       I    between atoms: N1_20  and  C15_22 
REMARK    6  A    between atoms: C15_22  and  C16_24 
REMARK    7  A    between atoms: C20_28  and  O4_29 
REMARK    8  A    between atoms: C20_28  and  C21_31 
REMARK    9  A    between atoms: C21_31  and  C22_33 
ROOT
HETATM    1  C1  UNL     1       5.476 -12.264   1.453  1.00  0.00     0.015 C 
HETATM    2  C2  UNL     1       5.666 -11.167   2.517  1.00  0.00    -0.038 C 
HETATM    3  C3  UNL     1       6.177 -11.913   3.726  1.00  0.00     0.015 C 
HETATM    4  C4  UNL     1       4.322 -10.528   2.710  1.00  0.00     0.061 C 
HETATM    5  C5  UNL     1       4.293  -9.076   2.443  1.00  0.00     0.031 C 
HETATM    6 CL1  UNL     1       2.694  -8.358   2.178  1.00  0.00    -0.087 Cl
HETATM    7  C6  UNL     1       5.334  -8.271   2.383  1.00  0.00     0.043 C 
HETATM    8 CL2  UNL     1       5.175  -6.568   2.058  1.00  0.00    -0.086 Cl
HETATM    9  C7  UNL     1       6.692  -8.846   2.622  1.00  0.00     0.030 C 
HETATM   10  C8  UNL     1       6.809  -8.903   4.109  1.00  0.00     0.027 C 
HETATM   11  C9  UNL     1       7.737  -8.040   1.946  1.00  0.00    -0.004 A 
HETATM   12  C10 UNL     1       8.693  -7.295   2.593  1.00  0.00     0.076 A 
HETATM   13  C11 UNL     1       9.645  -6.552   1.893  1.00  0.00     0.073 A 
HETATM   14  C12 UNL     1       9.662  -6.542   0.514  1.00  0.00     0.072 A 
HETATM   15  C23 UNL     1       8.696  -7.295  -0.111  1.00  0.00     0.044 A 
HETATM   16  C24 UNL     1       7.742  -8.039   0.566  1.00  0.00    -0.045 A 
HETATM   17  C25 UNL     1       6.748  -8.834  -0.195  1.00  0.00     0.040 C 
HETATM   18  C26 UNL     1       6.320 -10.073   0.486  1.00  0.00     0.011 C 
HETATM   19  C27 UNL     1       6.676 -10.196   1.949  1.00  0.00     0.012 C 
ENDROOT
BRANCH  14  20
HETATM   20  O2  UNL     1      10.608  -5.804  -0.189  1.00  0.00    -0.349 OA
BRANCH  20  21
HETATM   21  C13 UNL     1      11.824  -5.517   0.419  1.00  0.00     0.195 C 
BRANCH  21  22
HETATM   22  C14 UNL     1      12.906  -6.525   0.323  1.00  0.00     0.149 C 
BRANCH  22  23
HETATM   23  N1  UNL     1      13.123  -7.008  -0.988  1.00  0.00    -0.359 N 
HETATM   24  C15 UNL     1      13.947  -6.452  -1.956  1.00  0.00     0.225 C 
HETATM   25  O3  UNL     1      14.604  -5.406  -1.761  1.00  0.00    -0.273 OA
ATOM     26  H1  UNL     1      12.618  -7.855  -1.250  1.00  0.00     0.162 HD
BRANCH  24  27
HETATM   27  C16 UNL     1      14.114  -7.065  -3.316  1.00  0.00     0.120 C 
HETATM   28  C17 UNL     1      14.394  -8.518  -3.108  1.00  0.00     0.018 C 
HETATM   29  C18 UNL     1      13.419  -9.281  -3.977  1.00  0.00     0.004 C 
HETATM   30  C19 UNL     1      12.285  -8.327  -4.257  1.00  0.00     0.047 C 
HETATM   31  C20 UNL     1      12.867  -6.925  -4.138  1.00  0.00     0.141 C 
BRANCH  31  32
HETATM   32  O4  UNL     1      11.917  -6.111  -3.537  1.00  0.00    -0.381 OA
ATOM     33  H4  UNL     1      11.724  -5.333  -4.047  1.00  0.00     0.211 HD
ENDBRANCH  31  32
BRANCH  31  34
HETATM   34  C21 UNL     1      13.226  -6.391  -5.476  1.00  0.00     0.259 C 
HETATM   35  O5  UNL     1      14.414  -6.559  -5.867  1.00  0.00    -0.282 OA
BRANCH  34  36
HETATM   36  C22 UNL     1      12.258  -5.708  -6.300  1.00  0.00     0.250 C 
HETATM   37  O6  UNL     1      11.053  -6.011  -6.238  1.00  0.00    -0.642 OA
HETATM   38  O7  UNL     1      12.672  -4.714  -7.158  1.00  0.00    -0.642 OA
ENDBRANCH  34  36
ENDBRANCH  31  34
ENDBRANCH  24  27
ENDBRANCH  22  23
ENDBRANCH  21  22
ENDBRANCH  20  21
ENDBRANCH  14  20
BRANCH  12  39
HETATM   39  O1  UNL     1       8.776  -7.230   3.962  1.00  0.00    -0.360 OA
ATOM     40  H1  UNL     1       8.527  -6.456   4.452  1.00  0.00     0.217 HD
ENDBRANCH  12  39
TORSDOF 9
ENDMDL
MODEL 2
REMARK VINA RESULT: -8.201830242      0.993      1.247
REMARK  9 active torsions:
REMARK  status: ('A' for Active; 'I' for Inactive)
REMARK    1  A    between atoms: C10_12  and  O1_13 
REMARK    2  A    between atoms: C12_16  and  O2_17 
REMARK    3  A    between atoms: O2_17  and  C13_18 
REMARK    4  A    between atoms: C13_18  and  C14_19 
REMARK    5  A    between atoms: C14_19  and  N1_20 
REMARK       I    between atoms: N1_20  and  C15_22 
REMARK    6  A    between atoms: C15_22  and  C16_24 
REMARK    7  A    between atoms: C20_28  and  O4_29 
REMARK    8  A    between atoms: C20_28  and  C21_31 
REMARK    9  A    between atoms: C21_31  and  C22_33 
ROOT
HETATM    1  C1  UNL     1       5.538 -12.371   1.475  1.00  0.00     0.015 C 
HETATM    2  C2  UNL     1       5.688 -11.286   2.558  1.00  0.00    -0.038 C 
HETATM    3  C3  UNL     1       6.195 -12.041   3.764  1.00  0.00     0.015 C 
HETATM    4  C4  UNL     1       4.329 -10.678   2.739  1.00  0.00     0.061 C 
HETATM    5  C5  UNL     1       4.275  -9.222   2.492  1.00  0.00     0.031 C 
HETATM    6 CL1  UNL     1       2.667  -8.532   2.211  1.00  0.00    -0.087 Cl
HETATM    7  C6  UNL     1       5.300  -8.396   2.462  1.00  0.00     0.043 C 
HETATM    8 CL2  UNL     1       5.112  -6.692   2.159  1.00  0.00    -0.086 Cl
HETATM    9  C7  UNL     1       6.665  -8.947   2.715  1.00  0.00     0.030 C 
HETATM   10  C8  UNL     1       6.759  -9.024   4.202  1.00  0.00     0.027 C 
HETATM   11  C9  UNL     1       7.706  -8.111   2.067  1.00  0.00    -0.004 A 
HETATM   12  C10 UNL     1       8.635  -7.356   2.741  1.00  0.00     0.076 A 
HETATM   13  C11 UNL     1       9.583  -6.585   2.068  1.00  0.00     0.073 A 
HETATM   14  C12 UNL     1       9.622  -6.553   0.690  1.00  0.00     0.072 A 
HETATM   15  C23 UNL     1       8.682  -7.316   0.039  1.00  0.00     0.044 A 
HETATM   16  C24 UNL     1       7.733  -8.089   0.688  1.00  0.00    -0.045 A 
HETATM   17  C25 UNL     1       6.767  -8.892  -0.100  1.00  0.00     0.040 C 
HETATM   18  C26 UNL     1       6.353 -10.149   0.555  1.00  0.00     0.011 C 
HETATM   19  C27 UNL     1       6.687 -10.287   2.022  1.00  0.00     0.012 C 
ENDROOT
BRANCH  14  20
HETATM   20  O2  UNL     1      10.565  -5.786   0.014  1.00  0.00    -0.349 OA
BRANCH  20  21
HETATM   21  C13 UNL     1      11.608  -5.216   0.733  1.00  0.00     0.195 C 
BRANCH  21  22
HETATM   22  C14 UNL     1      12.968  -5.264   0.145  1.00  0.00     0.149 C 
BRANCH  22  23
HETATM   23  N1  UNL     1      13.003  -5.769  -1.174  1.00  0.00    -0.359 N 
HETATM   24  C15 UNL     1      13.875  -6.723  -1.679  1.00  0.00     0.225 C 
HETATM   25  O3  UNL     1      14.773  -7.248  -0.986  1.00  0.00    -0.273 OA
ATOM     26  H1  UNL     1      12.314  -5.391  -1.825  1.00  0.00     0.162 HD
BRANCH  24  27
HETATM   27  C16 UNL     1      13.807  -7.200  -3.102  1.00  0.00     0.120 C 
HETATM   28  C17 UNL     1      15.041  -8.003  -3.353  1.00  0.00     0.018 C 
HETATM   29  C18 UNL     1      14.593  -9.325  -3.934  1.00  0.00     0.004 C 
HETATM   30  C19 UNL     1      13.146  -9.480  -3.535  1.00  0.00     0.047 C 
HETATM   31  C20 UNL     1      12.607  -8.070  -3.330  1.00  0.00     0.141 C 
BRANCH  31  32
HETATM   32  O4  UNL     1      11.743  -8.090  -2.246  1.00  0.00    -0.381 OA
ATOM     33  H4  UNL     1      11.624  -8.961  -1.885  1.00  0.00     0.211 HD
ENDBRANCH  31  32
BRANCH  31  34
HETATM   34  C21 UNL     1      11.893  -7.601  -4.546  1.00  0.00     0.259 C 
HETATM   35  O5  UNL     1      11.787  -8.413  -5.505  1.00  0.00    -0.282 OA
BRANCH  34  36
HETATM   36  C22 UNL     1      11.341  -6.271  -4.629  1.00  0.00     0.250 C 
HETATM   37  O6  UNL     1      11.376  -5.641  -5.701  1.00  0.00    -0.642 OA
HETATM   38  O7  UNL     1      10.771  -5.697  -3.515  1.00  0.00    -0.642 OA
ENDBRANCH  34  36
ENDBRANCH  31  34
ENDBRANCH  24  27
ENDBRANCH  22  23
ENDBRANCH  21  22
ENDBRANCH  20  21
ENDBRANCH  14  20
BRANCH  12  39
HETATM   39  O1  UNL     1       8.695  -7.310   4.113  1.00  0.00    -0.360 OA
ATOM     40  H1  UNL     1       9.514  -7.232   4.586  1.00  0.00     0.217 HD
ENDBRANCH  12  39
TORSDOF 9
ENDMDL
MODEL 3
REMARK VINA RESULT: -8.153745927      1.739      2.557
REMARK  9 active torsions:
REMARK  status: ('A' for Active; 'I' for Inactive)
REMARK    1  A    between atoms: C10_12  and  O1_13 
REMARK    2  A    between atoms: C12_16  and  O2_17 
REMARK    3  A    between atoms: O2_17  and  C13_18 
REMARK    4  A    between atoms: C13_18  and  C14_19 
REMARK    5  A    between atoms: C14_19  and  N1_20 
REMARK       I    between atoms: N1_20  and  C15_22 
REMARK    6  A    between atoms: C15_22  and  C16_24 
REMARK    7  A    between atoms: C20_28  and  O4_29 
REMARK    8  A    between atoms: C20_28  and  C21_31 
REMARK    9  A    between atoms: C21_31  and  C22_33 
ROOT
HETATM    1  C1  UNL     1       5.530 -12.341   1.246  1.00  0.00     0.015 C 
HETATM    2  C2  UNL     1       5.625 -11.321   2.395  1.00  0.00    -0.038 C 
HETATM    3  C3  UNL     1       6.055 -12.147   3.584  1.00  0.00     0.015 C 
HETATM    4  C4  UNL     1       4.263 -10.709   2.531  1.00  0.00     0.061 C 
HETATM    5  C5  UNL     1       4.234  -9.241   2.365  1.00  0.00     0.031 C 
HETATM    6 CL1  UNL     1       2.650  -8.519   2.031  1.00  0.00    -0.087 Cl
HETATM    7  C6  UNL     1       5.265  -8.425   2.441  1.00  0.00     0.043 C 
HETATM    8 CL2  UNL     1       5.108  -6.706   2.224  1.00  0.00    -0.086 Cl
HETATM    9  C7  UNL     1       6.609  -9.005   2.740  1.00  0.00     0.030 C 
HETATM   10  C8  UNL     1       6.615  -9.166   4.224  1.00  0.00     0.027 C 
HETATM   11  C9  UNL     1       7.691  -8.145   2.202  1.00  0.00    -0.004 A 
HETATM   12  C10 UNL     1       8.586  -7.439   2.971  1.00  0.00     0.076 A 
HETATM   13  C11 UNL     1       9.577  -6.641   2.399  1.00  0.00     0.073 A 
HETATM   14  C12 UNL     1       9.697  -6.533   1.029  1.00  0.00     0.072 A 
HETATM   15  C23 UNL     1       8.791  -7.248   0.282  1.00  0.00     0.044 A 
HETATM   16  C24 UNL     1       7.799  -8.045   0.830  1.00  0.00    -0.045 A 
HETATM   17  C25 UNL     1       6.875  -8.793  -0.056  1.00  0.00     0.040 C 
HETATM   18  C26 UNL     1       6.415 -10.081   0.501  1.00  0.00     0.011 C 
HETATM   19  C27 UNL     1       6.662 -10.304   1.975  1.00  0.00     0.012 C 
ENDROOT
BRANCH  14  20
HETATM   20  O2  UNL     1      10.683  -5.739   0.452  1.00  0.00    -0.349 OA
BRANCH  20  21
HETATM   21  C13 UNL     1      11.948  -6.279   0.252  1.00  0.00     0.195 C 
BRANCH  21  22
HETATM   22  C14 UNL     1      12.435  -6.415  -1.140  1.00  0.00     0.149 C 
BRANCH  22  23
HETATM   23  N1  UNL     1      11.446  -6.168  -2.119  1.00  0.00    -0.359 N 
HETATM   24  C15 UNL     1      10.749  -7.114  -2.858  1.00  0.00     0.225 C 
HETATM   25  O3  UNL     1      10.948  -8.342  -2.736  1.00  0.00    -0.273 OA
ATOM     26  H1  UNL     1      11.220  -5.190  -2.302  1.00  0.00     0.162 HD
BRANCH  24  27
HETATM   27  C16 UNL     1       9.700  -6.734  -3.863  1.00  0.00     0.120 C 
HETATM   28  C17 UNL     1       8.813  -5.726  -3.208  1.00  0.00     0.018 C 
HETATM   29  C18 UNL     1       8.724  -4.545  -4.148  1.00  0.00     0.004 C 
HETATM   30  C19 UNL     1       9.928  -4.646  -5.050  1.00  0.00     0.047 C 
HETATM   31  C20 UNL     1      10.312  -6.119  -5.087  1.00  0.00     0.141 C 
BRANCH  31  32
HETATM   32  O4  UNL     1      11.696  -6.206  -5.097  1.00  0.00    -0.381 OA
ATOM     33  H4  UNL     1      12.118  -5.398  -4.833  1.00  0.00     0.211 HD
ENDBRANCH  31  32
BRANCH  31  34
HETATM   34  C21 UNL     1       9.748  -6.777  -6.293  1.00  0.00     0.259 C 
HETATM   35  O5  UNL     1       9.097  -7.844  -6.120  1.00  0.00    -0.282 OA
BRANCH  34  36
HETATM   36  C22 UNL     1       9.935  -6.221  -7.612  1.00  0.00     0.250 C 
HETATM   37  O6  UNL     1       8.952  -5.925  -8.315  1.00  0.00    -0.642 OA
HETATM   38  O7  UNL     1      11.208  -6.016  -8.092  1.00  0.00    -0.642 OA
ENDBRANCH  34  36
ENDBRANCH  31  34
ENDBRANCH  24  27
ENDBRANCH  22  23
ENDBRANCH  21  22
ENDBRANCH  20  21
ENDBRANCH  14  20
BRANCH  12  39
HETATM   39  O1  UNL     1       8.565  -7.471   4.343  1.00  0.00    -0.360 OA
ATOM     40  H1  UNL     1       8.668  -6.689   4.874  1.00  0.00     0.217 HD
ENDBRANCH  12  39
TORSDOF 9
ENDMDL
MODEL 4
REMARK VINA RESULT: -8.069962594      1.649      2.321
REMARK  9 active torsions:
REMARK  status: ('A' for Active; 'I' for Inactive)
REMARK    1  A    between atoms: C10_12  and  O1_13 
REMARK    2  A    between atoms: C12_16  and  O2_17 
REMARK    3  A    between atoms: O2_17  and  C13_18 
REMARK    4  A    between atoms: C13_18  and  C14_19 
REMARK    5  A    between atoms: C14_19  and  N1_20 
REMARK       I    between atoms: N1_20  and  C15_22 
REMARK    6  A    between atoms: C15_22  and  C16_24 
REMARK    7  A    between atoms: C20_28  and  O4_29 
REMARK    8  A    between atoms: C20_28  and  C21_31 
REMARK    9  A    between atoms: C21_31  and  C22_33 
ROOT
HETATM    1  C1  UNL     1       5.499 -12.308   1.341  1.00  0.00     0.015 C 
HETATM    2  C2  UNL     1       5.629 -11.265   2.467  1.00  0.00    -0.038 C 
HETATM    3  C3  UNL     1       6.085 -12.070   3.660  1.00  0.00     0.015 C 
HETATM    4  C4  UNL     1       4.273 -10.643   2.626  1.00  0.00     0.061 C 
HETATM    5  C5  UNL     1       4.247  -9.179   2.431  1.00  0.00     0.031 C 
HETATM    6 CL1  UNL     1       2.658  -8.456   2.124  1.00  0.00    -0.087 Cl
HETATM    7  C6  UNL     1       5.283  -8.368   2.464  1.00  0.00     0.043 C 
HETATM    8 CL2  UNL     1       5.129  -6.652   2.217  1.00  0.00    -0.086 Cl
HETATM    9  C7  UNL     1       6.632  -8.948   2.739  1.00  0.00     0.030 C 
HETATM   10  C8  UNL     1       6.677  -9.080   4.225  1.00  0.00     0.027 C 
HETATM   11  C9  UNL     1       7.704  -8.105   2.156  1.00  0.00    -0.004 A 
HETATM   12  C10 UNL     1       8.622  -7.389   2.887  1.00  0.00     0.076 A 
HETATM   13  C11 UNL     1       9.602  -6.607   2.273  1.00  0.00     0.073 A 
HETATM   14  C12 UNL     1       9.686  -6.527   0.899  1.00  0.00     0.072 A 
HETATM   15  C23 UNL     1       8.757  -7.252   0.190  1.00  0.00     0.044 A 
HETATM   16  C24 UNL     1       7.776  -8.033   0.780  1.00  0.00    -0.045 A 
HETATM   17  C25 UNL     1       6.826  -8.793  -0.067  1.00  0.00     0.040 C 
HETATM   18  C26 UNL     1       6.374 -10.067   0.528  1.00  0.00     0.011 C 
HETATM   19  C27 UNL     1       6.658 -10.263   1.999  1.00  0.00     0.012 C 
ENDROOT
BRANCH  14  20
HETATM   20  O2  UNL     1      10.660  -5.750   0.281  1.00  0.00    -0.349 OA
BRANCH  20  21
HETATM   21  C13 UNL     1      11.987  -6.155   0.353  1.00  0.00     0.195 C 
BRANCH  21  22
HETATM   22  C14 UNL     1      12.555  -6.889  -0.802  1.00  0.00     0.149 C 
BRANCH  22  23
HETATM   23  N1  UNL     1      11.600  -7.238  -1.784  1.00  0.00    -0.359 N 
HETATM   24  C15 UNL     1      11.574  -6.821  -3.108  1.00  0.00     0.225 C 
HETATM   25  O3  UNL     1      12.429  -6.045  -3.586  1.00  0.00    -0.273 OA
ATOM     26  H1  UNL     1      10.849  -7.861  -1.488  1.00  0.00     0.162 HD
BRANCH  24  27
HETATM   27  C16 UNL     1      10.514  -7.273  -4.071  1.00  0.00     0.120 C 
HETATM   28  C17 UNL     1      10.210  -8.700  -3.747  1.00  0.00     0.018 C 
HETATM   29  C18 UNL     1       8.709  -8.803  -3.591  1.00  0.00     0.004 C 
HETATM   30  C19 UNL     1       8.228  -7.402  -3.309  1.00  0.00     0.047 C 
HETATM   31  C20 UNL     1       9.260  -6.464  -3.923  1.00  0.00     0.141 C 
BRANCH  31  32
HETATM   32  O4  UNL     1       9.417  -5.378  -3.075  1.00  0.00    -0.381 OA
ATOM     33  H4  UNL     1       8.658  -4.808  -3.063  1.00  0.00     0.211 HD
ENDBRANCH  31  32
BRANCH  31  34
HETATM   34  C21 UNL     1       8.818  -6.007  -5.265  1.00  0.00     0.259 C 
HETATM   35  O5  UNL     1       7.645  -6.304  -5.622  1.00  0.00    -0.282 OA
BRANCH  34  36
HETATM   36  C22 UNL     1       9.693  -5.252  -6.130  1.00  0.00     0.250 C 
HETATM   37  O6  UNL     1      10.141  -4.151  -5.765  1.00  0.00    -0.642 OA
HETATM   38  O7  UNL     1      10.033  -5.756  -7.365  1.00  0.00    -0.642 OA
ENDBRANCH  34  36
ENDBRANCH  31  34
ENDBRANCH  24  27
ENDBRANCH  22  23
ENDBRANCH  21  22
ENDBRANCH  20  21
ENDBRANCH  14  20
BRANCH  12  39
HETATM   39  O1  UNL     1       8.637  -7.393   4.260  1.00  0.00    -0.360 OA
ATOM     40  H1  UNL     1       7.990  -6.930   4.779  1.00  0.00     0.217 HD
ENDBRANCH  12  39
TORSDOF 9
ENDMDL
MODEL 5
REMARK VINA RESULT: -8.065699158      0.942      1.067
REMARK  9 active torsions:
REMARK  status: ('A' for Active; 'I' for Inactive)
REMARK    1  A    between atoms: C10_12  and  O1_13 
REMARK    2  A    between atoms: C12_16  and  O2_17 
REMARK    3  A    between atoms: O2_17  and  C13_18 
REMARK    4  A    between atoms: C13_18  and  C14_19 
REMARK    5  A    between atoms: C14_19  and  N1_20 
REMARK       I    between atoms: N1_20  and  C15_22 
REMARK    6  A    between atoms: C15_22  and  C16_24 
REMARK    7  A    between atoms: C20_28  and  O4_29 
REMARK    8  A    between atoms: C20_28  and  C21_31 
REMARK    9  A    between atoms: C21_31  and  C22_33 
ROOT
HETATM    1  C1  UNL     1       5.556 -12.390   1.544  1.00  0.00     0.015 C 
HETATM    2  C2  UNL     1       5.685 -11.298   2.623  1.00  0.00    -0.038 C 
HETATM    3  C3  UNL     1       6.180 -12.042   3.840  1.00  0.00     0.015 C 
HETATM    4  C4  UNL     1       4.319 -10.697   2.782  1.00  0.00     0.061 C 
HETATM    5  C5  UNL     1       4.259  -9.244   2.527  1.00  0.00     0.031 C 
HETATM    6 CL1  UNL     1       2.650  -8.566   2.220  1.00  0.00    -0.087 Cl
HETATM    7  C6  UNL     1       5.279  -8.411   2.505  1.00  0.00     0.043 C 
HETATM    8 CL2  UNL     1       5.084  -6.710   2.190  1.00  0.00    -0.086 Cl
HETATM    9  C7  UNL     1       6.644  -8.951   2.779  1.00  0.00     0.030 C 
HETATM   10  C8  UNL     1       6.719  -9.020   4.268  1.00  0.00     0.027 C 
HETATM   11  C9  UNL     1       7.687  -8.112   2.140  1.00  0.00    -0.004 A 
HETATM   12  C10 UNL     1       8.603  -7.347   2.822  1.00  0.00     0.076 A 
HETATM   13  C11 UNL     1       9.555  -6.573   2.157  1.00  0.00     0.073 A 
HETATM   14  C12 UNL     1       9.612  -6.549   0.779  1.00  0.00     0.072 A 
HETATM   15  C23 UNL     1       8.686  -7.322   0.120  1.00  0.00     0.044 A 
HETATM   16  C24 UNL     1       7.733  -8.097   0.761  1.00  0.00    -0.045 A 
HETATM   17  C25 UNL     1       6.783  -8.911  -0.035  1.00  0.00     0.040 C 
HETATM   18  C26 UNL     1       6.369 -10.168   0.622  1.00  0.00     0.011 C 
HETATM   19  C27 UNL     1       6.684 -10.295   2.094  1.00  0.00     0.012 C 
ENDROOT
BRANCH  14  20
HETATM   20  O2  UNL     1      10.558  -5.780   0.111  1.00  0.00    -0.349 OA
BRANCH  20  21
HETATM   21  C13 UNL     1      11.144  -6.288  -1.042  1.00  0.00     0.195 C 
BRANCH  21  22
HETATM   22  C14 UNL     1      12.311  -7.188  -0.893  1.00  0.00     0.149 C 
BRANCH  22  23
HETATM   23  N1  UNL     1      12.890  -7.582  -2.121  1.00  0.00    -0.359 N 
HETATM   24  C15 UNL     1      13.858  -6.898  -2.844  1.00  0.00     0.225 C 
HETATM   25  O3  UNL     1      14.328  -5.803  -2.470  1.00  0.00    -0.273 OA
ATOM     26  H1  UNL     1      12.561  -8.462  -2.518  1.00  0.00     0.162 HD
BRANCH  24  27
HETATM   27  C16 UNL     1      14.416  -7.425  -4.135  1.00  0.00     0.120 C 
HETATM   28  C17 UNL     1      14.471  -8.913  -4.012  1.00  0.00     0.018 C 
HETATM   29  C18 UNL     1      13.779  -9.479  -5.232  1.00  0.00     0.004 C 
HETATM   30  C19 UNL     1      12.901  -8.371  -5.757  1.00  0.00     0.047 C 
HETATM   31  C20 UNL     1      13.538  -7.067  -5.297  1.00  0.00     0.141 C 
BRANCH  31  32
HETATM   32  O4  UNL     1      12.523  -6.187  -4.953  1.00  0.00    -0.381 OA
ATOM     33  H4  UNL     1      12.706  -5.708  -4.153  1.00  0.00     0.211 HD
ENDBRANCH  31  32
BRANCH  31  34
HETATM   34  C21 UNL     1      14.376  -6.485  -6.376  1.00  0.00     0.259 C 
HETATM   35  O5  UNL     1      15.628  -6.556  -6.239  1.00  0.00    -0.282 OA
BRANCH  34  36
HETATM   36  C22 UNL     1      13.786  -5.861  -7.536  1.00  0.00     0.250 C 
HETATM   37  O6  UNL     1      13.879  -6.398  -8.655  1.00  0.00    -0.642 OA
HETATM   38  O7  UNL     1      13.115  -4.667  -7.402  1.00  0.00    -0.642 OA
ENDBRANCH  34  36
ENDBRANCH  31  34
ENDBRANCH  24  27
ENDBRANCH  22  23
ENDBRANCH  21  22
ENDBRANCH  20  21
ENDBRANCH  14  20
BRANCH  12  39
HETATM   39  O1  UNL     1       8.644  -7.293   4.194  1.00  0.00    -0.360 OA
ATOM     40  H1  UNL     1       8.824  -6.490   4.668  1.00  0.00     0.217 HD
ENDBRANCH  12  39
TORSDOF 9
ENDMDL
