MODEL 1
REMARK VINA RESULT: -9.526639550      0.000      0.000
REMARK  9 active torsions:
REMARK  status: ('A' for Active; 'I' for Inactive)
REMARK    1  A    between atoms: C2_2  and  C3_3 
REMARK    2  A    between atoms: C3_3  and  O1_4 
REMARK    3  A    between atoms: O1_4  and  C4_5 
REMARK    4  A    between atoms: C6_7  and  N1_8 
REMARK    5  A    between atoms: N1_8  and  C7_10 
REMARK    6  A    between atoms: C8_13  and  N3_14 
REMARK    7  A    between atoms: N3_14  and  C9_15 
REMARK    8  A    between atoms: N6_28  and  C18_29 
REMARK    9  A    between atoms: C26_41  and  C27_42 
REMARK       I    between atoms: C27_42  and  N8_44 
ROOT
HETATM    1  C7  UNL     1       9.834  -6.293   0.192  1.00  0.00     0.686 A 
HETATM    2  N2  UNL     1       9.123  -7.039   1.031  1.00  0.00    -0.163 N 
ATOM      3  H2  UNL     1       9.321  -6.952   2.028  1.00  0.00     0.187 HD
HETATM    4  C8  UNL     1       8.145  -7.914   0.651  1.00  0.00     0.203 A 
HETATM    5  C14 UNL     1       7.914  -7.994  -0.734  1.00  0.00     0.089 A 
HETATM    6  C15 UNL     1       7.037  -8.738  -1.491  1.00  0.00     0.079 A 
HETATM    7  C16 UNL     1       6.084  -9.674  -0.994  1.00  0.00     0.102 C 
HETATM    8  N5  UNL     1       5.303 -10.433  -0.610  1.00  0.00    -0.191 NA
HETATM    9  C17 UNL     1       7.242  -8.416  -2.819  1.00  0.00     0.117 A 
HETATM   10  N6  UNL     1       8.220  -7.496  -2.899  1.00  0.00    -0.336 N 
HETATM   11  C24 UNL     1       8.632  -7.236  -1.629  1.00  0.00     0.140 A 
HETATM   12  N7  UNL     1       9.572  -6.406  -1.147  1.00  0.00    -0.175 N 
ATOM     13  H7  UNL     1      10.109  -5.839  -1.803  1.00  0.00     0.186 HD
ENDROOT
BRANCH   4  14
HETATM   14  N3  UNL     1       7.493  -8.543   1.419  1.00  0.00    -0.423 NA
BRANCH  14  15
HETATM   15  C9  UNL     1       7.065  -9.278   2.466  1.00  0.00     0.168 C 
HETATM   16  C10 UNL     1       7.150 -10.792   2.378  1.00  0.00     0.067 C 
HETATM   17  C11 UNL     1       6.396 -11.339   3.596  1.00  0.00     0.235 C 
HETATM   18  N4  UNL     1       5.785 -10.322   4.392  1.00  0.00    -0.075 N 
HETATM   19  C12 UNL     1       6.699  -9.307   4.878  1.00  0.00     0.235 C 
ATOM     20  H42 UNL     1       5.013  -9.890   3.885  1.00  0.00     0.277 HD
ATOM     21  H41 UNL     1       5.273 -10.740   5.169  1.00  0.00     0.277 HD
HETATM   22  C13 UNL     1       7.704  -8.927   3.815  1.00  0.00     0.067 C 
ENDBRANCH  14  15
ENDBRANCH   4  14
BRANCH  10  23
HETATM   23  C18 UNL     1       8.726  -6.892  -4.104  1.00  0.00     0.091 C 
HETATM   24  C19 UNL     1       8.611  -5.398  -4.067  1.00  0.00     0.032 C 
HETATM   25  C20 UNL     1       9.823  -4.715  -4.669  1.00  0.00     0.081 C 
HETATM   26  C21 UNL     1      10.337  -5.449  -5.889  1.00  0.00     0.243 C 
HETATM   27  F1  UNL     1       9.381  -5.475  -6.865  1.00  0.00    -0.206 F 
HETATM   28  F2  UNL     1      11.397  -4.667  -6.381  1.00  0.00    -0.206 F 
HETATM   29  C22 UNL     1      10.802  -6.828  -5.537  1.00  0.00     0.081 C 
HETATM   30  C23 UNL     1      10.184  -7.334  -4.248  1.00  0.00     0.032 C 
ENDBRANCH  10  23
BRANCH   1  31
HETATM   31  N1  UNL     1      10.767  -5.476   0.520  1.00  0.00    -0.191 N 
ATOM     32  H1  UNL     1      10.485  -4.698   1.116  1.00  0.00     0.184 HD
BRANCH  31  33
HETATM   33  C6  UNL     1      12.114  -5.509   0.170  1.00  0.00     0.052 A 
HETATM   34  C5  UNL     1      12.686  -6.304  -0.788  1.00  0.00     0.066 A 
HETATM   35  C4  UNL     1      14.053  -6.272  -1.096  1.00  0.00     0.071 A 
HETATM   36  C29 UNL     1      14.870  -5.417  -0.420  1.00  0.00     0.054 A 
HETATM   37  C26 UNL     1      14.332  -4.595   0.555  1.00  0.00     0.036 A 
HETATM   38  C25 UNL     1      12.960  -4.649   0.841  1.00  0.00     0.047 A 
BRANCH  35  39
HETATM   39  O1  UNL     1      14.496  -7.117  -2.070  1.00  0.00    -0.351 OA
BRANCH  39  40
HETATM   40  C3  UNL     1      13.987  -7.431  -3.301  1.00  0.00     0.175 C 
BRANCH  40  41
HETATM   41  C2  UNL     1      13.988  -8.911  -3.604  1.00  0.00     0.022 C 
HETATM   42  C1  UNL     1      12.770  -9.538  -2.909  1.00  0.00     0.007 C 
ENDBRANCH  40  41
ENDBRANCH  39  40
ENDBRANCH  35  39
BRANCH  37  43
HETATM   43  C27 UNL     1      15.196  -3.685   1.282  1.00  0.00     0.251 C 
HETATM   44  O2  UNL     1      16.387  -3.542   0.863  1.00  0.00    -0.268 OA
HETATM   45  N8  UNL     1      14.834  -2.937   2.423  1.00  0.00    -0.361 N 
HETATM   46  C28 UNL     1      15.770  -2.041   3.091  1.00  0.00     0.149 C 
ATOM     47  H8  UNL     1      13.888  -3.025   2.792  1.00  0.00     0.162 HD
ENDBRANCH  37  43
ENDBRANCH  31  33
ENDBRANCH   1  31
TORSDOF 9
ENDMDL
MODEL 2
REMARK VINA RESULT: -9.453612369      0.731      1.187
REMARK  9 active torsions:
REMARK  status: ('A' for Active; 'I' for Inactive)
REMARK    1  A    between atoms: C2_2  and  C3_3 
REMARK    2  A    between atoms: C3_3  and  O1_4 
REMARK    3  A    between atoms: O1_4  and  C4_5 
REMARK    4  A    between atoms: C6_7  and  N1_8 
REMARK    5  A    between atoms: N1_8  and  C7_10 
REMARK    6  A    between atoms: C8_13  and  N3_14 
REMARK    7  A    between atoms: N3_14  and  C9_15 
REMARK    8  A    between atoms: N6_28  and  C18_29 
REMARK    9  A    between atoms: C26_41  and  C27_42 
REMARK       I    between atoms: C27_42  and  N8_44 
ROOT
HETATM    1  C7  UNL     1       9.814  -6.396   0.437  1.00  0.00     0.686 A 
HETATM    2  N2  UNL     1       9.103  -7.163   1.258  1.00  0.00    -0.163 N 
ATOM      3  H2  UNL     1       9.313  -7.114   2.255  1.00  0.00     0.187 HD
HETATM    4  C8  UNL     1       8.111  -8.013   0.857  1.00  0.00     0.203 A 
HETATM    5  C14 UNL     1       7.865  -8.041  -0.527  1.00  0.00     0.089 A 
HETATM    6  C15 UNL     1       6.972  -8.749  -1.300  1.00  0.00     0.079 A 
HETATM    7  C16 UNL     1       6.013  -9.691  -0.826  1.00  0.00     0.102 C 
HETATM    8  N5  UNL     1       5.229 -10.454  -0.461  1.00  0.00    -0.191 NA
HETATM    9  C17 UNL     1       7.167  -8.382  -2.618  1.00  0.00     0.117 A 
HETATM   10  N6  UNL     1       8.154  -7.470  -2.676  1.00  0.00    -0.336 N 
HETATM   11  C24 UNL     1       8.582  -7.260  -1.402  1.00  0.00     0.140 A 
HETATM   12  N7  UNL     1       9.536  -6.458  -0.902  1.00  0.00    -0.175 N 
ATOM     13  H7  UNL     1      10.074  -5.874  -1.543  1.00  0.00     0.186 HD
ENDROOT
BRANCH   4  14
HETATM   14  N3  UNL     1       7.461  -8.662   1.609  1.00  0.00    -0.423 NA
BRANCH  14  15
HETATM   15  C9  UNL     1       7.043  -9.468   2.606  1.00  0.00     0.168 C 
HETATM   16  C10 UNL     1       7.282 -10.964   2.485  1.00  0.00     0.067 C 
HETATM   17  C11 UNL     1       6.512 -11.620   3.636  1.00  0.00     0.235 C 
HETATM   18  N4  UNL     1       5.754 -10.694   4.416  1.00  0.00    -0.075 N 
HETATM   19  C12 UNL     1       6.530  -9.612   4.988  1.00  0.00     0.235 C 
ATOM     20  H42 UNL     1       4.977 -10.323   3.871  1.00  0.00     0.277 HD
ATOM     21  H41 UNL     1       5.238 -11.185   5.146  1.00  0.00     0.277 HD
HETATM   22  C13 UNL     1       7.557  -9.101   4.004  1.00  0.00     0.067 C 
ENDBRANCH  14  15
ENDBRANCH   4  14
BRANCH  10  23
HETATM   23  C18 UNL     1       8.655  -6.829  -3.865  1.00  0.00     0.091 C 
HETATM   24  C19 UNL     1       7.841  -7.184  -5.072  1.00  0.00     0.032 C 
HETATM   25  C20 UNL     1       7.634  -5.998  -5.992  1.00  0.00     0.081 C 
HETATM   26  C21 UNL     1       8.875  -5.135  -6.089  1.00  0.00     0.243 C 
HETATM   27  F1  UNL     1       9.914  -5.854  -6.608  1.00  0.00    -0.206 F 
HETATM   28  F2  UNL     1       8.566  -4.134  -7.027  1.00  0.00    -0.206 F 
HETATM   29  C22 UNL     1       9.226  -4.540  -4.760  1.00  0.00     0.081 C 
HETATM   30  C23 UNL     1       8.634  -5.322  -3.604  1.00  0.00     0.032 C 
ENDBRANCH  10  23
BRANCH   1  31
HETATM   31  N1  UNL     1      10.760  -5.601   0.784  1.00  0.00    -0.191 N 
ATOM     32  H1  UNL     1      10.495  -4.850   1.421  1.00  0.00     0.184 HD
BRANCH  31  33
HETATM   33  C6  UNL     1      12.099  -5.627   0.406  1.00  0.00     0.052 A 
HETATM   34  C5  UNL     1      12.670  -6.475  -0.505  1.00  0.00     0.066 A 
HETATM   35  C4  UNL     1      14.029  -6.433  -0.847  1.00  0.00     0.071 A 
HETATM   36  C29 UNL     1      14.838  -5.511  -0.253  1.00  0.00     0.054 A 
HETATM   37  C26 UNL     1      14.300  -4.635   0.673  1.00  0.00     0.036 A 
HETATM   38  C25 UNL     1      12.937  -4.701   0.994  1.00  0.00     0.047 A 
BRANCH  35  39
HETATM   39  O1  UNL     1      14.472  -7.336  -1.768  1.00  0.00    -0.351 OA
BRANCH  39  40
HETATM   40  C3  UNL     1      13.895  -7.830  -2.906  1.00  0.00     0.175 C 
BRANCH  40  41
HETATM   41  C2  UNL     1      13.824  -6.832  -4.038  1.00  0.00     0.022 C 
HETATM   42  C1  UNL     1      12.347  -6.484  -4.271  1.00  0.00     0.007 C 
ENDBRANCH  40  41
ENDBRANCH  39  40
ENDBRANCH  35  39
BRANCH  37  43
HETATM   43  C27 UNL     1      15.157  -3.654   1.312  1.00  0.00     0.251 C 
HETATM   44  O2  UNL     1      16.305  -3.455   0.806  1.00  0.00    -0.268 OA
HETATM   45  N8  UNL     1      14.830  -2.892   2.455  1.00  0.00    -0.361 N 
HETATM   46  C28 UNL     1      15.754  -1.924   3.031  1.00  0.00     0.149 C 
ATOM     47  H8  UNL     1      13.918  -3.024   2.892  1.00  0.00     0.162 HD
ENDBRANCH  37  43
ENDBRANCH  31  33
ENDBRANCH   1  31
TORSDOF 9
ENDMDL
MODEL 3
REMARK VINA RESULT: -9.414677970      3.323      8.364
REMARK  9 active torsions:
REMARK  status: ('A' for Active; 'I' for Inactive)
REMARK    1  A    between atoms: C2_2  and  C3_3 
REMARK    2  A    between atoms: C3_3  and  O1_4 
REMARK    3  A    between atoms: O1_4  and  C4_5 
REMARK    4  A    between atoms: C6_7  and  N1_8 
REMARK    5  A    between atoms: N1_8  and  C7_10 
REMARK    6  A    between atoms: C8_13  and  N3_14 
REMARK    7  A    between atoms: N3_14  and  C9_15 
REMARK    8  A    between atoms: N6_28  and  C18_29 
REMARK    9  A    between atoms: C26_41  and  C27_42 
REMARK       I    between atoms: C27_42  and  N8_44 
ROOT
HETATM    1  C7  UNL     1      10.637  -5.693   0.143  1.00  0.00     0.686 A 
HETATM    2  N2  UNL     1      11.302  -4.861   0.938  1.00  0.00    -0.163 N 
ATOM      3  H2  UNL     1      10.771  -4.360   1.651  1.00  0.00     0.187 HD
HETATM    4  C8  UNL     1      12.647  -4.632   0.867  1.00  0.00     0.203 A 
HETATM    5  C14 UNL     1      13.327  -5.348  -0.132  1.00  0.00     0.089 A 
HETATM    6  C15 UNL     1      14.650  -5.389  -0.512  1.00  0.00     0.079 A 
HETATM    7  C16 UNL     1      15.717  -4.650   0.078  1.00  0.00     0.102 C 
HETATM    8  N5  UNL     1      16.594  -4.063   0.546  1.00  0.00    -0.191 NA
HETATM    9  C17 UNL     1      14.764  -6.276  -1.566  1.00  0.00     0.117 A 
HETATM   10  N6  UNL     1      13.547  -6.781  -1.844  1.00  0.00    -0.336 N 
HETATM   11  C24 UNL     1      12.670  -6.216  -0.972  1.00  0.00     0.140 A 
HETATM   12  N7  UNL     1      11.344  -6.369  -0.815  1.00  0.00    -0.175 N 
ATOM     13  H7  UNL     1      10.847  -7.011  -1.432  1.00  0.00     0.186 HD
ENDROOT
BRANCH   4  14
HETATM   14  N3  UNL     1      13.229  -3.914   1.613  1.00  0.00    -0.423 NA
BRANCH  14  15
HETATM   15  C9  UNL     1      13.700  -3.277   2.705  1.00  0.00     0.168 C 
HETATM   16  C10 UNL     1      14.627  -2.089   2.514  1.00  0.00     0.067 C 
HETATM   17  C11 UNL     1      15.161  -1.730   3.905  1.00  0.00     0.235 C 
HETATM   18  N4  UNL     1      14.723  -2.621   4.932  1.00  0.00    -0.075 N 
HETATM   19  C12 UNL     1      13.283  -2.743   5.049  1.00  0.00     0.235 C 
ATOM     20  H42 UNL     1      15.148  -3.540   4.810  1.00  0.00     0.277 HD
ATOM     21  H41 UNL     1      15.131  -2.357   5.829  1.00  0.00     0.277 HD
HETATM   22  C13 UNL     1      12.629  -2.787   3.688  1.00  0.00     0.067 C 
ENDBRANCH  14  15
ENDBRANCH   4  14
BRANCH  10  23
HETATM   23  C18 UNL     1      13.238  -7.745  -2.868  1.00  0.00     0.091 C 
HETATM   24  C19 UNL     1      14.390  -7.951  -3.803  1.00  0.00     0.032 C 
HETATM   25  C20 UNL     1      14.558  -9.406  -4.193  1.00  0.00     0.081 C 
HETATM   26  C21 UNL     1      13.225 -10.092  -4.402  1.00  0.00     0.243 C 
HETATM   27  F1  UNL     1      12.537  -9.494  -5.419  1.00  0.00    -0.206 F 
HETATM   28  F2  UNL     1      13.534 -11.394  -4.833  1.00  0.00    -0.206 F 
HETATM   29  C22 UNL     1      12.424 -10.119  -3.137  1.00  0.00     0.081 C 
HETATM   30  C23 UNL     1      12.859  -9.046  -2.157  1.00  0.00     0.032 C 
ENDBRANCH  10  23
BRANCH   1  31
HETATM   31  N1  UNL     1       9.374  -5.917   0.178  1.00  0.00    -0.191 N 
ATOM     32  H1  UNL     1       8.783  -5.178  -0.205  1.00  0.00     0.184 HD
BRANCH  31  33
HETATM   33  C6  UNL     1       8.702  -7.033   0.667  1.00  0.00     0.052 A 
HETATM   34  C5  UNL     1       8.823  -7.570   1.922  1.00  0.00     0.066 A 
HETATM   35  C4  UNL     1       8.100  -8.691   2.350  1.00  0.00     0.071 A 
HETATM   36  C29 UNL     1       7.230  -9.293   1.491  1.00  0.00     0.054 A 
HETATM   37  C26 UNL     1       7.078  -8.782   0.214  1.00  0.00     0.036 A 
HETATM   38  C25 UNL     1       7.814  -7.658  -0.186  1.00  0.00     0.047 A 
BRANCH  35  39
HETATM   39  O1  UNL     1       8.315  -9.127   3.624  1.00  0.00    -0.351 OA
BRANCH  39  40
HETATM   40  C3  UNL     1       7.617  -8.923   4.784  1.00  0.00     0.175 C 
BRANCH  40  41
HETATM   41  C2  UNL     1       6.427  -9.838   4.950  1.00  0.00     0.022 C 
HETATM   42  C1  UNL     1       5.159  -9.027   4.644  1.00  0.00     0.007 C 
ENDBRANCH  40  41
ENDBRANCH  39  40
ENDBRANCH  35  39
BRANCH  37  43
HETATM   43  C27 UNL     1       6.157  -9.420  -0.708  1.00  0.00     0.251 C 
HETATM   44  O2  UNL     1       5.422 -10.352  -0.256  1.00  0.00    -0.268 OA
HETATM   45  N8  UNL     1       6.000  -9.098  -2.074  1.00  0.00    -0.361 N 
HETATM   46  C28 UNL     1       5.046  -9.792  -2.928  1.00  0.00     0.149 C 
ATOM     47  H8  UNL     1       6.573  -8.357  -2.475  1.00  0.00     0.162 HD
ENDBRANCH  37  43
ENDBRANCH  31  33
ENDBRANCH   1  31
TORSDOF 9
ENDMDL
MODEL 4
REMARK VINA RESULT: -9.404815305      3.106      7.675
REMARK  9 active torsions:
REMARK  status: ('A' for Active; 'I' for Inactive)
REMARK    1  A    between atoms: C2_2  and  C3_3 
REMARK    2  A    between atoms: C3_3  and  O1_4 
REMARK    3  A    between atoms: O1_4  and  C4_5 
REMARK    4  A    between atoms: C6_7  and  N1_8 
REMARK    5  A    between atoms: N1_8  and  C7_10 
REMARK    6  A    between atoms: C8_13  and  N3_14 
REMARK    7  A    between atoms: N3_14  and  C9_15 
REMARK    8  A    between atoms: N6_28  and  C18_29 
REMARK    9  A    between atoms: C26_41  and  C27_42 
REMARK       I    between atoms: C27_42  and  N8_44 
ROOT
HETATM    1  C7  UNL     1      10.697  -5.512  -0.022  1.00  0.00     0.686 A 
HETATM    2  N2  UNL     1      11.372  -4.716   0.801  1.00  0.00    -0.163 N 
ATOM      3  H2  UNL     1      10.838  -4.171   1.479  1.00  0.00     0.187 HD
HETATM    4  C8  UNL     1      12.731  -4.577   0.803  1.00  0.00     0.203 A 
HETATM    5  C14 UNL     1      13.415  -5.351  -0.151  1.00  0.00     0.089 A 
HETATM    6  C15 UNL     1      14.752  -5.485  -0.456  1.00  0.00     0.079 A 
HETATM    7  C16 UNL     1      15.832  -4.812   0.185  1.00  0.00     0.102 C 
HETATM    8  N5  UNL     1      16.719  -4.278   0.695  1.00  0.00    -0.191 NA
HETATM    9  C17 UNL     1      14.862  -6.391  -1.494  1.00  0.00     0.117 A 
HETATM   10  N6  UNL     1      13.632  -6.817  -1.834  1.00  0.00    -0.336 N 
HETATM   11  C24 UNL     1      12.748  -6.184  -1.017  1.00  0.00     0.140 A 
HETATM   12  N7  UNL     1      11.408  -6.245  -0.933  1.00  0.00    -0.175 N 
ATOM     13  H7  UNL     1      10.903  -6.861  -1.571  1.00  0.00     0.186 HD
ENDROOT
BRANCH   4  14
HETATM   14  N3  UNL     1      13.319  -3.891   1.573  1.00  0.00    -0.423 NA
BRANCH  14  15
HETATM   15  C9  UNL     1      13.777  -3.279   2.684  1.00  0.00     0.168 C 
HETATM   16  C10 UNL     1      14.716  -2.094   2.531  1.00  0.00     0.067 C 
HETATM   17  C11 UNL     1      15.231  -1.766   3.937  1.00  0.00     0.235 C 
HETATM   18  N4  UNL     1      14.770  -2.674   4.940  1.00  0.00    -0.075 N 
HETATM   19  C12 UNL     1      13.328  -2.787   5.032  1.00  0.00     0.235 C 
ATOM     20  H42 UNL     1      15.190  -3.593   4.807  1.00  0.00     0.277 HD
ATOM     21  H41 UNL     1      15.165  -2.430   5.848  1.00  0.00     0.277 HD
HETATM   22  C13 UNL     1      12.695  -2.799   3.659  1.00  0.00     0.067 C 
ENDBRANCH  14  15
ENDBRANCH   4  14
BRANCH  10  23
HETATM   23  C18 UNL     1      13.314  -7.772  -2.864  1.00  0.00     0.091 C 
HETATM   24  C19 UNL     1      14.477  -8.007  -3.780  1.00  0.00     0.032 C 
HETATM   25  C20 UNL     1      14.613  -9.466  -4.170  1.00  0.00     0.081 C 
HETATM   26  C21 UNL     1      13.265 -10.116  -4.402  1.00  0.00     0.243 C 
HETATM   27  F1  UNL     1      12.611  -9.499  -5.430  1.00  0.00    -0.206 F 
HETATM   28  F2  UNL     1      13.547 -11.425  -4.830  1.00  0.00    -0.206 F 
HETATM   29  C22 UNL     1      12.443 -10.123  -3.151  1.00  0.00     0.081 C 
HETATM   30  C23 UNL     1      12.889  -9.063  -2.162  1.00  0.00     0.032 C 
ENDBRANCH  10  23
BRANCH   1  31
HETATM   31  N1  UNL     1       9.421  -5.649  -0.055  1.00  0.00    -0.191 N 
ATOM     32  H1  UNL     1       8.894  -4.820  -0.329  1.00  0.00     0.184 HD
BRANCH  31  33
HETATM   33  C6  UNL     1       8.662  -6.779   0.232  1.00  0.00     0.052 A 
HETATM   34  C5  UNL     1       7.984  -7.555  -0.671  1.00  0.00     0.066 A 
HETATM   35  C4  UNL     1       7.248  -8.691  -0.308  1.00  0.00     0.071 A 
HETATM   36  C29 UNL     1       7.190  -9.058   1.003  1.00  0.00     0.054 A 
HETATM   37  C26 UNL     1       7.861  -8.302   1.948  1.00  0.00     0.036 A 
HETATM   38  C25 UNL     1       8.590  -7.171   1.554  1.00  0.00     0.047 A 
BRANCH  35  39
HETATM   39  O1  UNL     1       6.617  -9.375  -1.305  1.00  0.00    -0.351 OA
BRANCH  39  40
HETATM   40  C3  UNL     1       6.512  -9.131  -2.648  1.00  0.00     0.175 C 
BRANCH  40  41
HETATM   41  C2  UNL     1       7.315 -10.080  -3.506  1.00  0.00     0.022 C 
HETATM   42  C1  UNL     1       8.666  -9.416  -3.811  1.00  0.00     0.007 C 
ENDBRANCH  40  41
ENDBRANCH  39  40
ENDBRANCH  35  39
BRANCH  37  43
HETATM   43  C27 UNL     1       7.801  -8.684   3.345  1.00  0.00     0.251 C 
HETATM   44  O2  UNL     1       8.846  -8.518   4.048  1.00  0.00    -0.268 OA
HETATM   45  N8  UNL     1       6.677  -9.229   4.005  1.00  0.00    -0.361 N 
HETATM   46  C28 UNL     1       6.705  -9.583   5.418  1.00  0.00     0.149 C 
ATOM     47  H8  UNL     1       5.819  -9.379   3.475  1.00  0.00     0.162 HD
ENDBRANCH  37  43
ENDBRANCH  31  33
ENDBRANCH   1  31
TORSDOF 9
ENDMDL
MODEL 5
REMARK VINA RESULT: -9.176253872      2.970      7.556
REMARK  9 active torsions:
REMARK  status: ('A' for Active; 'I' for Inactive)
REMARK    1  A    between atoms: C2_2  and  C3_3 
REMARK    2  A    between atoms: C3_3  and  O1_4 
REMARK    3  A    between atoms: O1_4  and  C4_5 
REMARK    4  A    between atoms: C6_7  and  N1_8 
REMARK    5  A    between atoms: N1_8  and  C7_10 
REMARK    6  A    between atoms: C8_13  and  N3_14 
REMARK    7  A    between atoms: N3_14  and  C9_15 
REMARK    8  A    between atoms: N6_28  and  C18_29 
REMARK    9  A    between atoms: C26_41  and  C27_42 
REMARK       I    between atoms: C27_42  and  N8_44 
ROOT
HETATM    1  C7  UNL     1      10.709  -5.601  -0.178  1.00  0.00     0.686 A 
HETATM    2  N2  UNL     1      11.341  -4.776   0.651  1.00  0.00    -0.163 N 
ATOM      3  H2  UNL     1      10.774  -4.217   1.288  1.00  0.00     0.187 HD
HETATM    4  C8  UNL     1      12.698  -4.626   0.707  1.00  0.00     0.203 A 
HETATM    5  C14 UNL     1      13.429  -5.419  -0.193  1.00  0.00     0.089 A 
HETATM    6  C15 UNL     1      14.779  -5.550  -0.436  1.00  0.00     0.079 A 
HETATM    7  C16 UNL     1      15.824  -4.849   0.232  1.00  0.00     0.102 C 
HETATM    8  N5  UNL     1      16.684  -4.294   0.765  1.00  0.00    -0.191 NA
HETATM    9  C17 UNL     1      14.942  -6.484  -1.442  1.00  0.00     0.117 A 
HETATM   10  N6  UNL     1      13.731  -6.930  -1.824  1.00  0.00    -0.336 N 
HETATM   11  C24 UNL     1      12.807  -6.282  -1.064  1.00  0.00     0.140 A 
HETATM   12  N7  UNL     1      11.465  -6.354  -1.036  1.00  0.00    -0.175 N 
ATOM     13  H7  UNL     1      10.994  -6.992  -1.678  1.00  0.00     0.186 HD
ENDROOT
BRANCH   4  14
HETATM   14  N3  UNL     1      13.246  -3.912   1.482  1.00  0.00    -0.423 NA
BRANCH  14  15
HETATM   15  C9  UNL     1      13.678  -3.291   2.599  1.00  0.00     0.168 C 
HETATM   16  C10 UNL     1      14.618  -2.106   2.459  1.00  0.00     0.067 C 
HETATM   17  C11 UNL     1      15.100  -1.767   3.874  1.00  0.00     0.235 C 
HETATM   18  N4  UNL     1      14.618  -2.667   4.872  1.00  0.00    -0.075 N 
HETATM   19  C12 UNL     1      13.174  -2.783   4.932  1.00  0.00     0.235 C 
ATOM     20  H42 UNL     1      15.042  -3.587   4.756  1.00  0.00     0.277 HD
ATOM     21  H41 UNL     1      14.992  -2.416   5.787  1.00  0.00     0.277 HD
HETATM   22  C13 UNL     1      12.573  -2.806   3.546  1.00  0.00     0.067 C 
ENDBRANCH  14  15
ENDBRANCH   4  14
BRANCH  10  23
HETATM   23  C18 UNL     1      13.466  -7.917  -2.839  1.00  0.00     0.091 C 
HETATM   24  C19 UNL     1      12.669  -9.066  -2.301  1.00  0.00     0.032 C 
HETATM   25  C20 UNL     1      11.621  -9.546  -3.286  1.00  0.00     0.081 C 
HETATM   26  C21 UNL     1      12.133  -9.524  -4.711  1.00  0.00     0.243 C 
HETATM   27  F1  UNL     1      13.205 -10.360  -4.843  1.00  0.00    -0.206 F 
HETATM   28  F2  UNL     1      11.098 -10.065  -5.492  1.00  0.00    -0.206 F 
HETATM   29  C22 UNL     1      12.466  -8.130  -5.146  1.00  0.00     0.081 C 
HETATM   30  C23 UNL     1      12.724  -7.206  -3.971  1.00  0.00     0.032 C 
ENDBRANCH  10  23
BRANCH   1  31
HETATM   31  N1  UNL     1       9.437  -5.751  -0.263  1.00  0.00    -0.191 N 
ATOM     32  H1  UNL     1       8.921  -4.949  -0.624  1.00  0.00     0.184 HD
BRANCH  31  33
HETATM   33  C6  UNL     1       8.670  -6.863   0.071  1.00  0.00     0.052 A 
HETATM   34  C5  UNL     1       7.944  -7.640  -0.794  1.00  0.00     0.066 A 
HETATM   35  C4  UNL     1       7.203  -8.757  -0.385  1.00  0.00     0.071 A 
HETATM   36  C29 UNL     1       7.189  -9.102   0.933  1.00  0.00     0.054 A 
HETATM   37  C26 UNL     1       7.908  -8.344   1.840  1.00  0.00     0.036 A 
HETATM   38  C25 UNL     1       8.641  -7.232   1.401  1.00  0.00     0.047 A 
BRANCH  35  39
HETATM   39  O1  UNL     1       6.524  -9.445  -1.346  1.00  0.00    -0.351 OA
BRANCH  39  40
HETATM   40  C3  UNL     1       6.251  -9.148  -2.654  1.00  0.00     0.175 C 
BRANCH  40  41
HETATM   41  C2  UNL     1       7.095  -9.916  -3.644  1.00  0.00     0.022 C 
HETATM   42  C1  UNL     1       8.094  -8.935  -4.277  1.00  0.00     0.007 C 
ENDBRANCH  40  41
ENDBRANCH  39  40
ENDBRANCH  35  39
BRANCH  37  43
HETATM   43  C27 UNL     1       7.894  -8.703   3.245  1.00  0.00     0.251 C 
HETATM   44  O2  UNL     1       8.997  -8.665   3.875  1.00  0.00    -0.268 OA
HETATM   45  N8  UNL     1       6.757  -9.094   3.986  1.00  0.00    -0.361 N 
HETATM   46  C28 UNL     1       6.835  -9.436   5.400  1.00  0.00     0.149 C 
ATOM     47  H8  UNL     1       5.853  -9.138   3.517  1.00  0.00     0.162 HD
ENDBRANCH  37  43
ENDBRANCH  31  33
ENDBRANCH   1  31
TORSDOF 9
ENDMDL
