MODEL 1
REMARK VINA RESULT: -7.955963069      0.000      0.000
REMARK  12 active torsions:
REMARK  status: ('A' for Active; 'I' for Inactive)
REMARK    1  A    between atoms: C2_2  and  C3_3 
REMARK    2  A    between atoms: C2_2  and  C9_11 
REMARK    3  A    between atoms: C3_3  and  C4_4 
REMARK    4  A    between atoms: C4_4  and  C5_5 
REMARK    5  A    between atoms: C5_5  and  C6_6 
REMARK    6  A    between atoms: C6_6  and  O1_9 
REMARK    7  A    between atoms: C16_18  and  N1_19 
REMARK    8  A    between atoms: N1_19  and  O2_20 
REMARK    9  A    between atoms: O2_20  and  C17_21 
REMARK   10  A    between atoms: C17_21  and  C18_22 
REMARK   11  A    between atoms: C18_22  and  O3_23 
REMARK   12  A    between atoms: C23_37  and  O5_38 
ROOT
HETATM    1  C9  UNL     1      11.731  -6.005  -1.131  1.00  0.00    -0.002 C 
HETATM    2  C10 UNL     1      10.604  -5.815  -2.056  1.00  0.00     0.006 C 
HETATM    3  C11 UNL     1      11.104  -6.295  -3.390  1.00  0.00     0.006 C 
HETATM    4  C12 UNL     1      12.634  -6.344  -3.232  1.00  0.00    -0.001 C 
HETATM    5  C13 UNL     1      13.174  -7.244  -4.269  1.00  0.00     0.003 C 
HETATM    6  C14 UNL     1      14.072  -6.670  -5.298  1.00  0.00     0.018 C 
HETATM    7  C15 UNL     1      14.901  -7.853  -5.760  1.00  0.00     0.061 C 
HETATM    8  C16 UNL     1      14.850  -8.050  -7.236  1.00  0.00     0.136 C 
HETATM    9  C22 UNL     1      13.629  -8.745  -7.730  1.00  0.00     0.261 C 
HETATM   10  F1  UNL     1      13.573  -8.887  -9.078  1.00  0.00    -0.239 F 
HETATM   11  C23 UNL     1      13.637 -10.110  -7.048  1.00  0.00     0.159 C 
HETATM   12  C24 UNL     1      13.521  -9.951  -5.553  1.00  0.00     0.045 C 
HETATM   13  C25 UNL     1      14.495  -9.031  -4.950  1.00  0.00    -0.021 C 
HETATM   14  C26 UNL     1      15.751  -9.838  -4.588  1.00  0.00     0.017 C 
HETATM   15  C27 UNL     1      14.065  -8.348  -3.679  1.00  0.00     0.069 C 
HETATM   16  C28 UNL     1      13.203  -9.099  -2.787  1.00  0.00     0.133 C 
HETATM   17  O6  UNL     1      12.972 -10.280  -2.820  1.00  0.00    -0.298 OA
HETATM   18  C29 UNL     1      12.516  -8.321  -1.696  1.00  0.00     0.088 C 
HETATM   19  C30 UNL     1      12.743  -6.836  -1.808  1.00  0.00    -0.029 C 
HETATM   20  C31 UNL     1      14.103  -6.446  -1.232  1.00  0.00     0.016 C 
ENDROOT
BRANCH   8  21
HETATM   21  N1  UNL     1      15.731  -7.678  -7.973  1.00  0.00    -0.287 NA
BRANCH  21  22
HETATM   22  O2  UNL     1      16.864  -7.251  -8.374  1.00  0.00    -0.205 OA
BRANCH  22  23
HETATM   23  C17 UNL     1      17.976  -7.991  -8.746  1.00  0.00     0.272 C 
BRANCH  23  24
HETATM   24  C18 UNL     1      18.644  -8.688  -7.580  1.00  0.00     0.204 C 
HETATM   25  C19 UNL     1      18.933  -7.804  -6.439  1.00  0.00     0.064 C 
HETATM   26  N2  UNL     1      18.326  -6.736  -6.134  1.00  0.00    -0.400 N 
HETATM   27  C20 UNL     1      20.073  -8.403  -5.714  1.00  0.00     0.231 C 
ATOM     28  H22 UNL     1      17.539  -6.323  -6.633  1.00  0.00     0.155 HD
ATOM     29  H21 UNL     1      18.526  -6.123  -5.343  1.00  0.00     0.155 HD
HETATM   30 CL1  UNL     1      19.486  -9.620  -4.585  1.00  0.00    -0.096 Cl
HETATM   31  N3  UNL     1      20.793  -9.109  -6.779  1.00  0.00    -0.335 N 
HETATM   32  C21 UNL     1      19.981  -9.208  -7.938  1.00  0.00     0.262 C 
ATOM     33  H3  UNL     1      21.741  -9.477  -6.698  1.00  0.00     0.164 HD
HETATM   34  O4  UNL     1      20.396  -9.666  -9.037  1.00  0.00    -0.270 OA
BRANCH  24  35
HETATM   35  O3  UNL     1      17.809  -9.736  -7.199  1.00  0.00    -0.372 OA
ATOM     36  H3  UNL     1      18.352 -10.378  -6.756  1.00  0.00     0.211 HD
ENDBRANCH  24  35
ENDBRANCH  23  24
ENDBRANCH  22  23
ENDBRANCH  21  22
ENDBRANCH   8  21
BRANCH  11  37
HETATM   37  O5  UNL     1      14.828 -10.766  -7.323  1.00  0.00    -0.392 OA
ATOM     38  H5  UNL     1      14.965 -11.463  -6.692  1.00  0.00     0.210 HD
ENDBRANCH  11  37
BRANCH   1  39
HETATM   39  C2  UNL     1      11.428  -6.337   0.280  1.00  0.00    -0.014 C 
HETATM   40  C1  UNL     1      10.048  -6.581   0.705  1.00  0.00     0.010 C 
BRANCH  39  41
HETATM   41  C3  UNL     1      12.179  -5.446   1.215  1.00  0.00     0.005 C 
BRANCH  41  42
HETATM   42  C4  UNL     1      12.380  -4.039   0.803  1.00  0.00     0.003 C 
BRANCH  42  43
HETATM   43  C5  UNL     1      12.978  -3.212   1.947  1.00  0.00     0.037 C 
BRANCH  43  44
HETATM   44  C6  UNL     1      14.461  -3.009   1.737  1.00  0.00     0.051 C 
HETATM   45  C7  UNL     1      14.898  -1.762   2.463  1.00  0.00     0.045 C 
HETATM   46  C8  UNL     1      14.838  -2.926   0.297  1.00  0.00     0.045 C 
BRANCH  44  47
HETATM   47  O1  UNL     1      15.153  -4.088   2.305  1.00  0.00    -0.391 OA
ATOM     48  H1  UNL     1      15.232  -4.779   1.658  1.00  0.00     0.210 HD
ENDBRANCH  44  47
ENDBRANCH  43  44
ENDBRANCH  42  43
ENDBRANCH  41  42
ENDBRANCH  39  41
ENDBRANCH   1  39
TORSDOF 12
ENDMDL
MODEL 2
REMARK VINA RESULT: -7.857961367      2.813      4.368
REMARK  12 active torsions:
REMARK  status: ('A' for Active; 'I' for Inactive)
REMARK    1  A    between atoms: C2_2  and  C3_3 
REMARK    2  A    between atoms: C2_2  and  C9_11 
REMARK    3  A    between atoms: C3_3  and  C4_4 
REMARK    4  A    between atoms: C4_4  and  C5_5 
REMARK    5  A    between atoms: C5_5  and  C6_6 
REMARK    6  A    between atoms: C6_6  and  O1_9 
REMARK    7  A    between atoms: C16_18  and  N1_19 
REMARK    8  A    between atoms: N1_19  and  O2_20 
REMARK    9  A    between atoms: O2_20  and  C17_21 
REMARK   10  A    between atoms: C17_21  and  C18_22 
REMARK   11  A    between atoms: C18_22  and  O3_23 
REMARK   12  A    between atoms: C23_37  and  O5_38 
ROOT
HETATM    1  C9  UNL     1      13.129  -6.471  -0.229  1.00  0.00    -0.002 C 
HETATM    2  C10 UNL     1      14.404  -5.741  -0.175  1.00  0.00     0.006 C 
HETATM    3  C11 UNL     1      15.160  -6.178  -1.399  1.00  0.00     0.006 C 
HETATM    4  C12 UNL     1      14.436  -7.456  -1.862  1.00  0.00    -0.001 C 
HETATM    5  C13 UNL     1      14.764  -7.680  -3.282  1.00  0.00     0.003 C 
HETATM    6  C14 UNL     1      15.518  -8.904  -3.642  1.00  0.00     0.018 C 
HETATM    7  C15 UNL     1      15.144  -9.149  -5.092  1.00  0.00     0.061 C 
HETATM    8  C16 UNL     1      16.335  -9.266  -5.981  1.00  0.00     0.136 C 
HETATM    9  C22 UNL     1      16.942  -7.966  -6.383  1.00  0.00     0.261 C 
HETATM   10  F1  UNL     1      18.046  -8.082  -7.162  1.00  0.00    -0.239 F 
HETATM   11  C23 UNL     1      15.839  -7.218  -7.127  1.00  0.00     0.159 C 
HETATM   12  C24 UNL     1      14.681  -6.936  -6.203  1.00  0.00     0.045 C 
HETATM   13  C25 UNL     1      14.161  -8.108  -5.486  1.00  0.00    -0.021 C 
HETATM   14  C26 UNL     1      13.076  -8.756  -6.358  1.00  0.00     0.017 C 
HETATM   15  C27 UNL     1      13.510  -7.836  -4.155  1.00  0.00     0.069 C 
HETATM   16  C28 UNL     1      12.791  -6.585  -4.017  1.00  0.00     0.133 C 
HETATM   17  O6  UNL     1      12.452  -5.837  -4.898  1.00  0.00    -0.298 OA
HETATM   18  C29 UNL     1      12.424  -6.165  -2.618  1.00  0.00     0.088 C 
HETATM   19  C30 UNL     1      13.004  -7.076  -1.567  1.00  0.00    -0.029 C 
HETATM   20  C31 UNL     1      12.158  -8.339  -1.412  1.00  0.00     0.016 C 
ENDROOT
BRANCH   8  21
HETATM   21  N1  UNL     1      16.770 -10.330  -6.349  1.00  0.00    -0.287 NA
BRANCH  21  22
HETATM   22  O2  UNL     1      17.578 -11.297  -6.542  1.00  0.00    -0.205 OA
BRANCH  22  23
HETATM   23  C17 UNL     1      18.170 -12.122  -5.597  1.00  0.00     0.272 C 
BRANCH  23  24
HETATM   24  C18 UNL     1      19.267 -11.434  -4.811  1.00  0.00     0.204 C 
HETATM   25  C19 UNL     1      20.327 -10.847  -5.648  1.00  0.00     0.064 C 
HETATM   26  N2  UNL     1      20.217 -10.458  -6.848  1.00  0.00    -0.400 N 
HETATM   27  C20 UNL     1      21.548 -10.801  -4.818  1.00  0.00     0.231 C 
ATOM     28  H22 UNL     1      19.374 -10.490  -7.421  1.00  0.00     0.155 HD
ATOM     29  H21 UNL     1      20.951 -10.052  -7.428  1.00  0.00     0.155 HD
HETATM   30 CL1  UNL     1      21.547  -9.334  -3.843  1.00  0.00    -0.096 Cl
HETATM   31  N3  UNL     1      21.356 -11.931  -3.903  1.00  0.00    -0.335 N 
HETATM   32  C21 UNL     1      20.012 -12.382  -3.956  1.00  0.00     0.262 C 
ATOM     33  H3  UNL     1      22.084 -12.335  -3.314  1.00  0.00     0.164 HD
HETATM   34  O4  UNL     1      19.605 -13.414  -3.357  1.00  0.00    -0.270 OA
BRANCH  24  35
HETATM   35  O3  UNL     1      18.656 -10.459  -4.025  1.00  0.00    -0.372 OA
ATOM     36  H3  UNL     1      19.112  -9.642  -4.190  1.00  0.00     0.211 HD
ENDBRANCH  24  35
ENDBRANCH  23  24
ENDBRANCH  22  23
ENDBRANCH  21  22
ENDBRANCH   8  21
BRANCH  11  37
HETATM   37  O5  UNL     1      15.374  -7.991  -8.181  1.00  0.00    -0.392 OA
ATOM     38  H5  UNL     1      14.775  -7.482  -8.714  1.00  0.00     0.210 HD
ENDBRANCH  11  37
BRANCH   1  39
HETATM   39  C2  UNL     1      11.924  -5.811   0.323  1.00  0.00    -0.014 C 
HETATM   40  C1  UNL     1      11.984  -4.425   0.790  1.00  0.00     0.010 C 
BRANCH  39  41
HETATM   41  C3  UNL     1      11.200  -6.715   1.267  1.00  0.00     0.005 C 
BRANCH  41  42
HETATM   42  C4  UNL     1       9.722  -6.657   1.268  1.00  0.00     0.003 C 
BRANCH  42  43
HETATM   43  C5  UNL     1       9.156  -7.083   2.628  1.00  0.00     0.037 C 
BRANCH  43  44
HETATM   44  C6  UNL     1       8.048  -8.095   2.449  1.00  0.00     0.051 C 
HETATM   45  C7  UNL     1       8.420  -9.368   3.167  1.00  0.00     0.045 C 
HETATM   46  C8  UNL     1       7.747  -8.381   1.016  1.00  0.00     0.045 C 
BRANCH  44  47
HETATM   47  O1  UNL     1       6.880  -7.603   3.048  1.00  0.00    -0.391 OA
ATOM     48  H1  UNL     1       6.127  -8.001   2.629  1.00  0.00     0.210 HD
ENDBRANCH  44  47
ENDBRANCH  43  44
ENDBRANCH  42  43
ENDBRANCH  41  42
ENDBRANCH  39  41
ENDBRANCH   1  39
TORSDOF 12
ENDMDL
MODEL 3
REMARK VINA RESULT: -7.756811085      3.700      5.186
REMARK  12 active torsions:
REMARK  status: ('A' for Active; 'I' for Inactive)
REMARK    1  A    between atoms: C2_2  and  C3_3 
REMARK    2  A    between atoms: C2_2  and  C9_11 
REMARK    3  A    between atoms: C3_3  and  C4_4 
REMARK    4  A    between atoms: C4_4  and  C5_5 
REMARK    5  A    between atoms: C5_5  and  C6_6 
REMARK    6  A    between atoms: C6_6  and  O1_9 
REMARK    7  A    between atoms: C16_18  and  N1_19 
REMARK    8  A    between atoms: N1_19  and  O2_20 
REMARK    9  A    between atoms: O2_20  and  C17_21 
REMARK   10  A    between atoms: C17_21  and  C18_22 
REMARK   11  A    between atoms: C18_22  and  O3_23 
REMARK   12  A    between atoms: C23_37  and  O5_38 
ROOT
HETATM    1  C9  UNL     1      11.553  -7.263  -2.203  1.00  0.00    -0.002 C 
HETATM    2  C10 UNL     1      12.346  -6.111  -1.748  1.00  0.00     0.006 C 
HETATM    3  C11 UNL     1      13.733  -6.357  -2.273  1.00  0.00     0.006 C 
HETATM    4  C12 UNL     1      13.745  -7.851  -2.645  1.00  0.00    -0.001 C 
HETATM    5  C13 UNL     1      14.847  -8.077  -3.598  1.00  0.00     0.003 C 
HETATM    6  C14 UNL     1      15.959  -8.964  -3.186  1.00  0.00     0.018 C 
HETATM    7  C15 UNL     1      16.526  -9.473  -4.498  1.00  0.00     0.061 C 
HETATM    8  C16 UNL     1      17.991  -9.228  -4.625  1.00  0.00     0.136 C 
HETATM    9  C22 UNL     1      18.358  -7.843  -5.032  1.00  0.00     0.261 C 
HETATM   10  F1  UNL     1      19.694  -7.618  -5.109  1.00  0.00    -0.239 F 
HETATM   11  C23 UNL     1      17.701  -7.634  -6.393  1.00  0.00     0.159 C 
HETATM   12  C24 UNL     1      16.200  -7.710  -6.268  1.00  0.00     0.045 C 
HETATM   13  C25 UNL     1      15.695  -8.914  -5.594  1.00  0.00    -0.021 C 
HETATM   14  C26 UNL     1      15.483 -10.001  -6.658  1.00  0.00     0.017 C 
HETATM   15  C27 UNL     1      14.375  -8.772  -4.884  1.00  0.00     0.069 C 
HETATM   16  C28 UNL     1      13.404  -7.869  -5.472  1.00  0.00     0.133 C 
HETATM   17  O6  UNL     1      13.428  -7.391  -6.577  1.00  0.00    -0.298 OA
HETATM   18  C29 UNL     1      12.233  -7.479  -4.609  1.00  0.00     0.088 C 
HETATM   19  C30 UNL     1      12.348  -8.001  -3.201  1.00  0.00    -0.029 C 
HETATM   20  C31 UNL     1      11.919  -9.465  -3.124  1.00  0.00     0.016 C 
ENDROOT
BRANCH   8  21
HETATM   21  N1  UNL     1      18.814 -10.086  -4.418  1.00  0.00    -0.287 NA
BRANCH  21  22
HETATM   22  O2  UNL     1      19.329 -11.202  -4.079  1.00  0.00    -0.205 OA
BRANCH  22  23
HETATM   23  C17 UNL     1      19.049 -12.464  -4.581  1.00  0.00     0.272 C 
BRANCH  23  24
HETATM   24  C18 UNL     1      19.582 -13.582  -3.709  1.00  0.00     0.204 C 
HETATM   25  C19 UNL     1      21.034 -13.790  -3.823  1.00  0.00     0.064 C 
HETATM   26  N2  UNL     1      21.900 -12.930  -4.161  1.00  0.00    -0.400 N 
HETATM   27  C20 UNL     1      21.291 -15.201  -3.468  1.00  0.00     0.231 C 
ATOM     28  H22 UNL     1      21.723 -11.956  -4.407  1.00  0.00     0.155 HD
ATOM     29  H21 UNL     1      22.907 -13.075  -4.240  1.00  0.00     0.155 HD
HETATM   30 CL1  UNL     1      21.435 -15.356  -1.719  1.00  0.00    -0.096 Cl
HETATM   31  N3  UNL     1      20.042 -15.862  -3.861  1.00  0.00    -0.335 N 
HETATM   32  C21 UNL     1      19.030 -14.897  -4.099  1.00  0.00     0.262 C 
ATOM     33  H3  UNL     1      19.919 -16.871  -3.950  1.00  0.00     0.164 HD
HETATM   34  O4  UNL     1      17.893 -15.186  -4.562  1.00  0.00    -0.270 OA
BRANCH  24  35
HETATM   35  O3  UNL     1      19.223 -13.282  -2.397  1.00  0.00    -0.372 OA
ATOM     36  H3  UNL     1      19.726 -13.857  -1.832  1.00  0.00     0.211 HD
ENDBRANCH  24  35
ENDBRANCH  23  24
ENDBRANCH  22  23
ENDBRANCH  21  22
ENDBRANCH   8  21
BRANCH  11  37
HETATM   37  O5  UNL     1      18.114  -8.624  -7.272  1.00  0.00    -0.392 OA
ATOM     38  H5  UNL     1      17.460  -8.746  -7.950  1.00  0.00     0.210 HD
ENDBRANCH  11  37
BRANCH   1  39
HETATM   39  C2  UNL     1      10.122  -7.045  -2.516  1.00  0.00    -0.014 C 
HETATM   40  C1  UNL     1       9.652  -5.734  -2.966  1.00  0.00     0.010 C 
BRANCH  39  41
HETATM   41  C3  UNL     1       9.244  -7.654  -1.472  1.00  0.00     0.005 C 
BRANCH  41  42
HETATM   42  C4  UNL     1       8.869  -6.807  -0.318  1.00  0.00     0.003 C 
BRANCH  42  43
HETATM   43  C5  UNL     1       8.400  -7.665   0.862  1.00  0.00     0.037 C 
BRANCH  43  44
HETATM   44  C6  UNL     1       9.074  -7.223   2.141  1.00  0.00     0.051 C 
HETATM   45  C7  UNL     1      10.461  -6.725   1.823  1.00  0.00     0.045 C 
HETATM   46  C8  UNL     1       9.137  -8.302   3.168  1.00  0.00     0.045 C 
BRANCH  44  47
HETATM   47  O1  UNL     1       8.358  -6.148   2.685  1.00  0.00    -0.391 OA
ATOM     48  H1  UNL     1       7.497  -6.451   2.948  1.00  0.00     0.210 HD
ENDBRANCH  44  47
ENDBRANCH  43  44
ENDBRANCH  42  43
ENDBRANCH  41  42
ENDBRANCH  39  41
ENDBRANCH   1  39
TORSDOF 12
ENDMDL
MODEL 4
REMARK VINA RESULT: -7.681836865      2.358      3.328
REMARK  12 active torsions:
REMARK  status: ('A' for Active; 'I' for Inactive)
REMARK    1  A    between atoms: C2_2  and  C3_3 
REMARK    2  A    between atoms: C2_2  and  C9_11 
REMARK    3  A    between atoms: C3_3  and  C4_4 
REMARK    4  A    between atoms: C4_4  and  C5_5 
REMARK    5  A    between atoms: C5_5  and  C6_6 
REMARK    6  A    between atoms: C6_6  and  O1_9 
REMARK    7  A    between atoms: C16_18  and  N1_19 
REMARK    8  A    between atoms: N1_19  and  O2_20 
REMARK    9  A    between atoms: O2_20  and  C17_21 
REMARK   10  A    between atoms: C17_21  and  C18_22 
REMARK   11  A    between atoms: C18_22  and  O3_23 
REMARK   12  A    between atoms: C23_37  and  O5_38 
ROOT
HETATM    1  C9  UNL     1      13.446  -6.333   0.096  1.00  0.00    -0.002 C 
HETATM    2  C10 UNL     1      14.727  -5.615   0.039  1.00  0.00     0.006 C 
HETATM    3  C11 UNL     1      15.385  -6.083  -1.229  1.00  0.00     0.006 C 
HETATM    4  C12 UNL     1      14.618  -7.362  -1.611  1.00  0.00    -0.001 C 
HETATM    5  C13 UNL     1      14.836  -7.617  -3.047  1.00  0.00     0.003 C 
HETATM    6  C14 UNL     1      15.550  -8.855  -3.438  1.00  0.00     0.018 C 
HETATM    7  C15 UNL     1      15.067  -9.125  -4.850  1.00  0.00     0.061 C 
HETATM    8  C16 UNL     1      16.185  -9.270  -5.824  1.00  0.00     0.136 C 
HETATM    9  C22 UNL     1      16.771  -7.985  -6.296  1.00  0.00     0.261 C 
HETATM   10  F1  UNL     1      17.813  -8.127  -7.154  1.00  0.00    -0.239 F 
HETATM   11  C23 UNL     1      15.622  -7.241  -6.970  1.00  0.00     0.159 C 
HETATM   12  C24 UNL     1      14.540  -6.929  -5.968  1.00  0.00     0.045 C 
HETATM   13  C25 UNL     1      14.065  -8.081  -5.190  1.00  0.00    -0.021 C 
HETATM   14  C26 UNL     1      12.912  -8.736  -5.965  1.00  0.00     0.017 C 
HETATM   15  C27 UNL     1      13.519  -7.778  -3.820  1.00  0.00     0.069 C 
HETATM   16  C28 UNL     1      12.822  -6.517  -3.653  1.00  0.00     0.133 C 
HETATM   17  O6  UNL     1      12.424  -5.783  -4.521  1.00  0.00    -0.298 OA
HETATM   18  C29 UNL     1      12.565  -6.067  -2.239  1.00  0.00     0.088 C 
HETATM   19  C30 UNL     1      13.215  -6.963  -1.217  1.00  0.00    -0.029 C 
HETATM   20  C31 UNL     1      12.373  -8.214  -0.973  1.00  0.00     0.016 C 
ENDROOT
BRANCH   8  21
HETATM   21  N1  UNL     1      16.583 -10.345  -6.202  1.00  0.00    -0.287 NA
BRANCH  21  22
HETATM   22  O2  UNL     1      17.347 -11.350  -6.380  1.00  0.00    -0.205 OA
BRANCH  22  23
HETATM   23  C17 UNL     1      17.948 -12.152  -5.421  1.00  0.00     0.272 C 
BRANCH  23  24
HETATM   24  C18 UNL     1      19.106 -11.473  -4.721  1.00  0.00     0.204 C 
HETATM   25  C19 UNL     1      20.124 -10.930  -5.634  1.00  0.00     0.064 C 
HETATM   26  N2  UNL     1      19.948 -10.563  -6.833  1.00  0.00    -0.400 N 
HETATM   27  C20 UNL     1      21.395 -10.893  -4.883  1.00  0.00     0.231 C 
ATOM     28  H22 UNL     1      19.071 -10.587  -7.352  1.00  0.00     0.155 HD
ATOM     29  H21 UNL     1      20.654 -10.186  -7.466  1.00  0.00     0.155 HD
HETATM   30 CL1  UNL     1      21.487  -9.407  -3.942  1.00  0.00    -0.096 Cl
HETATM   31  N3  UNL     1      21.236 -11.999  -3.933  1.00  0.00    -0.335 N 
HETATM   32  C21 UNL     1      19.883 -12.421  -3.892  1.00  0.00     0.262 C 
ATOM     33  H3  UNL     1      21.991 -12.407  -3.380  1.00  0.00     0.164 HD
HETATM   34  O4  UNL     1      19.491 -13.430  -3.245  1.00  0.00    -0.270 OA
BRANCH  24  35
HETATM   35  O3  UNL     1      18.567 -10.468  -3.920  1.00  0.00    -0.372 OA
ATOM     36  H3  UNL     1      19.010  -9.660  -4.152  1.00  0.00     0.211 HD
ENDBRANCH  24  35
ENDBRANCH  23  24
ENDBRANCH  22  23
ENDBRANCH  21  22
ENDBRANCH   8  21
BRANCH  11  37
HETATM   37  O5  UNL     1      15.073  -8.029  -7.971  1.00  0.00    -0.392 OA
ATOM     38  H5  UNL     1      14.161  -7.795  -8.101  1.00  0.00     0.210 HD
ENDBRANCH  11  37
BRANCH   1  39
HETATM   39  C2  UNL     1      12.291  -5.651   0.724  1.00  0.00    -0.014 C 
HETATM   40  C1  UNL     1      10.923  -6.066   0.407  1.00  0.00     0.010 C 
BRANCH  39  41
HETATM   41  C3  UNL     1      12.470  -4.168   0.711  1.00  0.00     0.005 C 
BRANCH  41  42
HETATM   42  C4  UNL     1      12.537  -3.479   2.019  1.00  0.00     0.003 C 
BRANCH  42  43
HETATM   43  C5  UNL     1      13.983  -3.111   2.372  1.00  0.00     0.037 C 
BRANCH  43  44
HETATM   44  C6  UNL     1      14.049  -2.467   3.738  1.00  0.00     0.051 C 
HETATM   45  C7  UNL     1      12.659  -2.398   4.320  1.00  0.00     0.045 C 
HETATM   46  C8  UNL     1      14.664  -1.109   3.711  1.00  0.00     0.045 C 
BRANCH  44  47
HETATM   47  O1  UNL     1      14.818  -3.276   4.586  1.00  0.00    -0.391 OA
ATOM     48  H1  UNL     1      15.015  -2.792   5.379  1.00  0.00     0.210 HD
ENDBRANCH  44  47
ENDBRANCH  43  44
ENDBRANCH  42  43
ENDBRANCH  41  42
ENDBRANCH  39  41
ENDBRANCH   1  39
TORSDOF 12
ENDMDL
MODEL 5
REMARK VINA RESULT: -7.671401410      3.410      4.834
REMARK  12 active torsions:
REMARK  status: ('A' for Active; 'I' for Inactive)
REMARK    1  A    between atoms: C2_2  and  C3_3 
REMARK    2  A    between atoms: C2_2  and  C9_11 
REMARK    3  A    between atoms: C3_3  and  C4_4 
REMARK    4  A    between atoms: C4_4  and  C5_5 
REMARK    5  A    between atoms: C5_5  and  C6_6 
REMARK    6  A    between atoms: C6_6  and  O1_9 
REMARK    7  A    between atoms: C16_18  and  N1_19 
REMARK    8  A    between atoms: N1_19  and  O2_20 
REMARK    9  A    between atoms: O2_20  and  C17_21 
REMARK   10  A    between atoms: C17_21  and  C18_22 
REMARK   11  A    between atoms: C18_22  and  O3_23 
REMARK   12  A    between atoms: C23_37  and  O5_38 
ROOT
HETATM    1  C9  UNL     1      13.121  -6.299  -0.037  1.00  0.00    -0.002 C 
HETATM    2  C10 UNL     1      14.374  -5.534   0.027  1.00  0.00     0.006 C 
HETATM    3  C11 UNL     1      15.198  -6.029  -1.129  1.00  0.00     0.006 C 
HETATM    4  C12 UNL     1      14.527  -7.353  -1.540  1.00  0.00    -0.001 C 
HETATM    5  C13 UNL     1      14.928  -7.660  -2.925  1.00  0.00     0.003 C 
HETATM    6  C14 UNL     1      15.727  -8.883  -3.169  1.00  0.00     0.018 C 
HETATM    7  C15 UNL     1      15.429  -9.232  -4.615  1.00  0.00     0.061 C 
HETATM    8  C16 UNL     1      16.663  -9.374  -5.438  1.00  0.00     0.136 C 
HETATM    9  C22 UNL     1      17.258  -8.088  -5.896  1.00  0.00     0.261 C 
HETATM   10  F1  UNL     1      18.401  -8.225  -6.614  1.00  0.00    -0.239 F 
HETATM   11  C23 UNL     1      16.175  -7.419  -6.738  1.00  0.00     0.159 C 
HETATM   12  C24 UNL     1      14.968  -7.108  -5.890  1.00  0.00     0.045 C 
HETATM   13  C25 UNL     1      14.442  -8.244  -5.121  1.00  0.00    -0.021 C 
HETATM   14  C26 UNL     1      13.415  -8.977  -5.999  1.00  0.00     0.017 C 
HETATM   15  C27 UNL     1      13.722  -7.905  -3.844  1.00  0.00     0.069 C 
HETATM   16  C28 UNL     1      12.967  -6.667  -3.822  1.00  0.00     0.133 C 
HETATM   17  O6  UNL     1      12.654  -5.987  -4.765  1.00  0.00    -0.298 OA
HETATM   18  C29 UNL     1      12.524  -6.168  -2.471  1.00  0.00     0.088 C 
HETATM   19  C30 UNL     1      13.074  -6.993  -1.337  1.00  0.00    -0.029 C 
HETATM   20  C31 UNL     1      12.252  -8.265  -1.139  1.00  0.00     0.016 C 
ENDROOT
BRANCH   8  21
HETATM   21  N1  UNL     1      17.141 -10.448  -5.714  1.00  0.00    -0.287 NA
BRANCH  21  22
HETATM   22  O2  UNL     1      17.412 -11.692  -5.663  1.00  0.00    -0.205 OA
BRANCH  22  23
HETATM   23  C17 UNL     1      18.555 -12.340  -6.108  1.00  0.00     0.272 C 
BRANCH  23  24
HETATM   24  C18 UNL     1      19.264 -13.111  -5.014  1.00  0.00     0.204 C 
HETATM   25  C19 UNL     1      18.370 -13.936  -4.186  1.00  0.00     0.064 C 
HETATM   26  N2  UNL     1      17.252 -14.421  -4.528  1.00  0.00    -0.400 N 
HETATM   27  C20 UNL     1      19.029 -14.092  -2.873  1.00  0.00     0.231 C 
ATOM     28  H22 UNL     1      16.797 -14.314  -5.434  1.00  0.00     0.155 HD
ATOM     29  H21 UNL     1      16.632 -14.993  -3.954  1.00  0.00     0.155 HD
HETATM   30 CL1  UNL     1      20.166 -15.436  -2.934  1.00  0.00    -0.096 Cl
HETATM   31  N3  UNL     1      19.818 -12.861  -2.763  1.00  0.00    -0.335 N 
HETATM   32  C21 UNL     1      19.891 -12.211  -4.022  1.00  0.00     0.262 C 
ATOM     33  H3  UNL     1      20.253 -12.520  -1.905  1.00  0.00     0.164 HD
HETATM   34  O4  UNL     1      20.411 -11.074  -4.185  1.00  0.00    -0.270 OA
BRANCH  24  35
HETATM   35  O3  UNL     1      20.236 -13.895  -5.632  1.00  0.00    -0.372 OA
ATOM     36  H3  UNL     1      21.079 -13.507  -5.426  1.00  0.00     0.211 HD
ENDBRANCH  24  35
ENDBRANCH  23  24
ENDBRANCH  22  23
ENDBRANCH  21  22
ENDBRANCH   8  21
BRANCH  11  37
HETATM   37  O5  UNL     1      15.780  -8.270  -7.760  1.00  0.00    -0.392 OA
ATOM     38  H5  UNL     1      15.058  -7.883  -8.241  1.00  0.00     0.210 HD
ENDBRANCH  11  37
BRANCH   1  39
HETATM   39  C2  UNL     1      11.875  -5.638   0.413  1.00  0.00    -0.014 C 
HETATM   40  C1  UNL     1      11.888  -4.233   0.826  1.00  0.00     0.010 C 
BRANCH  39  41
HETATM   41  C3  UNL     1      11.108  -6.514   1.349  1.00  0.00     0.005 C 
BRANCH  41  42
HETATM   42  C4  UNL     1       9.640  -6.578   1.173  1.00  0.00     0.003 C 
BRANCH  42  43
HETATM   43  C5  UNL     1       8.941  -6.880   2.504  1.00  0.00     0.037 C 
BRANCH  43  44
HETATM   44  C6  UNL     1       7.943  -8.003   2.336  1.00  0.00     0.051 C 
HETATM   45  C7  UNL     1       8.423  -9.211   3.101  1.00  0.00     0.045 C 
HETATM   46  C8  UNL     1       7.703  -8.359   0.908  1.00  0.00     0.045 C 
BRANCH  44  47
HETATM   47  O1  UNL     1       6.719  -7.612   2.897  1.00  0.00    -0.391 OA
ATOM     48  H1  UNL     1       6.596  -8.072   3.719  1.00  0.00     0.210 HD
ENDBRANCH  44  47
ENDBRANCH  43  44
ENDBRANCH  42  43
ENDBRANCH  41  42
ENDBRANCH  39  41
ENDBRANCH   1  39
TORSDOF 12
ENDMDL
