MODEL 1
REMARK VINA RESULT: -6.968252261      0.000      0.000
REMARK  12 active torsions:
REMARK  status: ('A' for Active; 'I' for Inactive)
REMARK    1  A    between atoms: C2_2  and  C3_3 
REMARK    2  A    between atoms: C3_3  and  S1_4 
REMARK    3  A    between atoms: S1_4  and  C4_5 
REMARK    4  A    between atoms: C9_11  and  O1_12 
REMARK    5  A    between atoms: C13_17  and  O2_18 
REMARK    6  A    between atoms: C23_29  and  O3_30 
REMARK    7  A    between atoms: O3_30  and  C24_31 
REMARK    8  A    between atoms: C24_31  and  C25_33 
REMARK    9  A    between atoms: C25_33  and  N1_34 
REMARK   10  A    between atoms: N1_34  and  C26_36 
REMARK   11  A    between atoms: C26_36  and  C27_37 
REMARK   12  A    between atoms: C27_37  and  O5_38 
ROOT
HETATM    1  C4  UNL     1      12.602  -8.604  -5.693  1.00  0.00     0.048 C 
HETATM    2  C5  UNL     1      11.328  -8.620  -4.973  1.00  0.00     0.037 C 
HETATM    3  C6  UNL     1      11.192  -9.171  -3.652  1.00  0.00     0.111 C 
HETATM    4  F1  UNL     1      10.762 -10.473  -3.448  1.00  0.00    -0.207 F 
HETATM    5  C7  UNL     1      11.431  -8.521  -2.546  1.00  0.00     0.023 C 
HETATM    6  C8  UNL     1      11.881  -7.106  -2.497  1.00  0.00     0.045 C 
HETATM    7  C9  UNL     1      10.833  -6.223  -1.871  1.00  0.00     0.126 C 
HETATM    8  C10 UNL     1      11.018  -6.089  -0.386  1.00  0.00     0.038 C 
HETATM    9  C11 UNL     1      12.354  -5.356  -0.241  1.00  0.00    -0.001 C 
HETATM   10  C12 UNL     1      12.578  -4.934   1.170  1.00  0.00     0.037 C 
HETATM   11  C13 UNL     1      13.822  -4.099   1.265  1.00  0.00     0.118 C 
HETATM   12  C14 UNL     1      15.009  -4.690   0.594  1.00  0.00     0.032 C 
HETATM   13  C15 UNL     1      14.726  -5.381  -0.714  1.00  0.00     0.012 C 
HETATM   14  C16 UNL     1      13.473  -6.243  -0.683  1.00  0.00    -0.036 C 
HETATM   15  C17 UNL     1      13.700  -7.225   0.480  1.00  0.00     0.016 C 
HETATM   16  C18 UNL     1      13.261  -6.989  -1.925  1.00  0.00     0.004 C 
HETATM   17  C19 UNL     1      14.165  -6.580  -3.097  1.00  0.00     0.006 C 
HETATM   18  C20 UNL     1      14.351  -7.803  -4.002  1.00  0.00     0.007 C 
HETATM   19  C21 UNL     1      13.680  -7.679  -5.295  1.00  0.00     0.012 C 
HETATM   20  C22 UNL     1      14.695  -7.969  -6.409  1.00  0.00     0.040 C 
HETATM   21  C23 UNL     1      14.519  -9.446  -6.736  1.00  0.00     0.148 C 
HETATM   22  C28 UNL     1      13.216  -9.891  -6.119  1.00  0.00     0.110 C 
HETATM   23 BR1  UNL     1      13.617 -11.128  -4.731  1.00  0.00    -0.086 Br
ENDROOT
BRANCH  21  24
HETATM   24  O3  UNL     1      15.607 -10.198  -6.241  1.00  0.00    -0.310 OA
BRANCH  24  25
HETATM   25  C24 UNL     1      16.865  -9.554  -6.183  1.00  0.00     0.298 C 
HETATM   26  O4  UNL     1      17.351  -9.100  -7.229  1.00  0.00    -0.259 OA
BRANCH  25  27
HETATM   27  C25 UNL     1      17.553  -9.436  -4.889  1.00  0.00     0.166 C 
BRANCH  27  28
HETATM   28  N1  UNL     1      18.173  -8.199  -4.654  1.00  0.00    -0.392 N 
ATOM     29  H1  UNL     1      17.639  -7.356  -4.442  1.00  0.00     0.159 HD
BRANCH  28  30
HETATM   30  C26 UNL     1      19.582  -8.194  -4.730  1.00  0.00     0.145 C 
BRANCH  30  31
HETATM   31  C27 UNL     1      19.971  -7.192  -5.838  1.00  0.00     0.183 C 
BRANCH  31  32
HETATM   32  O5  UNL     1      18.839  -6.458  -6.191  1.00  0.00    -0.399 OA
ATOM     33  H5  UNL     1      19.099  -5.769  -6.791  1.00  0.00     0.209 HD
ENDBRANCH  31  32
ENDBRANCH  30  31
ENDBRANCH  28  30
ENDBRANCH  27  28
ENDBRANCH  25  27
ENDBRANCH  24  25
ENDBRANCH  21  24
BRANCH   1  34
HETATM   34  S1  UNL     1      12.107  -7.877  -7.346  1.00  0.00    -0.153 SA
BRANCH  34  35
HETATM   35  C3  UNL     1      10.723  -6.743  -7.116  1.00  0.00     0.075 C 
BRANCH  35  36
HETATM   36  C2  UNL     1      11.323  -5.399  -6.678  1.00  0.00     0.006 C 
HETATM   37  C1  UNL     1      10.664  -5.013  -5.381  1.00  0.00     0.006 C 
ENDBRANCH  35  36
ENDBRANCH  34  35
ENDBRANCH   1  34
BRANCH   7  38
HETATM   38  O1  UNL     1       9.596  -6.779  -2.199  1.00  0.00    -0.395 OA
ATOM     39  H1  UNL     1       9.150  -6.953  -1.378  1.00  0.00     0.210 HD
ENDBRANCH   7  38
BRANCH  11  40
HETATM   40  O2  UNL     1      13.525  -2.804   0.816  1.00  0.00    -0.396 OA
ATOM     41  H2  UNL     1      14.279  -2.248   0.976  1.00  0.00     0.210 HD
ENDBRANCH  11  40
TORSDOF 12
ENDMDL
MODEL 2
REMARK VINA RESULT: -6.907557575      1.151      1.427
REMARK  12 active torsions:
REMARK  status: ('A' for Active; 'I' for Inactive)
REMARK    1  A    between atoms: C2_2  and  C3_3 
REMARK    2  A    between atoms: C3_3  and  S1_4 
REMARK    3  A    between atoms: S1_4  and  C4_5 
REMARK    4  A    between atoms: C9_11  and  O1_12 
REMARK    5  A    between atoms: C13_17  and  O2_18 
REMARK    6  A    between atoms: C23_29  and  O3_30 
REMARK    7  A    between atoms: O3_30  and  C24_31 
REMARK    8  A    between atoms: C24_31  and  C25_33 
REMARK    9  A    between atoms: C25_33  and  N1_34 
REMARK   10  A    between atoms: N1_34  and  C26_36 
REMARK   11  A    between atoms: C26_36  and  C27_37 
REMARK   12  A    between atoms: C27_37  and  O5_38 
ROOT
HETATM    1  C4  UNL     1      13.361  -8.288  -5.968  1.00  0.00     0.048 C 
HETATM    2  C5  UNL     1      12.139  -8.814  -5.357  1.00  0.00     0.037 C 
HETATM    3  C6  UNL     1      12.140  -9.510  -4.099  1.00  0.00     0.111 C 
HETATM    4  F1  UNL     1      12.183 -10.894  -4.032  1.00  0.00    -0.207 F 
HETATM    5  C7  UNL     1      12.082  -8.933  -2.930  1.00  0.00     0.023 C 
HETATM    6  C8  UNL     1      12.006  -7.462  -2.733  1.00  0.00     0.045 C 
HETATM    7  C9  UNL     1      10.685  -7.062  -2.127  1.00  0.00     0.126 C 
HETATM    8  C10 UNL     1      10.738  -7.024  -0.627  1.00  0.00     0.038 C 
HETATM    9  C11 UNL     1      11.725  -5.895  -0.316  1.00  0.00    -0.001 C 
HETATM   10  C12 UNL     1      11.718  -5.568   1.137  1.00  0.00     0.037 C 
HETATM   11  C13 UNL     1      12.585  -4.371   1.397  1.00  0.00     0.118 C 
HETATM   12  C14 UNL     1      13.934  -4.446   0.781  1.00  0.00     0.032 C 
HETATM   13  C15 UNL     1      13.976  -5.056  -0.596  1.00  0.00     0.012 C 
HETATM   14  C16 UNL     1      13.104  -6.294  -0.734  1.00  0.00    -0.036 C 
HETATM   15  C17 UNL     1      13.603  -7.251   0.363  1.00  0.00     0.016 C 
HETATM   16  C18 UNL     1      13.228  -6.937  -2.043  1.00  0.00     0.004 C 
HETATM   17  C19 UNL     1      13.988  -6.126  -3.102  1.00  0.00     0.006 C 
HETATM   18  C20 UNL     1      14.634  -7.111  -4.083  1.00  0.00     0.007 C 
HETATM   19  C21 UNL     1      14.026  -7.095  -5.412  1.00  0.00     0.012 C 
HETATM   20  C22 UNL     1      15.132  -6.904  -6.458  1.00  0.00     0.040 C 
HETATM   21  C23 UNL     1      15.500  -8.309  -6.913  1.00  0.00     0.148 C 
HETATM   22  C28 UNL     1      14.406  -9.236  -6.442  1.00  0.00     0.110 C 
HETATM   23 BR1  UNL     1      15.146 -10.393  -5.126  1.00  0.00    -0.086 Br
ENDROOT
BRANCH  21  24
HETATM   24  O3  UNL     1      16.757  -8.688  -6.392  1.00  0.00    -0.310 OA
BRANCH  24  25
HETATM   25  C24 UNL     1      17.896  -8.025  -6.904  1.00  0.00     0.298 C 
HETATM   26  O4  UNL     1      18.150  -8.124  -8.113  1.00  0.00    -0.259 OA
BRANCH  25  27
HETATM   27  C25 UNL     1      18.737  -7.234  -5.993  1.00  0.00     0.166 C 
BRANCH  27  28
HETATM   28  N1  UNL     1      19.049  -7.860  -4.777  1.00  0.00    -0.392 N 
ATOM     29  H1  UNL     1      18.432  -7.809  -3.966  1.00  0.00     0.159 HD
BRANCH  28  30
HETATM   30  C26 UNL     1      20.271  -8.565  -4.745  1.00  0.00     0.145 C 
BRANCH  30  31
HETATM   31  C27 UNL     1      19.924 -10.061  -4.585  1.00  0.00     0.183 C 
BRANCH  31  32
HETATM   32  O5  UNL     1      18.583 -10.170  -4.219  1.00  0.00    -0.399 OA
ATOM     33  H5  UNL     1      18.527 -10.154  -3.270  1.00  0.00     0.209 HD
ENDBRANCH  31  32
ENDBRANCH  30  31
ENDBRANCH  28  30
ENDBRANCH  27  28
ENDBRANCH  25  27
ENDBRANCH  24  25
ENDBRANCH  21  24
BRANCH   1  34
HETATM   34  S1  UNL     1      12.724  -7.612  -7.593  1.00  0.00    -0.153 SA
BRANCH  34  35
HETATM   35  C3  UNL     1      11.130  -6.811  -7.331  1.00  0.00     0.075 C 
BRANCH  35  36
HETATM   36  C2  UNL     1      11.427  -5.400  -6.801  1.00  0.00     0.006 C 
HETATM   37  C1  UNL     1      10.748  -5.268  -5.466  1.00  0.00     0.006 C 
ENDBRANCH  35  36
ENDBRANCH  34  35
ENDBRANCH   1  34
BRANCH   7  38
HETATM   38  O1  UNL     1       9.738  -7.972  -2.598  1.00  0.00    -0.395 OA
ATOM     39  H1  UNL     1      10.017  -8.228  -3.469  1.00  0.00     0.210 HD
ENDBRANCH   7  38
BRANCH  11  40
HETATM   40  O2  UNL     1      11.876  -3.218   1.029  1.00  0.00    -0.396 OA
ATOM     41  H2  UNL     1      10.998  -3.275   1.387  1.00  0.00     0.210 HD
ENDBRANCH  11  40
TORSDOF 12
ENDMDL
MODEL 3
REMARK VINA RESULT: -6.893843057      1.039      1.175
REMARK  12 active torsions:
REMARK  status: ('A' for Active; 'I' for Inactive)
REMARK    1  A    between atoms: C2_2  and  C3_3 
REMARK    2  A    between atoms: C3_3  and  S1_4 
REMARK    3  A    between atoms: S1_4  and  C4_5 
REMARK    4  A    between atoms: C9_11  and  O1_12 
REMARK    5  A    between atoms: C13_17  and  O2_18 
REMARK    6  A    between atoms: C23_29  and  O3_30 
REMARK    7  A    between atoms: O3_30  and  C24_31 
REMARK    8  A    between atoms: C24_31  and  C25_33 
REMARK    9  A    between atoms: C25_33  and  N1_34 
REMARK   10  A    between atoms: N1_34  and  C26_36 
REMARK   11  A    between atoms: C26_36  and  C27_37 
REMARK   12  A    between atoms: C27_37  and  O5_38 
ROOT
HETATM    1  C4  UNL     1      12.596  -8.344  -5.633  1.00  0.00     0.048 C 
HETATM    2  C5  UNL     1      11.446  -8.657  -4.782  1.00  0.00     0.037 C 
HETATM    3  C6  UNL     1      11.584  -9.280  -3.494  1.00  0.00     0.111 C 
HETATM    4  F1  UNL     1      11.455 -10.651  -3.330  1.00  0.00    -0.207 F 
HETATM    5  C7  UNL     1      11.816  -8.641  -2.379  1.00  0.00     0.023 C 
HETATM    6  C8  UNL     1      11.972  -7.166  -2.286  1.00  0.00     0.045 C 
HETATM    7  C9  UNL     1      10.848  -6.550  -1.493  1.00  0.00     0.126 C 
HETATM    8  C10 UNL     1      11.178  -6.442  -0.032  1.00  0.00     0.038 C 
HETATM    9  C11 UNL     1      12.345  -5.453   0.016  1.00  0.00    -0.001 C 
HETATM   10  C12 UNL     1      12.645  -5.053   1.420  1.00  0.00     0.037 C 
HETATM   11  C13 UNL     1      13.695  -3.981   1.434  1.00  0.00     0.118 C 
HETATM   12  C14 UNL     1      14.888  -4.281   0.602  1.00  0.00     0.032 C 
HETATM   13  C15 UNL     1      14.598  -4.961  -0.711  1.00  0.00     0.012 C 
HETATM   14  C16 UNL     1      13.560  -6.066  -0.602  1.00  0.00    -0.036 C 
HETATM   15  C17 UNL     1      14.119  -7.027   0.463  1.00  0.00     0.016 C 
HETATM   16  C18 UNL     1      13.357  -6.787  -1.859  1.00  0.00     0.004 C 
HETATM   17  C19 UNL     1      14.013  -6.149  -3.093  1.00  0.00     0.006 C 
HETATM   18  C20 UNL     1      14.334  -7.267  -4.092  1.00  0.00     0.007 C 
HETATM   19  C21 UNL     1      13.502  -7.232  -5.294  1.00  0.00     0.012 C 
HETATM   20  C22 UNL     1      14.415  -7.256  -6.527  1.00  0.00     0.040 C 
HETATM   21  C23 UNL     1      14.505  -8.721  -6.930  1.00  0.00     0.148 C 
HETATM   22  C28 UNL     1      13.403  -9.455  -6.207  1.00  0.00     0.110 C 
HETATM   23 BR1  UNL     1      14.210 -10.638  -4.954  1.00  0.00    -0.086 Br
ENDROOT
BRANCH  21  24
HETATM   24  O3  UNL     1      15.775  -9.248  -6.605  1.00  0.00    -0.310 OA
BRANCH  24  25
HETATM   25  C24 UNL     1      16.590  -9.677  -7.678  1.00  0.00     0.298 C 
HETATM   26  O4  UNL     1      16.853 -10.883  -7.784  1.00  0.00    -0.259 OA
BRANCH  25  27
HETATM   27  C25 UNL     1      17.093  -8.683  -8.639  1.00  0.00     0.166 C 
BRANCH  27  28
HETATM   28  N1  UNL     1      17.900  -7.676  -8.086  1.00  0.00    -0.392 N 
ATOM     29  H1  UNL     1      17.686  -6.685  -8.200  1.00  0.00     0.159 HD
BRANCH  28  30
HETATM   30  C26 UNL     1      19.027  -8.121  -7.363  1.00  0.00     0.145 C 
BRANCH  30  31
HETATM   31  C27 UNL     1      19.021  -7.372  -6.012  1.00  0.00     0.183 C 
BRANCH  31  32
HETATM   32  O5  UNL     1      17.753  -6.828  -5.812  1.00  0.00    -0.399 OA
ATOM     33  H5  UNL     1      17.685  -6.026  -6.317  1.00  0.00     0.209 HD
ENDBRANCH  31  32
ENDBRANCH  30  31
ENDBRANCH  28  30
ENDBRANCH  27  28
ENDBRANCH  25  27
ENDBRANCH  24  25
ENDBRANCH  21  24
BRANCH   1  34
HETATM   34  S1  UNL     1      11.769  -7.668  -7.171  1.00  0.00    -0.153 SA
BRANCH  34  35
HETATM   35  C3  UNL     1      10.306  -6.722  -6.704  1.00  0.00     0.075 C 
BRANCH  35  36
HETATM   36  C2  UNL     1      10.790  -5.310  -6.347  1.00  0.00     0.006 C 
HETATM   37  C1  UNL     1      10.344  -5.023  -4.939  1.00  0.00     0.006 C 
ENDBRANCH  35  36
ENDBRANCH  34  35
ENDBRANCH   1  34
BRANCH   7  38
HETATM   38  O1  UNL     1       9.720  -7.338  -1.722  1.00  0.00    -0.395 OA
ATOM     39  H1  UNL     1       9.658  -7.943  -0.991  1.00  0.00     0.210 HD
ENDBRANCH   7  38
BRANCH  11  40
HETATM   40  O2  UNL     1      13.090  -2.759   1.107  1.00  0.00    -0.396 OA
ATOM     41  H2  UNL     1      12.676  -2.844   0.256  1.00  0.00     0.210 HD
ENDBRANCH  11  40
TORSDOF 12
ENDMDL
MODEL 4
REMARK VINA RESULT: -6.803948093      1.270      1.509
REMARK  12 active torsions:
REMARK  status: ('A' for Active; 'I' for Inactive)
REMARK    1  A    between atoms: C2_2  and  C3_3 
REMARK    2  A    between atoms: C3_3  and  S1_4 
REMARK    3  A    between atoms: S1_4  and  C4_5 
REMARK    4  A    between atoms: C9_11  and  O1_12 
REMARK    5  A    between atoms: C13_17  and  O2_18 
REMARK    6  A    between atoms: C23_29  and  O3_30 
REMARK    7  A    between atoms: O3_30  and  C24_31 
REMARK    8  A    between atoms: C24_31  and  C25_33 
REMARK    9  A    between atoms: C25_33  and  N1_34 
REMARK   10  A    between atoms: N1_34  and  C26_36 
REMARK   11  A    between atoms: C26_36  and  C27_37 
REMARK   12  A    between atoms: C27_37  and  O5_38 
ROOT
HETATM    1  C4  UNL     1      12.786  -8.610  -5.732  1.00  0.00     0.048 C 
HETATM    2  C5  UNL     1      11.479  -8.642  -5.074  1.00  0.00     0.037 C 
HETATM    3  C6  UNL     1      11.286  -9.195  -3.761  1.00  0.00     0.111 C 
HETATM    4  F1  UNL     1      10.864 -10.502  -3.577  1.00  0.00    -0.207 F 
HETATM    5  C7  UNL     1      11.464  -8.541  -2.645  1.00  0.00     0.023 C 
HETATM    6  C8  UNL     1      11.893  -7.120  -2.575  1.00  0.00     0.045 C 
HETATM    7  C9  UNL     1      10.805  -6.251  -2.001  1.00  0.00     0.126 C 
HETATM    8  C10 UNL     1      10.916  -6.114  -0.509  1.00  0.00     0.038 C 
HETATM    9  C11 UNL     1      12.234  -5.364  -0.300  1.00  0.00    -0.001 C 
HETATM   10  C12 UNL     1      12.385  -4.940   1.120  1.00  0.00     0.037 C 
HETATM   11  C13 UNL     1      13.612  -4.089   1.274  1.00  0.00     0.118 C 
HETATM   12  C14 UNL     1      14.837  -4.664   0.661  1.00  0.00     0.032 C 
HETATM   13  C15 UNL     1      14.626  -5.360  -0.659  1.00  0.00     0.012 C 
HETATM   14  C16 UNL     1      13.385  -6.237  -0.688  1.00  0.00    -0.036 C 
HETATM   15  C17 UNL     1      13.567  -7.216   0.486  1.00  0.00     0.016 C 
HETATM   16  C18 UNL     1      13.242  -6.986  -1.937  1.00  0.00     0.004 C 
HETATM   17  C19 UNL     1      14.197  -6.566  -3.065  1.00  0.00     0.006 C 
HETATM   18  C20 UNL     1      14.442  -7.786  -3.959  1.00  0.00     0.007 C 
HETATM   19  C21 UNL     1      13.832  -7.671  -5.283  1.00  0.00     0.012 C 
HETATM   20  C22 UNL     1      14.903  -7.948  -6.346  1.00  0.00     0.040 C 
HETATM   21  C23 UNL     1      14.762  -9.427  -6.680  1.00  0.00     0.148 C 
HETATM   22  C28 UNL     1      13.436  -9.889  -6.127  1.00  0.00     0.110 C 
HETATM   23 BR1  UNL     1      13.785 -11.120  -4.720  1.00  0.00    -0.086 Br
ENDROOT
BRANCH  21  24
HETATM   24  O3  UNL     1      15.834 -10.165  -6.133  1.00  0.00    -0.310 OA
BRANCH  24  25
HETATM   25  C24 UNL     1      17.141  -9.682  -6.374  1.00  0.00     0.298 C 
HETATM   26  O4  UNL     1      17.532  -9.579  -7.545  1.00  0.00    -0.259 OA
BRANCH  25  27
HETATM   27  C25 UNL     1      17.992  -9.311  -5.233  1.00  0.00     0.166 C 
BRANCH  27  28
HETATM   28  N1  UNL     1      18.240 -10.343  -4.315  1.00  0.00    -0.392 N 
ATOM     29  H1  UNL     1      17.994 -10.262  -3.328  1.00  0.00     0.159 HD
BRANCH  28  30
HETATM   30  C26 UNL     1      18.850 -11.501  -4.843  1.00  0.00     0.145 C 
BRANCH  30  31
HETATM   31  C27 UNL     1      20.315 -11.502  -4.354  1.00  0.00     0.183 C 
BRANCH  31  32
HETATM   32  O5  UNL     1      20.401 -12.297  -3.212  1.00  0.00    -0.399 OA
ATOM     33  H5  UNL     1      21.311 -12.336  -2.939  1.00  0.00     0.209 HD
ENDBRANCH  31  32
ENDBRANCH  30  31
ENDBRANCH  28  30
ENDBRANCH  27  28
ENDBRANCH  25  27
ENDBRANCH  24  25
ENDBRANCH  21  24
BRANCH   1  34
HETATM   34  S1  UNL     1      12.362  -7.889  -7.407  1.00  0.00    -0.153 SA
BRANCH  34  35
HETATM   35  C3  UNL     1      10.953  -6.775  -7.246  1.00  0.00     0.075 C 
BRANCH  35  36
HETATM   36  C2  UNL     1      11.504  -5.439  -6.725  1.00  0.00     0.006 C 
HETATM   37  C1  UNL     1      10.687  -5.052  -5.523  1.00  0.00     0.006 C 
ENDBRANCH  35  36
ENDBRANCH  34  35
ENDBRANCH   1  34
BRANCH   7  38
HETATM   38  O1  UNL     1       9.592  -6.822  -2.388  1.00  0.00    -0.395 OA
ATOM     39  H1  UNL     1       8.942  -6.533  -1.758  1.00  0.00     0.210 HD
ENDBRANCH   7  38
BRANCH  11  40
HETATM   40  O2  UNL     1      13.320  -2.797   0.810  1.00  0.00    -0.396 OA
ATOM     41  H2  UNL     1      13.808  -2.171   1.333  1.00  0.00     0.210 HD
ENDBRANCH  11  40
TORSDOF 12
ENDMDL
MODEL 5
REMARK VINA RESULT: -6.738683739      1.749      2.193
REMARK  12 active torsions:
REMARK  status: ('A' for Active; 'I' for Inactive)
REMARK    1  A    between atoms: C2_2  and  C3_3 
REMARK    2  A    between atoms: C3_3  and  S1_4 
REMARK    3  A    between atoms: S1_4  and  C4_5 
REMARK    4  A    between atoms: C9_11  and  O1_12 
REMARK    5  A    between atoms: C13_17  and  O2_18 
REMARK    6  A    between atoms: C23_29  and  O3_30 
REMARK    7  A    between atoms: O3_30  and  C24_31 
REMARK    8  A    between atoms: C24_31  and  C25_33 
REMARK    9  A    between atoms: C25_33  and  N1_34 
REMARK   10  A    between atoms: N1_34  and  C26_36 
REMARK   11  A    between atoms: C26_36  and  C27_37 
REMARK   12  A    between atoms: C27_37  and  O5_38 
ROOT
HETATM    1  C4  UNL     1      12.992  -8.353  -5.851  1.00  0.00     0.048 C 
HETATM    2  C5  UNL     1      11.770  -8.807  -5.185  1.00  0.00     0.037 C 
HETATM    3  C6  UNL     1      11.785  -9.480  -3.914  1.00  0.00     0.111 C 
HETATM    4  F1  UNL     1      11.764 -10.863  -3.822  1.00  0.00    -0.207 F 
HETATM    5  C7  UNL     1      11.800  -8.880  -2.755  1.00  0.00     0.023 C 
HETATM    6  C8  UNL     1      11.802  -7.404  -2.585  1.00  0.00     0.045 C 
HETATM    7  C9  UNL     1      10.527  -6.929  -1.938  1.00  0.00     0.126 C 
HETATM    8  C10 UNL     1      10.639  -6.866  -0.442  1.00  0.00     0.038 C 
HETATM    9  C11 UNL     1      11.690  -5.782  -0.190  1.00  0.00    -0.001 C 
HETATM   10  C12 UNL     1      11.754  -5.429   1.256  1.00  0.00     0.037 C 
HETATM   11  C13 UNL     1      12.688  -4.271   1.460  1.00  0.00     0.118 C 
HETATM   12  C14 UNL     1      14.007  -4.423   0.796  1.00  0.00     0.032 C 
HETATM   13  C15 UNL     1      13.967  -5.059  -0.570  1.00  0.00     0.012 C 
HETATM   14  C16 UNL     1      13.031  -6.255  -0.651  1.00  0.00    -0.036 C 
HETATM   15  C17 UNL     1      13.525  -7.216   0.446  1.00  0.00     0.016 C 
HETATM   16  C18 UNL     1      13.074  -6.926  -1.951  1.00  0.00     0.004 C 
HETATM   17  C19 UNL     1      13.832  -6.173  -3.054  1.00  0.00     0.006 C 
HETATM   18  C20 UNL     1      14.392  -7.206  -4.038  1.00  0.00     0.007 C 
HETATM   19  C21 UNL     1      13.735  -7.184  -5.344  1.00  0.00     0.012 C 
HETATM   20  C22 UNL     1      14.808  -7.066  -6.434  1.00  0.00     0.040 C 
HETATM   21  C23 UNL     1      15.090  -8.496  -6.874  1.00  0.00     0.148 C 
HETATM   22  C28 UNL     1      13.971  -9.359  -6.344  1.00  0.00     0.110 C 
HETATM   23 BR1  UNL     1      14.704 -10.528  -5.035  1.00  0.00    -0.086 Br
ENDROOT
BRANCH  21  24
HETATM   24  O3  UNL     1      16.346  -8.926  -6.392  1.00  0.00    -0.310 OA
BRANCH  24  25
HETATM   25  C24 UNL     1      17.490  -8.257  -6.884  1.00  0.00     0.298 C 
HETATM   26  O4  UNL     1      18.152  -7.555  -6.106  1.00  0.00    -0.259 OA
BRANCH  25  27
HETATM   27  C25 UNL     1      17.865  -8.420  -8.297  1.00  0.00     0.166 C 
BRANCH  27  28
HETATM   28  N1  UNL     1      17.436  -7.391  -9.150  1.00  0.00    -0.392 N 
ATOM     29  H1  UNL     1      17.656  -6.411  -8.972  1.00  0.00     0.159 HD
BRANCH  28  30
HETATM   30  C26 UNL     1      16.679  -7.798 -10.269  1.00  0.00     0.145 C 
BRANCH  30  31
HETATM   31  C27 UNL     1      15.337  -7.037 -10.208  1.00  0.00     0.183 C 
BRANCH  31  32
HETATM   32  O5  UNL     1      15.376  -5.994 -11.132  1.00  0.00    -0.399 OA
ATOM     33  H5  UNL     1      14.495  -5.842 -11.454  1.00  0.00     0.209 HD
ENDBRANCH  31  32
ENDBRANCH  30  31
ENDBRANCH  28  30
ENDBRANCH  27  28
ENDBRANCH  25  27
ENDBRANCH  24  25
ENDBRANCH  21  24
BRANCH   1  34
HETATM   34  S1  UNL     1      12.327  -7.675  -7.464  1.00  0.00    -0.153 SA
BRANCH  34  35
HETATM   35  C3  UNL     1      10.746  -6.858  -7.170  1.00  0.00     0.075 C 
BRANCH  35  36
HETATM   36  C2  UNL     1      11.065  -5.409  -6.776  1.00  0.00     0.006 C 
HETATM   37  C1  UNL     1      10.594  -5.214  -5.360  1.00  0.00     0.006 C 
ENDBRANCH  35  36
ENDBRANCH  34  35
ENDBRANCH   1  34
BRANCH   7  38
HETATM   38  O1  UNL     1       9.520  -7.800  -2.355  1.00  0.00    -0.395 OA
ATOM     39  H1  UNL     1       8.788  -7.672  -1.762  1.00  0.00     0.210 HD
ENDBRANCH   7  38
BRANCH  11  40
HETATM   40  O2  UNL     1      12.021  -3.091   1.095  1.00  0.00    -0.396 OA
ATOM     41  H2  UNL     1      12.340  -2.815   0.244  1.00  0.00     0.210 HD
ENDBRANCH  11  40
TORSDOF 12
ENDMDL
