MODEL 1
REMARK VINA RESULT: -8.269364158      0.000      0.000
REMARK  12 active torsions:
REMARK  status: ('A' for Active; 'I' for Inactive)
REMARK    1  A    between atoms: C2_2  and  C3_3 
REMARK    2  A    between atoms: C3_3  and  C4_4 
REMARK    3  A    between atoms: C4_4  and  N1_5 
REMARK    4  A    between atoms: C9_13  and  C10_14 
REMARK    5  A    between atoms: C16_21  and  O2_22 
REMARK    6  A    between atoms: O2_22  and  C17_23 
REMARK    7  A    between atoms: C19_25  and  O3_26 
REMARK    8  A    between atoms: C21_29  and  O4_30 
REMARK    9  A    between atoms: C22_32  and  O5_33 
REMARK   10  A    between atoms: C23_35  and  O6_36 
REMARK   11  A    between atoms: C24_38  and  C25_39 
REMARK   12  A    between atoms: C25_39  and  C26_40 
ROOT
HETATM    1  N1  UNL     1      14.858  -7.443  -3.242  1.00  0.00    -0.369 N 
HETATM    2  C5  UNL     1      14.061  -6.596  -4.042  1.00  0.00     0.170 C 
HETATM    3  C6  UNL     1      12.652  -6.525  -3.511  1.00  0.00     0.018 A 
HETATM    4  C7  UNL     1      12.383  -6.873  -2.217  1.00  0.00     0.032 A 
HETATM    5  N2  UNL     1      11.127  -6.859  -1.747  1.00  0.00    -0.325 N 
ATOM      6  H2  UNL     1      10.937  -7.122  -0.780  1.00  0.00     0.169 HD
HETATM    7  C8  UNL     1      10.128  -6.499  -2.552  1.00  0.00     0.259 A 
HETATM    8  O1  UNL     1       8.933  -6.486  -2.108  1.00  0.00    -0.267 OA
HETATM    9  C9  UNL     1      10.379  -6.134  -3.893  1.00  0.00     0.076 A 
HETATM   10  C16 UNL     1      11.653  -6.136  -4.406  1.00  0.00     0.096 A 
HETATM   11  C24 UNL     1      13.444  -7.282  -1.276  1.00  0.00     0.075 C 
HETATM   12  C32 UNL     1      14.840  -7.251  -1.861  1.00  0.00     0.074 C 
ENDROOT
BRANCH  10  13
HETATM   13  O2  UNL     1      11.919  -5.797  -5.680  1.00  0.00    -0.341 OA
BRANCH  13  14
HETATM   14  C17 UNL     1      11.959  -6.479  -6.887  1.00  0.00     0.162 C 
HETATM   15  C18 UNL     1      12.680  -7.815  -6.829  1.00  0.00     0.067 C 
HETATM   16  C19 UNL     1      12.585  -8.562  -8.142  1.00  0.00     0.123 C 
HETATM   17  C20 UNL     1      13.778  -8.411  -9.022  1.00  0.00     0.066 C 
HETATM   18  C21 UNL     1      14.184  -6.961  -9.194  1.00  0.00     0.151 C 
HETATM   19  C22 UNL     1      12.918  -6.136  -9.220  1.00  0.00     0.178 C 
HETATM   20  C23 UNL     1      12.528  -5.544  -7.919  1.00  0.00     0.178 C 
BRANCH  16  21
HETATM   21  O3  UNL     1      12.495  -9.951  -7.854  1.00  0.00    -0.395 OA
ATOM     22  H3  UNL     1      12.060 -10.376  -8.583  1.00  0.00     0.210 HD
ENDBRANCH  16  21
BRANCH  18  23
HETATM   23  O4  UNL     1      15.083  -6.525  -8.245  1.00  0.00    -0.393 OA
ATOM     24  H4  UNL     1      15.595  -5.775  -8.524  1.00  0.00     0.210 HD
ENDBRANCH  18  23
BRANCH  19  25
HETATM   25  O5  UNL     1      13.189  -5.034 -10.083  1.00  0.00    -0.390 OA
ATOM     26  H5  UNL     1      13.100  -4.256  -9.546  1.00  0.00     0.210 HD
ENDBRANCH  19  25
BRANCH  20  27
HETATM   27  O6  UNL     1      13.581  -4.781  -7.396  1.00  0.00    -0.390 OA
ATOM     28  H6  UNL     1      14.250  -4.616  -8.050  1.00  0.00     0.210 HD
ENDBRANCH  20  27
ENDBRANCH  13  14
ENDBRANCH  10  13
BRANCH   9  29
HETATM   29  C10 UNL     1       9.214  -5.832  -4.708  1.00  0.00    -0.018 A 
HETATM   30  C11 UNL     1       8.521  -6.872  -5.287  1.00  0.00     0.014 A 
HETATM   31  C12 UNL     1       7.398  -6.631  -6.081  1.00  0.00     0.024 A 
HETATM   32  C13 UNL     1       6.998  -5.329  -6.271  1.00  0.00     0.034 A 
HETATM   33 CL1  UNL     1       5.587  -5.008  -7.265  1.00  0.00    -0.084 Cl
HETATM   34  C14 UNL     1       7.677  -4.275  -5.702  1.00  0.00     0.024 A 
HETATM   35  C15 UNL     1       8.781  -4.552  -4.925  1.00  0.00     0.014 A 
ENDBRANCH   9  29
BRANCH   1  36
HETATM   36  C4  UNL     1      15.675  -8.407  -3.829  1.00  0.00     0.063 C 
BRANCH  36  37
HETATM   37  C3  UNL     1      16.051  -8.167  -5.271  1.00  0.00     0.044 C 
BRANCH  37  38
HETATM   38  C2  UNL     1      15.936  -9.495  -5.994  1.00  0.00     0.001 C 
HETATM   39  C1  UNL     1      14.914 -10.361  -5.250  1.00  0.00     0.005 C 
ENDBRANCH  37  38
ENDBRANCH  36  37
ENDBRANCH   1  36
BRANCH  11  40
HETATM   40  C25 UNL     1      13.369  -6.676   0.060  1.00  0.00     0.021 C 
BRANCH  40  41
HETATM   41  C26 UNL     1      13.452  -5.238   0.291  1.00  0.00    -0.013 C 
HETATM   42  C27 UNL     1      14.877  -4.988   0.854  1.00  0.00     0.007 C 
HETATM   43  C28 UNL     1      15.186  -3.539   0.982  1.00  0.00     0.037 C 
HETATM   44  C29 UNL     1      14.150  -2.884   1.907  1.00  0.00     0.170 C 
HETATM   45  F1  UNL     1      14.204  -3.525   3.126  1.00  0.00    -0.249 F 
HETATM   46  C30 UNL     1      12.831  -3.072   1.234  1.00  0.00     0.037 C 
HETATM   47  C31 UNL     1      12.517  -4.590   1.256  1.00  0.00     0.007 C 
ENDBRANCH  40  41
ENDBRANCH  11  40
TORSDOF 12
ENDMDL
MODEL 2
REMARK VINA RESULT: -8.121514225      4.433      7.172
REMARK  12 active torsions:
REMARK  status: ('A' for Active; 'I' for Inactive)
REMARK    1  A    between atoms: C2_2  and  C3_3 
REMARK    2  A    between atoms: C3_3  and  C4_4 
REMARK    3  A    between atoms: C4_4  and  N1_5 
REMARK    4  A    between atoms: C9_13  and  C10_14 
REMARK    5  A    between atoms: C16_21  and  O2_22 
REMARK    6  A    between atoms: O2_22  and  C17_23 
REMARK    7  A    between atoms: C19_25  and  O3_26 
REMARK    8  A    between atoms: C21_29  and  O4_30 
REMARK    9  A    between atoms: C22_32  and  O5_33 
REMARK   10  A    between atoms: C23_35  and  O6_36 
REMARK   11  A    between atoms: C24_38  and  C25_39 
REMARK   12  A    between atoms: C25_39  and  C26_40 
ROOT
HETATM    1  N1  UNL     1       8.134  -7.843  -3.144  1.00  0.00    -0.369 N 
HETATM    2  C5  UNL     1       9.532  -7.750  -2.975  1.00  0.00     0.170 C 
HETATM    3  C6  UNL     1       9.876  -7.310  -1.575  1.00  0.00     0.018 A 
HETATM    4  C7  UNL     1       8.966  -7.445  -0.565  1.00  0.00     0.032 A 
HETATM    5  N2  UNL     1       9.244  -7.013   0.674  1.00  0.00    -0.325 N 
ATOM      6  H2  UNL     1       8.556  -7.117   1.421  1.00  0.00     0.169 HD
HETATM    7  C8  UNL     1      10.423  -6.448   0.924  1.00  0.00     0.259 A 
HETATM    8  O1  UNL     1      10.690  -6.036   2.102  1.00  0.00    -0.267 OA
HETATM    9  C9  UNL     1      11.383  -6.298  -0.101  1.00  0.00     0.076 A 
HETATM   10  C16 UNL     1      11.132  -6.729  -1.380  1.00  0.00     0.096 A 
HETATM   11  C24 UNL     1       7.642  -8.060  -0.778  1.00  0.00     0.075 C 
HETATM   12  C32 UNL     1       7.402  -8.549  -2.190  1.00  0.00     0.074 C 
ENDROOT
BRANCH  10  13
HETATM   13  O2  UNL     1      12.026  -6.595  -2.376  1.00  0.00    -0.341 OA
BRANCH  13  14
HETATM   14  C17 UNL     1      12.558  -7.444  -3.336  1.00  0.00     0.162 C 
HETATM   15  C18 UNL     1      12.964  -8.809  -2.809  1.00  0.00     0.067 C 
HETATM   16  C19 UNL     1      13.423  -9.727  -3.921  1.00  0.00     0.123 C 
HETATM   17  C20 UNL     1      14.903  -9.797  -4.089  1.00  0.00     0.066 C 
HETATM   18  C21 UNL     1      15.537  -8.422  -4.155  1.00  0.00     0.151 C 
HETATM   19  C22 UNL     1      14.575  -7.513  -4.886  1.00  0.00     0.178 C 
HETATM   20  C23 UNL     1      13.684  -6.713  -4.015  1.00  0.00     0.178 C 
BRANCH  16  21
HETATM   21  O3  UNL     1      13.011 -11.049  -3.600  1.00  0.00    -0.395 OA
ATOM     22  H3  UNL     1      13.783 -11.603  -3.586  1.00  0.00     0.210 HD
ENDBRANCH  16  21
BRANCH  18  23
HETATM   23  O4  UNL     1      15.905  -7.925  -2.925  1.00  0.00    -0.393 OA
ATOM     24  H4  UNL     1      16.512  -8.485  -2.455  1.00  0.00     0.210 HD
ENDBRANCH  18  23
BRANCH  19  25
HETATM   25  O5  UNL     1      15.385  -6.571  -5.586  1.00  0.00    -0.390 OA
ATOM     26  H5  UNL     1      14.791  -5.895  -5.892  1.00  0.00     0.210 HD
ENDBRANCH  19  25
BRANCH  20  27
HETATM   27  O6  UNL     1      14.438  -5.967  -3.100  1.00  0.00    -0.390 OA
ATOM     28  H6  UNL     1      14.150  -5.062  -3.066  1.00  0.00     0.210 HD
ENDBRANCH  20  27
ENDBRANCH  13  14
ENDBRANCH  10  13
BRANCH   9  29
HETATM   29  C10 UNL     1      12.607  -5.600   0.258  1.00  0.00    -0.018 A 
HETATM   30  C11 UNL     1      13.792  -6.301   0.268  1.00  0.00     0.014 A 
HETATM   31  C12 UNL     1      14.993  -5.675   0.609  1.00  0.00     0.024 A 
HETATM   32  C13 UNL     1      14.964  -4.340   0.934  1.00  0.00     0.034 A 
HETATM   33 CL1  UNL     1      16.465  -3.536   1.364  1.00  0.00    -0.084 Cl
HETATM   34  C14 UNL     1      13.790  -3.620   0.931  1.00  0.00     0.024 A 
HETATM   35  C15 UNL     1      12.625  -4.273   0.589  1.00  0.00     0.014 A 
ENDBRANCH   9  29
BRANCH   1  36
HETATM   36  C4  UNL     1       7.519  -7.283  -4.262  1.00  0.00     0.063 C 
BRANCH  36  37
HETATM   37  C3  UNL     1       8.423  -6.535  -5.211  1.00  0.00     0.044 C 
BRANCH  37  38
HETATM   38  C2  UNL     1       8.374  -5.071  -4.820  1.00  0.00     0.001 C 
HETATM   39  C1  UNL     1       9.810  -4.540  -4.760  1.00  0.00     0.005 C 
ENDBRANCH  37  38
ENDBRANCH  36  37
ENDBRANCH   1  36
BRANCH  11  40
HETATM   40  C25 UNL     1       7.228  -9.033   0.243  1.00  0.00     0.021 C 
BRANCH  40  41
HETATM   41  C26 UNL     1       5.975  -8.930   0.983  1.00  0.00    -0.013 C 
HETATM   42  C27 UNL     1       5.985  -7.515   1.623  1.00  0.00     0.007 C 
HETATM   43  C28 UNL     1       4.691  -7.183   2.276  1.00  0.00     0.037 C 
HETATM   44  C29 UNL     1       4.392  -8.230   3.359  1.00  0.00     0.170 C 
HETATM   45  F1  UNL     1       5.433  -8.220   4.260  1.00  0.00    -0.249 F 
HETATM   46  C30 UNL     1       4.286  -9.535   2.640  1.00  0.00     0.037 C 
HETATM   47  C31 UNL     1       5.699  -9.877   2.102  1.00  0.00     0.007 C 
ENDBRANCH  40  41
ENDBRANCH  11  40
TORSDOF 12
ENDMDL
MODEL 3
REMARK VINA RESULT: -8.068643729      4.481      7.087
REMARK  12 active torsions:
REMARK  status: ('A' for Active; 'I' for Inactive)
REMARK    1  A    between atoms: C2_2  and  C3_3 
REMARK    2  A    between atoms: C3_3  and  C4_4 
REMARK    3  A    between atoms: C4_4  and  N1_5 
REMARK    4  A    between atoms: C9_13  and  C10_14 
REMARK    5  A    between atoms: C16_21  and  O2_22 
REMARK    6  A    between atoms: O2_22  and  C17_23 
REMARK    7  A    between atoms: C19_25  and  O3_26 
REMARK    8  A    between atoms: C21_29  and  O4_30 
REMARK    9  A    between atoms: C22_32  and  O5_33 
REMARK   10  A    between atoms: C23_35  and  O6_36 
REMARK   11  A    between atoms: C24_38  and  C25_39 
REMARK   12  A    between atoms: C25_39  and  C26_40 
ROOT
HETATM    1  N1  UNL     1       8.156  -7.862  -3.056  1.00  0.00    -0.369 N 
HETATM    2  C5  UNL     1       9.555  -7.775  -2.893  1.00  0.00     0.170 C 
HETATM    3  C6  UNL     1       9.907  -7.328  -1.497  1.00  0.00     0.018 A 
HETATM    4  C7  UNL     1       9.000  -7.452  -0.483  1.00  0.00     0.032 A 
HETATM    5  N2  UNL     1       9.285  -7.015   0.753  1.00  0.00    -0.325 N 
ATOM      6  H2  UNL     1       8.599  -7.111   1.502  1.00  0.00     0.169 HD
HETATM    7  C8  UNL     1      10.468  -6.453   0.995  1.00  0.00     0.259 A 
HETATM    8  O1  UNL     1      10.740  -6.035   2.169  1.00  0.00    -0.267 OA
HETATM    9  C9  UNL     1      11.424  -6.313  -0.035  1.00  0.00     0.076 A 
HETATM   10  C16 UNL     1      11.166  -6.751  -1.310  1.00  0.00     0.096 A 
HETATM   11  C24 UNL     1       7.673  -8.063  -0.687  1.00  0.00     0.075 C 
HETATM   12  C32 UNL     1       7.425  -8.559  -2.095  1.00  0.00     0.074 C 
ENDROOT
BRANCH  10  13
HETATM   13  O2  UNL     1      12.057  -6.626  -2.311  1.00  0.00    -0.341 OA
BRANCH  13  14
HETATM   14  C17 UNL     1      12.562  -7.477  -3.283  1.00  0.00     0.162 C 
HETATM   15  C18 UNL     1      12.976  -8.844  -2.766  1.00  0.00     0.067 C 
HETATM   16  C19 UNL     1      13.404  -9.763  -3.890  1.00  0.00     0.123 C 
HETATM   17  C20 UNL     1      14.880  -9.839  -4.092  1.00  0.00     0.066 C 
HETATM   18  C21 UNL     1      15.518  -8.466  -4.172  1.00  0.00     0.151 C 
HETATM   19  C22 UNL     1      14.543  -7.554  -4.880  1.00  0.00     0.178 C 
HETATM   20  C23 UNL     1      13.676  -6.750  -3.988  1.00  0.00     0.178 C 
BRANCH  16  21
HETATM   21  O3  UNL     1      12.995 -11.084  -3.560  1.00  0.00    -0.395 OA
ATOM     22  H3  UNL     1      13.745 -11.658  -3.660  1.00  0.00     0.210 HD
ENDBRANCH  16  21
BRANCH  18  23
HETATM   23  O4  UNL     1      15.917  -7.973  -2.950  1.00  0.00    -0.393 OA
ATOM     24  H4  UNL     1      16.242  -7.081  -2.988  1.00  0.00     0.210 HD
ENDBRANCH  18  23
BRANCH  19  25
HETATM   25  O5  UNL     1      15.340  -6.614  -5.598  1.00  0.00    -0.390 OA
ATOM     26  H5  UNL     1      14.736  -6.123  -6.142  1.00  0.00     0.210 HD
ENDBRANCH  19  25
BRANCH  20  27
HETATM   27  O6  UNL     1      14.454  -6.008  -3.090  1.00  0.00    -0.390 OA
ATOM     28  H6  UNL     1      14.933  -5.316  -3.533  1.00  0.00     0.210 HD
ENDBRANCH  20  27
ENDBRANCH  13  14
ENDBRANCH  10  13
BRANCH   9  29
HETATM   29  C10 UNL     1      12.652  -5.619   0.315  1.00  0.00    -0.018 A 
HETATM   30  C11 UNL     1      12.592  -4.278   0.622  1.00  0.00     0.014 A 
HETATM   31  C12 UNL     1      13.746  -3.567   0.961  1.00  0.00     0.024 A 
HETATM   32  C13 UNL     1      14.945  -4.240   0.981  1.00  0.00     0.034 A 
HETATM   33 CL1  UNL     1      16.405  -3.362   1.406  1.00  0.00    -0.084 Cl
HETATM   34  C14 UNL     1      15.027  -5.580   0.676  1.00  0.00     0.024 A 
HETATM   35  C15 UNL     1      13.867  -6.247   0.347  1.00  0.00     0.014 A 
ENDBRANCH   9  29
BRANCH   1  36
HETATM   36  C4  UNL     1       7.539  -7.306  -4.175  1.00  0.00     0.063 C 
BRANCH  36  37
HETATM   37  C3  UNL     1       8.447  -6.590  -5.145  1.00  0.00     0.044 C 
BRANCH  37  38
HETATM   38  C2  UNL     1       8.345  -5.108  -4.848  1.00  0.00     0.001 C 
HETATM   39  C1  UNL     1       9.763  -4.533  -4.771  1.00  0.00     0.005 C 
ENDBRANCH  37  38
ENDBRANCH  36  37
ENDBRANCH   1  36
BRANCH  11  40
HETATM   40  C25 UNL     1       7.258  -9.028   0.341  1.00  0.00     0.021 C 
BRANCH  40  41
HETATM   41  C26 UNL     1       6.800  -8.634   1.669  1.00  0.00    -0.013 C 
HETATM   42  C27 UNL     1       7.747  -9.353   2.667  1.00  0.00     0.007 C 
HETATM   43  C28 UNL     1       7.521  -8.918   4.071  1.00  0.00     0.037 C 
HETATM   44  C29 UNL     1       6.062  -9.202   4.457  1.00  0.00     0.170 C 
HETATM   45  F1  UNL     1       5.837 -10.552   4.301  1.00  0.00    -0.249 F 
HETATM   46  C30 UNL     1       5.231  -8.384   3.524  1.00  0.00     0.037 C 
HETATM   47  C31 UNL     1       5.416  -8.980   2.105  1.00  0.00     0.007 C 
ENDBRANCH  40  41
ENDBRANCH  11  40
TORSDOF 12
ENDMDL
MODEL 4
REMARK VINA RESULT: -7.993478830      4.575      7.087
REMARK  12 active torsions:
REMARK  status: ('A' for Active; 'I' for Inactive)
REMARK    1  A    between atoms: C2_2  and  C3_3 
REMARK    2  A    between atoms: C3_3  and  C4_4 
REMARK    3  A    between atoms: C4_4  and  N1_5 
REMARK    4  A    between atoms: C9_13  and  C10_14 
REMARK    5  A    between atoms: C16_21  and  O2_22 
REMARK    6  A    between atoms: O2_22  and  C17_23 
REMARK    7  A    between atoms: C19_25  and  O3_26 
REMARK    8  A    between atoms: C21_29  and  O4_30 
REMARK    9  A    between atoms: C22_32  and  O5_33 
REMARK   10  A    between atoms: C23_35  and  O6_36 
REMARK   11  A    between atoms: C24_38  and  C25_39 
REMARK   12  A    between atoms: C25_39  and  C26_40 
ROOT
HETATM    1  N1  UNL     1      11.473  -6.513  -1.786  1.00  0.00    -0.369 N 
HETATM    2  C5  UNL     1      10.084  -6.685  -1.609  1.00  0.00     0.170 C 
HETATM    3  C6  UNL     1       9.728  -6.721  -0.145  1.00  0.00     0.018 A 
HETATM    4  C7  UNL     1      10.586  -6.206   0.787  1.00  0.00     0.032 A 
HETATM    5  N2  UNL     1      10.302  -6.275   2.096  1.00  0.00    -0.325 N 
ATOM      6  H2  UNL     1      10.950  -5.889   2.783  1.00  0.00     0.169 HD
HETATM    7  C8  UNL     1       9.169  -6.851   2.494  1.00  0.00     0.259 A 
HETATM    8  O1  UNL     1       8.897  -6.918   3.738  1.00  0.00    -0.267 OA
HETATM    9  C9  UNL     1       8.265  -7.390   1.552  1.00  0.00     0.076 A 
HETATM   10  C16 UNL     1       8.524  -7.336   0.205  1.00  0.00     0.096 A 
HETATM   11  C24 UNL     1      11.856  -5.557   0.411  1.00  0.00     0.075 C 
HETATM   12  C32 UNL     1      12.104  -5.489  -1.080  1.00  0.00     0.074 C 
ENDROOT
BRANCH  10  13
HETATM   13  O2  UNL     1       7.682  -7.845  -0.713  1.00  0.00    -0.341 OA
BRANCH  13  14
HETATM   14  C17 UNL     1       7.635  -9.017  -1.455  1.00  0.00     0.162 C 
HETATM   15  C18 UNL     1       7.751  -8.814  -2.956  1.00  0.00     0.067 C 
HETATM   16  C19 UNL     1       7.813 -10.133  -3.697  1.00  0.00     0.123 C 
HETATM   17  C20 UNL     1       6.509 -10.581  -4.264  1.00  0.00     0.066 C 
HETATM   18  C21 UNL     1       5.391 -10.528  -3.241  1.00  0.00     0.151 C 
HETATM   19  C22 UNL     1       5.985 -10.902  -1.902  1.00  0.00     0.178 C 
HETATM   20  C23 UNL     1       6.388  -9.758  -1.052  1.00  0.00     0.178 C 
BRANCH  16  21
HETATM   21  O3  UNL     1       8.680  -9.971  -4.812  1.00  0.00    -0.395 OA
ATOM     22  H3  UNL     1       8.354 -10.515  -5.519  1.00  0.00     0.210 HD
ENDBRANCH  16  21
BRANCH  18  23
HETATM   23  O4  UNL     1       4.730  -9.320  -3.210  1.00  0.00    -0.393 OA
ATOM     24  H4  UNL     1       4.482  -9.046  -2.335  1.00  0.00     0.210 HD
ENDBRANCH  18  23
BRANCH  19  25
HETATM   25  O5  UNL     1       4.945 -11.569  -1.188  1.00  0.00    -0.390 OA
ATOM     26  H5  UNL     1       5.245 -11.629  -0.289  1.00  0.00     0.210 HD
ENDBRANCH  19  25
BRANCH  20  27
HETATM   27  O6  UNL     1       5.309  -8.885  -0.865  1.00  0.00    -0.390 OA
ATOM     28  H6  UNL     1       4.965  -8.572  -1.695  1.00  0.00     0.210 HD
ENDBRANCH  20  27
ENDBRANCH  13  14
ENDBRANCH  10  13
BRANCH   9  29
HETATM   29  C10 UNL     1       7.096  -8.064   2.092  1.00  0.00    -0.018 A 
HETATM   30  C11 UNL     1       7.209  -9.380   2.483  1.00  0.00     0.014 A 
HETATM   31  C12 UNL     1       6.113 -10.070   3.005  1.00  0.00     0.024 A 
HETATM   32  C13 UNL     1       4.916  -9.404   3.120  1.00  0.00     0.034 A 
HETATM   33 CL1  UNL     1       3.528 -10.256   3.775  1.00  0.00    -0.084 Cl
HETATM   34  C14 UNL     1       4.780  -8.089   2.734  1.00  0.00     0.024 A 
HETATM   35  C15 UNL     1       5.885  -7.441   2.224  1.00  0.00     0.014 A 
ENDBRANCH   9  29
BRANCH   1  36
HETATM   36  C4  UNL     1      12.177  -7.317  -2.680  1.00  0.00     0.063 C 
BRANCH  36  37
HETATM   37  C3  UNL     1      11.575  -8.671  -2.968  1.00  0.00     0.044 C 
BRANCH  37  38
HETATM   38  C2  UNL     1      12.607  -9.713  -2.585  1.00  0.00     0.001 C 
HETATM   39  C1  UNL     1      12.282 -11.011  -3.332  1.00  0.00     0.005 C 
ENDBRANCH  37  38
ENDBRANCH  36  37
ENDBRANCH   1  36
BRANCH  11  40
HETATM   40  C25 UNL     1      12.144  -4.290   1.098  1.00  0.00     0.021 C 
BRANCH  40  41
HETATM   41  C26 UNL     1      13.461  -3.949   1.625  1.00  0.00    -0.013 C 
HETATM   42  C27 UNL     1      13.195  -3.006   2.830  1.00  0.00     0.007 C 
HETATM   43  C28 UNL     1      14.436  -2.701   3.591  1.00  0.00     0.037 C 
HETATM   44  C29 UNL     1      15.456  -2.048   2.647  1.00  0.00     0.170 C 
HETATM   45  F1  UNL     1      14.885  -0.906   2.128  1.00  0.00    -0.249 F 
HETATM   46  C30 UNL     1      15.737  -3.064   1.590  1.00  0.00     0.037 C 
HETATM   47  C31 UNL     1      14.440  -3.230   0.758  1.00  0.00     0.007 C 
ENDBRANCH  40  41
ENDBRANCH  11  40
TORSDOF 12
ENDMDL
MODEL 5
REMARK VINA RESULT: -7.978639902      3.804      5.947
REMARK  12 active torsions:
REMARK  status: ('A' for Active; 'I' for Inactive)
REMARK    1  A    between atoms: C2_2  and  C3_3 
REMARK    2  A    between atoms: C3_3  and  C4_4 
REMARK    3  A    between atoms: C4_4  and  N1_5 
REMARK    4  A    between atoms: C9_13  and  C10_14 
REMARK    5  A    between atoms: C16_21  and  O2_22 
REMARK    6  A    between atoms: O2_22  and  C17_23 
REMARK    7  A    between atoms: C19_25  and  O3_26 
REMARK    8  A    between atoms: C21_29  and  O4_30 
REMARK    9  A    between atoms: C22_32  and  O5_33 
REMARK   10  A    between atoms: C23_35  and  O6_36 
REMARK   11  A    between atoms: C24_38  and  C25_39 
REMARK   12  A    between atoms: C25_39  and  C26_40 
ROOT
HETATM    1  N1  UNL     1      13.962  -5.684  -0.821  1.00  0.00    -0.369 N 
HETATM    2  C5  UNL     1      14.198  -6.036  -2.167  1.00  0.00     0.170 C 
HETATM    3  C6  UNL     1      13.309  -7.179  -2.587  1.00  0.00     0.018 A 
HETATM    4  C7  UNL     1      12.174  -7.466  -1.883  1.00  0.00     0.032 A 
HETATM    5  N2  UNL     1      11.401  -8.509  -2.219  1.00  0.00    -0.325 N 
ATOM      6  H2  UNL     1      10.556  -8.716  -1.685  1.00  0.00     0.169 HD
HETATM    7  C8  UNL     1      11.742  -9.274  -3.254  1.00  0.00     0.259 A 
HETATM    8  O1  UNL     1      11.009 -10.267  -3.575  1.00  0.00    -0.267 OA
HETATM    9  C9  UNL     1      12.909  -8.999  -4.000  1.00  0.00     0.076 A 
HETATM   10  C16 UNL     1      13.723  -7.939  -3.684  1.00  0.00     0.096 A 
HETATM   11  C24 UNL     1      11.742  -6.659  -0.726  1.00  0.00     0.075 C 
HETATM   12  C32 UNL     1      12.643  -5.483  -0.416  1.00  0.00     0.074 C 
ENDROOT
BRANCH  10  13
HETATM   13  O2  UNL     1      14.843  -7.657  -4.375  1.00  0.00    -0.341 OA
BRANCH  13  14
HETATM   14  C17 UNL     1      15.787  -8.409  -5.058  1.00  0.00     0.162 C 
HETATM   15  C18 UNL     1      17.015  -8.768  -4.239  1.00  0.00     0.067 C 
HETATM   16  C19 UNL     1      17.948  -9.686  -4.999  1.00  0.00     0.123 C 
HETATM   17  C20 UNL     1      19.089  -8.990  -5.661  1.00  0.00     0.066 C 
HETATM   18  C21 UNL     1      18.636  -7.796  -6.478  1.00  0.00     0.151 C 
HETATM   19  C22 UNL     1      17.298  -8.147  -7.090  1.00  0.00     0.178 C 
HETATM   20  C23 UNL     1      16.118  -7.674  -6.329  1.00  0.00     0.178 C 
BRANCH  16  21
HETATM   21  O3  UNL     1      18.536 -10.585  -4.069  1.00  0.00    -0.395 OA
ATOM     22  H3  UNL     1      18.889 -11.321  -4.554  1.00  0.00     0.210 HD
ENDBRANCH  16  21
BRANCH  18  23
HETATM   23  O4  UNL     1      18.601  -6.621  -5.762  1.00  0.00    -0.393 OA
ATOM     24  H4  UNL     1      18.434  -6.745  -4.835  1.00  0.00     0.210 HD
ENDBRANCH  18  23
BRANCH  19  25
HETATM   25  O5  UNL     1      17.253  -7.466  -8.342  1.00  0.00    -0.390 OA
ATOM     26  H5  UNL     1      16.774  -8.038  -8.931  1.00  0.00     0.210 HD
ENDBRANCH  19  25
BRANCH  20  27
HETATM   27  O6  UNL     1      16.196  -6.291  -6.119  1.00  0.00    -0.390 OA
ATOM     28  H6  UNL     1      15.530  -5.826  -6.611  1.00  0.00     0.210 HD
ENDBRANCH  20  27
ENDBRANCH  13  14
ENDBRANCH  10  13
BRANCH   9  29
HETATM   29  C10 UNL     1      13.234  -9.938  -5.062  1.00  0.00    -0.018 A 
HETATM   30  C11 UNL     1      12.816  -9.660  -6.344  1.00  0.00     0.014 A 
HETATM   31  C12 UNL     1      13.101 -10.533  -7.396  1.00  0.00     0.024 A 
HETATM   32  C13 UNL     1      13.809 -11.679  -7.121  1.00  0.00     0.034 A 
HETATM   33 CL1  UNL     1      14.178 -12.787  -8.432  1.00  0.00    -0.084 Cl
HETATM   34  C14 UNL     1      14.235 -11.976  -5.846  1.00  0.00     0.024 A 
HETATM   35  C15 UNL     1      13.935 -11.090  -4.833  1.00  0.00     0.014 A 
ENDBRANCH   9  29
BRANCH   1  36
HETATM   36  C4  UNL     1      15.028  -5.497   0.058  1.00  0.00     0.063 C 
BRANCH  36  37
HETATM   37  C3  UNL     1      14.767  -4.583   1.230  1.00  0.00     0.044 C 
BRANCH  37  38
HETATM   38  C2  UNL     1      15.190  -3.188   0.818  1.00  0.00     0.001 C 
HETATM   39  C1  UNL     1      15.173  -2.292   2.061  1.00  0.00     0.005 C 
ENDBRANCH  37  38
ENDBRANCH  36  37
ENDBRANCH   1  36
BRANCH  11  40
HETATM   40  C25 UNL     1      10.315  -6.309  -0.698  1.00  0.00     0.021 C 
BRANCH  40  41
HETATM   41  C26 UNL     1       9.495  -6.396   0.505  1.00  0.00    -0.013 C 
HETATM   42  C27 UNL     1      10.413  -7.016   1.592  1.00  0.00     0.007 C 
HETATM   43  C28 UNL     1       9.777  -7.013   2.936  1.00  0.00     0.037 C 
HETATM   44  C29 UNL     1       8.461  -7.803   2.869  1.00  0.00     0.170 C 
HETATM   45  F1  UNL     1       8.754  -9.082   2.448  1.00  0.00    -0.249 F 
HETATM   46  C30 UNL     1       7.601  -7.074   1.891  1.00  0.00     0.037 C 
HETATM   47  C31 UNL     1       8.259  -7.233   0.496  1.00  0.00     0.007 C 
ENDBRANCH  40  41
ENDBRANCH  11  40
TORSDOF 12
ENDMDL
