MODEL 1
REMARK VINA RESULT: -8.336264254      0.000      0.000
REMARK  12 active torsions:
REMARK  status: ('A' for Active; 'I' for Inactive)
REMARK    1  A    between atoms: C2_2  and  N1_34 
REMARK    2  A    between atoms: C3_3  and  C4_4 
REMARK    3  A    between atoms: C4_4  and  O2_6 
REMARK    4  A    between atoms: O2_6  and  C5_7 
REMARK    5  A    between atoms: C7_9  and  O3_10 
REMARK    6  A    between atoms: O3_10  and  C8_11 
REMARK    7  A    between atoms: C13_16  and  O4_17 
REMARK    8  A    between atoms: O4_17  and  C14_18 
REMARK    9  A    between atoms: C20_25  and  O5_26 
REMARK   10  A    between atoms: C21_28  and  O6_29 
REMARK   11  A    between atoms: C22_31  and  O7_32 
REMARK       I    between atoms: N1_34  and  C23_36 
REMARK   12  A    between atoms: N3_38  and  C24_40 
ROOT
HETATM    1  C5  UNL     1      11.354  -6.481  -5.466  1.00  0.00     0.166 C 
HETATM    2  C6  UNL     1      11.360  -7.518  -4.404  1.00  0.00     0.070 C 
HETATM    3  C7  UNL     1      10.116  -7.518  -3.543  1.00  0.00     0.163 C 
HETATM    4  C20 UNL     1       8.914  -6.979  -4.280  1.00  0.00     0.179 C 
HETATM    5  C21 UNL     1       9.088  -5.741  -5.048  1.00  0.00     0.180 C 
HETATM    6  C22 UNL     1      10.534  -5.309  -5.047  1.00  0.00     0.179 C 
ENDROOT
BRANCH   1   7
HETATM    7  O2  UNL     1      12.654  -6.143  -5.874  1.00  0.00    -0.310 OA
BRANCH   7   8
HETATM    8  C4  UNL     1      13.011  -5.736  -7.151  1.00  0.00     0.285 C 
HETATM    9  O1  UNL     1      13.278  -4.549  -7.321  1.00  0.00    -0.260 OA
BRANCH   8  10
HETATM   10  C3  UNL     1      13.053  -6.707  -8.212  1.00  0.00     0.106 C 
HETATM   11  C2  UNL     1      14.099  -7.455  -8.420  1.00  0.00     0.013 C 
HETATM   12  C1  UNL     1      14.074  -8.452  -9.552  1.00  0.00     0.068 C 
BRANCH  11  13
HETATM   13  N1  UNL     1      15.247  -7.354  -7.614  1.00  0.00    -0.335 N 
HETATM   14  C23 UNL     1      15.368  -8.157  -6.441  1.00  0.00     0.190 C 
HETATM   15  N2  UNL     1      15.115  -9.565  -6.589  1.00  0.00    -0.063 NA
HETATM   16  N3  UNL     1      15.691  -7.650  -5.308  1.00  0.00    -0.342 N 
ATOM     17  H3  UNL     1      15.864  -6.647  -5.244  1.00  0.00     0.164 HD
ATOM     18  H1  UNL     1      15.993  -6.706  -7.868  1.00  0.00     0.168 HD
BRANCH  16  19
HETATM   19  C24 UNL     1      15.814  -8.455  -4.130  1.00  0.00     0.110 A 
HETATM   20 CL1  UNL     1      17.261  -9.495  -4.099  1.00  0.00    -0.096 Cl
HETATM   21  C25 UNL     1      14.541  -9.002  -3.582  1.00  0.00     0.051 A 
HETATM   22  C26 UNL     1      15.330  -7.958  -2.838  1.00  0.00     0.051 A 
ENDBRANCH  16  19
ENDBRANCH  11  13
ENDBRANCH   8  10
ENDBRANCH   7   8
ENDBRANCH   1   7
BRANCH   6  23
HETATM   23  O7  UNL     1      10.675  -4.219  -5.919  1.00  0.00    -0.390 OA
ATOM     24  H7  UNL     1      10.302  -3.422  -5.565  1.00  0.00     0.210 HD
ENDBRANCH   6  23
BRANCH   3  25
HETATM   25  O3  UNL     1      10.328  -6.760  -2.443  1.00  0.00    -0.340 OA
BRANCH  25  26
HETATM   26  C8  UNL     1      10.043  -6.763  -1.123  1.00  0.00     0.103 A 
HETATM   27  C9  UNL     1       8.740  -7.112  -0.700  1.00  0.00     0.040 A 
HETATM   28  C10 UNL     1       8.341  -7.150   0.590  1.00  0.00     0.003 A 
HETATM   29  C11 UNL     1       9.263  -6.825   1.588  1.00  0.00     0.003 A 
HETATM   30  C12 UNL     1      10.541  -6.479   1.228  1.00  0.00     0.040 A 
HETATM   31  C13 UNL     1      10.924  -6.448  -0.098  1.00  0.00     0.109 A 
BRANCH  31  32
HETATM   32  O4  UNL     1      12.242  -6.088  -0.425  1.00  0.00    -0.308 OA
BRANCH  32  33
HETATM   33  C14 UNL     1      12.943  -5.151   0.302  1.00  0.00     0.076 A 
HETATM   34  C15 UNL     1      14.316  -5.281   0.448  1.00  0.00     0.038 A 
HETATM   35  C16 UNL     1      15.034  -4.354   1.171  1.00  0.00     0.022 A 
HETATM   36  C17 UNL     1      14.438  -3.268   1.777  1.00  0.00     0.011 A 
HETATM   37 BR1  UNL     1      15.459  -1.996   2.775  1.00  0.00    -0.051 Br
HETATM   38  C18 UNL     1      13.070  -3.137   1.632  1.00  0.00     0.022 A 
HETATM   39  C19 UNL     1      12.348  -4.065   0.908  1.00  0.00     0.038 A 
ENDBRANCH  32  33
ENDBRANCH  31  32
ENDBRANCH  25  26
ENDBRANCH   3  25
BRANCH   5  40
HETATM   40  O6  UNL     1       8.339  -4.715  -4.469  1.00  0.00    -0.390 OA
ATOM     41  H6  UNL     1       7.810  -4.288  -5.133  1.00  0.00     0.210 HD
ENDBRANCH   5  40
BRANCH   4  42
HETATM   42  O5  UNL     1       8.517  -8.012  -5.160  1.00  0.00    -0.390 OA
ATOM     43  H5  UNL     1       7.942  -7.599  -5.792  1.00  0.00     0.210 HD
ENDBRANCH   4  42
TORSDOF 12
ENDMDL
MODEL 2
REMARK VINA RESULT: -8.135723480      2.268      3.646
REMARK  12 active torsions:
REMARK  status: ('A' for Active; 'I' for Inactive)
REMARK    1  A    between atoms: C2_2  and  N1_34 
REMARK    2  A    between atoms: C3_3  and  C4_4 
REMARK    3  A    between atoms: C4_4  and  O2_6 
REMARK    4  A    between atoms: O2_6  and  C5_7 
REMARK    5  A    between atoms: C7_9  and  O3_10 
REMARK    6  A    between atoms: O3_10  and  C8_11 
REMARK    7  A    between atoms: C13_16  and  O4_17 
REMARK    8  A    between atoms: O4_17  and  C14_18 
REMARK    9  A    between atoms: C20_25  and  O5_26 
REMARK   10  A    between atoms: C21_28  and  O6_29 
REMARK   11  A    between atoms: C22_31  and  O7_32 
REMARK       I    between atoms: N1_34  and  C23_36 
REMARK   12  A    between atoms: N3_38  and  C24_40 
ROOT
HETATM    1  C5  UNL     1      11.202  -6.174  -5.917  1.00  0.00     0.166 C 
HETATM    2  C6  UNL     1      11.891  -7.107  -4.990  1.00  0.00     0.070 C 
HETATM    3  C7  UNL     1      11.286  -7.149  -3.605  1.00  0.00     0.163 C 
HETATM    4  C20 UNL     1       9.818  -6.795  -3.614  1.00  0.00     0.179 C 
HETATM    5  C21 UNL     1       9.409  -5.620  -4.390  1.00  0.00     0.180 C 
HETATM    6  C22 UNL     1      10.577  -5.053  -5.160  1.00  0.00     0.179 C 
ENDROOT
BRANCH   1   7
HETATM    7  O2  UNL     1      12.047  -5.750  -6.956  1.00  0.00    -0.310 OA
BRANCH   7   8
HETATM    8  C4  UNL     1      11.869  -6.041  -8.299  1.00  0.00     0.285 C 
HETATM    9  O1  UNL     1      10.728  -6.275  -8.689  1.00  0.00    -0.260 OA
BRANCH   8  10
HETATM   10  C3  UNL     1      13.012  -6.057  -9.173  1.00  0.00     0.106 C 
HETATM   11  C2  UNL     1      14.016  -6.865  -8.979  1.00  0.00     0.013 C 
HETATM   12  C1  UNL     1      15.183  -6.828  -9.935  1.00  0.00     0.068 C 
BRANCH  11  13
HETATM   13  N1  UNL     1      14.034  -7.770  -7.902  1.00  0.00    -0.335 N 
HETATM   14  C23 UNL     1      15.064  -7.689  -6.919  1.00  0.00     0.190 C 
HETATM   15  N2  UNL     1      15.315  -6.394  -6.347  1.00  0.00    -0.063 NA
HETATM   16  N3  UNL     1      15.733  -8.722  -6.559  1.00  0.00    -0.342 N 
ATOM     17  H3  UNL     1      15.524  -9.623  -6.987  1.00  0.00     0.164 HD
ATOM     18  H1  UNL     1      13.310  -8.484  -7.826  1.00  0.00     0.168 HD
BRANCH  16  19
HETATM   19  C24 UNL     1      16.767  -8.643  -5.571  1.00  0.00     0.110 A 
HETATM   20 CL1  UNL     1      18.149  -7.617  -6.034  1.00  0.00    -0.096 Cl
HETATM   21  C25 UNL     1      17.042  -9.899  -4.819  1.00  0.00     0.051 A 
HETATM   22  C26 UNL     1      16.434  -8.699  -4.143  1.00  0.00     0.051 A 
ENDBRANCH  16  19
ENDBRANCH  11  13
ENDBRANCH   8  10
ENDBRANCH   7   8
ENDBRANCH   1   7
BRANCH   6  23
HETATM   23  O7  UNL     1      10.104  -4.037  -6.004  1.00  0.00    -0.390 OA
ATOM     24  H7  UNL     1       9.544  -4.371  -6.694  1.00  0.00     0.210 HD
ENDBRANCH   6  23
BRANCH   3  25
HETATM   25  O3  UNL     1      11.937  -6.280  -2.799  1.00  0.00    -0.340 OA
BRANCH  25  26
HETATM   26  C8  UNL     1      12.841  -6.288  -1.796  1.00  0.00     0.103 A 
HETATM   27  C9  UNL     1      14.150  -6.756  -2.051  1.00  0.00     0.040 A 
HETATM   28  C10 UNL     1      15.135  -6.809  -1.128  1.00  0.00     0.003 A 
HETATM   29  C11 UNL     1      14.861  -6.379   0.172  1.00  0.00     0.003 A 
HETATM   30  C12 UNL     1      13.604  -5.916   0.470  1.00  0.00     0.040 A 
HETATM   31  C13 UNL     1      12.615  -5.871  -0.492  1.00  0.00     0.109 A 
BRANCH  31  32
HETATM   32  O4  UNL     1      11.340  -5.390  -0.146  1.00  0.00    -0.308 OA
BRANCH  32  33
HETATM   33  C14 UNL     1      10.434  -6.163   0.548  1.00  0.00     0.076 A 
HETATM   34  C15 UNL     1       9.309  -6.649  -0.100  1.00  0.00     0.038 A 
HETATM   35  C16 UNL     1       8.392  -7.424   0.576  1.00  0.00     0.022 A 
HETATM   36  C17 UNL     1       8.540  -7.752   1.907  1.00  0.00     0.011 A 
HETATM   37 BR1  UNL     1       7.252  -8.829   2.821  1.00  0.00    -0.051 Br
HETATM   38  C18 UNL     1       9.662  -7.268   2.554  1.00  0.00     0.022 A 
HETATM   39  C19 UNL     1      10.582  -6.491   1.878  1.00  0.00     0.038 A 
ENDBRANCH  32  33
ENDBRANCH  31  32
ENDBRANCH  25  26
ENDBRANCH   3  25
BRANCH   5  40
HETATM   40  O6  UNL     1       8.943  -4.623  -3.531  1.00  0.00    -0.390 OA
ATOM     41  H6  UNL     1       9.595  -4.441  -2.864  1.00  0.00     0.210 HD
ENDBRANCH   5  40
BRANCH   4  42
HETATM   42  O5  UNL     1       9.159  -7.936  -4.128  1.00  0.00    -0.390 OA
ATOM     43  H5  UNL     1       8.300  -7.632  -4.397  1.00  0.00     0.210 HD
ENDBRANCH   4  42
TORSDOF 12
ENDMDL
MODEL 3
REMARK VINA RESULT: -8.113167603      2.377      4.182
REMARK  12 active torsions:
REMARK  status: ('A' for Active; 'I' for Inactive)
REMARK    1  A    between atoms: C2_2  and  N1_34 
REMARK    2  A    between atoms: C3_3  and  C4_4 
REMARK    3  A    between atoms: C4_4  and  O2_6 
REMARK    4  A    between atoms: O2_6  and  C5_7 
REMARK    5  A    between atoms: C7_9  and  O3_10 
REMARK    6  A    between atoms: O3_10  and  C8_11 
REMARK    7  A    between atoms: C13_16  and  O4_17 
REMARK    8  A    between atoms: O4_17  and  C14_18 
REMARK    9  A    between atoms: C20_25  and  O5_26 
REMARK   10  A    between atoms: C21_28  and  O6_29 
REMARK   11  A    between atoms: C22_31  and  O7_32 
REMARK       I    between atoms: N1_34  and  C23_36 
REMARK   12  A    between atoms: N3_38  and  C24_40 
ROOT
HETATM    1  C5  UNL     1      12.836  -6.961  -4.779  1.00  0.00     0.166 C 
HETATM    2  C6  UNL     1      13.919  -6.884  -3.767  1.00  0.00     0.070 C 
HETATM    3  C7  UNL     1      13.712  -7.801  -2.582  1.00  0.00     0.163 C 
HETATM    4  C20 UNL     1      12.882  -9.011  -2.936  1.00  0.00     0.179 C 
HETATM    5  C21 UNL     1      11.662  -8.791  -3.719  1.00  0.00     0.180 C 
HETATM    6  C22 UNL     1      11.548  -7.346  -4.138  1.00  0.00     0.179 C 
ENDROOT
BRANCH   1   7
HETATM    7  O2  UNL     1      12.755  -5.787  -5.548  1.00  0.00    -0.310 OA
BRANCH   7   8
HETATM    8  C4  UNL     1      12.986  -5.708  -6.913  1.00  0.00     0.285 C 
HETATM    9  O1  UNL     1      13.400  -4.643  -7.363  1.00  0.00    -0.260 OA
BRANCH   8  10
HETATM   10  C3  UNL     1      12.734  -6.861  -7.736  1.00  0.00     0.106 C 
HETATM   11  C2  UNL     1      13.686  -7.453  -8.401  1.00  0.00     0.013 C 
HETATM   12  C1  UNL     1      13.350  -8.657  -9.246  1.00  0.00     0.068 C 
BRANCH  11  13
HETATM   13  N1  UNL     1      15.015  -6.997  -8.346  1.00  0.00    -0.335 N 
HETATM   14  C23 UNL     1      15.985  -7.713  -7.585  1.00  0.00     0.190 C 
HETATM   15  N2  UNL     1      16.066  -9.131  -7.805  1.00  0.00    -0.063 NA
HETATM   16  N3  UNL     1      16.751  -7.121  -6.744  1.00  0.00    -0.342 N 
ATOM     17  H3  UNL     1      16.664  -6.113  -6.616  1.00  0.00     0.164 HD
ATOM     18  H1  UNL     1      15.285  -6.153  -8.852  1.00  0.00     0.168 HD
BRANCH  16  19
HETATM   19  C24 UNL     1      17.726  -7.838  -5.979  1.00  0.00     0.110 A 
HETATM   20 CL1  UNL     1      17.060  -8.724  -4.583  1.00  0.00    -0.096 Cl
HETATM   21  C25 UNL     1      19.048  -7.169  -5.822  1.00  0.00     0.051 A 
HETATM   22  C26 UNL     1      18.899  -8.427  -6.636  1.00  0.00     0.051 A 
ENDBRANCH  16  19
ENDBRANCH  11  13
ENDBRANCH   8  10
ENDBRANCH   7   8
ENDBRANCH   1   7
BRANCH   6  23
HETATM   23  O7  UNL     1      10.457  -7.219  -5.012  1.00  0.00    -0.390 OA
ATOM     24  H7  UNL     1       9.683  -6.883  -4.578  1.00  0.00     0.210 HD
ENDBRANCH   6  23
BRANCH   3  25
HETATM   25  O3  UNL     1      13.091  -7.124  -1.589  1.00  0.00    -0.340 OA
BRANCH  25  26
HETATM   26  C8  UNL     1      13.341  -6.129  -0.710  1.00  0.00     0.103 A 
HETATM   27  C9  UNL     1      14.681  -5.808  -0.396  1.00  0.00     0.040 A 
HETATM   28  C10 UNL     1      15.051  -4.835   0.465  1.00  0.00     0.003 A 
HETATM   29  C11 UNL     1      14.057  -4.087   1.099  1.00  0.00     0.003 A 
HETATM   30  C12 UNL     1      12.741  -4.361   0.828  1.00  0.00     0.040 A 
HETATM   31  C13 UNL     1      12.389  -5.360  -0.058  1.00  0.00     0.109 A 
BRANCH  31  32
HETATM   32  O4  UNL     1      11.028  -5.610  -0.308  1.00  0.00    -0.308 OA
BRANCH  32  33
HETATM   33  C14 UNL     1      10.236  -6.291   0.590  1.00  0.00     0.076 A 
HETATM   34  C15 UNL     1       8.987  -6.746   0.195  1.00  0.00     0.038 A 
HETATM   35  C16 UNL     1       8.180  -7.431   1.078  1.00  0.00     0.022 A 
HETATM   36  C17 UNL     1       8.563  -7.694   2.376  1.00  0.00     0.011 A 
HETATM   37 BR1  UNL     1       7.423  -8.646   3.581  1.00  0.00    -0.051 Br
HETATM   38  C18 UNL     1       9.808  -7.241   2.771  1.00  0.00     0.022 A 
HETATM   39  C19 UNL     1      10.618  -6.555   1.888  1.00  0.00     0.038 A 
ENDBRANCH  32  33
ENDBRANCH  31  32
ENDBRANCH  25  26
ENDBRANCH   3  25
BRANCH   5  40
HETATM   40  O6  UNL     1      10.540  -9.098  -2.946  1.00  0.00    -0.390 OA
ATOM     41  H6  UNL     1       9.792  -8.597  -3.249  1.00  0.00     0.210 HD
ENDBRANCH   5  40
BRANCH   4  42
HETATM   42  O5  UNL     1      13.747  -9.860  -3.664  1.00  0.00    -0.390 OA
ATOM     43  H5  UNL     1      13.283 -10.065  -4.468  1.00  0.00     0.210 HD
ENDBRANCH   4  42
TORSDOF 12
ENDMDL
MODEL 4
REMARK VINA RESULT: -8.064884848      1.219      1.638
REMARK  12 active torsions:
REMARK  status: ('A' for Active; 'I' for Inactive)
REMARK    1  A    between atoms: C2_2  and  N1_34 
REMARK    2  A    between atoms: C3_3  and  C4_4 
REMARK    3  A    between atoms: C4_4  and  O2_6 
REMARK    4  A    between atoms: O2_6  and  C5_7 
REMARK    5  A    between atoms: C7_9  and  O3_10 
REMARK    6  A    between atoms: O3_10  and  C8_11 
REMARK    7  A    between atoms: C13_16  and  O4_17 
REMARK    8  A    between atoms: O4_17  and  C14_18 
REMARK    9  A    between atoms: C20_25  and  O5_26 
REMARK   10  A    between atoms: C21_28  and  O6_29 
REMARK   11  A    between atoms: C22_31  and  O7_32 
REMARK       I    between atoms: N1_34  and  C23_36 
REMARK   12  A    between atoms: N3_38  and  C24_40 
ROOT
HETATM    1  C5  UNL     1      11.239  -6.135  -5.340  1.00  0.00     0.166 C 
HETATM    2  C6  UNL     1      11.301  -7.174  -4.282  1.00  0.00     0.070 C 
HETATM    3  C7  UNL     1      10.037  -7.281  -3.457  1.00  0.00     0.163 C 
HETATM    4  C20 UNL     1       8.816  -6.837  -4.225  1.00  0.00     0.179 C 
HETATM    5  C21 UNL     1       8.910  -5.585  -4.984  1.00  0.00     0.180 C 
HETATM    6  C22 UNL     1      10.315  -5.037  -4.940  1.00  0.00     0.179 C 
ENDROOT
BRANCH   1   7
HETATM    7  O2  UNL     1      12.519  -5.689  -5.710  1.00  0.00    -0.310 OA
BRANCH   7   8
HETATM    8  C4  UNL     1      13.065  -5.794  -6.980  1.00  0.00     0.285 C 
HETATM    9  O1  UNL     1      13.401  -4.757  -7.547  1.00  0.00    -0.260 OA
BRANCH   8  10
HETATM   10  C3  UNL     1      13.215  -7.095  -7.575  1.00  0.00     0.106 C 
HETATM   11  C2  UNL     1      14.064  -7.969  -7.114  1.00  0.00     0.013 C 
HETATM   12  C1  UNL     1      14.169  -9.315  -7.789  1.00  0.00     0.068 C 
BRANCH  11  13
HETATM   13  N1  UNL     1      14.881  -7.688  -6.005  1.00  0.00    -0.335 N 
HETATM   14  C23 UNL     1      16.261  -8.047  -6.025  1.00  0.00     0.190 C 
HETATM   15  N2  UNL     1      17.019  -7.650  -7.180  1.00  0.00    -0.063 NA
HETATM   16  N3  UNL     1      16.802  -8.692  -5.057  1.00  0.00    -0.342 N 
ATOM     17  H3  UNL     1      16.231  -8.955  -4.254  1.00  0.00     0.164 HD
ATOM     18  H1  UNL     1      14.485  -7.226  -5.186  1.00  0.00     0.168 HD
BRANCH  16  19
HETATM   19  C24 UNL     1      18.188  -9.053  -5.075  1.00  0.00     0.110 A 
HETATM   20 CL1  UNL     1      19.307  -7.684  -4.854  1.00  0.00    -0.096 Cl
HETATM   21  C25 UNL     1      18.567 -10.125  -6.039  1.00  0.00     0.051 A 
HETATM   22  C26 UNL     1      18.623 -10.353  -4.552  1.00  0.00     0.051 A 
ENDBRANCH  16  19
ENDBRANCH  11  13
ENDBRANCH   8  10
ENDBRANCH   7   8
ENDBRANCH   1   7
BRANCH   6  23
HETATM   23  O7  UNL     1      10.391  -3.934  -5.805  1.00  0.00    -0.390 OA
ATOM     24  H7  UNL     1       9.541  -3.543  -5.968  1.00  0.00     0.210 HD
ENDBRANCH   6  23
BRANCH   3  25
HETATM   25  O3  UNL     1      10.155  -6.515  -2.348  1.00  0.00    -0.340 OA
BRANCH  25  26
HETATM   26  C8  UNL     1       9.950  -6.596  -1.016  1.00  0.00     0.103 A 
HETATM   27  C9  UNL     1       8.664  -6.935  -0.536  1.00  0.00     0.040 A 
HETATM   28  C10 UNL     1       8.342  -7.047   0.772  1.00  0.00     0.003 A 
HETATM   29  C11 UNL     1       9.333  -6.814   1.728  1.00  0.00     0.003 A 
HETATM   30  C12 UNL     1      10.597  -6.481   1.313  1.00  0.00     0.040 A 
HETATM   31  C13 UNL     1      10.901  -6.375  -0.030  1.00  0.00     0.109 A 
BRANCH  31  32
HETATM   32  O4  UNL     1      12.208  -6.031  -0.415  1.00  0.00    -0.308 OA
BRANCH  32  33
HETATM   33  C14 UNL     1      12.963  -5.127   0.299  1.00  0.00     0.076 A 
HETATM   34  C15 UNL     1      12.345  -4.046   0.909  1.00  0.00     0.038 A 
HETATM   35  C16 UNL     1      13.083  -3.131   1.628  1.00  0.00     0.022 A 
HETATM   36  C17 UNL     1      14.449  -3.238   1.777  1.00  0.00     0.011 A 
HETATM   37 BR1  UNL     1      15.449  -1.954   2.780  1.00  0.00    -0.051 Br
HETATM   38  C18 UNL     1      15.068  -4.315   1.169  1.00  0.00     0.022 A 
HETATM   39  C19 UNL     1      14.329  -5.233   0.449  1.00  0.00     0.038 A 
ENDBRANCH  32  33
ENDBRANCH  31  32
ENDBRANCH  25  26
ENDBRANCH   3  25
BRANCH   5  40
HETATM   40  O6  UNL     1       8.063  -4.627  -4.423  1.00  0.00    -0.390 OA
ATOM     41  H6  UNL     1       7.938  -3.910  -5.034  1.00  0.00     0.210 HD
ENDBRANCH   5  40
BRANCH   4  42
HETATM   42  O5  UNL     1       8.530  -7.894  -5.120  1.00  0.00    -0.390 OA
ATOM     43  H5  UNL     1       8.887  -7.621  -5.957  1.00  0.00     0.210 HD
ENDBRANCH   4  42
TORSDOF 12
ENDMDL
MODEL 5
REMARK VINA RESULT: -8.055373468      4.114      7.349
REMARK  12 active torsions:
REMARK  status: ('A' for Active; 'I' for Inactive)
REMARK    1  A    between atoms: C2_2  and  N1_34 
REMARK    2  A    between atoms: C3_3  and  C4_4 
REMARK    3  A    between atoms: C4_4  and  O2_6 
REMARK    4  A    between atoms: O2_6  and  C5_7 
REMARK    5  A    between atoms: C7_9  and  O3_10 
REMARK    6  A    between atoms: O3_10  and  C8_11 
REMARK    7  A    between atoms: C13_16  and  O4_17 
REMARK    8  A    between atoms: O4_17  and  C14_18 
REMARK    9  A    between atoms: C20_25  and  O5_26 
REMARK   10  A    between atoms: C21_28  and  O6_29 
REMARK   11  A    between atoms: C22_31  and  O7_32 
REMARK       I    between atoms: N1_34  and  C23_36 
REMARK   12  A    between atoms: N3_38  and  C24_40 
ROOT
HETATM    1  C5  UNL     1      13.497  -7.315  -2.213  1.00  0.00     0.166 C 
HETATM    2  C6  UNL     1      12.101  -7.731  -1.928  1.00  0.00     0.070 C 
HETATM    3  C7  UNL     1      11.540  -8.713  -2.932  1.00  0.00     0.163 C 
HETATM    4  C20 UNL     1      12.620  -9.542  -3.582  1.00  0.00     0.179 C 
HETATM    5  C21 UNL     1      13.816  -8.842  -4.063  1.00  0.00     0.180 C 
HETATM    6  C22 UNL     1      13.774  -7.384  -3.676  1.00  0.00     0.179 C 
ENDROOT
BRANCH   1   7
HETATM    7  O2  UNL     1      13.799  -6.068  -1.640  1.00  0.00    -0.310 OA
BRANCH   7   8
HETATM    8  C4  UNL     1      14.142  -5.861  -0.314  1.00  0.00     0.285 C 
HETATM    9  O1  UNL     1      13.302  -6.123   0.544  1.00  0.00    -0.260 OA
BRANCH   8  10
HETATM   10  C3  UNL     1      15.450  -5.353   0.003  1.00  0.00     0.106 C 
HETATM   11  C2  UNL     1      15.617  -4.222   0.628  1.00  0.00     0.013 C 
HETATM   12  C1  UNL     1      17.018  -3.749   0.927  1.00  0.00     0.068 C 
BRANCH  11  13
HETATM   13  N1  UNL     1      14.523  -3.435   1.030  1.00  0.00    -0.335 N 
HETATM   14  C23 UNL     1      14.403  -3.020   2.389  1.00  0.00     0.190 C 
HETATM   15  N2  UNL     1      15.562  -2.414   2.987  1.00  0.00    -0.063 NA
HETATM   16  N3  UNL     1      13.313  -3.176   3.048  1.00  0.00    -0.342 N 
ATOM     17  H3  UNL     1      12.513  -3.609   2.587  1.00  0.00     0.164 HD
ATOM     18  H1  UNL     1      13.814  -3.162   0.349  1.00  0.00     0.168 HD
BRANCH  16  19
HETATM   19  C24 UNL     1      13.192  -2.759   4.412  1.00  0.00     0.110 A 
HETATM   20 CL1  UNL     1      14.454  -3.402   5.493  1.00  0.00    -0.096 Cl
HETATM   21  C25 UNL     1      11.801  -2.654   4.936  1.00  0.00     0.051 A 
HETATM   22  C26 UNL     1      12.656  -1.432   4.737  1.00  0.00     0.051 A 
ENDBRANCH  16  19
ENDBRANCH  11  13
ENDBRANCH   8  10
ENDBRANCH   7   8
ENDBRANCH   1   7
BRANCH   6  23
HETATM   23  O7  UNL     1      15.003  -6.797  -4.015  1.00  0.00    -0.390 OA
ATOM     24  H7  UNL     1      15.636  -6.848  -3.309  1.00  0.00     0.210 HD
ENDBRANCH   6  23
BRANCH   3  25
HETATM   25  O3  UNL     1      10.868  -8.042  -3.895  1.00  0.00    -0.340 OA
BRANCH  25  26
HETATM   26  C8  UNL     1      10.264  -6.850  -4.087  1.00  0.00     0.103 A 
HETATM   27  C9  UNL     1      10.876  -5.896  -4.933  1.00  0.00     0.040 A 
HETATM   28  C10 UNL     1      10.366  -4.674  -5.199  1.00  0.00     0.003 A 
HETATM   29  C11 UNL     1       9.154  -4.309  -4.607  1.00  0.00     0.003 A 
HETATM   30  C12 UNL     1       8.522  -5.200  -3.777  1.00  0.00     0.040 A 
HETATM   31  C13 UNL     1       9.064  -6.444  -3.522  1.00  0.00     0.109 A 
BRANCH  31  32
HETATM   32  O4  UNL     1       8.385  -7.328  -2.666  1.00  0.00    -0.308 OA
BRANCH  32  33
HETATM   33  C14 UNL     1       8.556  -7.293  -1.299  1.00  0.00     0.076 A 
HETATM   34  C15 UNL     1       7.816  -8.144  -0.493  1.00  0.00     0.038 A 
HETATM   35  C16 UNL     1       7.973  -8.125   0.876  1.00  0.00     0.022 A 
HETATM   36  C17 UNL     1       8.856  -7.274   1.506  1.00  0.00     0.011 A 
HETATM   37 BR1  UNL     1       9.054  -7.267   3.407  1.00  0.00    -0.051 Br
HETATM   38  C18 UNL     1       9.594  -6.423   0.703  1.00  0.00     0.022 A 
HETATM   39  C19 UNL     1       9.438  -6.442  -0.668  1.00  0.00     0.038 A 
ENDBRANCH  32  33
ENDBRANCH  31  32
ENDBRANCH  25  26
ENDBRANCH   3  25
BRANCH   5  40
HETATM   40  O6  UNL     1      13.877  -8.910  -5.456  1.00  0.00    -0.390 OA
ATOM     41  H6  UNL     1      13.194  -9.484  -5.782  1.00  0.00     0.210 HD
ENDBRANCH   5  40
BRANCH   4  42
HETATM   42  O5  UNL     1      13.006 -10.491  -2.607  1.00  0.00    -0.390 OA
ATOM     43  H5  UNL     1      13.853 -10.815  -2.889  1.00  0.00     0.210 HD
ENDBRANCH   4  42
TORSDOF 12
ENDMDL
