MODEL 1
REMARK VINA RESULT: -7.341613795      0.000      0.000
REMARK  13 active torsions:
REMARK  status: ('A' for Active; 'I' for Inactive)
REMARK    1  A    between atoms: C2_2  and  C24_36 
REMARK    2  A    between atoms: C3_3  and  C4_4 
REMARK    3  A    between atoms: C4_4  and  C5_5 
REMARK    4  A    between atoms: C5_5  and  C7_7 
REMARK    5  A    between atoms: C8_8  and  O1_9 
REMARK    6  A    between atoms: O1_9  and  C9_10 
REMARK    7  A    between atoms: C9_10  and  C10_12 
REMARK    8  A    between atoms: C13_15  and  O3_16 
REMARK    9  A    between atoms: C18_24  and  C20_26 
REMARK   10  A    between atoms: C20_26  and  O4_27 
REMARK   11  A    between atoms: C20_26  and  C21_29 
REMARK   12  A    between atoms: C21_29  and  O5_31 
REMARK   13  A    between atoms: C23_33  and  O6_34 
ROOT
HETATM    1  C7  UNL     1      10.327  -7.667  -2.449  1.00  0.00     0.054 C 
HETATM    2  C8  UNL     1      11.831  -7.643  -2.467  1.00  0.00     0.180 C 
HETATM    3  C16 UNL     1      12.403  -7.733  -3.854  1.00  0.00     0.033 C 
HETATM    4 BR1  UNL     1      14.023  -6.801  -4.295  1.00  0.00    -0.052 Br
HETATM    5  C17 UNL     1      11.811  -8.452  -4.789  1.00  0.00     0.018 C 
HETATM    6 BR2  UNL     1      12.654  -8.473  -6.524  1.00  0.00    -0.053 Br
HETATM    7  C18 UNL     1      10.543  -9.153  -4.481  1.00  0.00     0.046 C 
HETATM    8  C19 UNL     1       9.821  -9.335  -5.812  1.00  0.00     0.026 C 
HETATM    9  C23 UNL     1       9.653  -8.241  -3.646  1.00  0.00     0.141 C 
ENDROOT
BRANCH   2  10
HETATM   10  O1  UNL     1      12.346  -6.435  -1.917  1.00  0.00    -0.306 OA
BRANCH  10  11
HETATM   11  C9  UNL     1      13.010  -6.489  -0.728  1.00  0.00     0.294 C 
HETATM   12  O2  UNL     1      13.268  -7.640  -0.237  1.00  0.00    -0.259 OA
BRANCH  11  13
HETATM   13  C10 UNL     1      13.450  -5.334   0.031  1.00  0.00     0.039 A 
HETATM   14  C11 UNL     1      14.779  -4.957   0.066  1.00  0.00     0.020 A 
HETATM   15  C12 UNL     1      15.200  -3.853   0.792  1.00  0.00     0.037 A 
HETATM   16  C13 UNL     1      14.303  -3.086   1.507  1.00  0.00     0.065 A 
HETATM   17  C14 UNL     1      12.975  -3.457   1.476  1.00  0.00     0.037 A 
HETATM   18  C15 UNL     1      12.576  -4.554   0.752  1.00  0.00     0.020 A 
BRANCH  16  19
HETATM   19  O3  UNL     1      14.723  -1.971   2.241  1.00  0.00    -0.361 OA
ATOM     20  H3  UNL     1      14.128  -1.258   2.438  1.00  0.00     0.217 HD
ENDBRANCH  16  19
ENDBRANCH  11  13
ENDBRANCH  10  11
ENDBRANCH   2  10
BRANCH   1  21
HETATM   21  C5  UNL     1       9.772  -6.350  -2.007  1.00  0.00    -0.006 C 
HETATM   22  C6  UNL     1       9.108  -5.544  -3.095  1.00  0.00     0.011 C 
BRANCH  21  23
HETATM   23  C4  UNL     1       8.791  -6.411  -0.869  1.00  0.00     0.032 C 
BRANCH  23  24
HETATM   24  C3  UNL     1       9.465  -6.560   0.444  1.00  0.00    -0.013 C 
HETATM   25  C2  UNL     1       8.987  -6.931   1.582  1.00  0.00     0.011 C 
HETATM   26  C1  UNL     1       9.930  -6.989   2.775  1.00  0.00     0.055 C 
BRANCH  25  27
HETATM   27  C24 UNL     1       7.639  -7.325   1.870  1.00  0.00     0.204 C 
HETATM   28  O7  UNL     1       7.265  -8.500   2.035  1.00  0.00    -0.644 OA
HETATM   29  O8  UNL     1       6.598  -6.369   1.990  1.00  0.00    -0.644 OA
ENDBRANCH  25  27
ENDBRANCH  23  24
ENDBRANCH  21  23
ENDBRANCH   1  21
BRANCH   9  30
HETATM   30  O6  UNL     1       8.531  -8.947  -3.237  1.00  0.00    -0.394 OA
ATOM     31  H6  UNL     1       7.870  -8.333  -2.940  1.00  0.00     0.210 HD
ENDBRANCH   9  30
BRANCH   7  32
HETATM   32  C20 UNL     1      10.753 -10.470  -3.871  1.00  0.00     0.162 C 
BRANCH  32  33
HETATM   33  O4  UNL     1       9.740 -11.394  -4.253  1.00  0.00    -0.392 OA
ATOM     34  H4  UNL     1       9.529 -11.997  -3.550  1.00  0.00     0.210 HD
ENDBRANCH  32  33
BRANCH  32  35
HETATM   35  C21 UNL     1      12.021 -11.190  -4.171  1.00  0.00     0.144 C 
HETATM   36  C22 UNL     1      11.731 -12.572  -4.797  1.00  0.00     0.042 C 
BRANCH  35  37
HETATM   37  O5  UNL     1      12.831 -11.471  -3.084  1.00  0.00    -0.393 OA
ATOM     38  H5  UNL     1      12.414 -11.921  -2.359  1.00  0.00     0.210 HD
ENDBRANCH  35  37
ENDBRANCH  32  35
ENDBRANCH   7  32
TORSDOF 13
ENDMDL
MODEL 2
REMARK VINA RESULT: -7.325808385      2.449      5.684
REMARK  13 active torsions:
REMARK  status: ('A' for Active; 'I' for Inactive)
REMARK    1  A    between atoms: C2_2  and  C24_36 
REMARK    2  A    between atoms: C3_3  and  C4_4 
REMARK    3  A    between atoms: C4_4  and  C5_5 
REMARK    4  A    between atoms: C5_5  and  C7_7 
REMARK    5  A    between atoms: C8_8  and  O1_9 
REMARK    6  A    between atoms: O1_9  and  C9_10 
REMARK    7  A    between atoms: C9_10  and  C10_12 
REMARK    8  A    between atoms: C13_15  and  O3_16 
REMARK    9  A    between atoms: C18_24  and  C20_26 
REMARK   10  A    between atoms: C20_26  and  O4_27 
REMARK   11  A    between atoms: C20_26  and  C21_29 
REMARK   12  A    between atoms: C21_29  and  O5_31 
REMARK   13  A    between atoms: C23_33  and  O6_34 
ROOT
HETATM    1  C7  UNL     1      13.339  -6.536  -3.222  1.00  0.00     0.054 C 
HETATM    2  C8  UNL     1      11.853  -6.746  -3.120  1.00  0.00     0.180 C 
HETATM    3  C16 UNL     1      11.353  -7.848  -4.011  1.00  0.00     0.033 C 
HETATM    4 BR1  UNL     1       9.889  -8.957  -3.451  1.00  0.00    -0.052 Br
HETATM    5  C17 UNL     1      11.905  -8.074  -5.190  1.00  0.00     0.018 C 
HETATM    6 BR2  UNL     1      11.165  -9.525  -6.224  1.00  0.00    -0.053 Br
HETATM    7  C18 UNL     1      13.056  -7.253  -5.628  1.00  0.00     0.046 C 
HETATM    8  C19 UNL     1      13.826  -8.100  -6.637  1.00  0.00     0.026 C 
HETATM    9  C23 UNL     1      14.004  -7.045  -4.453  1.00  0.00     0.141 C 
ENDROOT
BRANCH   2  10
HETATM   10  O1  UNL     1      11.460  -7.111  -1.801  1.00  0.00    -0.306 OA
BRANCH  10  11
HETATM   11  C9  UNL     1      10.427  -6.440  -1.218  1.00  0.00     0.294 C 
HETATM   12  O2  UNL     1       9.784  -5.594  -1.927  1.00  0.00    -0.259 OA
BRANCH  11  13
HETATM   13  C10 UNL     1       9.996  -6.611   0.156  1.00  0.00     0.039 A 
HETATM   14  C11 UNL     1       8.668  -6.823   0.475  1.00  0.00     0.020 A 
HETATM   15  C12 UNL     1       8.256  -6.987   1.789  1.00  0.00     0.037 A 
HETATM   16  C13 UNL     1       9.161  -6.946   2.830  1.00  0.00     0.065 A 
HETATM   17  C14 UNL     1      10.487  -6.736   2.519  1.00  0.00     0.037 A 
HETATM   18  C15 UNL     1      10.878  -6.575   1.212  1.00  0.00     0.020 A 
BRANCH  16  19
HETATM   19  O3  UNL     1       8.749  -7.111   4.158  1.00  0.00    -0.361 OA
ATOM     20  H3  UNL     1       9.372  -7.313   4.845  1.00  0.00     0.217 HD
ENDBRANCH  16  19
ENDBRANCH  11  13
ENDBRANCH  10  11
ENDBRANCH   2  10
BRANCH   1  21
HETATM   21  C5  UNL     1      14.026  -6.922  -1.951  1.00  0.00    -0.006 C 
HETATM   22  C6  UNL     1      15.031  -8.038  -2.086  1.00  0.00     0.011 C 
BRANCH  21  23
HETATM   23  C4  UNL     1      14.730  -5.806  -1.231  1.00  0.00     0.032 C 
BRANCH  23  24
HETATM   24  C3  UNL     1      13.808  -5.020  -0.376  1.00  0.00    -0.013 C 
HETATM   25  C2  UNL     1      14.065  -4.212   0.595  1.00  0.00     0.011 C 
HETATM   26  C1  UNL     1      12.897  -3.539   1.301  1.00  0.00     0.055 C 
BRANCH  25  27
HETATM   27  C24 UNL     1      15.356  -3.844   1.098  1.00  0.00     0.204 C 
HETATM   28  O7  UNL     1      16.428  -4.021   0.491  1.00  0.00    -0.644 OA
HETATM   29  O8  UNL     1      15.509  -3.232   2.369  1.00  0.00    -0.644 OA
ENDBRANCH  25  27
ENDBRANCH  23  24
ENDBRANCH  21  23
ENDBRANCH   1  21
BRANCH   9  30
HETATM   30  O6  UNL     1      15.005  -6.159  -4.824  1.00  0.00    -0.394 OA
ATOM     31  H6  UNL     1      15.235  -6.315  -5.732  1.00  0.00     0.210 HD
ENDBRANCH   9  30
BRANCH   7  32
HETATM   32  C20 UNL     1      12.652  -5.999  -6.272  1.00  0.00     0.162 C 
BRANCH  32  33
HETATM   33  O4  UNL     1      13.356  -5.781  -7.489  1.00  0.00    -0.392 OA
ATOM     34  H4  UNL     1      12.913  -6.180  -8.228  1.00  0.00     0.210 HD
ENDBRANCH  32  33
BRANCH  32  35
HETATM   35  C21 UNL     1      11.223  -5.835  -6.655  1.00  0.00     0.144 C 
HETATM   36  C22 UNL     1      11.042  -6.005  -8.180  1.00  0.00     0.042 C 
BRANCH  35  37
HETATM   37  O5  UNL     1      10.658  -4.602  -6.379  1.00  0.00    -0.393 OA
ATOM     38  H5  UNL     1       9.728  -4.520  -6.555  1.00  0.00     0.210 HD
ENDBRANCH  35  37
ENDBRANCH  32  35
ENDBRANCH   7  32
TORSDOF 13
ENDMDL
MODEL 3
REMARK VINA RESULT: -7.004894662      2.539      5.906
REMARK  13 active torsions:
REMARK  status: ('A' for Active; 'I' for Inactive)
REMARK    1  A    between atoms: C2_2  and  C24_36 
REMARK    2  A    between atoms: C3_3  and  C4_4 
REMARK    3  A    between atoms: C4_4  and  C5_5 
REMARK    4  A    between atoms: C5_5  and  C7_7 
REMARK    5  A    between atoms: C8_8  and  O1_9 
REMARK    6  A    between atoms: O1_9  and  C9_10 
REMARK    7  A    between atoms: C9_10  and  C10_12 
REMARK    8  A    between atoms: C13_15  and  O3_16 
REMARK    9  A    between atoms: C18_24  and  C20_26 
REMARK   10  A    between atoms: C20_26  and  O4_27 
REMARK   11  A    between atoms: C20_26  and  C21_29 
REMARK   12  A    between atoms: C21_29  and  O5_31 
REMARK   13  A    between atoms: C23_33  and  O6_34 
ROOT
HETATM    1  C7  UNL     1      12.856  -7.455  -3.418  1.00  0.00     0.054 C 
HETATM    2  C8  UNL     1      11.618  -7.334  -4.264  1.00  0.00     0.180 C 
HETATM    3  C16 UNL     1      11.682  -8.160  -5.519  1.00  0.00     0.033 C 
HETATM    4 BR1  UNL     1      10.091  -8.974  -6.223  1.00  0.00    -0.052 Br
HETATM    5  C17 UNL     1      12.822  -8.340  -6.159  1.00  0.00     0.018 C 
HETATM    6 BR2  UNL     1      12.755  -9.428  -7.750  1.00  0.00    -0.053 Br
HETATM    7  C18 UNL     1      14.067  -7.750  -5.616  1.00  0.00     0.046 C 
HETATM    8  C19 UNL     1      15.213  -8.602  -6.152  1.00  0.00     0.026 C 
HETATM    9  C23 UNL     1      14.092  -7.927  -4.103  1.00  0.00     0.141 C 
ENDROOT
BRANCH   2  10
HETATM   10  O1  UNL     1      10.458  -7.779  -3.570  1.00  0.00    -0.306 OA
BRANCH  10  11
HETATM   11  C9  UNL     1       9.731  -6.869  -2.863  1.00  0.00     0.294 C 
HETATM   12  O2  UNL     1       9.616  -5.690  -3.342  1.00  0.00    -0.259 OA
BRANCH  11  13
HETATM   13  C10 UNL     1       9.070  -7.134  -1.599  1.00  0.00     0.039 A 
HETATM   14  C11 UNL     1       8.069  -8.080  -1.492  1.00  0.00     0.020 A 
HETATM   15  C12 UNL     1       7.437  -8.334  -0.284  1.00  0.00     0.037 A 
HETATM   16  C13 UNL     1       7.789  -7.648   0.861  1.00  0.00     0.065 A 
HETATM   17  C14 UNL     1       8.788  -6.704   0.762  1.00  0.00     0.037 A 
HETATM   18  C15 UNL     1       9.402  -6.465  -0.443  1.00  0.00     0.020 A 
BRANCH  16  19
HETATM   19  O3  UNL     1       7.154  -7.901   2.083  1.00  0.00    -0.361 OA
ATOM     20  H3  UNL     1       6.650  -8.694   2.221  1.00  0.00     0.217 HD
ENDBRANCH  16  19
ENDBRANCH  11  13
ENDBRANCH  10  11
ENDBRANCH   2  10
BRANCH   1  21
HETATM   21  C5  UNL     1      12.563  -8.160  -2.131  1.00  0.00    -0.006 C 
HETATM   22  C6  UNL     1      12.635  -9.664  -2.200  1.00  0.00     0.011 C 
BRANCH  21  23
HETATM   23  C4  UNL     1      13.412  -7.749  -0.961  1.00  0.00     0.032 C 
BRANCH  23  24
HETATM   24  C3  UNL     1      12.840  -6.592  -0.230  1.00  0.00    -0.013 C 
HETATM   25  C2  UNL     1      13.365  -5.450   0.052  1.00  0.00     0.011 C 
HETATM   26  C1  UNL     1      12.526  -4.444   0.827  1.00  0.00     0.055 C 
BRANCH  25  27
HETATM   27  C24 UNL     1      14.676  -4.988  -0.297  1.00  0.00     0.204 C 
HETATM   28  O7  UNL     1      15.521  -5.659  -0.917  1.00  0.00    -0.644 OA
HETATM   29  O8  UNL     1      15.120  -3.686   0.051  1.00  0.00    -0.644 OA
ENDBRANCH  25  27
ENDBRANCH  23  24
ENDBRANCH  21  23
ENDBRANCH   1  21
BRANCH   9  30
HETATM   30  O6  UNL     1      15.184  -7.249  -3.580  1.00  0.00    -0.394 OA
ATOM     31  H6  UNL     1      15.537  -7.747  -2.853  1.00  0.00     0.210 HD
ENDBRANCH   9  30
BRANCH   7  32
HETATM   32  C20 UNL     1      14.271  -6.360  -6.037  1.00  0.00     0.162 C 
BRANCH  32  33
HETATM   33  O4  UNL     1      15.646  -6.079  -6.276  1.00  0.00    -0.392 OA
ATOM     34  H4  UNL     1      15.764  -5.520  -7.034  1.00  0.00     0.210 HD
ENDBRANCH  32  33
BRANCH  32  35
HETATM   35  C21 UNL     1      13.594  -5.896  -7.278  1.00  0.00     0.144 C 
HETATM   36  C22 UNL     1      14.492  -6.130  -8.513  1.00  0.00     0.042 C 
BRANCH  35  37
HETATM   37  O5  UNL     1      13.284  -4.548  -7.333  1.00  0.00    -0.393 OA
ATOM     38  H5  UNL     1      13.863  -4.008  -7.859  1.00  0.00     0.210 HD
ENDBRANCH  35  37
ENDBRANCH  32  35
ENDBRANCH   7  32
TORSDOF 13
ENDMDL
MODEL 4
REMARK VINA RESULT: -6.907977608      2.562      5.886
REMARK  13 active torsions:
REMARK  status: ('A' for Active; 'I' for Inactive)
REMARK    1  A    between atoms: C2_2  and  C24_36 
REMARK    2  A    between atoms: C3_3  and  C4_4 
REMARK    3  A    between atoms: C4_4  and  C5_5 
REMARK    4  A    between atoms: C5_5  and  C7_7 
REMARK    5  A    between atoms: C8_8  and  O1_9 
REMARK    6  A    between atoms: O1_9  and  C9_10 
REMARK    7  A    between atoms: C9_10  and  C10_12 
REMARK    8  A    between atoms: C13_15  and  O3_16 
REMARK    9  A    between atoms: C18_24  and  C20_26 
REMARK   10  A    between atoms: C20_26  and  O4_27 
REMARK   11  A    between atoms: C20_26  and  C21_29 
REMARK   12  A    between atoms: C21_29  and  O5_31 
REMARK   13  A    between atoms: C23_33  and  O6_34 
ROOT
HETATM    1  C7  UNL     1      11.412  -6.908  -2.556  1.00  0.00     0.054 C 
HETATM    2  C8  UNL     1       9.928  -7.045  -2.350  1.00  0.00     0.180 C 
HETATM    3  C16 UNL     1       9.247  -7.791  -3.464  1.00  0.00     0.033 C 
HETATM    4 BR1  UNL     1       7.742  -8.923  -3.091  1.00  0.00    -0.052 Br
HETATM    5  C17 UNL     1       9.665  -7.681  -4.711  1.00  0.00     0.018 C 
HETATM    6 BR2  UNL     1       8.700  -8.700  -6.035  1.00  0.00    -0.053 Br
HETATM    7  C18 UNL     1      10.844  -6.840  -5.017  1.00  0.00     0.046 C 
HETATM    8  C19 UNL     1      11.434  -7.386  -6.314  1.00  0.00     0.026 C 
HETATM    9  C23 UNL     1      11.911  -7.058  -3.951  1.00  0.00     0.141 C 
ENDROOT
BRANCH   2  10
HETATM   10  O1  UNL     1       9.625  -7.769  -1.162  1.00  0.00    -0.306 OA
BRANCH  10  11
HETATM   11  C9  UNL     1       8.820  -7.187  -0.230  1.00  0.00     0.294 C 
HETATM   12  O2  UNL     1       8.102  -6.193  -0.593  1.00  0.00    -0.259 OA
BRANCH  11  13
HETATM   13  C10 UNL     1       8.710  -7.608   1.154  1.00  0.00     0.039 A 
HETATM   14  C11 UNL     1       9.451  -7.007   2.153  1.00  0.00     0.020 A 
HETATM   15  C12 UNL     1       9.346  -7.410   3.476  1.00  0.00     0.037 A 
HETATM   16  C13 UNL     1       8.493  -8.429   3.844  1.00  0.00     0.065 A 
HETATM   17  C14 UNL     1       7.749  -9.033   2.852  1.00  0.00     0.037 A 
HETATM   18  C15 UNL     1       7.867  -8.621   1.547  1.00  0.00     0.020 A 
BRANCH  16  19
HETATM   19  O3  UNL     1       8.384  -8.839   5.178  1.00  0.00    -0.361 OA
ATOM     20  H3  UNL     1       8.272  -9.755   5.404  1.00  0.00     0.217 HD
ENDBRANCH  16  19
ENDBRANCH  11  13
ENDBRANCH  10  11
ENDBRANCH   2  10
BRANCH   1  21
HETATM   21  C5  UNL     1      12.173  -7.705  -1.545  1.00  0.00    -0.006 C 
HETATM   22  C6  UNL     1      12.893  -8.910  -2.097  1.00  0.00     0.011 C 
BRANCH  21  23
HETATM   23  C4  UNL     1      13.189  -6.936  -0.746  1.00  0.00     0.032 C 
BRANCH  23  24
HETATM   24  C3  UNL     1      12.584  -5.791  -0.023  1.00  0.00    -0.013 C 
HETATM   25  C2  UNL     1      13.143  -4.757   0.506  1.00  0.00     0.011 C 
HETATM   26  C1  UNL     1      12.254  -3.731   1.195  1.00  0.00     0.055 C 
BRANCH  25  27
HETATM   27  C24 UNL     1      14.540  -4.435   0.513  1.00  0.00     0.204 C 
HETATM   28  O7  UNL     1      15.239  -4.296  -0.507  1.00  0.00    -0.644 OA
HETATM   29  O8  UNL     1      15.250  -4.247   1.727  1.00  0.00    -0.644 OA
ENDBRANCH  25  27
ENDBRANCH  23  24
ENDBRANCH  21  23
ENDBRANCH   1  21
BRANCH   9  30
HETATM   30  O6  UNL     1      12.953  -6.166  -4.157  1.00  0.00    -0.394 OA
ATOM     31  H6  UNL     1      13.087  -5.660  -3.365  1.00  0.00     0.210 HD
ENDBRANCH   9  30
BRANCH   7  32
HETATM   32  C20 UNL     1      10.503  -5.426  -5.210  1.00  0.00     0.162 C 
BRANCH  32  33
HETATM   33  O4  UNL     1      11.135  -4.885  -6.365  1.00  0.00    -0.392 OA
ATOM     34  H4  UNL     1      10.695  -4.101  -6.671  1.00  0.00     0.210 HD
ENDBRANCH  32  33
BRANCH  32  35
HETATM   35  C21 UNL     1       9.069  -5.068  -5.389  1.00  0.00     0.144 C 
HETATM   36  C22 UNL     1       8.867  -4.250  -6.684  1.00  0.00     0.042 C 
BRANCH  35  37
HETATM   37  O5  UNL     1       8.512  -4.280  -4.397  1.00  0.00    -0.393 OA
ATOM     38  H5  UNL     1       7.805  -4.674  -3.899  1.00  0.00     0.210 HD
ENDBRANCH  35  37
ENDBRANCH  32  35
ENDBRANCH   7  32
TORSDOF 13
ENDMDL
MODEL 5
REMARK VINA RESULT: -6.856042909      2.648      6.206
REMARK  13 active torsions:
REMARK  status: ('A' for Active; 'I' for Inactive)
REMARK    1  A    between atoms: C2_2  and  C24_36 
REMARK    2  A    between atoms: C3_3  and  C4_4 
REMARK    3  A    between atoms: C4_4  and  C5_5 
REMARK    4  A    between atoms: C5_5  and  C7_7 
REMARK    5  A    between atoms: C8_8  and  O1_9 
REMARK    6  A    between atoms: O1_9  and  C9_10 
REMARK    7  A    between atoms: C9_10  and  C10_12 
REMARK    8  A    between atoms: C13_15  and  O3_16 
REMARK    9  A    between atoms: C18_24  and  C20_26 
REMARK   10  A    between atoms: C20_26  and  O4_27 
REMARK   11  A    between atoms: C20_26  and  C21_29 
REMARK   12  A    between atoms: C21_29  and  O5_31 
REMARK   13  A    between atoms: C23_33  and  O6_34 
ROOT
HETATM    1  C7  UNL     1      12.859  -6.513  -1.774  1.00  0.00     0.054 C 
HETATM    2  C8  UNL     1      11.681  -7.107  -2.497  1.00  0.00     0.180 C 
HETATM    3  C16 UNL     1      11.995  -8.428  -3.142  1.00  0.00     0.033 C 
HETATM    4 BR1  UNL     1      10.653  -9.799  -3.241  1.00  0.00    -0.052 Br
HETATM    5  C17 UNL     1      13.188  -8.671  -3.653  1.00  0.00     0.018 C 
HETATM    6 BR2  UNL     1      13.449 -10.411  -4.444  1.00  0.00    -0.053 Br
HETATM    7  C18 UNL     1      14.247  -7.641  -3.558  1.00  0.00     0.046 C 
HETATM    8  C19 UNL     1      15.576  -8.387  -3.632  1.00  0.00     0.026 C 
HETATM    9  C23 UNL     1      14.207  -7.001  -2.177  1.00  0.00     0.141 C 
ENDROOT
BRANCH   2  10
HETATM   10  O1  UNL     1      10.593  -7.359  -1.615  1.00  0.00    -0.306 OA
BRANCH  10  11
HETATM   11  C9  UNL     1       9.413  -6.713  -1.832  1.00  0.00     0.294 C 
HETATM   12  O2  UNL     1       8.668  -6.468  -0.823  1.00  0.00    -0.259 OA
BRANCH  11  13
HETATM   13  C10 UNL     1       8.930  -6.278  -3.129  1.00  0.00     0.039 A 
HETATM   14  C11 UNL     1       8.301  -7.152  -3.996  1.00  0.00     0.020 A 
HETATM   15  C12 UNL     1       7.840  -6.736  -5.236  1.00  0.00     0.037 A 
HETATM   16  C13 UNL     1       7.991  -5.428  -5.650  1.00  0.00     0.065 A 
HETATM   17  C14 UNL     1       8.616  -4.551  -4.789  1.00  0.00     0.037 A 
HETATM   18  C15 UNL     1       9.068  -4.981  -3.565  1.00  0.00     0.020 A 
BRANCH  16  19
HETATM   19  O3  UNL     1       7.526  -5.004  -6.900  1.00  0.00    -0.361 OA
ATOM     20  H3  UNL     1       7.137  -4.145  -7.015  1.00  0.00     0.217 HD
ENDBRANCH  16  19
ENDBRANCH  11  13
ENDBRANCH  10  11
ENDBRANCH   2  10
BRANCH   1  21
HETATM   21  C5  UNL     1      12.631  -6.494  -0.296  1.00  0.00    -0.006 C 
HETATM   22  C6  UNL     1      13.587  -7.341   0.505  1.00  0.00     0.011 C 
BRANCH  21  23
HETATM   23  C4  UNL     1      12.637  -5.132   0.342  1.00  0.00     0.032 C 
BRANCH  23  24
HETATM   24  C3  UNL     1      14.001  -4.555   0.422  1.00  0.00    -0.013 C 
HETATM   25  C2  UNL     1      14.514  -3.763   1.299  1.00  0.00     0.011 C 
HETATM   26  C1  UNL     1      15.962  -3.329   1.118  1.00  0.00     0.055 C 
BRANCH  25  27
HETATM   27  C24 UNL     1      13.877  -3.236   2.470  1.00  0.00     0.204 C 
HETATM   28  O7  UNL     1      12.671  -2.938   2.546  1.00  0.00    -0.644 OA
HETATM   29  O8  UNL     1      14.602  -3.006   3.667  1.00  0.00    -0.644 OA
ENDBRANCH  25  27
ENDBRANCH  23  24
ENDBRANCH  21  23
ENDBRANCH   1  21
BRANCH   9  30
HETATM   30  O6  UNL     1      15.102  -5.941  -2.137  1.00  0.00    -0.394 OA
ATOM     31  H6  UNL     1      15.982  -6.282  -2.036  1.00  0.00     0.210 HD
ENDBRANCH   9  30
BRANCH   7  32
HETATM   32  C20 UNL     1      14.192  -6.662  -4.649  1.00  0.00     0.162 C 
BRANCH  32  33
HETATM   33  O4  UNL     1      15.467  -6.471  -5.251  1.00  0.00    -0.392 OA
ATOM     34  H4  UNL     1      15.492  -5.684  -5.781  1.00  0.00     0.210 HD
ENDBRANCH  32  33
BRANCH  32  35
HETATM   35  C21 UNL     1      13.294  -6.946  -5.802  1.00  0.00     0.144 C 
HETATM   36  C22 UNL     1      14.044  -6.752  -7.139  1.00  0.00     0.042 C 
BRANCH  35  37
HETATM   37  O5  UNL     1      12.178  -6.137  -5.917  1.00  0.00    -0.393 OA
ATOM     38  H5  UNL     1      11.428  -6.383  -5.388  1.00  0.00     0.210 HD
ENDBRANCH  35  37
ENDBRANCH  32  35
ENDBRANCH   7  32
TORSDOF 13
ENDMDL
