MODEL 1
REMARK VINA RESULT: -7.629019232      0.000      0.000
REMARK  13 active torsions:
REMARK  status: ('A' for Active; 'I' for Inactive)
REMARK    1  A    between atoms: C2_2  and  C3_3 
REMARK    2  A    between atoms: C2_2  and  C10_11 
REMARK    3  A    between atoms: C3_3  and  C4_4 
REMARK    4  A    between atoms: C10_11  and  O1_12 
REMARK    5  A    between atoms: C13_16  and  O2_17 
REMARK    6  A    between atoms: C17_23  and  C18_24 
REMARK    7  A    between atoms: C18_24  and  C19_25 
REMARK    8  A    between atoms: C19_25  and  C20_26 
REMARK    9  A    between atoms: C20_26  and  O4_27 
REMARK   10  A    between atoms: C24_32  and  O5_33 
REMARK   11  A    between atoms: O5_33  and  C25_34 
REMARK   12  A    between atoms: C25_34  and  C26_36 
REMARK   13  A    between atoms: C30_41  and  C31_42 
ROOT
HETATM    1  C10 UNL     1       9.826  -7.667  -2.705  1.00  0.00     0.113 C 
HETATM    2  C11 UNL     1      10.352  -8.834  -3.299  1.00  0.00    -0.142 C 
HETATM    3  C12 UNL     1      10.694 -10.007  -3.976  1.00  0.00     0.122 C 
HETATM    4  C13 UNL     1      12.227 -10.079  -4.149  1.00  0.00     0.089 C 
HETATM    5  C14 UNL     1      12.993  -9.682  -2.921  1.00  0.00     0.079 C 
HETATM    6  C15 UNL     1      13.171  -8.147  -2.983  1.00  0.00     0.075 C 
HETATM    7  O3  UNL     1      14.445  -7.948  -2.353  1.00  0.00    -0.379 OA
HETATM    8  C16 UNL     1      14.518  -6.566  -2.182  1.00  0.00     0.174 C 
HETATM    9  C17 UNL     1      13.196  -6.301  -1.534  1.00  0.00     0.016 C 
HETATM   10  C21 UNL     1      12.314  -7.425  -2.109  1.00  0.00     0.031 C 
HETATM   11  C22 UNL     1      11.001  -6.790  -2.299  1.00  0.00     0.059 C 
HETATM   12  C23 UNL     1      13.406  -7.989  -4.414  1.00  0.00     0.074 A 
HETATM   13  C24 UNL     1      14.718  -8.406  -4.974  1.00  0.00     0.149 A 
HETATM   14  C27 UNL     1      14.099  -9.508  -5.795  1.00  0.00     0.001 A 
HETATM   15  C28 UNL     1      14.280  -9.080  -7.274  1.00  0.00     0.019 C 
HETATM   16  C29 UNL     1      14.646 -10.863  -5.720  1.00  0.00     0.019 C 
HETATM   17  C30 UNL     1      12.785  -9.174  -5.178  1.00  0.00     0.098 A 
ENDROOT
BRANCH   1  18
HETATM   18  C2  UNL     1       8.891  -7.965  -1.508  1.00  0.00     0.032 C 
HETATM   19  C1  UNL     1       7.676  -8.571  -2.140  1.00  0.00     0.014 C 
BRANCH  18  20
HETATM   20  C3  UNL     1       8.626  -6.700  -0.809  1.00  0.00     0.048 C 
BRANCH  20  21
HETATM   21  C4  UNL     1       8.813  -6.891   0.674  1.00  0.00    -0.036 A 
HETATM   22  C5  UNL     1      10.030  -6.557   1.237  1.00  0.00     0.009 A 
HETATM   23  C6  UNL     1      10.330  -6.818   2.553  1.00  0.00     0.001 A 
HETATM   24  C7  UNL     1       9.411  -7.427   3.363  1.00  0.00     0.002 A 
HETATM   25  C8  UNL     1       8.190  -7.759   2.795  1.00  0.00     0.024 A 
HETATM   26  C9  UNL     1       7.890  -7.497   1.473  1.00  0.00     0.040 A 
HETATM   27 CL1  UNL     1       6.264  -7.854   0.881  1.00  0.00    -0.084 Cl
ENDBRANCH  20  21
ENDBRANCH  18  20
ENDBRANCH   1  18
BRANCH   1  28
HETATM   28  O1  UNL     1       8.984  -6.923  -3.576  1.00  0.00    -0.378 OA
ATOM     29  H1  UNL     1       8.678  -7.586  -4.184  1.00  0.00     0.211 HD
ENDBRANCH   1  28
BRANCH   4  30
HETATM   30  O2  UNL     1      12.483 -11.434  -4.396  1.00  0.00    -0.387 OA
ATOM     31  H2  UNL     1      12.584 -11.814  -3.532  1.00  0.00     0.210 HD
ENDBRANCH   4  30
BRANCH   9  32
HETATM   32  C18 UNL     1      13.251  -6.350  -0.036  1.00  0.00     0.009 C 
BRANCH  32  33
HETATM   33  C19 UNL     1      14.505  -5.827   0.547  1.00  0.00     0.027 C 
BRANCH  33  34
HETATM   34  C20 UNL     1      14.355  -4.318   0.737  1.00  0.00     0.164 C 
BRANCH  34  35
HETATM   35  O4  UNL     1      15.296  -3.631  -0.037  1.00  0.00    -0.401 OA
ATOM     36  H4  UNL     1      15.832  -3.071   0.512  1.00  0.00     0.209 HD
ENDBRANCH  34  35
ENDBRANCH  33  34
ENDBRANCH  32  33
ENDBRANCH   9  32
BRANCH  17  37
HETATM   37  C31 UNL     1      11.922  -8.800  -6.343  1.00  0.00     0.186 C 
HETATM   38  O7  UNL     1      11.637  -7.632  -6.684  1.00  0.00    -0.647 OA
HETATM   39  O8  UNL     1      11.403  -9.812  -7.105  1.00  0.00    -0.647 OA
ENDBRANCH  17  37
BRANCH  13  40
HETATM   40  O5  UNL     1      15.742  -8.913  -4.196  1.00  0.00    -0.314 OA
BRANCH  40  41
HETATM   41  C25 UNL     1      17.091  -8.989  -4.564  1.00  0.00     0.273 C 
HETATM   42  O6  UNL     1      17.716  -9.944  -4.002  1.00  0.00    -0.264 OA
BRANCH  41  43
HETATM   43  C26 UNL     1      17.752  -8.063  -5.509  1.00  0.00     0.225 C 
HETATM   44 CL2  UNL     1      19.342  -7.603  -4.893  1.00  0.00    -0.120 Cl
ENDBRANCH  41  43
ENDBRANCH  40  41
ENDBRANCH  13  40
TORSDOF 13
ENDMDL
MODEL 2
REMARK VINA RESULT: -7.489714495      1.724      2.313
REMARK  13 active torsions:
REMARK  status: ('A' for Active; 'I' for Inactive)
REMARK    1  A    between atoms: C2_2  and  C3_3 
REMARK    2  A    between atoms: C2_2  and  C10_11 
REMARK    3  A    between atoms: C3_3  and  C4_4 
REMARK    4  A    between atoms: C10_11  and  O1_12 
REMARK    5  A    between atoms: C13_16  and  O2_17 
REMARK    6  A    between atoms: C17_23  and  C18_24 
REMARK    7  A    between atoms: C18_24  and  C19_25 
REMARK    8  A    between atoms: C19_25  and  C20_26 
REMARK    9  A    between atoms: C20_26  and  O4_27 
REMARK   10  A    between atoms: C24_32  and  O5_33 
REMARK   11  A    between atoms: O5_33  and  C25_34 
REMARK   12  A    between atoms: C25_34  and  C26_36 
REMARK   13  A    between atoms: C30_41  and  C31_42 
ROOT
HETATM    1  C10 UNL     1      10.986  -6.374  -4.237  1.00  0.00     0.113 C 
HETATM    2  C11 UNL     1      11.353  -7.388  -5.147  1.00  0.00    -0.142 C 
HETATM    3  C12 UNL     1      11.574  -8.315  -6.168  1.00  0.00     0.122 C 
HETATM    4  C13 UNL     1      13.012  -8.867  -6.066  1.00  0.00     0.089 C 
HETATM    5  C14 UNL     1      13.436  -9.194  -4.664  1.00  0.00     0.079 C 
HETATM    6  C15 UNL     1      14.012  -7.894  -4.057  1.00  0.00     0.075 C 
HETATM    7  O3  UNL     1      15.035  -8.379  -3.176  1.00  0.00    -0.379 OA
HETATM    8  C16 UNL     1      15.404  -7.252  -2.443  1.00  0.00     0.174 C 
HETATM    9  C17 UNL     1      14.061  -6.762  -2.003  1.00  0.00     0.016 C 
HETATM   10  C21 UNL     1      13.142  -7.243  -3.141  1.00  0.00     0.031 C 
HETATM   11  C22 UNL     1      12.163  -6.157  -3.295  1.00  0.00     0.059 C 
HETATM   12  C23 UNL     1      14.710  -7.371  -5.227  1.00  0.00     0.074 A 
HETATM   13  C24 UNL     1      15.978  -8.020  -5.653  1.00  0.00     0.149 A 
HETATM   14  C27 UNL     1      15.381  -8.495  -6.954  1.00  0.00     0.001 A 
HETATM   15  C28 UNL     1      16.114  -7.701  -8.065  1.00  0.00     0.019 C 
HETATM   16  C29 UNL     1      15.512  -9.900  -7.339  1.00  0.00     0.019 C 
HETATM   17  C30 UNL     1      14.073  -7.937  -6.510  1.00  0.00     0.098 A 
ENDROOT
BRANCH   1  18
HETATM   18  C2  UNL     1       9.684  -6.694  -3.464  1.00  0.00     0.032 C 
HETATM   19  C1  UNL     1       8.597  -6.421  -4.459  1.00  0.00     0.014 C 
BRANCH  18  20
HETATM   20  C3  UNL     1       9.631  -5.827  -2.279  1.00  0.00     0.048 C 
BRANCH  20  21
HETATM   21  C4  UNL     1       9.199  -6.633  -1.081  1.00  0.00    -0.036 A 
HETATM   22  C5  UNL     1       8.188  -7.564  -1.237  1.00  0.00     0.009 A 
HETATM   23  C6  UNL     1       7.646  -8.247  -0.174  1.00  0.00     0.001 A 
HETATM   24  C7  UNL     1       8.103  -8.025   1.095  1.00  0.00     0.002 A 
HETATM   25  C8  UNL     1       9.119  -7.094   1.248  1.00  0.00     0.024 A 
HETATM   26  C9  UNL     1       9.662  -6.406   0.180  1.00  0.00     0.040 A 
HETATM   27 CL1  UNL     1      11.031  -5.327   0.470  1.00  0.00    -0.084 Cl
ENDBRANCH  20  21
ENDBRANCH  18  20
ENDBRANCH   1  18
BRANCH   1  28
HETATM   28  O1  UNL     1      10.676  -5.138  -4.866  1.00  0.00    -0.378 OA
ATOM     29  H1  UNL     1      11.250  -4.528  -4.418  1.00  0.00     0.211 HD
ENDBRANCH   1  28
BRANCH   4  30
HETATM   30  O2  UNL     1      12.975 -10.063  -6.795  1.00  0.00    -0.387 OA
ATOM     31  H2  UNL     1      13.271 -10.722  -6.178  1.00  0.00     0.210 HD
ENDBRANCH   4  30
BRANCH   9  32
HETATM   32  C18 UNL     1      13.636  -7.314  -0.675  1.00  0.00     0.009 C 
BRANCH  32  33
HETATM   33  C19 UNL     1      14.467  -6.872   0.465  1.00  0.00     0.027 C 
BRANCH  33  34
HETATM   34  C20 UNL     1      14.525  -5.344   0.455  1.00  0.00     0.164 C 
BRANCH  34  35
HETATM   35  O4  UNL     1      15.827  -4.905   0.193  1.00  0.00    -0.401 OA
ATOM     36  H4  UNL     1      16.460  -5.553   0.480  1.00  0.00     0.209 HD
ENDBRANCH  34  35
ENDBRANCH  33  34
ENDBRANCH  32  33
ENDBRANCH   9  32
BRANCH  17  37
HETATM   37  C31 UNL     1      13.740  -6.921  -7.558  1.00  0.00     0.186 C 
HETATM   38  O7  UNL     1      13.872  -5.685  -7.433  1.00  0.00    -0.647 OA
HETATM   39  O8  UNL     1      13.254  -7.374  -8.756  1.00  0.00    -0.647 OA
ENDBRANCH  17  37
BRANCH  13  40
HETATM   40  O5  UNL     1      16.545  -9.082  -4.975  1.00  0.00    -0.314 OA
BRANCH  40  41
HETATM   41  C25 UNL     1      17.910  -9.256  -4.718  1.00  0.00     0.273 C 
HETATM   42  O6  UNL     1      18.172 -10.320  -4.072  1.00  0.00    -0.264 OA
BRANCH  41  43
HETATM   43  C26 UNL     1      18.967  -8.312  -5.141  1.00  0.00     0.225 C 
HETATM   44 CL2  UNL     1      20.509  -8.759  -4.405  1.00  0.00    -0.120 Cl
ENDBRANCH  41  43
ENDBRANCH  40  41
ENDBRANCH  13  40
TORSDOF 13
ENDMDL
MODEL 3
REMARK VINA RESULT: -7.483395327      1.926      2.499
REMARK  13 active torsions:
REMARK  status: ('A' for Active; 'I' for Inactive)
REMARK    1  A    between atoms: C2_2  and  C3_3 
REMARK    2  A    between atoms: C2_2  and  C10_11 
REMARK    3  A    between atoms: C3_3  and  C4_4 
REMARK    4  A    between atoms: C10_11  and  O1_12 
REMARK    5  A    between atoms: C13_16  and  O2_17 
REMARK    6  A    between atoms: C17_23  and  C18_24 
REMARK    7  A    between atoms: C18_24  and  C19_25 
REMARK    8  A    between atoms: C19_25  and  C20_26 
REMARK    9  A    between atoms: C20_26  and  O4_27 
REMARK   10  A    between atoms: C24_32  and  O5_33 
REMARK   11  A    between atoms: O5_33  and  C25_34 
REMARK   12  A    between atoms: C25_34  and  C26_36 
REMARK   13  A    between atoms: C30_41  and  C31_42 
ROOT
HETATM    1  C10 UNL     1       9.663  -6.699  -2.483  1.00  0.00     0.113 C 
HETATM    2  C11 UNL     1       9.736  -7.403  -3.704  1.00  0.00    -0.142 C 
HETATM    3  C12 UNL     1       9.617  -8.049  -4.936  1.00  0.00     0.122 C 
HETATM    4  C13 UNL     1      11.009  -8.177  -5.593  1.00  0.00     0.089 C 
HETATM    5  C14 UNL     1      12.090  -8.594  -4.640  1.00  0.00     0.079 C 
HETATM    6  C15 UNL     1      12.639  -7.300  -3.993  1.00  0.00     0.075 C 
HETATM    7  O3  UNL     1      14.024  -7.611  -3.784  1.00  0.00    -0.379 OA
HETATM    8  C16 UNL     1      14.483  -6.561  -2.990  1.00  0.00     0.174 C 
HETATM    9  C17 UNL     1      13.438  -6.552  -1.918  1.00  0.00     0.016 C 
HETATM   10  C21 UNL     1      12.197  -7.083  -2.660  1.00  0.00     0.031 C 
HETATM   11  C22 UNL     1      11.082  -6.312  -2.092  1.00  0.00     0.059 C 
HETATM   12  C23 UNL     1      12.601  -6.416  -5.154  1.00  0.00     0.074 A 
HETATM   13  C24 UNL     1      13.615  -6.598  -6.225  1.00  0.00     0.149 A 
HETATM   14  C27 UNL     1      12.576  -7.005  -7.239  1.00  0.00     0.001 A 
HETATM   15  C28 UNL     1      12.547  -5.864  -8.288  1.00  0.00     0.019 C 
HETATM   16  C29 UNL     1      12.762  -8.232  -8.014  1.00  0.00     0.019 C 
HETATM   17  C30 UNL     1      11.551  -6.923  -6.161  1.00  0.00     0.098 A 
ENDROOT
BRANCH   1  18
HETATM   18  C2  UNL     1       8.956  -7.498  -1.363  1.00  0.00     0.032 C 
HETATM   19  C1  UNL     1       7.852  -8.220  -2.075  1.00  0.00     0.014 C 
BRANCH  18  20
HETATM   20  C3  UNL     1       8.481  -6.545  -0.351  1.00  0.00     0.048 C 
BRANCH  20  21
HETATM   21  C4  UNL     1       8.610  -7.156   1.021  1.00  0.00    -0.036 A 
HETATM   22  C5  UNL     1       7.564  -7.915   1.510  1.00  0.00     0.009 A 
HETATM   23  C6  UNL     1       7.544  -8.401   2.796  1.00  0.00     0.001 A 
HETATM   24  C7  UNL     1       8.583  -8.144   3.647  1.00  0.00     0.002 A 
HETATM   25  C8  UNL     1       9.633  -7.385   3.152  1.00  0.00     0.024 A 
HETATM   26  C9  UNL     1       9.652  -6.897   1.860  1.00  0.00     0.040 A 
HETATM   27 CL1  UNL     1      11.089  -6.039   1.294  1.00  0.00    -0.084 Cl
ENDBRANCH  20  21
ENDBRANCH  18  20
ENDBRANCH   1  18
BRANCH   1  28
HETATM   28  O1  UNL     1       8.877  -5.517  -2.562  1.00  0.00    -0.378 OA
ATOM     29  H1  UNL     1       8.065  -5.834  -2.941  1.00  0.00     0.211 HD
ENDBRANCH   1  28
BRANCH   4  30
HETATM   30  O2  UNL     1      10.851  -9.198  -6.539  1.00  0.00    -0.387 OA
ATOM     31  H2  UNL     1      10.956  -9.999  -6.038  1.00  0.00     0.210 HD
ENDBRANCH   4  30
BRANCH   9  32
HETATM   32  C18 UNL     1      13.792  -7.412  -0.741  1.00  0.00     0.009 C 
BRANCH  32  33
HETATM   33  C19 UNL     1      14.849  -6.854   0.128  1.00  0.00     0.027 C 
BRANCH  33  34
HETATM   34  C20 UNL     1      14.533  -5.380   0.383  1.00  0.00     0.164 C 
BRANCH  34  35
HETATM   35  O4  UNL     1      15.615  -4.575   0.012  1.00  0.00    -0.401 OA
ATOM     36  H4  UNL     1      15.310  -3.785  -0.418  1.00  0.00     0.209 HD
ENDBRANCH  34  35
ENDBRANCH  33  34
ENDBRANCH  32  33
ENDBRANCH   9  32
BRANCH  17  37
HETATM   37  C31 UNL     1      10.589  -5.888  -6.655  1.00  0.00     0.186 C 
HETATM   38  O7  UNL     1       9.748  -6.058  -7.562  1.00  0.00    -0.647 OA
HETATM   39  O8  UNL     1      10.624  -4.651  -6.067  1.00  0.00    -0.647 OA
ENDBRANCH  17  37
BRANCH  13  40
HETATM   40  O5  UNL     1      14.615  -7.551  -6.162  1.00  0.00    -0.314 OA
BRANCH  40  41
HETATM   41  C25 UNL     1      15.901  -7.427  -6.701  1.00  0.00     0.273 C 
HETATM   42  O6  UNL     1      15.907  -7.077  -7.924  1.00  0.00    -0.264 OA
BRANCH  41  43
HETATM   43  C26 UNL     1      17.149  -7.674  -5.947  1.00  0.00     0.225 C 
HETATM   44 CL2  UNL     1      16.892  -8.948  -4.751  1.00  0.00    -0.120 Cl
ENDBRANCH  41  43
ENDBRANCH  40  41
ENDBRANCH  13  40
TORSDOF 13
ENDMDL
MODEL 4
REMARK VINA RESULT: -7.461568350      0.909      1.017
REMARK  13 active torsions:
REMARK  status: ('A' for Active; 'I' for Inactive)
REMARK    1  A    between atoms: C2_2  and  C3_3 
REMARK    2  A    between atoms: C2_2  and  C10_11 
REMARK    3  A    between atoms: C3_3  and  C4_4 
REMARK    4  A    between atoms: C10_11  and  O1_12 
REMARK    5  A    between atoms: C13_16  and  O2_17 
REMARK    6  A    between atoms: C17_23  and  C18_24 
REMARK    7  A    between atoms: C18_24  and  C19_25 
REMARK    8  A    between atoms: C19_25  and  C20_26 
REMARK    9  A    between atoms: C20_26  and  O4_27 
REMARK   10  A    between atoms: C24_32  and  O5_33 
REMARK   11  A    between atoms: O5_33  and  C25_34 
REMARK   12  A    between atoms: C25_34  and  C26_36 
REMARK   13  A    between atoms: C30_41  and  C31_42 
ROOT
HETATM    1  C10 UNL     1       9.587  -7.254  -2.624  1.00  0.00     0.113 C 
HETATM    2  C11 UNL     1      10.023  -8.278  -3.492  1.00  0.00    -0.142 C 
HETATM    3  C12 UNL     1      10.269  -9.291  -4.422  1.00  0.00     0.122 C 
HETATM    4  C13 UNL     1      11.775  -9.332  -4.760  1.00  0.00     0.089 C 
HETATM    5  C14 UNL     1      12.667  -9.196  -3.561  1.00  0.00     0.079 C 
HETATM    6  C15 UNL     1      12.875  -7.681  -3.330  1.00  0.00     0.075 C 
HETATM    7  O3  UNL     1      14.210  -7.620  -2.805  1.00  0.00    -0.379 OA
HETATM    8  C16 UNL     1      14.333  -6.302  -2.367  1.00  0.00     0.174 C 
HETATM    9  C17 UNL     1      13.088  -6.169  -1.549  1.00  0.00     0.016 C 
HETATM   10  C21 UNL     1      12.126  -7.149  -2.246  1.00  0.00     0.031 C 
HETATM   11  C22 UNL     1      10.817  -6.483  -2.171  1.00  0.00     0.059 C 
HETATM   12  C23 UNL     1      12.973  -7.237  -4.716  1.00  0.00     0.074 A 
HETATM   13  C24 UNL     1      14.213  -7.537  -5.479  1.00  0.00     0.149 A 
HETATM   14  C27 UNL     1      13.489  -8.447  -6.438  1.00  0.00     0.001 A 
HETATM   15  C28 UNL     1      13.534  -7.728  -7.811  1.00  0.00     0.019 C 
HETATM   16  C29 UNL     1      14.008  -9.791  -6.694  1.00  0.00     0.019 C 
HETATM   17  C30 UNL     1      12.250  -8.240  -5.636  1.00  0.00     0.098 A 
ENDROOT
BRANCH   1  18
HETATM   18  C2  UNL     1       8.767  -7.785  -1.424  1.00  0.00     0.032 C 
HETATM   19  C1  UNL     1       7.630  -8.524  -2.061  1.00  0.00     0.014 C 
BRANCH  18  20
HETATM   20  C3  UNL     1       8.344  -6.634  -0.614  1.00  0.00     0.048 C 
BRANCH  20  21
HETATM   21  C4  UNL     1       8.585  -6.926   0.845  1.00  0.00    -0.036 A 
HETATM   22  C5  UNL     1       9.819  -6.620   1.388  1.00  0.00     0.009 A 
HETATM   23  C6  UNL     1      10.167  -6.969   2.672  1.00  0.00     0.001 A 
HETATM   24  C7  UNL     1       9.281  -7.640   3.468  1.00  0.00     0.002 A 
HETATM   25  C8  UNL     1       8.043  -7.943   2.922  1.00  0.00     0.024 A 
HETATM   26  C9  UNL     1       7.694  -7.593   1.632  1.00  0.00     0.040 A 
HETATM   27 CL1  UNL     1       6.051  -7.923   1.073  1.00  0.00    -0.084 Cl
ENDBRANCH  20  21
ENDBRANCH  18  20
ENDBRANCH   1  18
BRANCH   1  28
HETATM   28  O1  UNL     1       8.682  -6.345  -3.237  1.00  0.00    -0.378 OA
ATOM     29  H1  UNL     1       8.634  -5.641  -2.601  1.00  0.00     0.211 HD
ENDBRANCH   1  28
BRANCH   4  30
HETATM   30  O2  UNL     1      11.971 -10.610  -5.300  1.00  0.00    -0.387 OA
ATOM     31  H2  UNL     1      12.789 -10.539  -5.778  1.00  0.00     0.210 HD
ENDBRANCH   4  30
BRANCH   9  32
HETATM   32  C18 UNL     1      13.288  -6.521  -0.105  1.00  0.00     0.009 C 
BRANCH  32  33
HETATM   33  C19 UNL     1      14.605  -6.130   0.442  1.00  0.00     0.027 C 
BRANCH  33  34
HETATM   34  C20 UNL     1      14.541  -4.658   0.847  1.00  0.00     0.164 C 
BRANCH  34  35
HETATM   35  O4  UNL     1      15.405  -3.894   0.055  1.00  0.00    -0.401 OA
ATOM     36  H4  UNL     1      14.922  -3.222  -0.411  1.00  0.00     0.209 HD
ENDBRANCH  34  35
ENDBRANCH  33  34
ENDBRANCH  32  33
ENDBRANCH   9  32
BRANCH  17  37
HETATM   37  C31 UNL     1      11.287  -7.633  -6.609  1.00  0.00     0.186 C 
HETATM   38  O7  UNL     1      10.999  -6.420  -6.678  1.00  0.00    -0.647 OA
HETATM   39  O8  UNL     1      10.671  -8.468  -7.502  1.00  0.00    -0.647 OA
ENDBRANCH  17  37
BRANCH  13  40
HETATM   40  O5  UNL     1      15.296  -8.195  -4.927  1.00  0.00    -0.314 OA
BRANCH  40  41
HETATM   41  C25 UNL     1      16.624  -8.092  -5.355  1.00  0.00     0.273 C 
HETATM   42  O6  UNL     1      16.786  -7.269  -6.311  1.00  0.00    -0.264 OA
BRANCH  41  43
HETATM   43  C26 UNL     1      17.751  -8.853  -4.774  1.00  0.00     0.225 C 
HETATM   44 CL2  UNL     1      19.217  -7.869  -4.785  1.00  0.00    -0.120 Cl
ENDBRANCH  41  43
ENDBRANCH  40  41
ENDBRANCH  13  40
TORSDOF 13
ENDMDL
MODEL 5
REMARK VINA RESULT: -7.416511037      1.644      2.091
REMARK  13 active torsions:
REMARK  status: ('A' for Active; 'I' for Inactive)
REMARK    1  A    between atoms: C2_2  and  C3_3 
REMARK    2  A    between atoms: C2_2  and  C10_11 
REMARK    3  A    between atoms: C3_3  and  C4_4 
REMARK    4  A    between atoms: C10_11  and  O1_12 
REMARK    5  A    between atoms: C13_16  and  O2_17 
REMARK    6  A    between atoms: C17_23  and  C18_24 
REMARK    7  A    between atoms: C18_24  and  C19_25 
REMARK    8  A    between atoms: C19_25  and  C20_26 
REMARK    9  A    between atoms: C20_26  and  O4_27 
REMARK   10  A    between atoms: C24_32  and  O5_33 
REMARK   11  A    between atoms: O5_33  and  C25_34 
REMARK   12  A    between atoms: C25_34  and  C26_36 
REMARK   13  A    between atoms: C30_41  and  C31_42 
ROOT
HETATM    1  C10 UNL     1      10.355  -6.642  -3.513  1.00  0.00     0.113 C 
HETATM    2  C11 UNL     1      10.706  -7.492  -4.584  1.00  0.00    -0.142 C 
HETATM    3  C12 UNL     1      10.883  -8.273  -5.728  1.00  0.00     0.122 C 
HETATM    4  C13 UNL     1      12.386  -8.573  -5.926  1.00  0.00     0.089 C 
HETATM    5  C14 UNL     1      13.098  -8.945  -4.658  1.00  0.00     0.079 C 
HETATM    6  C15 UNL     1      13.564  -7.623  -4.004  1.00  0.00     0.075 C 
HETATM    7  O3  UNL     1      14.791  -8.000  -3.363  1.00  0.00    -0.379 OA
HETATM    8  C16 UNL     1      15.104  -6.896  -2.571  1.00  0.00     0.174 C 
HETATM    9  C17 UNL     1      13.802  -6.687  -1.866  1.00  0.00     0.016 C 
HETATM   10  C21 UNL     1      12.781  -7.218  -2.890  1.00  0.00     0.031 C 
HETATM   11  C22 UNL     1      11.632  -6.309  -2.755  1.00  0.00     0.059 C 
HETATM   12  C23 UNL     1      13.952  -6.885  -5.201  1.00  0.00     0.074 A 
HETATM   13  C24 UNL     1      15.208  -7.264  -5.900  1.00  0.00     0.149 A 
HETATM   14  C27 UNL     1      14.471  -7.717  -7.133  1.00  0.00     0.001 A 
HETATM   15  C28 UNL     1      14.860  -6.712  -8.247  1.00  0.00     0.019 C 
HETATM   16  C29 UNL     1      14.747  -9.039  -7.698  1.00  0.00     0.019 C 
HETATM   17  C30 UNL     1      13.192  -7.437  -6.423  1.00  0.00     0.098 A 
ENDROOT
BRANCH   1  18
HETATM   18  C2  UNL     1       9.278  -7.251  -2.584  1.00  0.00     0.032 C 
HETATM   19  C1  UNL     1       8.156  -7.603  -3.513  1.00  0.00     0.014 C 
BRANCH  18  20
HETATM   20  C3  UNL     1       8.918  -6.242  -1.578  1.00  0.00     0.048 C 
BRANCH  20  21
HETATM   21  C4  UNL     1       8.858  -6.883  -0.216  1.00  0.00    -0.036 A 
HETATM   22  C5  UNL     1       7.862  -7.806   0.040  1.00  0.00     0.009 A 
HETATM   23  C6  UNL     1       7.656  -8.340   1.290  1.00  0.00     0.001 A 
HETATM   24  C7  UNL     1       8.451  -7.970   2.339  1.00  0.00     0.002 A 
HETATM   25  C8  UNL     1       9.452  -7.047   2.078  1.00  0.00     0.024 A 
HETATM   26  C9  UNL     1       9.658  -6.509   0.822  1.00  0.00     0.040 A 
HETATM   27 CL1  UNL     1      11.034  -5.429   0.573  1.00  0.00    -0.084 Cl
ENDBRANCH  20  21
ENDBRANCH  18  20
ENDBRANCH   1  18
BRANCH   1  28
HETATM   28  O1  UNL     1       9.748  -5.428  -3.935  1.00  0.00    -0.378 OA
ATOM     29  H1  UNL     1      10.463  -4.805  -3.866  1.00  0.00     0.211 HD
ENDBRANCH   1  28
BRANCH   4  30
HETATM   30  O2  UNL     1      12.405  -9.688  -6.773  1.00  0.00    -0.387 OA
ATOM     31  H2  UNL     1      13.321  -9.792  -7.002  1.00  0.00     0.210 HD
ENDBRANCH   4  30
BRANCH   9  32
HETATM   32  C18 UNL     1      13.712  -7.421  -0.561  1.00  0.00     0.009 C 
BRANCH  32  33
HETATM   33  C19 UNL     1      14.610  -6.904   0.494  1.00  0.00     0.027 C 
BRANCH  33  34
HETATM   34  C20 UNL     1      14.534  -5.378   0.486  1.00  0.00     0.164 C 
BRANCH  34  35
HETATM   35  O4  UNL     1      15.786  -4.826   0.197  1.00  0.00    -0.401 OA
ATOM     36  H4  UNL     1      15.690  -4.040  -0.329  1.00  0.00     0.209 HD
ENDBRANCH  34  35
ENDBRANCH  33  34
ENDBRANCH  32  33
ENDBRANCH   9  32
BRANCH  17  37
HETATM   37  C31 UNL     1      12.523  -6.405  -7.277  1.00  0.00     0.186 C 
HETATM   38  O7  UNL     1      12.490  -5.180  -7.036  1.00  0.00    -0.647 OA
HETATM   39  O8  UNL     1      11.896  -6.829  -8.418  1.00  0.00    -0.647 OA
ENDBRANCH  17  37
BRANCH  13  40
HETATM   40  O5  UNL     1      16.046  -8.267  -5.452  1.00  0.00    -0.314 OA
BRANCH  40  41
HETATM   41  C25 UNL     1      17.445  -8.248  -5.493  1.00  0.00     0.273 C 
HETATM   42  O6  UNL     1      17.917  -7.335  -6.242  1.00  0.00    -0.264 OA
BRANCH  41  43
HETATM   43  C26 UNL     1      18.315  -9.184  -4.750  1.00  0.00     0.225 C 
HETATM   44 CL2  UNL     1      19.947  -8.521  -4.619  1.00  0.00    -0.120 Cl
ENDBRANCH  41  43
ENDBRANCH  40  41
ENDBRANCH  13  40
TORSDOF 13
ENDMDL
