MODEL 1
REMARK VINA RESULT: -7.200642364      0.000      0.000
REMARK  7 active torsions:
REMARK  status: ('A' for Active; 'I' for Inactive)
REMARK    1  A    between atoms: C2_7  and  S1_8 
REMARK    2  A    between atoms: S1_8  and  S2_9 
REMARK    3  A    between atoms: S2_9  and  C3_10 
REMARK    4  A    between atoms: C4_11  and  O1_12 
REMARK    5  A    between atoms: N4_18  and  O3_19 
REMARK    6  A    between atoms: C6_25  and  N7_26 
REMARK    7  A    between atoms: C7_33  and  N11_34 
ROOT
HETATM    1  N1  UNL     1      16.472  39.688   3.381  1.00  0.00    -0.382 N 
ATOM      2  H11 UNL     1      16.775  38.734   3.185  1.00  0.00     0.157 HD
ATOM      3  H12 UNL     1      16.014  40.263   2.675  1.00  0.00     0.157 HD
HETATM    4  C1  UNL     1      16.664  40.207   4.561  1.00  0.00     0.149 A 
HETATM    5  N2  UNL     1      16.262  41.473   4.822  1.00  0.00    -0.318 N 
ATOM      6  H2  UNL     1      15.805  42.027   4.097  1.00  0.00     0.169 HD
HETATM    7  C2  UNL     1      16.469  41.997   6.053  1.00  0.00     0.172 A 
HETATM    8  N5  UNL     1      17.069  41.242   6.976  1.00  0.00    -0.277 N 
ATOM      9  H5  UNL     1      17.228  41.634   7.905  1.00  0.00     0.189 HD
HETATM   10  N6  UNL     1      17.469  39.990   6.725  1.00  0.00    -0.278 N 
ATOM     11  H6  UNL     1      17.922  39.451   7.464  1.00  0.00     0.189 HD
HETATM   12  C6  UNL     1      17.284  39.428   5.517  1.00  0.00     0.205 A 
ENDROOT
BRANCH   7  13
HETATM   13  S1  UNL     1      15.922  43.659   6.337  1.00  0.00    -0.013 SA
BRANCH  13  14
HETATM   14  S2  UNL     1      16.070  44.064   8.420  1.00  0.00    -0.025 SA
BRANCH  14  15
HETATM   15  C3  UNL     1      14.953  42.969   9.272  1.00  0.00     0.166 A 
HETATM   16  C4  UNL     1      13.632  43.318   9.545  1.00  0.00     0.182 A 
HETATM   17  N3  UNL     1      13.086  42.272  10.190  1.00  0.00    -0.285 N 
HETATM   18  C5  UNL     1      14.011  41.297  10.325  1.00  0.00     0.353 A 
ATOM     19  H3  UNL     1      12.124  42.222  10.525  1.00  0.00     0.172 HD
HETATM   20  O2  UNL     1      13.844  40.168  10.884  1.00  0.00    -0.244 OA
HETATM   21  N4  UNL     1      15.146  41.747   9.756  1.00  0.00    -0.161 N 
BRANCH  16  22
HETATM   22  O1  UNL     1      12.974  44.498   9.232  1.00  0.00    -0.344 OA
ATOM     23  H1  UNL     1      12.289  44.937   9.723  1.00  0.00     0.219 HD
ENDBRANCH  16  22
BRANCH  21  24
HETATM   24  O3  UNL     1      16.344  41.059   9.675  1.00  0.00    -0.278 OA
ATOM     25  H3  UNL     1      16.574  40.467   8.969  1.00  0.00     0.245 HD
ENDBRANCH  21  24
ENDBRANCH  14  15
ENDBRANCH  13  14
ENDBRANCH   7  13
BRANCH  12  26
HETATM   26  N7  UNL     1      17.706  38.098   5.241  1.00  0.00    -0.048 N 
HETATM   27  N8  UNL     1      18.761  37.732   4.509  1.00  0.00    -0.205 N 
HETATM   28  N9  UNL     1      18.842  36.418   4.471  1.00  0.00    -0.213 N 
ATOM     29  H8  UNL     1      19.408  38.373   4.049  1.00  0.00     0.211 HD
HETATM   30  N10 UNL     1      17.853  35.883   5.169  1.00  0.00    -0.115 N 
ATOM     31  H9  UNL     1      19.561  35.890   3.977  1.00  0.00     0.210 HD
HETATM   32  C7  UNL     1      17.151  36.942   5.646  1.00  0.00     0.716 A 
ATOM     33  H10 UNL     1      17.661  34.893   5.317  1.00  0.00     0.207 HD
BRANCH  32  34
HETATM   34  N11 UNL     1      16.094  36.864   6.384  1.00  0.00    -0.231 N 
ATOM     35 2H11 UNL     1      15.549  37.659   6.718  1.00  0.00     0.174 HD
ATOM     36 1H11 UNL     1      15.690  35.989   6.716  1.00  0.00     0.174 HD
ENDBRANCH  32  34
ENDBRANCH  12  26
TORSDOF 7
ENDMDL
MODEL 2
REMARK VINA RESULT: -7.175902028      1.687      2.869
REMARK  7 active torsions:
REMARK  status: ('A' for Active; 'I' for Inactive)
REMARK    1  A    between atoms: C2_7  and  S1_8 
REMARK    2  A    between atoms: S1_8  and  S2_9 
REMARK    3  A    between atoms: S2_9  and  C3_10 
REMARK    4  A    between atoms: C4_11  and  O1_12 
REMARK    5  A    between atoms: N4_18  and  O3_19 
REMARK    6  A    between atoms: C6_25  and  N7_26 
REMARK    7  A    between atoms: C7_33  and  N11_34 
ROOT
HETATM    1  N1  UNL     1      16.894  38.792   6.857  1.00  0.00    -0.382 N 
ATOM      2  H11 UNL     1      16.830  37.783   6.727  1.00  0.00     0.157 HD
ATOM      3  H12 UNL     1      16.739  39.228   7.766  1.00  0.00     0.157 HD
HETATM    4  C1  UNL     1      17.181  39.567   5.849  1.00  0.00     0.149 A 
HETATM    5  N2  UNL     1      17.267  40.906   6.022  1.00  0.00    -0.318 N 
ATOM      6  H2  UNL     1      17.107  41.317   6.942  1.00  0.00     0.169 HD
HETATM    7  C2  UNL     1      17.566  41.697   4.964  1.00  0.00     0.172 A 
HETATM    8  N5  UNL     1      17.769  41.123   3.775  1.00  0.00    -0.277 N 
ATOM      9  H5  UNL     1      17.994  41.715   2.976  1.00  0.00     0.189 HD
HETATM   10  N6  UNL     1      17.687  39.799   3.597  1.00  0.00    -0.278 N 
ATOM     11  H6  UNL     1      17.852  39.408   2.670  1.00  0.00     0.189 HD
HETATM   12  C6  UNL     1      17.392  38.976   4.619  1.00  0.00     0.205 A 
ENDROOT
BRANCH   7  13
HETATM   13  S1  UNL     1      17.663  43.443   5.249  1.00  0.00    -0.013 SA
BRANCH  13  14
HETATM   14  S2  UNL     1      17.814  43.770   7.346  1.00  0.00    -0.025 SA
BRANCH  14  15
HETATM   15  C3  UNL     1      16.169  43.720   8.029  1.00  0.00     0.166 A 
HETATM   16  C4  UNL     1      15.631  42.564   8.589  1.00  0.00     0.182 A 
HETATM   17  N3  UNL     1      14.390  42.881   8.999  1.00  0.00    -0.285 N 
HETATM   18  C5  UNL     1      14.142  44.178   8.717  1.00  0.00     0.353 A 
ATOM     19  H3  UNL     1      13.737  42.241   9.452  1.00  0.00     0.172 HD
HETATM   20  O2  UNL     1      13.070  44.815   8.964  1.00  0.00    -0.244 OA
HETATM   21  N4  UNL     1      15.247  44.671   8.123  1.00  0.00    -0.161 N 
BRANCH  16  22
HETATM   22  O1  UNL     1      16.222  41.316   8.716  1.00  0.00    -0.344 OA
ATOM     23  H1  UNL     1      17.087  41.107   9.050  1.00  0.00     0.219 HD
ENDBRANCH  16  22
BRANCH  21  24
HETATM   24  O3  UNL     1      15.416  45.968   7.671  1.00  0.00    -0.278 OA
ATOM     25  H3  UNL     1      15.272  46.743   8.202  1.00  0.00     0.245 HD
ENDBRANCH  21  24
ENDBRANCH  14  15
ENDBRANCH  13  14
ENDBRANCH   7  13
BRANCH  12  26
HETATM   26  N7  UNL     1      17.303  37.567   4.440  1.00  0.00    -0.048 N 
HETATM   27  N8  UNL     1      16.314  36.902   3.838  1.00  0.00    -0.205 N 
HETATM   28  N9  UNL     1      16.571  35.609   3.858  1.00  0.00    -0.213 N 
ATOM     29  H8  UNL     1      15.484  37.328   3.426  1.00  0.00     0.211 HD
HETATM   30  N10 UNL     1      17.725  35.387   4.467  1.00  0.00    -0.115 N 
ATOM     31  H9  UNL     1      15.970  34.887   3.463  1.00  0.00     0.210 HD
HETATM   32  C7  UNL     1      18.173  36.617   4.825  1.00  0.00     0.716 A 
ATOM     33  H10 UNL     1      18.178  34.489   4.631  1.00  0.00     0.207 HD
BRANCH  32  34
HETATM   34  N11 UNL     1      19.277  36.855   5.450  1.00  0.00    -0.231 N 
ATOM     35 2H11 UNL     1      20.007  37.494   5.134  1.00  0.00     0.174 HD
ATOM     36 1H11 UNL     1      19.540  36.423   6.336  1.00  0.00     0.174 HD
ENDBRANCH  32  34
ENDBRANCH  12  26
TORSDOF 7
ENDMDL
MODEL 3
REMARK VINA RESULT: -7.173083264      5.350      6.710
REMARK  7 active torsions:
REMARK  status: ('A' for Active; 'I' for Inactive)
REMARK    1  A    between atoms: C2_7  and  S1_8 
REMARK    2  A    between atoms: S1_8  and  S2_9 
REMARK    3  A    between atoms: S2_9  and  C3_10 
REMARK    4  A    between atoms: C4_11  and  O1_12 
REMARK    5  A    between atoms: N4_18  and  O3_19 
REMARK    6  A    between atoms: C6_25  and  N7_26 
REMARK    7  A    between atoms: C7_33  and  N11_34 
ROOT
HETATM    1  N1  UNL     1      16.121  40.125   3.523  1.00  0.00    -0.382 N 
ATOM      2  H11 UNL     1      15.702  39.654   4.324  1.00  0.00     0.157 HD
ATOM      3  H12 UNL     1      15.611  40.823   2.982  1.00  0.00     0.157 HD
HETATM    4  C1  UNL     1      17.341  39.843   3.160  1.00  0.00     0.149 A 
HETATM    5  N2  UNL     1      17.897  40.468   2.097  1.00  0.00    -0.318 N 
ATOM      6  H2  UNL     1      17.365  41.163   1.574  1.00  0.00     0.169 HD
HETATM    7  C2  UNL     1      19.165  40.163   1.734  1.00  0.00     0.172 A 
HETATM    8  N5  UNL     1      19.831  39.249   2.443  1.00  0.00    -0.277 N 
ATOM      9  H5  UNL     1      20.786  39.016   2.172  1.00  0.00     0.189 HD
HETATM   10  N6  UNL     1      19.287  38.627   3.496  1.00  0.00    -0.278 N 
ATOM     11  H6  UNL     1      19.836  37.936   4.008  1.00  0.00     0.189 HD
HETATM   12  C6  UNL     1      18.031  38.898   3.893  1.00  0.00     0.205 A 
ENDROOT
BRANCH   7  13
HETATM   13  S1  UNL     1      19.842  41.013   0.332  1.00  0.00    -0.013 SA
BRANCH  13  14
HETATM   14  S2  UNL     1      21.588  42.053   0.961  1.00  0.00    -0.025 SA
BRANCH  14  15
HETATM   15  C3  UNL     1      21.279  42.709   2.588  1.00  0.00     0.166 A 
HETATM   16  C4  UNL     1      21.499  41.965   3.745  1.00  0.00     0.182 A 
HETATM   17  N3  UNL     1      21.166  42.758   4.778  1.00  0.00    -0.285 N 
HETATM   18  C5  UNL     1      20.753  43.955   4.309  1.00  0.00     0.353 A 
ATOM     19  H3  UNL     1      21.217  42.497   5.763  1.00  0.00     0.172 HD
HETATM   20  O2  UNL     1      20.364  44.947   5.003  1.00  0.00    -0.244 OA
HETATM   21  N4  UNL     1      20.831  43.901   2.965  1.00  0.00    -0.161 N 
BRANCH  16  22
HETATM   22  O1  UNL     1      21.965  40.663   3.852  1.00  0.00    -0.344 OA
ATOM     23  H1  UNL     1      21.490  39.890   4.133  1.00  0.00     0.219 HD
ENDBRANCH  16  22
BRANCH  21  24
HETATM   24  O3  UNL     1      20.499  44.921   2.090  1.00  0.00    -0.278 OA
ATOM     25  H3  UNL     1      21.133  45.457   1.628  1.00  0.00     0.245 HD
ENDBRANCH  21  24
ENDBRANCH  14  15
ENDBRANCH  13  14
ENDBRANCH   7  13
BRANCH  12  26
HETATM   26  N7  UNL     1      17.444  38.242   5.011  1.00  0.00    -0.048 N 
HETATM   27  N8  UNL     1      17.391  38.699   6.265  1.00  0.00    -0.205 N 
HETATM   28  N9  UNL     1      16.772  37.824   7.031  1.00  0.00    -0.213 N 
ATOM     29  H8  UNL     1      17.771  39.591   6.582  1.00  0.00     0.211 HD
HETATM   30  N10 UNL     1      16.403  36.775   6.313  1.00  0.00    -0.115 N 
ATOM     31  H9  UNL     1      16.602  37.938   8.030  1.00  0.00     0.210 HD
HETATM   32  C7  UNL     1      16.827  37.048   5.053  1.00  0.00     0.716 A 
ATOM     33  H10 UNL     1      15.908  35.944   6.636  1.00  0.00     0.207 HD
BRANCH  32  34
HETATM   34  N11 UNL     1      16.669  36.277   4.030  1.00  0.00    -0.231 N 
ATOM     35 2H11 UNL     1      15.857  36.276   3.413  1.00  0.00     0.174 HD
ATOM     36 1H11 UNL     1      17.348  35.579   3.728  1.00  0.00     0.174 HD
ENDBRANCH  32  34
ENDBRANCH  12  26
TORSDOF 7
ENDMDL
MODEL 4
REMARK VINA RESULT: -7.108285140      1.041      1.793
REMARK  7 active torsions:
REMARK  status: ('A' for Active; 'I' for Inactive)
REMARK    1  A    between atoms: C2_7  and  S1_8 
REMARK    2  A    between atoms: S1_8  and  S2_9 
REMARK    3  A    between atoms: S2_9  and  C3_10 
REMARK    4  A    between atoms: C4_11  and  O1_12 
REMARK    5  A    between atoms: N4_18  and  O3_19 
REMARK    6  A    between atoms: C6_25  and  N7_26 
REMARK    7  A    between atoms: C7_33  and  N11_34 
ROOT
HETATM    1  N1  UNL     1      16.893  38.672   7.258  1.00  0.00    -0.382 N 
ATOM      2  H11 UNL     1      17.010  37.679   7.055  1.00  0.00     0.157 HD
ATOM      3  H12 UNL     1      16.711  39.011   8.202  1.00  0.00     0.157 HD
HETATM    4  C1  UNL     1      16.973  39.550   6.298  1.00  0.00     0.149 A 
HETATM    5  N2  UNL     1      16.817  40.868   6.566  1.00  0.00    -0.318 N 
ATOM      6  H2  UNL     1      16.637  41.180   7.520  1.00  0.00     0.169 HD
HETATM    7  C2  UNL     1      16.904  41.767   5.558  1.00  0.00     0.172 A 
HETATM    8  N5  UNL     1      17.142  41.321   4.322  1.00  0.00    -0.277 N 
ATOM      9  H5  UNL     1      17.208  41.995   3.560  1.00  0.00     0.189 HD
HETATM   10  N6  UNL     1      17.298  40.020   4.050  1.00  0.00    -0.278 N 
ATOM     11  H6  UNL     1      17.479  39.727   3.090  1.00  0.00     0.189 HD
HETATM   12  C6  UNL     1      17.219  39.091   5.020  1.00  0.00     0.205 A 
ENDROOT
BRANCH   7  13
HETATM   13  S1  UNL     1      16.691  43.479   5.967  1.00  0.00    -0.013 SA
BRANCH  13  14
HETATM   14  S2  UNL     1      16.861  43.686   8.078  1.00  0.00    -0.025 SA
BRANCH  14  15
HETATM   15  C3  UNL     1      15.378  43.030   8.815  1.00  0.00     0.166 A 
HETATM   16  C4  UNL     1      14.192  43.759   8.875  1.00  0.00     0.182 A 
HETATM   17  N3  UNL     1      13.291  42.970   9.488  1.00  0.00    -0.285 N 
HETATM   18  C5  UNL     1      13.869  41.792   9.805  1.00  0.00     0.353 A 
ATOM     19  H3  UNL     1      12.322  43.223   9.682  1.00  0.00     0.172 HD
HETATM   20  O2  UNL     1      13.314  40.810  10.392  1.00  0.00    -0.244 OA
HETATM   21  N4  UNL     1      15.147  41.853   9.384  1.00  0.00    -0.161 N 
BRANCH  16  22
HETATM   22  O1  UNL     1      13.948  45.042   8.410  1.00  0.00    -0.344 OA
ATOM     23  H1  UNL     1      13.168  45.572   8.526  1.00  0.00     0.219 HD
ENDBRANCH  16  22
BRANCH  21  24
HETATM   24  O3  UNL     1      16.094  40.851   9.513  1.00  0.00    -0.278 OA
ATOM     25  H3  UNL     1      16.222  40.335  10.300  1.00  0.00     0.245 HD
ENDBRANCH  21  24
ENDBRANCH  14  15
ENDBRANCH  13  14
ENDBRANCH   7  13
BRANCH  12  26
HETATM   26  N7  UNL     1      17.383  37.706   4.741  1.00  0.00    -0.048 N 
HETATM   27  N8  UNL     1      16.453  36.872   4.269  1.00  0.00    -0.205 N 
HETATM   28  N9  UNL     1      16.964  35.665   4.134  1.00  0.00    -0.213 N 
ATOM     29  H8  UNL     1      15.491  37.130   4.047  1.00  0.00     0.211 HD
HETATM   30  N10 UNL     1      18.233  35.668   4.508  1.00  0.00    -0.115 N 
ATOM     31  H9  UNL     1      16.457  34.850   3.791  1.00  0.00     0.210 HD
HETATM   32  C7  UNL     1      18.484  36.947   4.884  1.00  0.00     0.716 A 
ATOM     33  H10 UNL     1      18.881  34.880   4.512  1.00  0.00     0.207 HD
BRANCH  32  34
HETATM   34  N11 UNL     1      19.616  37.387   5.322  1.00  0.00    -0.231 N 
ATOM     35 2H11 UNL     1      19.756  38.271   5.810  1.00  0.00     0.174 HD
ATOM     36 1H11 UNL     1      20.502  36.890   5.222  1.00  0.00     0.174 HD
ENDBRANCH  32  34
ENDBRANCH  12  26
TORSDOF 7
ENDMDL
MODEL 5
REMARK VINA RESULT: -7.055447647      5.063      6.240
REMARK  7 active torsions:
REMARK  status: ('A' for Active; 'I' for Inactive)
REMARK    1  A    between atoms: C2_7  and  S1_8 
REMARK    2  A    between atoms: S1_8  and  S2_9 
REMARK    3  A    between atoms: S2_9  and  C3_10 
REMARK    4  A    between atoms: C4_11  and  O1_12 
REMARK    5  A    between atoms: N4_18  and  O3_19 
REMARK    6  A    between atoms: C6_25  and  N7_26 
REMARK    7  A    between atoms: C7_33  and  N11_34 
ROOT
HETATM    1  N1  UNL     1      16.135  40.240   3.615  1.00  0.00    -0.382 N 
ATOM      2  H11 UNL     1      15.715  39.765   4.414  1.00  0.00     0.157 HD
ATOM      3  H12 UNL     1      15.638  40.966   3.099  1.00  0.00     0.157 HD
HETATM    4  C1  UNL     1      17.338  39.927   3.224  1.00  0.00     0.149 A 
HETATM    5  N2  UNL     1      17.895  40.557   2.163  1.00  0.00    -0.318 N 
ATOM      6  H2  UNL     1      17.377  41.280   1.665  1.00  0.00     0.169 HD
HETATM    7  C2  UNL     1      19.146  40.220   1.770  1.00  0.00     0.172 A 
HETATM    8  N5  UNL     1      19.795  39.269   2.447  1.00  0.00    -0.277 N 
ATOM      9  H5  UNL     1      20.737  39.012   2.154  1.00  0.00     0.189 HD
HETATM   10  N6  UNL     1      19.250  38.643   3.497  1.00  0.00    -0.278 N 
ATOM     11  H6  UNL     1      19.785  37.923   3.983  1.00  0.00     0.189 HD
HETATM   12  C6  UNL     1      18.010  38.944   3.922  1.00  0.00     0.205 A 
ENDROOT
BRANCH   7  13
HETATM   13  S1  UNL     1      19.824  41.078   0.375  1.00  0.00    -0.013 SA
BRANCH  13  14
HETATM   14  S2  UNL     1      21.323  42.415   1.077  1.00  0.00    -0.025 SA
BRANCH  14  15
HETATM   15  C3  UNL     1      20.843  42.974   2.699  1.00  0.00     0.166 A 
HETATM   16  C4  UNL     1      20.321  44.246   2.924  1.00  0.00     0.182 A 
HETATM   17  N3  UNL     1      20.073  44.329   4.243  1.00  0.00    -0.285 N 
HETATM   18  C5  UNL     1      20.417  43.166   4.838  1.00  0.00     0.353 A 
ATOM     19  H3  UNL     1      19.685  45.142   4.721  1.00  0.00     0.172 HD
HETATM   20  O2  UNL     1      20.319  42.890   6.075  1.00  0.00    -0.244 OA
HETATM   21  N4  UNL     1      20.887  42.352   3.872  1.00  0.00    -0.161 N 
BRANCH  16  22
HETATM   22  O1  UNL     1      20.091  45.255   2.001  1.00  0.00    -0.344 OA
ATOM     23  H1  UNL     1      19.449  45.274   1.300  1.00  0.00     0.219 HD
ENDBRANCH  16  22
BRANCH  21  24
HETATM   24  O3  UNL     1      21.349  41.060   4.051  1.00  0.00    -0.278 OA
ATOM     25  H3  UNL     1      21.176  40.342   3.454  1.00  0.00     0.245 HD
ENDBRANCH  21  24
ENDBRANCH  14  15
ENDBRANCH  13  14
ENDBRANCH   7  13
BRANCH  12  26
HETATM   26  N7  UNL     1      17.423  38.284   5.037  1.00  0.00    -0.048 N 
HETATM   27  N8  UNL     1      17.359  38.739   6.291  1.00  0.00    -0.205 N 
HETATM   28  N9  UNL     1      16.743  37.858   7.053  1.00  0.00    -0.213 N 
ATOM     29  H8  UNL     1      17.731  39.634   6.611  1.00  0.00     0.211 HD
HETATM   30  N10 UNL     1      16.387  36.807   6.332  1.00  0.00    -0.115 N 
ATOM     31  H9  UNL     1      16.567  37.970   8.051  1.00  0.00     0.210 HD
HETATM   32  C7  UNL     1      16.816  37.084   5.076  1.00  0.00     0.716 A 
ATOM     33  H10 UNL     1      15.896  35.972   6.652  1.00  0.00     0.207 HD
BRANCH  32  34
HETATM   34  N11 UNL     1      16.669  36.313   4.051  1.00  0.00    -0.231 N 
ATOM     35 2H11 UNL     1      17.025  36.503   3.114  1.00  0.00     0.174 HD
ATOM     36 1H11 UNL     1      16.174  35.421   4.071  1.00  0.00     0.174 HD
ENDBRANCH  32  34
ENDBRANCH  12  26
TORSDOF 7
ENDMDL
