MODEL 1
REMARK VINA RESULT: -8.150671380      0.000      0.000
REMARK  4 active torsions:
REMARK  status: ('A' for Active; 'I' for Inactive)
REMARK    1  A    between atoms: O1_2  and  C2_3 
REMARK    2  A    between atoms: C3_6  and  C4_7 
REMARK    3  A    between atoms: C5_10  and  N3_11 
REMARK    4  A    between atoms: C6_20  and  N7_21 
ROOT
HETATM    1  C2  UNL     1       8.581  43.917   7.249  1.00  0.00     0.239 A 
HETATM    2  N1  UNL     1       8.277  42.891   6.455  1.00  0.00    -0.304 N 
ATOM      3  H1  UNL     1       7.352  42.831   6.030  1.00  0.00     0.171 HD
HETATM    4  C3  UNL     1       9.190  41.938   6.216  1.00  0.00     0.170 A 
HETATM    5  N6  UNL     1      10.408  42.016   6.775  1.00  0.00    -0.169 N 
ATOM      6  H6  UNL     1      11.090  41.281   6.583  1.00  0.00     0.186 HD
HETATM    7  C6  UNL     1      10.755  43.033   7.580  1.00  0.00     0.725 A 
HETATM    8  N13 UNL     1       9.822  43.974   7.802  1.00  0.00    -0.151 N 
ATOM      9  H13 UNL     1      10.053  44.761   8.409  1.00  0.00     0.188 HD
ENDROOT
BRANCH   7  10
HETATM   10  N7  UNL     1      12.028  43.160   8.194  1.00  0.00    -0.003 N 
HETATM   11  N8  UNL     1      12.890  44.104   7.856  1.00  0.00    -0.205 N 
HETATM   12  N9  UNL     1      14.076  44.234   8.420  1.00  0.00    -0.276 N 
ATOM     13  H8  UNL     1      12.625  44.763   7.125  1.00  0.00     0.211 HD
HETATM   14  C7  UNL     1      14.450  43.389   9.374  1.00  0.00     0.167 A 
ATOM     15  H9  UNL     1      14.704  44.981   8.124  1.00  0.00     0.189 HD
HETATM   16  C8  UNL     1      15.687  43.467  10.011  1.00  0.00     0.298 A 
HETATM   17  C9  UNL     1      13.624  42.431   9.745  1.00  0.00     0.178 A 
HETATM   18  O2  UNL     1      16.489  44.367   9.678  1.00  0.00    -0.264 OA
HETATM   19  N10 UNL     1      16.044  42.603  10.975  1.00  0.00    -0.204 N 
HETATM   20  O3  UNL     1      15.191  41.680  11.299  1.00  0.00    -0.152 OA
ATOM     21  H10 UNL     1      16.952  42.669  11.434  1.00  0.00     0.200 HD
HETATM   22  N11 UNL     1      14.018  41.589  10.709  1.00  0.00    -0.222 N 
ATOM     23  H11 UNL     1      13.383  40.846  10.998  1.00  0.00     0.198 HD
HETATM   24  N12 UNL     1      12.413  42.324   9.148  1.00  0.00    -0.244 N 
ATOM     25  H12 UNL     1      11.780  41.579   9.439  1.00  0.00     0.191 HD
ENDBRANCH   7  10
BRANCH   4  26
HETATM   26  C4  UNL     1       8.825  40.831   5.345  1.00  0.00     0.181 A 
HETATM   27  N2  UNL     1       7.616  40.423   4.946  1.00  0.00    -0.171 N 
HETATM   28  C5  UNL     1       7.735  39.344   4.132  1.00  0.00     0.692 A 
ATOM     29  H2  UNL     1       6.733  40.859   5.214  1.00  0.00     0.186 HD
HETATM   30  N4  UNL     1       9.043  39.114   4.049  1.00  0.00    -0.131 N 
HETATM   31  N5  UNL     1       9.706  39.986   4.762  1.00  0.00    -0.268 N 
ATOM     32  H4  UNL     1       9.468  38.362   3.506  1.00  0.00     0.205 HD
ATOM     33  H5  UNL     1      10.721  40.023   4.862  1.00  0.00     0.189 HD
BRANCH  28  34
HETATM   34  N3  UNL     1       6.765  38.709   3.576  1.00  0.00    -0.233 N 
ATOM     35  H32 UNL     1       6.089  39.042   2.888  1.00  0.00     0.174 HD
ATOM     36  H31 UNL     1       6.513  37.736   3.747  1.00  0.00     0.174 HD
ENDBRANCH  28  34
ENDBRANCH   4  26
BRANCH   1  37
HETATM   37  O1  UNL     1       7.647  44.932   7.518  1.00  0.00    -0.327 OA
HETATM   38  C1  UNL     1       6.719  45.265   6.509  1.00  0.00     0.213 C 
ENDBRANCH   1  37
TORSDOF 4
ENDMDL
MODEL 2
REMARK VINA RESULT: -7.610790135      2.611      7.994
REMARK  4 active torsions:
REMARK  status: ('A' for Active; 'I' for Inactive)
REMARK    1  A    between atoms: O1_2  and  C2_3 
REMARK    2  A    between atoms: C3_6  and  C4_7 
REMARK    3  A    between atoms: C5_10  and  N3_11 
REMARK    4  A    between atoms: C6_20  and  N7_21 
ROOT
HETATM    1  C2  UNL     1      15.081  42.729  10.003  1.00  0.00     0.239 A 
HETATM    2  N1  UNL     1      16.067  43.142   9.207  1.00  0.00    -0.304 N 
ATOM      3  H1  UNL     1      17.039  42.985   9.474  1.00  0.00     0.171 HD
HETATM    4  C3  UNL     1      15.780  43.764   8.054  1.00  0.00     0.170 A 
HETATM    5  N6  UNL     1      14.501  43.973   7.701  1.00  0.00    -0.169 N 
ATOM      6  H6  UNL     1      14.300  44.448   6.822  1.00  0.00     0.186 HD
HETATM    7  C6  UNL     1      13.479  43.572   8.474  1.00  0.00     0.725 A 
HETATM    8  N13 UNL     1      13.794  42.951   9.623  1.00  0.00    -0.151 N 
ATOM      9  H13 UNL     1      13.041  42.634  10.233  1.00  0.00     0.188 HD
ENDROOT
BRANCH   7  10
HETATM   10  N7  UNL     1      12.111  43.768   8.146  1.00  0.00    -0.003 N 
HETATM   11  N8  UNL     1      11.583  44.969   7.986  1.00  0.00    -0.205 N 
HETATM   12  N9  UNL     1      10.314  45.165   7.680  1.00  0.00    -0.276 N 
ATOM     13  H8  UNL     1      12.185  45.783   8.105  1.00  0.00     0.211 HD
HETATM   14  C7  UNL     1       9.506  44.125   7.521  1.00  0.00     0.167 A 
ATOM     15  H9  UNL     1       9.956  46.113   7.566  1.00  0.00     0.189 HD
HETATM   16  C8  UNL     1       8.156  44.257   7.199  1.00  0.00     0.298 A 
HETATM   17  C9  UNL     1       9.986  42.905   7.670  1.00  0.00     0.178 A 
HETATM   18  O2  UNL     1       7.674  45.402   7.051  1.00  0.00    -0.264 OA
HETATM   19  N10 UNL     1       7.355  43.191   7.042  1.00  0.00    -0.204 N 
HETATM   20  O3  UNL     1       7.883  42.016   7.201  1.00  0.00    -0.152 OA
ATOM     21  H10 UNL     1       6.369  43.300   6.806  1.00  0.00     0.200 HD
HETATM   22  N11 UNL     1       9.156  41.869   7.506  1.00  0.00    -0.222 N 
ATOM     23  H11 UNL     1       9.524  40.925   7.622  1.00  0.00     0.198 HD
HETATM   24  N12 UNL     1      11.293  42.738   7.984  1.00  0.00    -0.244 N 
ATOM     25  H12 UNL     1      11.658  41.792   8.099  1.00  0.00     0.191 HD
ENDBRANCH   7  10
BRANCH   4  26
HETATM   26  C4  UNL     1      16.880  44.202   7.209  1.00  0.00     0.181 A 
HETATM   27  N2  UNL     1      16.933  45.214   6.336  1.00  0.00    -0.171 N 
HETATM   28  C5  UNL     1      18.161  45.265   5.760  1.00  0.00     0.692 A 
ATOM     29  H2  UNL     1      16.164  45.853   6.133  1.00  0.00     0.186 HD
HETATM   30  N4  UNL     1      18.844  44.263   6.307  1.00  0.00    -0.131 N 
HETATM   31  N5  UNL     1      18.101  43.621   7.170  1.00  0.00    -0.268 N 
ATOM     32  H4  UNL     1      19.812  44.029   6.085  1.00  0.00     0.205 HD
ATOM     33  H5  UNL     1      18.393  42.815   7.722  1.00  0.00     0.189 HD
BRANCH  28  34
HETATM   34  N3  UNL     1      18.543  46.119   4.878  1.00  0.00    -0.233 N 
ATOM     35  H32 UNL     1      18.901  47.065   5.012  1.00  0.00     0.174 HD
ATOM     36  H31 UNL     1      18.546  45.974   3.869  1.00  0.00     0.174 HD
ENDBRANCH  28  34
ENDBRANCH   4  26
BRANCH   1  37
HETATM   37  O1  UNL     1      15.350  42.074  11.216  1.00  0.00    -0.327 OA
HETATM   38  C1  UNL     1      16.466  42.499  11.967  1.00  0.00     0.213 C 
ENDBRANCH   1  37
TORSDOF 4
ENDMDL
MODEL 3
REMARK VINA RESULT: -7.588099558      7.544      9.411
REMARK  4 active torsions:
REMARK  status: ('A' for Active; 'I' for Inactive)
REMARK    1  A    between atoms: O1_2  and  C2_3 
REMARK    2  A    between atoms: C3_6  and  C4_7 
REMARK    3  A    between atoms: C5_10  and  N3_11 
REMARK    4  A    between atoms: C6_20  and  N7_21 
ROOT
HETATM    1  C2  UNL     1      17.073  42.197   6.934  1.00  0.00     0.239 A 
HETATM    2  N1  UNL     1      16.860  40.890   6.786  1.00  0.00    -0.304 N 
ATOM      3  H1  UNL     1      16.317  40.380   7.483  1.00  0.00     0.171 HD
HETATM    4  C3  UNL     1      17.361  40.247   5.721  1.00  0.00     0.170 A 
HETATM    5  N6  UNL     1      18.077  40.918   4.804  1.00  0.00    -0.169 N 
ATOM      6  H6  UNL     1      18.451  40.413   4.001  1.00  0.00     0.186 HD
HETATM    7  C6  UNL     1      18.313  42.234   4.914  1.00  0.00     0.725 A 
HETATM    8  N13 UNL     1      17.800  42.854   5.990  1.00  0.00    -0.151 N 
ATOM      9  H13 UNL     1      17.962  43.855   6.104  1.00  0.00     0.188 HD
ENDROOT
BRANCH   7  10
HETATM   10  N7  UNL     1      19.063  42.988   3.973  1.00  0.00    -0.003 N 
HETATM   11  N8  UNL     1      18.516  43.916   3.207  1.00  0.00    -0.205 N 
HETATM   12  N9  UNL     1      19.201  44.624   2.329  1.00  0.00    -0.276 N 
ATOM     13  H8  UNL     1      17.517  44.094   3.300  1.00  0.00     0.211 HD
HETATM   14  C7  UNL     1      20.504  44.413   2.184  1.00  0.00     0.167 A 
ATOM     15  H9  UNL     1      18.731  45.330   1.763  1.00  0.00     0.189 HD
HETATM   16  C8  UNL     1      21.289  45.122   1.277  1.00  0.00     0.298 A 
HETATM   17  C9  UNL     1      21.095  43.497   2.926  1.00  0.00     0.178 A 
HETATM   18  O2  UNL     1      20.754  45.998   0.561  1.00  0.00    -0.264 OA
HETATM   19  N10 UNL     1      22.606  44.894   1.147  1.00  0.00    -0.204 N 
HETATM   20  O3  UNL     1      23.133  43.980   1.903  1.00  0.00    -0.152 OA
ATOM     21  H10 UNL     1      23.170  45.419   0.479  1.00  0.00     0.200 HD
HETATM   22  N11 UNL     1      22.409  43.299   2.766  1.00  0.00    -0.222 N 
ATOM     23  H11 UNL     1      22.869  42.590   3.337  1.00  0.00     0.198 HD
HETATM   24  N12 UNL     1      20.364  42.787   3.819  1.00  0.00    -0.244 N 
ATOM     25  H12 UNL     1      20.827  42.079   4.388  1.00  0.00     0.191 HD
ENDBRANCH   7  10
BRANCH   4  26
HETATM   26  C4  UNL     1      17.110  38.820   5.591  1.00  0.00     0.181 A 
HETATM   27  N2  UNL     1      17.035  38.064   4.490  1.00  0.00    -0.171 N 
HETATM   28  C5  UNL     1      16.783  36.775   4.829  1.00  0.00     0.692 A 
ATOM     29  H2  UNL     1      17.149  38.407   3.536  1.00  0.00     0.186 HD
HETATM   30  N4  UNL     1      16.711  36.771   6.157  1.00  0.00    -0.131 N 
HETATM   31  N5  UNL     1      16.903  37.976   6.628  1.00  0.00    -0.268 N 
ATOM     32  H4  UNL     1      16.531  35.945   6.728  1.00  0.00     0.205 HD
ATOM     33  H5  UNL     1      16.896  38.235   7.614  1.00  0.00     0.189 HD
BRANCH  28  34
HETATM   34  N3  UNL     1      16.652  35.793   4.008  1.00  0.00    -0.233 N 
ATOM     35  H32 UNL     1      17.199  35.574   3.176  1.00  0.00     0.174 HD
ATOM     36  H31 UNL     1      15.951  35.055   4.068  1.00  0.00     0.174 HD
ENDBRANCH  28  34
ENDBRANCH   4  26
BRANCH   1  37
HETATM   37  O1  UNL     1      16.561  42.899   8.038  1.00  0.00    -0.327 OA
HETATM   38  C1  UNL     1      15.830  42.175   9.003  1.00  0.00     0.213 C 
ENDBRANCH   1  37
TORSDOF 4
ENDMDL
MODEL 4
REMARK VINA RESULT: -7.548720976      5.359      7.685
REMARK  4 active torsions:
REMARK  status: ('A' for Active; 'I' for Inactive)
REMARK    1  A    between atoms: O1_2  and  C2_3 
REMARK    2  A    between atoms: C3_6  and  C4_7 
REMARK    3  A    between atoms: C5_10  and  N3_11 
REMARK    4  A    between atoms: C6_20  and  N7_21 
ROOT
HETATM    1  C2  UNL     1      18.432  42.177   4.545  1.00  0.00     0.239 A 
HETATM    2  N1  UNL     1      18.392  40.845   4.556  1.00  0.00    -0.304 N 
ATOM      3  H1  UNL     1      19.174  40.308   4.180  1.00  0.00     0.171 HD
HETATM    4  C3  UNL     1      17.324  40.211   5.062  1.00  0.00     0.170 A 
HETATM    5  N6  UNL     1      16.294  40.917   5.557  1.00  0.00    -0.169 N 
ATOM      6  H6  UNL     1      15.489  40.420   5.937  1.00  0.00     0.186 HD
HETATM    7  C6  UNL     1      16.294  42.260   5.566  1.00  0.00     0.725 A 
HETATM    8  N13 UNL     1      17.377  42.869   5.053  1.00  0.00    -0.151 N 
ATOM      9  H13 UNL     1      17.409  43.888   5.045  1.00  0.00     0.188 HD
ENDROOT
BRANCH   7  10
HETATM   10  N7  UNL     1      15.232  43.050   6.077  1.00  0.00    -0.003 N 
HETATM   11  N8  UNL     1      14.462  43.794   5.303  1.00  0.00    -0.205 N 
HETATM   12  N9  UNL     1      13.470  44.533   5.765  1.00  0.00    -0.276 N 
ATOM     13  H8  UNL     1      14.642  43.798   4.299  1.00  0.00     0.211 HD
HETATM   14  C7  UNL     1      13.213  44.551   7.067  1.00  0.00     0.167 A 
ATOM     15  H9  UNL     1      12.904  45.089   5.124  1.00  0.00     0.189 HD
HETATM   16  C8  UNL     1      12.183  45.308   7.624  1.00  0.00     0.298 A 
HETATM   17  C9  UNL     1      13.954  43.825   7.881  1.00  0.00     0.178 A 
HETATM   18  O2  UNL     1      11.464  46.005   6.875  1.00  0.00    -0.264 OA
HETATM   19  N10 UNL     1      11.939  45.311   8.945  1.00  0.00    -0.204 N 
HETATM   20  O3  UNL     1      12.701  44.577   9.697  1.00  0.00    -0.152 OA
ATOM     21  H10 UNL     1      11.184  45.868   9.342  1.00  0.00     0.200 HD
HETATM   22  N11 UNL     1      13.679  43.856   9.191  1.00  0.00    -0.222 N 
ATOM     23  H11 UNL     1      14.251  43.297   9.823  1.00  0.00     0.198 HD
HETATM   24  N12 UNL     1      14.964  43.077   7.375  1.00  0.00    -0.244 N 
ATOM     25  H12 UNL     1      15.534  42.519   8.011  1.00  0.00     0.191 HD
ENDBRANCH   7  10
BRANCH   4  26
HETATM   26  C4  UNL     1      17.313  38.757   5.058  1.00  0.00     0.181 A 
HETATM   27  N2  UNL     1      16.873  37.911   4.121  1.00  0.00    -0.171 N 
HETATM   28  C5  UNL     1      17.055  36.630   4.530  1.00  0.00     0.692 A 
ATOM     29  H2  UNL     1      16.461  38.187   3.229  1.00  0.00     0.186 HD
HETATM   30  N4  UNL     1      17.615  36.725   5.733  1.00  0.00    -0.131 N 
HETATM   31  N5  UNL     1      17.776  37.979   6.064  1.00  0.00    -0.268 N 
ATOM     32  H4  UNL     1      17.881  35.931   6.316  1.00  0.00     0.205 HD
ATOM     33  H5  UNL     1      18.184  38.316   6.935  1.00  0.00     0.189 HD
BRANCH  28  34
HETATM   34  N3  UNL     1      16.740  35.575   3.865  1.00  0.00    -0.233 N 
ATOM     35  H32 UNL     1      17.217  35.151   3.069  1.00  0.00     0.174 HD
ATOM     36  H31 UNL     1      15.931  34.979   4.039  1.00  0.00     0.174 HD
ENDBRANCH  28  34
ENDBRANCH   4  26
BRANCH   1  37
HETATM   37  O1  UNL     1      19.537  42.869   4.023  1.00  0.00    -0.327 OA
HETATM   38  C1  UNL     1      20.634  43.108   4.876  1.00  0.00     0.213 C 
ENDBRANCH   1  37
TORSDOF 4
ENDMDL
MODEL 5
REMARK VINA RESULT: -7.527823263      7.688      9.626
REMARK  4 active torsions:
REMARK  status: ('A' for Active; 'I' for Inactive)
REMARK    1  A    between atoms: O1_2  and  C2_3 
REMARK    2  A    between atoms: C3_6  and  C4_7 
REMARK    3  A    between atoms: C5_10  and  N3_11 
REMARK    4  A    between atoms: C6_20  and  N7_21 
ROOT
HETATM    1  C2  UNL     1      17.300  42.228   6.721  1.00  0.00     0.239 A 
HETATM    2  N1  UNL     1      16.983  40.938   6.613  1.00  0.00    -0.304 N 
ATOM      3  H1  UNL     1      16.332  40.515   7.274  1.00  0.00     0.171 HD
HETATM    4  C3  UNL     1      17.522  40.196   5.633  1.00  0.00     0.170 A 
HETATM    5  N6  UNL     1      18.380  40.751   4.762  1.00  0.00    -0.169 N 
ATOM      6  H6  UNL     1      18.781  40.173   4.024  1.00  0.00     0.186 HD
HETATM    7  C6  UNL     1      18.726  42.047   4.835  1.00  0.00     0.725 A 
HETATM    8  N13 UNL     1      18.171  42.766   5.826  1.00  0.00    -0.151 N 
ATOM      9  H13 UNL     1      18.413  43.754   5.909  1.00  0.00     0.188 HD
ENDROOT
BRANCH   7  10
HETATM   10  N7  UNL     1      19.627  42.679   3.940  1.00  0.00    -0.003 N 
HETATM   11  N8  UNL     1      20.788  42.145   3.603  1.00  0.00    -0.205 N 
HETATM   12  N9  UNL     1      21.635  42.722   2.771  1.00  0.00    -0.276 N 
ATOM     13  H8  UNL     1      21.041  41.243   4.005  1.00  0.00     0.211 HD
HETATM   14  C7  UNL     1      21.333  43.898   2.234  1.00  0.00     0.167 A 
ATOM     15  H9  UNL     1      22.518  42.267   2.542  1.00  0.00     0.189 HD
HETATM   16  C8  UNL     1      22.180  44.565   1.349  1.00  0.00     0.298 A 
HETATM   17  C9  UNL     1      20.186  44.472   2.540  1.00  0.00     0.178 A 
HETATM   18  O2  UNL     1      23.274  44.043   1.041  1.00  0.00    -0.264 OA
HETATM   19  N10 UNL     1      21.855  45.754   0.816  1.00  0.00    -0.204 N 
HETATM   20  O3  UNL     1      20.713  46.271   1.154  1.00  0.00    -0.152 OA
ATOM     21  H10 UNL     1      22.482  46.233   0.170  1.00  0.00     0.200 HD
HETATM   22  N11 UNL     1      19.900  45.657   1.988  1.00  0.00    -0.222 N 
ATOM     23  H11 UNL     1      19.014  46.104   2.223  1.00  0.00     0.198 HD
HETATM   24  N12 UNL     1      19.338  43.853   3.396  1.00  0.00    -0.244 N 
ATOM     25  H12 UNL     1      18.453  44.303   3.630  1.00  0.00     0.191 HD
ENDBRANCH   7  10
BRANCH   4  26
HETATM   26  C4  UNL     1      17.154  38.792   5.544  1.00  0.00     0.181 A 
HETATM   27  N2  UNL     1      17.076  37.998   4.471  1.00  0.00    -0.171 N 
HETATM   28  C5  UNL     1      16.693  36.751   4.844  1.00  0.00     0.692 A 
ATOM     29  H2  UNL     1      17.275  38.287   3.513  1.00  0.00     0.186 HD
HETATM   30  N4  UNL     1      16.543  36.813   6.164  1.00  0.00    -0.131 N 
HETATM   31  N5  UNL     1      16.813  38.015   6.599  1.00  0.00    -0.268 N 
ATOM     32  H4  UNL     1      16.259  36.031   6.755  1.00  0.00     0.205 HD
ATOM     33  H5  UNL     1      16.773  38.318   7.571  1.00  0.00     0.189 HD
BRANCH  28  34
HETATM   34  N3  UNL     1      16.523  35.749   4.056  1.00  0.00    -0.233 N 
ATOM     35  H32 UNL     1      16.299  35.744   3.060  1.00  0.00     0.174 HD
ATOM     36  H31 UNL     1      16.587  34.765   4.318  1.00  0.00     0.174 HD
ENDBRANCH  28  34
ENDBRANCH   4  26
BRANCH   1  37
HETATM   37  O1  UNL     1      16.753  43.030   7.735  1.00  0.00    -0.327 OA
HETATM   38  C1  UNL     1      15.894  42.420   8.673  1.00  0.00     0.213 C 
ENDBRANCH   1  37
TORSDOF 4
ENDMDL
