MODEL 1
REMARK VINA RESULT: -7.679033042      0.000      0.000
REMARK  7 active torsions:
REMARK  status: ('A' for Active; 'I' for Inactive)
REMARK    1  A    between atoms: N1_2  and  S1_4 
REMARK    2  A    between atoms: S1_4  and  C3_7 
REMARK    3  A    between atoms: C3_7  and  C4_8 
REMARK    4  A    between atoms: C4_8  and  O2_9 
REMARK    5  A    between atoms: O2_9  and  C5_10 
REMARK    6  A    between atoms: C9_20  and  N5_21 
REMARK    7  A    between atoms: N6_23  and  C10_25 
ROOT
HETATM    1  C5  UNL     1      16.121  44.696   7.245  1.00  0.00     0.162 C 
HETATM    2  N2  UNL     1      17.001  45.458   6.694  1.00  0.00    -0.344 N 
ATOM      3  H2  UNL     1      16.907  46.473   6.694  1.00  0.00     0.164 HD
HETATM    4  C6  UNL     1      18.134  44.796   6.075  1.00  0.00     0.111 C 
HETATM    5  C7  UNL     1      19.246  45.852   6.005  1.00  0.00     0.064 C 
HETATM    6  C8  UNL     1      17.798  44.414   4.658  1.00  0.00     0.064 C 
HETATM    7  N3  UNL     1      18.635  43.712   6.856  1.00  0.00    -0.310 N 
ATOM      8  H3  UNL     1      19.629  43.600   7.051  1.00  0.00     0.182 HD
HETATM    9  N4  UNL     1      17.696  42.832   7.327  1.00  0.00    -0.306 N 
ATOM     10  H4  UNL     1      17.955  41.938   7.746  1.00  0.00     0.182 HD
HETATM   11  C9  UNL     1      16.337  43.237   7.199  1.00  0.00     0.286 C 
ENDROOT
BRANCH   1  12
HETATM   12  O2  UNL     1      15.039  45.319   7.838  1.00  0.00    -0.335 OA
BRANCH  12  13
HETATM   13  C4  UNL     1      13.830  45.587   7.140  1.00  0.00     0.190 C 
BRANCH  13  14
HETATM   14  C3  UNL     1      12.701  45.043   7.953  1.00  0.00     0.143 C 
BRANCH  14  15
HETATM   15  S1  UNL     1      11.951  43.615   7.236  1.00  0.00     0.018 S 
HETATM   16  C2  UNL     1      10.455  44.002   6.376  1.00  0.00     0.136 C 
HETATM   17  O1  UNL     1      12.922  43.036   6.247  1.00  0.00    -0.250 OA
BRANCH  15  18
HETATM   18  N1  UNL     1      11.693  42.517   8.312  1.00  0.00    -0.356 N 
HETATM   19  C1  UNL     1      10.597  41.607   8.044  1.00  0.00     0.156 C 
ATOM     20  H1  UNL     1      12.263  42.443   9.155  1.00  0.00     0.168 HD
ENDBRANCH  15  18
ENDBRANCH  14  15
ENDBRANCH  13  14
ENDBRANCH  12  13
ENDBRANCH   1  12
BRANCH  11  21
HETATM   21  N5  UNL     1      15.480  42.567   8.144  1.00  0.00    -0.306 N 
HETATM   22  N6  UNL     1      15.844  42.542   9.342  1.00  0.00    -0.302 N 
ATOM     23  H6  UNL     1      16.724  42.992   9.593  1.00  0.00     0.183 HD
ATOM     24  H5  UNL     1      14.607  42.129   7.848  1.00  0.00     0.182 HD
BRANCH  22  25
HETATM   25  C10 UNL     1      15.084  41.911  10.368  1.00  0.00     0.321 C 
HETATM   26  N7  UNL     1      14.984  40.489  10.076  1.00  0.00    -0.083 NA
HETATM   27  N8  UNL     1      13.895  40.127  10.895  1.00  0.00    -0.018 NA
HETATM   28  N9  UNL     1      13.015  41.198  10.891  1.00  0.00    -0.018 NA
HETATM   29  N10 UNL     1      13.704  42.308  10.395  1.00  0.00    -0.083 NA
ENDBRANCH  22  25
ENDBRANCH  11  21
TORSDOF 7
ENDMDL
MODEL 2
REMARK VINA RESULT: -7.628123037      1.157      1.405
REMARK  7 active torsions:
REMARK  status: ('A' for Active; 'I' for Inactive)
REMARK    1  A    between atoms: N1_2  and  S1_4 
REMARK    2  A    between atoms: S1_4  and  C3_7 
REMARK    3  A    between atoms: C3_7  and  C4_8 
REMARK    4  A    between atoms: C4_8  and  O2_9 
REMARK    5  A    between atoms: O2_9  and  C5_10 
REMARK    6  A    between atoms: C9_20  and  N5_21 
REMARK    7  A    between atoms: N6_23  and  C10_25 
ROOT
HETATM    1  C5  UNL     1      16.101  44.643   7.254  1.00  0.00     0.162 C 
HETATM    2  N2  UNL     1      16.954  45.408   6.665  1.00  0.00    -0.344 N 
ATOM      3  H2  UNL     1      16.840  46.421   6.641  1.00  0.00     0.164 HD
HETATM    4  C6  UNL     1      18.087  44.752   6.039  1.00  0.00     0.111 C 
HETATM    5  C7  UNL     1      19.176  45.827   5.918  1.00  0.00     0.064 C 
HETATM    6  C8  UNL     1      17.729  44.328   4.639  1.00  0.00     0.064 C 
HETATM    7  N3  UNL     1      18.626  43.699   6.835  1.00  0.00    -0.310 N 
ATOM      8  H3  UNL     1      19.626  43.611   7.012  1.00  0.00     0.182 HD
HETATM    9  N4  UNL     1      17.715  42.812   7.349  1.00  0.00    -0.306 N 
ATOM     10  H4  UNL     1      18.000  41.935   7.785  1.00  0.00     0.182 HD
HETATM   11  C9  UNL     1      16.346  43.188   7.240  1.00  0.00     0.286 C 
ENDROOT
BRANCH   1  12
HETATM   12  O2  UNL     1      15.020  45.260   7.854  1.00  0.00    -0.335 OA
BRANCH  12  13
HETATM   13  C4  UNL     1      13.952  45.830   7.111  1.00  0.00     0.190 C 
BRANCH  13  14
HETATM   14  C3  UNL     1      12.981  44.740   6.791  1.00  0.00     0.143 C 
BRANCH  14  15
HETATM   15  S1  UNL     1      11.704  44.567   7.996  1.00  0.00     0.018 S 
HETATM   16  C2  UNL     1      11.222  42.881   8.228  1.00  0.00     0.136 C 
HETATM   17  O1  UNL     1      12.234  45.086   9.302  1.00  0.00    -0.250 OA
BRANCH  15  18
HETATM   18  N1  UNL     1      10.466  45.442   7.631  1.00  0.00    -0.356 N 
HETATM   19  C1  UNL     1       9.258  44.723   7.280  1.00  0.00     0.156 C 
ATOM     20  H1  UNL     1      10.505  46.461   7.640  1.00  0.00     0.168 HD
ENDBRANCH  15  18
ENDBRANCH  14  15
ENDBRANCH  13  14
ENDBRANCH  12  13
ENDBRANCH   1  12
BRANCH  11  21
HETATM   21  N5  UNL     1      15.522  42.525   8.220  1.00  0.00    -0.306 N 
HETATM   22  N6  UNL     1      15.945  42.481   9.398  1.00  0.00    -0.302 N 
ATOM     23  H6  UNL     1      16.845  42.910   9.610  1.00  0.00     0.183 HD
ATOM     24  H5  UNL     1      14.628  42.108   7.963  1.00  0.00     0.182 HD
BRANCH  22  25
HETATM   25  C10 UNL     1      15.223  41.855  10.455  1.00  0.00     0.321 C 
HETATM   26  N7  UNL     1      14.912  40.486  10.070  1.00  0.00    -0.083 NA
HETATM   27  N8  UNL     1      13.879  40.184  10.979  1.00  0.00    -0.018 NA
HETATM   28  N9  UNL     1      13.146  41.347  11.158  1.00  0.00    -0.018 NA
HETATM   29  N10 UNL     1      13.915  42.408  10.671  1.00  0.00    -0.083 NA
ENDBRANCH  22  25
ENDBRANCH  11  21
TORSDOF 7
ENDMDL
MODEL 3
REMARK VINA RESULT: -7.425888360      1.170      1.295
REMARK  7 active torsions:
REMARK  status: ('A' for Active; 'I' for Inactive)
REMARK    1  A    between atoms: N1_2  and  S1_4 
REMARK    2  A    between atoms: S1_4  and  C3_7 
REMARK    3  A    between atoms: C3_7  and  C4_8 
REMARK    4  A    between atoms: C4_8  and  O2_9 
REMARK    5  A    between atoms: O2_9  and  C5_10 
REMARK    6  A    between atoms: C9_20  and  N5_21 
REMARK    7  A    between atoms: N6_23  and  C10_25 
ROOT
HETATM    1  C5  UNL     1      16.554  44.579   6.977  1.00  0.00     0.162 C 
HETATM    2  N2  UNL     1      17.579  45.199   6.504  1.00  0.00    -0.344 N 
ATOM      3  H2  UNL     1      17.637  46.217   6.501  1.00  0.00     0.164 HD
HETATM    4  C6  UNL     1      18.648  44.372   5.975  1.00  0.00     0.111 C 
HETATM    5  C7  UNL     1      19.906  45.252   6.001  1.00  0.00     0.064 C 
HETATM    6  C8  UNL     1      18.377  44.035   4.533  1.00  0.00     0.064 C 
HETATM    7  N3  UNL     1      18.918  43.232   6.788  1.00  0.00    -0.310 N 
ATOM      8  H3  UNL     1      19.866  42.975   7.063  1.00  0.00     0.182 HD
HETATM    9  N4  UNL     1      17.824  42.503   7.177  1.00  0.00    -0.306 N 
ATOM     10  H4  UNL     1      17.913  41.584   7.611  1.00  0.00     0.182 HD
HETATM   11  C9  UNL     1      16.556  43.104   6.941  1.00  0.00     0.286 C 
ENDROOT
BRANCH   1  12
HETATM   12  O2  UNL     1      15.532  45.360   7.483  1.00  0.00    -0.335 OA
BRANCH  12  13
HETATM   13  C4  UNL     1      14.879  46.361   6.715  1.00  0.00     0.190 C 
BRANCH  13  14
HETATM   14  C3  UNL     1      14.073  45.677   5.658  1.00  0.00     0.143 C 
BRANCH  14  15
HETATM   15  S1  UNL     1      12.801  44.642   6.311  1.00  0.00     0.018 S 
HETATM   16  C2  UNL     1      11.211  45.026   5.638  1.00  0.00     0.136 C 
HETATM   17  O1  UNL     1      13.133  43.223   5.946  1.00  0.00    -0.250 OA
BRANCH  15  18
HETATM   18  N1  UNL     1      12.766  44.712   7.868  1.00  0.00    -0.356 N 
HETATM   19  C1  UNL     1      11.486  45.043   8.463  1.00  0.00     0.156 C 
ATOM     20  H1  UNL     1      13.595  44.534   8.435  1.00  0.00     0.168 HD
ENDBRANCH  15  18
ENDBRANCH  14  15
ENDBRANCH  13  14
ENDBRANCH  12  13
ENDBRANCH   1  12
BRANCH  11  21
HETATM   21  N5  UNL     1      15.534  42.574   7.809  1.00  0.00    -0.306 N 
HETATM   22  N6  UNL     1      15.775  42.546   9.038  1.00  0.00    -0.302 N 
ATOM     23  H6  UNL     1      16.675  42.895   9.367  1.00  0.00     0.183 HD
ATOM     24  H5  UNL     1      14.648  42.235   7.437  1.00  0.00     0.182 HD
BRANCH  22  25
HETATM   25  C10 UNL     1      14.847  42.046   9.996  1.00  0.00     0.321 C 
HETATM   26  N7  UNL     1      15.060  40.616  10.160  1.00  0.00    -0.083 NA
HETATM   27  N8  UNL     1      13.845  40.235  10.763  1.00  0.00    -0.018 NA
HETATM   28  N9  UNL     1      12.852  41.025  10.203  1.00  0.00    -0.018 NA
HETATM   29  N10 UNL     1      13.479  42.096   9.560  1.00  0.00    -0.083 NA
ENDBRANCH  22  25
ENDBRANCH  11  21
TORSDOF 7
ENDMDL
MODEL 4
REMARK VINA RESULT: -7.380190823      0.902      1.011
REMARK  7 active torsions:
REMARK  status: ('A' for Active; 'I' for Inactive)
REMARK    1  A    between atoms: N1_2  and  S1_4 
REMARK    2  A    between atoms: S1_4  and  C3_7 
REMARK    3  A    between atoms: C3_7  and  C4_8 
REMARK    4  A    between atoms: C4_8  and  O2_9 
REMARK    5  A    between atoms: O2_9  and  C5_10 
REMARK    6  A    between atoms: C9_20  and  N5_21 
REMARK    7  A    between atoms: N6_23  and  C10_25 
ROOT
HETATM    1  C5  UNL     1      16.106  44.584   7.197  1.00  0.00     0.162 C 
HETATM    2  N2  UNL     1      16.939  45.374   6.613  1.00  0.00    -0.344 N 
ATOM      3  H2  UNL     1      16.782  46.381   6.565  1.00  0.00     0.164 HD
HETATM    4  C6  UNL     1      18.114  44.757   6.026  1.00  0.00     0.111 C 
HETATM    5  C7  UNL     1      19.157  45.876   5.909  1.00  0.00     0.064 C 
HETATM    6  C8  UNL     1      17.809  44.291   4.627  1.00  0.00     0.064 C 
HETATM    7  N3  UNL     1      18.678  43.744   6.856  1.00  0.00    -0.310 N 
ATOM      8  H3  UNL     1      19.677  43.703   7.058  1.00  0.00     0.182 HD
HETATM    9  N4  UNL     1      17.794  42.829   7.367  1.00  0.00    -0.306 N 
ATOM     10  H4  UNL     1      18.107  41.973   7.827  1.00  0.00     0.182 HD
HETATM   11  C9  UNL     1      16.414  43.142   7.218  1.00  0.00     0.286 C 
ENDROOT
BRANCH   1  12
HETATM   12  O2  UNL     1      14.985  45.165   7.759  1.00  0.00    -0.335 OA
BRANCH  12  13
HETATM   13  C4  UNL     1      13.906  45.664   6.979  1.00  0.00     0.190 C 
BRANCH  13  14
HETATM   14  C3  UNL     1      13.044  44.506   6.593  1.00  0.00     0.143 C 
BRANCH  14  15
HETATM   15  S1  UNL     1      11.873  44.063   7.836  1.00  0.00     0.018 S 
HETATM   16  C2  UNL     1      11.961  45.122   9.250  1.00  0.00     0.136 C 
HETATM   17  O1  UNL     1      10.501  44.193   7.239  1.00  0.00    -0.250 OA
BRANCH  15  18
HETATM   18  N1  UNL     1      12.042  42.572   8.260  1.00  0.00    -0.356 N 
HETATM   19  C1  UNL     1      10.854  41.747   8.176  1.00  0.00     0.156 C 
ATOM     20  H1  UNL     1      12.937  42.199   8.577  1.00  0.00     0.168 HD
ENDBRANCH  15  18
ENDBRANCH  14  15
ENDBRANCH  13  14
ENDBRANCH  12  13
ENDBRANCH   1  12
BRANCH  11  21
HETATM   21  N5  UNL     1      15.596  42.463   8.192  1.00  0.00    -0.306 N 
HETATM   22  N6  UNL     1      15.957  42.515   9.390  1.00  0.00    -0.302 N 
ATOM     23  H6  UNL     1      16.806  43.030   9.622  1.00  0.00     0.183 HD
ATOM     24  H5  UNL     1      14.754  41.958   7.915  1.00  0.00     0.182 HD
BRANCH  22  25
HETATM   25  C10 UNL     1      15.233  41.886  10.443  1.00  0.00     0.321 C 
HETATM   26  N7  UNL     1      14.940  40.512  10.061  1.00  0.00    -0.083 NA
HETATM   27  N8  UNL     1      13.903  40.202  10.963  1.00  0.00    -0.018 NA
HETATM   28  N9  UNL     1      13.156  41.358  11.132  1.00  0.00    -0.018 NA
HETATM   29  N10 UNL     1      13.918  42.426  10.647  1.00  0.00    -0.083 NA
ENDBRANCH  22  25
ENDBRANCH  11  21
TORSDOF 7
ENDMDL
MODEL 5
REMARK VINA RESULT: -7.343569029      3.881      5.139
REMARK  7 active torsions:
REMARK  status: ('A' for Active; 'I' for Inactive)
REMARK    1  A    between atoms: N1_2  and  S1_4 
REMARK    2  A    between atoms: S1_4  and  C3_7 
REMARK    3  A    between atoms: C3_7  and  C4_8 
REMARK    4  A    between atoms: C4_8  and  O2_9 
REMARK    5  A    between atoms: O2_9  and  C5_10 
REMARK    6  A    between atoms: C9_20  and  N5_21 
REMARK    7  A    between atoms: N6_23  and  C10_25 
ROOT
HETATM    1  C5  UNL     1      17.482  42.478   6.750  1.00  0.00     0.162 C 
HETATM    2  N2  UNL     1      18.243  42.873   5.788  1.00  0.00    -0.344 N 
ATOM      3  H2  UNL     1      18.689  42.214   5.151  1.00  0.00     0.164 HD
HETATM    4  C6  UNL     1      18.434  44.306   5.661  1.00  0.00     0.111 C 
HETATM    5  C7  UNL     1      18.873  44.540   4.209  1.00  0.00     0.064 C 
HETATM    6  C8  UNL     1      19.567  44.758   6.542  1.00  0.00     0.064 C 
HETATM    7  N3  UNL     1      17.228  45.043   5.857  1.00  0.00    -0.310 N 
ATOM      8  H3  UNL     1      16.933  45.779   5.216  1.00  0.00     0.182 HD
HETATM    9  N4  UNL     1      16.491  44.700   6.961  1.00  0.00    -0.306 N 
ATOM     10  H4  UNL     1      15.710  45.269   7.288  1.00  0.00     0.182 HD
HETATM   11  C9  UNL     1      16.879  43.502   7.624  1.00  0.00     0.286 C 
ENDROOT
BRANCH   1  12
HETATM   12  O2  UNL     1      17.296  41.115   6.877  1.00  0.00    -0.335 OA
BRANCH  12  13
HETATM   13  C4  UNL     1      17.168  40.249   5.757  1.00  0.00     0.190 C 
BRANCH  13  14
HETATM   14  C3  UNL     1      17.188  38.842   6.259  1.00  0.00     0.143 C 
BRANCH  14  15
HETATM   15  S1  UNL     1      17.759  37.681   5.059  1.00  0.00     0.018 S 
HETATM   16  C2  UNL     1      16.510  36.516   4.603  1.00  0.00     0.136 C 
HETATM   17  O1  UNL     1      18.152  38.450   3.830  1.00  0.00    -0.250 OA
BRANCH  15  18
HETATM   18  N1  UNL     1      19.038  36.943   5.558  1.00  0.00    -0.356 N 
HETATM   19  C1  UNL     1      20.179  36.968   4.664  1.00  0.00     0.156 C 
ATOM     20  H1  UNL     1      19.071  36.469   6.461  1.00  0.00     0.168 HD
ENDBRANCH  15  18
ENDBRANCH  14  15
ENDBRANCH  13  14
ENDBRANCH  12  13
ENDBRANCH   1  12
BRANCH  11  21
HETATM   21  N5  UNL     1      15.801  42.937   8.397  1.00  0.00    -0.306 N 
HETATM   22  N6  UNL     1      16.076  42.488   9.533  1.00  0.00    -0.302 N 
ATOM     23  H6  UNL     1      17.041  42.541   9.859  1.00  0.00     0.183 HD
ATOM     24  H5  UNL     1      14.849  42.903   8.032  1.00  0.00     0.182 HD
BRANCH  22  25
HETATM   25  C10 UNL     1      15.099  41.906  10.392  1.00  0.00     0.321 C 
HETATM   26  N7  UNL     1      15.056  40.471  10.154  1.00  0.00    -0.083 NA
HETATM   27  N8  UNL     1      13.808  40.146  10.723  1.00  0.00    -0.018 NA
HETATM   28  N9  UNL     1      12.959  41.212  10.469  1.00  0.00    -0.018 NA
HETATM   29  N10 UNL     1      13.751  42.299  10.088  1.00  0.00    -0.083 NA
ENDBRANCH  22  25
ENDBRANCH  11  21
TORSDOF 7
ENDMDL
