MODEL 1
REMARK VINA RESULT: -5.746479610      0.000      0.000
REMARK  2 active torsions:
REMARK  status: ('A' for Active; 'I' for Inactive)
REMARK    1  A    between atoms: N1_2  and  C2_4 
REMARK    2  A    between atoms: N4_12  and  N5_14 
ROOT
HETATM    1  C2  UNL     1      47.445  -4.081  11.938  1.00  0.00     0.684 C 
HETATM    2  N2  UNL     1      48.165  -3.860  10.817  1.00  0.00    -0.141 N 
ATOM      3  H2  UNL     1      48.924  -4.510  10.613  1.00  0.00     0.189 HD
HETATM    4  C3  UNL     1      47.964  -2.850   9.945  1.00  0.00     0.340 C 
HETATM    5  O1  UNL     1      48.920  -2.660   9.147  1.00  0.00    -0.246 OA
HETATM    6  N3  UNL     1      46.878  -2.035   9.832  1.00  0.00    -0.288 N 
ATOM      7  H3  UNL     1      46.795  -1.553   8.936  1.00  0.00     0.172 HD
HETATM    8  C4  UNL     1      45.892  -1.763  10.719  1.00  0.00     0.193 C 
HETATM    9  N4  UNL     1      45.036  -0.864  10.371  1.00  0.00    -0.287 N 
ATOM     10  H4  UNL     1      44.266  -0.607  10.988  1.00  0.00     0.188 HD
HETATM   11  C5  UNL     1      45.732  -2.364  11.949  1.00  0.00     0.305 C 
HETATM   12  O2  UNL     1      44.778  -1.916  12.624  1.00  0.00    -0.263 OA
HETATM   13  N6  UNL     1      46.466  -3.361  12.509  1.00  0.00    -0.153 N 
ATOM     14  H6  UNL     1      46.247  -3.590  13.479  1.00  0.00     0.187 HD
ENDROOT
BRANCH   9  15
HETATM   15  N5  UNL     1      45.194  -0.255   9.128  1.00  0.00    -0.343 N 
ATOM     16  H52 UNL     1      46.011   0.328   8.946  1.00  0.00     0.176 HD
ATOM     17  H51 UNL     1      44.475  -0.413   8.422  1.00  0.00     0.176 HD
ENDBRANCH   9  15
BRANCH   1  18
HETATM   18  N1  UNL     1      47.762  -5.162  12.546  1.00  0.00    -0.230 N 
HETATM   19  C1  UNL     1      48.373  -6.239  11.825  1.00  0.00     0.165 C 
ATOM     20  H1  UNL     1      47.580  -5.256  13.545  1.00  0.00     0.177 HD
ENDBRANCH   1  18
TORSDOF 2
ENDMDL
MODEL 2
REMARK VINA RESULT: -5.376765224      1.192      2.824
REMARK  2 active torsions:
REMARK  status: ('A' for Active; 'I' for Inactive)
REMARK    1  A    between atoms: N1_2  and  C2_4 
REMARK    2  A    between atoms: N4_12  and  N5_14 
ROOT
HETATM    1  C2  UNL     1      47.758  -4.226  12.041  1.00  0.00     0.684 C 
HETATM    2  N2  UNL     1      46.498  -4.142  12.518  1.00  0.00    -0.141 N 
ATOM      3  H2  UNL     1      46.275  -4.687  13.351  1.00  0.00     0.189 HD
HETATM    4  C3  UNL     1      45.508  -3.396  11.985  1.00  0.00     0.340 C 
HETATM    5  O1  UNL     1      44.356  -3.693  12.401  1.00  0.00    -0.246 OA
HETATM    6  N3  UNL     1      45.606  -2.388  11.073  1.00  0.00    -0.288 N 
ATOM      7  H3  UNL     1      44.799  -1.765  11.034  1.00  0.00     0.172 HD
HETATM    8  C4  UNL     1      46.604  -2.083  10.210  1.00  0.00     0.193 C 
HETATM    9  N4  UNL     1      46.378  -1.120   9.385  1.00  0.00    -0.287 N 
ATOM     10  H4  UNL     1      47.083  -0.835   8.706  1.00  0.00     0.188 HD
HETATM   11  C5  UNL     1      47.829  -2.714  10.146  1.00  0.00     0.305 C 
HETATM   12  O2  UNL     1      48.577  -2.298   9.233  1.00  0.00    -0.263 OA
HETATM   13  N6  UNL     1      48.314  -3.709  10.933  1.00  0.00    -0.153 N 
ATOM     14  H6  UNL     1      49.207  -4.112  10.649  1.00  0.00     0.187 HD
ENDROOT
BRANCH   9  15
HETATM   15  N5  UNL     1      45.142  -0.481   9.447  1.00  0.00    -0.343 N 
ATOM     16  H52 UNL     1      44.457  -0.621   8.705  1.00  0.00     0.176 HD
ATOM     17  H51 UNL     1      44.953   0.121  10.249  1.00  0.00     0.176 HD
ENDBRANCH   9  15
BRANCH   1  18
HETATM   18  N1  UNL     1      48.541  -4.917  12.781  1.00  0.00    -0.230 N 
HETATM   19  C1  UNL     1      48.295  -5.019  14.189  1.00  0.00     0.165 C 
ATOM     20  H1  UNL     1      49.340  -5.397  12.368  1.00  0.00     0.177 HD
ENDBRANCH   1  18
TORSDOF 2
ENDMDL
MODEL 3
REMARK VINA RESULT: -5.014909695      1.614      1.614
REMARK  2 active torsions:
REMARK  status: ('A' for Active; 'I' for Inactive)
REMARK    1  A    between atoms: N1_2  and  C2_4 
REMARK    2  A    between atoms: N4_12  and  N5_14 
ROOT
HETATM    1  C2  UNL     1      47.543  -4.151  12.836  1.00  0.00     0.684 C 
HETATM    2  N2  UNL     1      48.490  -3.294  12.399  1.00  0.00    -0.141 N 
ATOM      3  H2  UNL     1      49.459  -3.510  12.633  1.00  0.00     0.189 HD
HETATM    4  C3  UNL     1      48.262  -2.177  11.677  1.00  0.00     0.340 C 
HETATM    5  O1  UNL     1      49.238  -1.382  11.635  1.00  0.00    -0.246 OA
HETATM    6  N3  UNL     1      47.130  -1.819  11.009  1.00  0.00    -0.288 N 
ATOM      7  H3  UNL     1      47.263  -1.106  10.292  1.00  0.00     0.172 HD
HETATM    8  C4  UNL     1      45.857  -2.260  11.146  1.00  0.00     0.193 C 
HETATM    9  N4  UNL     1      44.962  -1.663  10.438  1.00  0.00    -0.287 N 
ATOM     10  H4  UNL     1      43.982  -1.940  10.488  1.00  0.00     0.188 HD
HETATM   11  C5  UNL     1      45.448  -3.285  11.973  1.00  0.00     0.305 C 
HETATM   12  O2  UNL     1      44.212  -3.485  11.975  1.00  0.00    -0.263 OA
HETATM   13  N6  UNL     1      46.203  -4.088  12.767  1.00  0.00    -0.153 N 
ATOM     14  H6  UNL     1      45.691  -4.718  13.385  1.00  0.00     0.187 HD
ENDROOT
BRANCH   9  15
HETATM   15  N5  UNL     1      45.371  -0.627   9.601  1.00  0.00    -0.343 N 
ATOM     16  H52 UNL     1      44.986  -0.549   8.660  1.00  0.00     0.176 HD
ATOM     17  H51 UNL     1      46.057   0.037   9.961  1.00  0.00     0.176 HD
ENDBRANCH   9  15
BRANCH   1  18
HETATM   18  N1  UNL     1      48.018  -5.191  13.411  1.00  0.00    -0.230 N 
HETATM   19  C1  UNL     1      47.946  -5.321  14.835  1.00  0.00     0.165 C 
ATOM     20  H1  UNL     1      48.448  -5.929  12.853  1.00  0.00     0.177 HD
ENDBRANCH   1  18
TORSDOF 2
ENDMDL
MODEL 4
REMARK VINA RESULT: -4.979471885      2.361      3.713
REMARK  2 active torsions:
REMARK  status: ('A' for Active; 'I' for Inactive)
REMARK    1  A    between atoms: N1_2  and  C2_4 
REMARK    2  A    between atoms: N4_12  and  N5_14 
ROOT
HETATM    1  C2  UNL     1      49.162  -1.836  12.602  1.00  0.00     0.684 C 
HETATM    2  N2  UNL     1      48.066  -1.856  13.390  1.00  0.00    -0.141 N 
ATOM      3  H2  UNL     1      48.215  -1.837  14.399  1.00  0.00     0.189 HD
HETATM    4  C3  UNL     1      46.789  -1.898  12.954  1.00  0.00     0.340 C 
HETATM    5  O1  UNL     1      45.951  -2.209  13.842  1.00  0.00    -0.246 OA
HETATM    6  N3  UNL     1      46.316  -1.652  11.700  1.00  0.00    -0.288 N 
ATOM      7  H3  UNL     1      45.319  -1.441  11.653  1.00  0.00     0.172 HD
HETATM    8  C4  UNL     1      46.958  -1.644  10.509  1.00  0.00     0.193 C 
HETATM    9  N4  UNL     1      46.227  -1.475   9.462  1.00  0.00    -0.287 N 
ATOM     10  H4  UNL     1      46.641  -1.458   8.530  1.00  0.00     0.188 HD
HETATM   11  C5  UNL     1      48.316  -1.801  10.329  1.00  0.00     0.305 C 
HETATM   12  O2  UNL     1      48.681  -1.812   9.132  1.00  0.00    -0.263 OA
HETATM   13  N6  UNL     1      49.287  -1.943  11.269  1.00  0.00    -0.153 N 
ATOM     14  H6  UNL     1      50.222  -2.155  10.921  1.00  0.00     0.187 HD
ENDROOT
BRANCH   9  15
HETATM   15  N5  UNL     1      44.855  -1.315   9.640  1.00  0.00    -0.343 N 
ATOM     16  H52 UNL     1      44.416  -1.604  10.514  1.00  0.00     0.176 HD
ATOM     17  H51 UNL     1      44.317  -0.907   8.876  1.00  0.00     0.176 HD
ENDBRANCH   9  15
BRANCH   1  18
HETATM   18  N1  UNL     1      50.256  -1.690  13.250  1.00  0.00    -0.230 N 
HETATM   19  C1  UNL     1      51.091  -0.552  13.004  1.00  0.00     0.165 C 
ATOM     20  H1  UNL     1      50.534  -2.386  13.942  1.00  0.00     0.177 HD
ENDBRANCH   1  18
TORSDOF 2
ENDMDL
MODEL 5
REMARK VINA RESULT: -4.927028393      1.684      3.070
REMARK  2 active torsions:
REMARK  status: ('A' for Active; 'I' for Inactive)
REMARK    1  A    between atoms: N1_2  and  C2_4 
REMARK    2  A    between atoms: N4_12  and  N5_14 
ROOT
HETATM    1  C2  UNL     1      48.697  -3.413  12.702  1.00  0.00     0.684 C 
HETATM    2  N2  UNL     1      47.826  -2.844  13.563  1.00  0.00    -0.141 N 
ATOM      3  H2  UNL     1      48.042  -2.910  14.558  1.00  0.00     0.189 HD
HETATM    4  C3  UNL     1      46.695  -2.196  13.217  1.00  0.00     0.340 C 
HETATM    5  O1  UNL     1      45.894  -2.011  14.172  1.00  0.00    -0.246 OA
HETATM    6  N3  UNL     1      46.327  -1.733  11.989  1.00  0.00    -0.288 N 
ATOM      7  H3  UNL     1      45.597  -1.021  12.001  1.00  0.00     0.172 HD
HETATM    8  C4  UNL     1      46.778  -2.068  10.757  1.00  0.00     0.193 C 
HETATM    9  N4  UNL     1      46.169  -1.532   9.756  1.00  0.00    -0.287 N 
ATOM     10  H4  UNL     1      46.452  -1.738   8.799  1.00  0.00     0.188 HD
HETATM   11  C5  UNL     1      47.823  -2.928  10.493  1.00  0.00     0.305 C 
HETATM   12  O2  UNL     1      48.029  -3.131   9.274  1.00  0.00    -0.263 OA
HETATM   13  N6  UNL     1      48.639  -3.568  11.369  1.00  0.00    -0.153 N 
ATOM     14  H6  UNL     1      49.285  -4.247  10.968  1.00  0.00     0.187 HD
ENDROOT
BRANCH   9  15
HETATM   15  N5  UNL     1      45.113  -0.663  10.021  1.00  0.00    -0.343 N 
ATOM     16  H52 UNL     1      44.235  -0.756   9.510  1.00  0.00     0.176 HD
ATOM     17  H51 UNL     1      45.249   0.055  10.731  1.00  0.00     0.176 HD
ENDBRANCH   9  15
BRANCH   1  18
HETATM   18  N1  UNL     1      49.747  -3.877  13.267  1.00  0.00    -0.230 N 
HETATM   19  C1  UNL     1      49.664  -4.455  14.575  1.00  0.00     0.165 C 
ATOM     20  H1  UNL     1      50.645  -3.836  12.785  1.00  0.00     0.177 HD
ENDBRANCH   1  18
TORSDOF 2
ENDMDL
