MODEL 1
REMARK VINA RESULT: -5.470479020      0.000      0.000
REMARK  2 active torsions:
REMARK  status: ('A' for Active; 'I' for Inactive)
REMARK    1  A    between atoms: C4_11  and  N4_12 
REMARK    2  A    between atoms: N4_12  and  N5_14 
REMARK       I    between atoms: N5_14  and  C5_16 
ROOT
HETATM    1  C1  UNL     1      47.247  -4.386  12.334  1.00  0.00     0.180 C 
HETATM    2  N1  UNL     1      46.715  -3.297  11.538  1.00  0.00    -0.135 N 
HETATM    3  C2  UNL     1      45.442  -2.844  11.699  1.00  0.00     0.344 A 
HETATM    4  O1  UNL     1      44.693  -3.382  12.569  1.00  0.00    -0.246 OA
HETATM    5  N2  UNL     1      44.951  -1.837  10.961  1.00  0.00    -0.259 N 
ATOM      6  H2  UNL     1      43.997  -1.500  11.087  1.00  0.00     0.175 HD
HETATM    7  C3  UNL     1      45.771  -1.290  10.051  1.00  0.00     0.342 A 
HETATM    8  O2  UNL     1      45.332  -0.336   9.341  1.00  0.00    -0.246 OA
HETATM    9  N3  UNL     1      47.034  -1.739   9.891  1.00  0.00    -0.139 N 
ATOM     10  H3  UNL     1      47.629  -1.298   9.190  1.00  0.00     0.189 HD
HETATM   11  C4  UNL     1      47.535  -2.748  10.625  1.00  0.00     0.706 A 
ENDROOT
BRANCH  11  12
HETATM   12  N4  UNL     1      48.740  -3.181  10.477  1.00  0.00    -0.129 N 
ATOM     13  H4  UNL     1      49.402  -3.071  11.245  1.00  0.00     0.205 HD
BRANCH  12  14
HETATM   14  N5  UNL     1      49.170  -3.798   9.298  1.00  0.00    -0.260 N 
HETATM   15  C5  UNL     1      49.237  -5.210   9.136  1.00  0.00     0.201 C 
HETATM   16  N6  UNL     1      49.568  -6.009  10.089  1.00  0.00    -0.372 N 
HETATM   17  N7  UNL     1      48.921  -5.749   7.855  1.00  0.00    -0.062 NA
ATOM     18  H62 UNL     1      49.793  -5.623  11.006  1.00  0.00     0.158 HD
ATOM     19  H61 UNL     1      49.615  -7.021   9.972  1.00  0.00     0.158 HD
ATOM     20  H5  UNL     1      49.449  -3.207   8.516  1.00  0.00     0.190 HD
ENDBRANCH  12  14
ENDBRANCH  11  12
TORSDOF 2
ENDMDL
MODEL 2
REMARK VINA RESULT: -5.407021300      2.476      4.106
REMARK  2 active torsions:
REMARK  status: ('A' for Active; 'I' for Inactive)
REMARK    1  A    between atoms: C4_11  and  N4_12 
REMARK    2  A    between atoms: N4_12  and  N5_14 
REMARK       I    between atoms: N5_14  and  C5_16 
ROOT
HETATM    1  C1  UNL     1      48.532  -4.556  11.121  1.00  0.00     0.180 C 
HETATM    2  N1  UNL     1      47.577  -3.475  10.970  1.00  0.00    -0.135 N 
HETATM    3  C2  UNL     1      47.714  -2.525  10.005  1.00  0.00     0.344 A 
HETATM    4  O1  UNL     1      48.699  -2.580   9.210  1.00  0.00    -0.246 OA
HETATM    5  N2  UNL     1      46.829  -1.526   9.867  1.00  0.00    -0.259 N 
ATOM      6  H2  UNL     1      46.935  -0.817   9.142  1.00  0.00     0.175 HD
HETATM    7  C3  UNL     1      45.798  -1.499  10.725  1.00  0.00     0.342 A 
HETATM    8  O2  UNL     1      44.947  -0.565  10.617  1.00  0.00    -0.246 OA
HETATM    9  N3  UNL     1      45.663  -2.442  11.683  1.00  0.00    -0.139 N 
ATOM     10  H3  UNL     1      44.865  -2.389  12.316  1.00  0.00     0.189 HD
HETATM   11  C4  UNL     1      46.543  -3.446  11.829  1.00  0.00     0.706 A 
ENDROOT
BRANCH  11  12
HETATM   12  N4  UNL     1      46.420  -4.349  12.741  1.00  0.00    -0.129 N 
ATOM     13  H4  UNL     1      46.271  -5.318  12.459  1.00  0.00     0.205 HD
BRANCH  12  14
HETATM   14  N5  UNL     1      46.484  -4.044  14.104  1.00  0.00    -0.260 N 
HETATM   15  C5  UNL     1      47.317  -4.742  15.022  1.00  0.00     0.201 C 
HETATM   16  N6  UNL     1      47.550  -6.004  14.935  1.00  0.00    -0.372 N 
HETATM   17  N7  UNL     1      47.914  -3.996  16.079  1.00  0.00    -0.062 NA
ATOM     18  H62 UNL     1      47.122  -6.538  14.178  1.00  0.00     0.158 HD
ATOM     19  H61 UNL     1      48.148  -6.504  15.593  1.00  0.00     0.158 HD
ATOM     20  H5  UNL     1      45.904  -3.284  14.457  1.00  0.00     0.190 HD
ENDBRANCH  12  14
ENDBRANCH  11  12
TORSDOF 2
ENDMDL
MODEL 3
REMARK VINA RESULT: -5.235813502      1.326      1.602
REMARK  2 active torsions:
REMARK  status: ('A' for Active; 'I' for Inactive)
REMARK    1  A    between atoms: C4_11  and  N4_12 
REMARK    2  A    between atoms: N4_12  and  N5_14 
REMARK       I    between atoms: N5_14  and  C5_16 
ROOT
HETATM    1  C1  UNL     1      47.339  -4.357  12.243  1.00  0.00     0.180 C 
HETATM    2  N1  UNL     1      46.761  -3.274  11.472  1.00  0.00    -0.135 N 
HETATM    3  C2  UNL     1      45.475  -2.868  11.655  1.00  0.00     0.344 A 
HETATM    4  O1  UNL     1      44.755  -3.445  12.523  1.00  0.00    -0.246 OA
HETATM    5  N2  UNL     1      44.942  -1.865  10.940  1.00  0.00    -0.259 N 
ATOM      6  H2  UNL     1      43.979  -1.563  11.082  1.00  0.00     0.175 HD
HETATM    7  C3  UNL     1      45.733  -1.275  10.030  1.00  0.00     0.342 A 
HETATM    8  O2  UNL     1      45.254  -0.325   9.341  1.00  0.00    -0.246 OA
HETATM    9  N3  UNL     1      47.008  -1.679   9.848  1.00  0.00    -0.139 N 
ATOM     10  H3  UNL     1      47.579  -1.206   9.148  1.00  0.00     0.189 HD
HETATM   11  C4  UNL     1      47.551  -2.682  10.560  1.00  0.00     0.706 A 
ENDROOT
BRANCH  11  12
HETATM   12  N4  UNL     1      48.768  -3.072  10.391  1.00  0.00    -0.129 N 
ATOM     13  H4  UNL     1      49.061  -3.963  10.793  1.00  0.00     0.205 HD
BRANCH  12  14
HETATM   14  N5  UNL     1      49.701  -2.315   9.675  1.00  0.00    -0.260 N 
HETATM   15  C5  UNL     1      50.454  -2.832   8.585  1.00  0.00     0.201 C 
HETATM   16  N6  UNL     1      50.884  -4.044   8.544  1.00  0.00    -0.372 N 
HETATM   17  N7  UNL     1      50.739  -1.956   7.498  1.00  0.00    -0.062 NA
ATOM     18  H62 UNL     1      50.680  -4.671   9.323  1.00  0.00     0.158 HD
ATOM     19  H61 UNL     1      51.424  -4.414   7.762  1.00  0.00     0.158 HD
ATOM     20  H5  UNL     1      49.847  -1.344   9.949  1.00  0.00     0.190 HD
ENDBRANCH  12  14
ENDBRANCH  11  12
TORSDOF 2
ENDMDL
MODEL 4
REMARK VINA RESULT: -5.205213116      1.718      2.730
REMARK  2 active torsions:
REMARK  status: ('A' for Active; 'I' for Inactive)
REMARK    1  A    between atoms: C4_11  and  N4_12 
REMARK    2  A    between atoms: N4_12  and  N5_14 
REMARK       I    between atoms: N5_14  and  C5_16 
ROOT
HETATM    1  C1  UNL     1      47.325  -4.260  12.361  1.00  0.00     0.180 C 
HETATM    2  N1  UNL     1      46.738  -3.211  11.550  1.00  0.00    -0.135 N 
HETATM    3  C2  UNL     1      45.423  -2.878  11.648  1.00  0.00     0.344 A 
HETATM    4  O1  UNL     1      44.681  -3.495  12.469  1.00  0.00    -0.246 OA
HETATM    5  N2  UNL     1      44.882  -1.907  10.896  1.00  0.00    -0.259 N 
ATOM      6  H2  UNL     1      43.895  -1.660  10.974  1.00  0.00     0.175 HD
HETATM    7  C3  UNL     1      45.696  -1.273  10.037  1.00  0.00     0.342 A 
HETATM    8  O2  UNL     1      45.210  -0.351   9.315  1.00  0.00    -0.246 OA
HETATM    9  N3  UNL     1      47.001  -1.604   9.941  1.00  0.00    -0.139 N 
ATOM     10  H3  UNL     1      47.589  -1.100   9.277  1.00  0.00     0.189 HD
HETATM   11  C4  UNL     1      47.552  -2.576  10.689  1.00  0.00     0.706 A 
ENDROOT
BRANCH  11  12
HETATM   12  N4  UNL     1      48.797  -2.896  10.602  1.00  0.00    -0.129 N 
ATOM     13  H4  UNL     1      49.050  -3.883  10.555  1.00  0.00     0.205 HD
BRANCH  12  14
HETATM   14  N5  UNL     1      49.813  -1.936  10.569  1.00  0.00    -0.260 N 
HETATM   15  C5  UNL     1      50.408  -1.389  11.739  1.00  0.00     0.201 C 
HETATM   16  N6  UNL     1      49.746  -1.160  12.819  1.00  0.00    -0.372 N 
HETATM   17  N7  UNL     1      51.799  -1.085  11.699  1.00  0.00    -0.062 NA
ATOM     18  H62 UNL     1      48.750  -1.378  12.847  1.00  0.00     0.158 HD
ATOM     19  H61 UNL     1      50.173  -0.768  13.658  1.00  0.00     0.158 HD
ATOM     20  H5  UNL     1      50.143  -1.612   9.660  1.00  0.00     0.190 HD
ENDBRANCH  12  14
ENDBRANCH  11  12
TORSDOF 2
ENDMDL
MODEL 5
REMARK VINA RESULT: -5.178279329      1.456      1.456
REMARK  2 active torsions:
REMARK  status: ('A' for Active; 'I' for Inactive)
REMARK    1  A    between atoms: C4_11  and  N4_12 
REMARK    2  A    between atoms: N4_12  and  N5_14 
REMARK       I    between atoms: N5_14  and  C5_16 
ROOT
HETATM    1  C1  UNL     1      48.724  -2.436  13.307  1.00  0.00     0.180 C 
HETATM    2  N1  UNL     1      47.603  -2.144  12.434  1.00  0.00    -0.135 N 
HETATM    3  C2  UNL     1      46.332  -2.038  12.909  1.00  0.00     0.344 A 
HETATM    4  O1  UNL     1      46.113  -2.195  14.147  1.00  0.00    -0.246 OA
HETATM    5  N2  UNL     1      45.296  -1.768  12.100  1.00  0.00    -0.259 N 
ATOM      6  H2  UNL     1      44.346  -1.688  12.461  1.00  0.00     0.175 HD
HETATM    7  C3  UNL     1      45.564  -1.607  10.795  1.00  0.00     0.342 A 
HETATM    8  O2  UNL     1      44.603  -1.351  10.010  1.00  0.00    -0.246 OA
HETATM    9  N3  UNL     1      46.826  -1.713  10.325  1.00  0.00    -0.139 N 
ATOM     10  H3  UNL     1      46.991  -1.583   9.327  1.00  0.00     0.189 HD
HETATM   11  C4  UNL     1      47.870  -1.983  11.127  1.00  0.00     0.706 A 
ENDROOT
BRANCH  11  12
HETATM   12  N4  UNL     1      49.076  -2.085  10.684  1.00  0.00    -0.129 N 
ATOM     13  H4  UNL     1      49.810  -1.523  11.116  1.00  0.00     0.205 HD
BRANCH  12  14
HETATM   14  N5  UNL     1      49.412  -2.940   9.630  1.00  0.00    -0.260 N 
HETATM   15  C5  UNL     1      49.277  -4.355   9.699  1.00  0.00     0.201 C 
HETATM   16  N6  UNL     1      49.491  -5.026  10.775  1.00  0.00    -0.372 N 
HETATM   17  N7  UNL     1      48.886  -5.045   8.515  1.00  0.00    -0.062 NA
ATOM     18  H62 UNL     1      49.771  -4.532  11.623  1.00  0.00     0.158 HD
ATOM     19  H61 UNL     1      49.394  -6.040  10.825  1.00  0.00     0.158 HD
ATOM     20  H5  UNL     1      49.772  -2.529   8.769  1.00  0.00     0.190 HD
ENDBRANCH  12  14
ENDBRANCH  11  12
TORSDOF 2
ENDMDL
