MODEL 1
REMARK VINA RESULT: -4.852599206      0.000      0.000
REMARK  5 active torsions:
REMARK  status: ('A' for Active; 'I' for Inactive)
REMARK    1  A    between atoms: N1_1  and  N2_4 
REMARK    2  A    between atoms: N2_4  and  C1_6 
REMARK    3  A    between atoms: C1_6  and  N3_7 
REMARK    4  A    between atoms: N3_7  and  N4_9 
REMARK    5  A    between atoms: N4_9  and  C2_11 
ROOT
HETATM    1  C2  UNL     1      46.765  -3.301  11.530  1.00  0.00     0.204 A 
HETATM    2  N5  UNL     1      47.488  -2.738  10.552  1.00  0.00    -0.276 N 
ATOM      3  H5  UNL     1      48.430  -3.087  10.375  1.00  0.00     0.189 HD
HETATM    4  N6  UNL     1      47.021  -1.741   9.804  1.00  0.00    -0.250 N 
ATOM      5  H6  UNL     1      47.587  -1.327   9.064  1.00  0.00     0.192 HD
HETATM    6  C3  UNL     1      45.781  -1.300  10.056  1.00  0.00     0.341 A 
HETATM    7  O1  UNL     1      45.320  -0.344   9.347  1.00  0.00    -0.245 OA
HETATM    8  N7  UNL     1      44.990  -1.813  11.023  1.00  0.00    -0.271 N 
ATOM      9  H7  UNL     1      44.050  -1.452  11.186  1.00  0.00     0.174 HD
HETATM   10  C4  UNL     1      45.493  -2.823  11.764  1.00  0.00     0.296 A 
HETATM   11  O2  UNL     1      44.816  -3.349  12.679  1.00  0.00    -0.264 OA
ENDROOT
BRANCH   1  12
HETATM   12  N4  UNL     1      47.246  -4.275  12.247  1.00  0.00    -0.279 N 
ATOM     13  H4  UNL     1      47.095  -5.241  11.958  1.00  0.00     0.189 HD
BRANCH  12  14
HETATM   14  N3  UNL     1      47.968  -4.001  13.408  1.00  0.00    -0.293 N 
ATOM     15  H3  UNL     1      48.717  -3.309  13.389  1.00  0.00     0.187 HD
BRANCH  14  16
HETATM   16  C1  UNL     1      47.693  -4.616  14.500  1.00  0.00     0.213 C 
BRANCH  16  17
HETATM   17  N2  UNL     1      46.328  -4.789  14.885  1.00  0.00    -0.301 N 
ATOM     18  H2  UNL     1      45.603  -4.300  14.362  1.00  0.00     0.187 HD
BRANCH  17  19
HETATM   19  N1  UNL     1      45.954  -5.608  15.954  1.00  0.00    -0.344 N 
ATOM     20  H12 UNL     1      46.149  -5.278  16.900  1.00  0.00     0.176 HD
ATOM     21  H11 UNL     1      45.500  -6.511  15.815  1.00  0.00     0.176 HD
ENDBRANCH  17  19
ENDBRANCH  16  17
ENDBRANCH  14  16
ENDBRANCH  12  14
ENDBRANCH   1  12
TORSDOF 5
ENDMDL
MODEL 2
REMARK VINA RESULT: -4.757135082      0.988      1.773
REMARK  5 active torsions:
REMARK  status: ('A' for Active; 'I' for Inactive)
REMARK    1  A    between atoms: N1_1  and  N2_4 
REMARK    2  A    between atoms: N2_4  and  C1_6 
REMARK    3  A    between atoms: C1_6  and  N3_7 
REMARK    4  A    between atoms: N3_7  and  N4_9 
REMARK    5  A    between atoms: N4_9  and  C2_11 
ROOT
HETATM    1  C2  UNL     1      46.655  -3.479  11.604  1.00  0.00     0.204 A 
HETATM    2  N5  UNL     1      47.476  -2.929  10.698  1.00  0.00    -0.276 N 
ATOM      3  H5  UNL     1      48.408  -3.324  10.576  1.00  0.00     0.189 HD
HETATM    4  N6  UNL     1      47.118  -1.885   9.952  1.00  0.00    -0.250 N 
ATOM      5  H6  UNL     1      47.757  -1.482   9.268  1.00  0.00     0.192 HD
HETATM    6  C3  UNL     1      45.889  -1.383  10.132  1.00  0.00     0.341 A 
HETATM    7  O1  UNL     1      45.531  -0.382   9.424  1.00  0.00    -0.245 OA
HETATM    8  N7  UNL     1      45.003  -1.879  11.024  1.00  0.00    -0.271 N 
ATOM      9  H7  UNL     1      44.075  -1.471  11.133  1.00  0.00     0.174 HD
HETATM   10  C4  UNL     1      45.397  -2.937  11.765  1.00  0.00     0.296 A 
HETATM   11  O2  UNL     1      44.629  -3.451  12.612  1.00  0.00    -0.264 OA
ENDROOT
BRANCH   1  12
HETATM   12  N4  UNL     1      47.031  -4.499  12.320  1.00  0.00    -0.279 N 
ATOM     13  H4  UNL     1      47.258  -5.382  11.865  1.00  0.00     0.189 HD
BRANCH  12  14
HETATM   14  N3  UNL     1      47.125  -4.385  13.707  1.00  0.00    -0.293 N 
ATOM     15  H3  UNL     1      46.352  -4.694  14.296  1.00  0.00     0.187 HD
BRANCH  14  16
HETATM   16  C1  UNL     1      48.181  -3.893  14.245  1.00  0.00     0.213 C 
BRANCH  16  17
HETATM   17  N2  UNL     1      48.227  -2.501  14.561  1.00  0.00    -0.301 N 
ATOM     18  H2  UNL     1      47.764  -2.173  15.409  1.00  0.00     0.187 HD
BRANCH  17  19
HETATM   19  N1  UNL     1      48.884  -1.573  13.747  1.00  0.00    -0.344 N 
ATOM     20  H12 UNL     1      49.070  -1.835  12.779  1.00  0.00     0.176 HD
ATOM     21  H11 UNL     1      49.176  -0.658  14.092  1.00  0.00     0.176 HD
ENDBRANCH  17  19
ENDBRANCH  16  17
ENDBRANCH  14  16
ENDBRANCH  12  14
ENDBRANCH   1  12
TORSDOF 5
ENDMDL
MODEL 3
REMARK VINA RESULT: -4.568174469      1.992      5.180
REMARK  5 active torsions:
REMARK  status: ('A' for Active; 'I' for Inactive)
REMARK    1  A    between atoms: N1_1  and  N2_4 
REMARK    2  A    between atoms: N2_4  and  C1_6 
REMARK    3  A    between atoms: C1_6  and  N3_7 
REMARK    4  A    between atoms: N3_7  and  N4_9 
REMARK    5  A    between atoms: N4_9  and  C2_11 
ROOT
HETATM    1  C2  UNL     1      46.288  -3.783  12.508  1.00  0.00     0.204 A 
HETATM    2  N5  UNL     1      46.056  -4.083  13.794  1.00  0.00    -0.276 N 
ATOM      3  H5  UNL     1      45.175  -3.791  14.215  1.00  0.00     0.189 HD
HETATM    4  N6  UNL     1      46.936  -4.748  14.540  1.00  0.00    -0.250 N 
ATOM      5  H6  UNL     1      46.740  -4.967  15.516  1.00  0.00     0.192 HD
HETATM    6  C3  UNL     1      48.087  -5.120  13.965  1.00  0.00     0.341 A 
HETATM    7  O1  UNL     1      48.940  -5.758  14.668  1.00  0.00    -0.245 OA
HETATM    8  N7  UNL     1      48.396  -4.855  12.676  1.00  0.00    -0.271 N 
ATOM      9  H7  UNL     1      49.283  -5.154  12.271  1.00  0.00     0.174 HD
HETATM   10  C4  UNL     1      47.483  -4.179  11.947  1.00  0.00     0.296 A 
HETATM   11  O2  UNL     1      47.701  -3.898  10.745  1.00  0.00    -0.264 OA
ENDROOT
BRANCH   1  12
HETATM   12  N4  UNL     1      45.411  -3.131  11.802  1.00  0.00    -0.279 N 
ATOM     13  H4  UNL     1      44.691  -3.640  11.290  1.00  0.00     0.189 HD
BRANCH  12  14
HETATM   14  N3  UNL     1      45.452  -1.738  11.743  1.00  0.00    -0.293 N 
ATOM     15  H3  UNL     1      45.550  -1.196  12.602  1.00  0.00     0.187 HD
BRANCH  14  16
HETATM   16  C1  UNL     1      45.368  -1.136  10.613  1.00  0.00     0.213 C 
BRANCH  16  17
HETATM   17  N2  UNL     1      46.137  -1.607   9.506  1.00  0.00    -0.301 N 
ATOM     18  H2  UNL     1      45.666  -2.119   8.760  1.00  0.00     0.187 HD
BRANCH  17  19
HETATM   19  N1  UNL     1      47.515  -1.390   9.410  1.00  0.00    -0.344 N 
ATOM     20  H12 UNL     1      48.138  -2.093   9.808  1.00  0.00     0.176 HD
ATOM     21  H11 UNL     1      47.905  -0.561   8.961  1.00  0.00     0.176 HD
ENDBRANCH  17  19
ENDBRANCH  16  17
ENDBRANCH  14  16
ENDBRANCH  12  14
ENDBRANCH   1  12
TORSDOF 5
ENDMDL
MODEL 4
REMARK VINA RESULT: -4.561809140      1.772      2.020
REMARK  5 active torsions:
REMARK  status: ('A' for Active; 'I' for Inactive)
REMARK    1  A    between atoms: N1_1  and  N2_4 
REMARK    2  A    between atoms: N2_4  and  C1_6 
REMARK    3  A    between atoms: C1_6  and  N3_7 
REMARK    4  A    between atoms: N3_7  and  N4_9 
REMARK    5  A    between atoms: N4_9  and  C2_11 
ROOT
HETATM    1  C2  UNL     1      46.756  -3.459  11.856  1.00  0.00     0.204 A 
HETATM    2  N5  UNL     1      47.666  -2.844  11.090  1.00  0.00    -0.276 N 
ATOM      3  H5  UNL     1      48.633  -3.166  11.120  1.00  0.00     0.189 HD
HETATM    4  N6  UNL     1      47.354  -1.826  10.290  1.00  0.00    -0.250 N 
ATOM      5  H6  UNL     1      48.062  -1.371   9.714  1.00  0.00     0.192 HD
HETATM    6  C3  UNL     1      46.078  -1.419  10.268  1.00  0.00     0.341 A 
HETATM    7  O1  UNL     1      45.764  -0.444   9.506  1.00  0.00    -0.245 OA
HETATM    8  N7  UNL     1      45.102  -1.986  11.010  1.00  0.00    -0.271 N 
ATOM      9  H7  UNL     1      44.140  -1.650  10.967  1.00  0.00     0.174 HD
HETATM   10  C4  UNL     1      45.451  -3.015  11.810  1.00  0.00     0.296 A 
HETATM   11  O2  UNL     1      44.599  -3.591  12.527  1.00  0.00    -0.264 OA
ENDROOT
BRANCH   1  12
HETATM   12  N4  UNL     1      47.089  -4.452  12.629  1.00  0.00    -0.279 N 
ATOM     13  H4  UNL     1      46.963  -4.375  13.638  1.00  0.00     0.189 HD
BRANCH  12  14
HETATM   14  N3  UNL     1      47.616  -5.621  12.081  1.00  0.00    -0.293 N 
ATOM     15  H3  UNL     1      47.433  -5.853  11.105  1.00  0.00     0.187 HD
BRANCH  14  16
HETATM   16  C1  UNL     1      48.330  -6.407  12.802  1.00  0.00     0.213 C 
BRANCH  16  17
HETATM   17  N2  UNL     1      47.928  -7.767  12.971  1.00  0.00    -0.301 N 
ATOM     18  H2  UNL     1      48.180  -8.253  13.831  1.00  0.00     0.187 HD
BRANCH  17  19
HETATM   19  N1  UNL     1      47.199  -8.455  11.995  1.00  0.00    -0.344 N 
ATOM     20  H12 UNL     1      46.270  -8.795  12.245  1.00  0.00     0.176 HD
ATOM     21  H11 UNL     1      47.567  -8.622  11.058  1.00  0.00     0.176 HD
ENDBRANCH  17  19
ENDBRANCH  16  17
ENDBRANCH  14  16
ENDBRANCH  12  14
ENDBRANCH   1  12
TORSDOF 5
ENDMDL
MODEL 5
REMARK VINA RESULT: -4.554097344      2.778      3.114
REMARK  5 active torsions:
REMARK  status: ('A' for Active; 'I' for Inactive)
REMARK    1  A    between atoms: N1_1  and  N2_4 
REMARK    2  A    between atoms: N2_4  and  C1_6 
REMARK    3  A    between atoms: C1_6  and  N3_7 
REMARK    4  A    between atoms: N3_7  and  N4_9 
REMARK    5  A    between atoms: N4_9  and  C2_11 
ROOT
HETATM    1  C2  UNL     1      47.675  -2.100  12.529  1.00  0.00     0.204 A 
HETATM    2  N5  UNL     1      47.890  -1.928  11.217  1.00  0.00    -0.276 N 
ATOM      3  H5  UNL     1      48.847  -1.963  10.867  1.00  0.00     0.189 HD
HETATM    4  N6  UNL     1      46.898  -1.714  10.354  1.00  0.00    -0.250 N 
ATOM      5  H6  UNL     1      47.083  -1.587   9.360  1.00  0.00     0.192 HD
HETATM    6  C3  UNL     1      45.650  -1.673  10.838  1.00  0.00     0.341 A 
HETATM    7  O1  UNL     1      44.688  -1.468  10.023  1.00  0.00    -0.245 OA
HETATM    8  N7  UNL     1      45.350  -1.836  12.145  1.00  0.00    -0.271 N 
ATOM      9  H7  UNL     1      44.387  -1.798  12.478  1.00  0.00     0.174 HD
HETATM   10  C4  UNL     1      46.378  -2.050  12.994  1.00  0.00     0.296 A 
HETATM   11  O2  UNL     1      46.177  -2.211  14.220  1.00  0.00    -0.264 OA
ENDROOT
BRANCH   1  12
HETATM   12  N4  UNL     1      48.664  -2.308  13.350  1.00  0.00    -0.279 N 
ATOM     13  H4  UNL     1      49.025  -3.252  13.481  1.00  0.00     0.189 HD
BRANCH  12  14
HETATM   14  N3  UNL     1      49.229  -1.242  14.049  1.00  0.00    -0.293 N 
ATOM     15  H3  UNL     1      49.521  -0.403  13.549  1.00  0.00     0.187 HD
BRANCH  14  16
HETATM   16  C1  UNL     1      49.384  -1.315  15.322  1.00  0.00     0.213 C 
BRANCH  16  17
HETATM   17  N2  UNL     1      49.473  -0.113  16.089  1.00  0.00    -0.301 N 
ATOM     18  H2  UNL     1      50.394   0.262  16.313  1.00  0.00     0.187 HD
BRANCH  17  19
HETATM   19  N1  UNL     1      48.338   0.565  16.544  1.00  0.00    -0.344 N 
ATOM     20  H12 UNL     1      47.531   0.616  15.923  1.00  0.00     0.176 HD
ATOM     21  H11 UNL     1      48.300   1.003  17.465  1.00  0.00     0.176 HD
ENDBRANCH  17  19
ENDBRANCH  16  17
ENDBRANCH  14  16
ENDBRANCH  12  14
ENDBRANCH   1  12
TORSDOF 5
ENDMDL
