MODEL 1
REMARK VINA RESULT: -6.219230630      0.000      0.000
REMARK  3 active torsions:
REMARK  status: ('A' for Active; 'I' for Inactive)
REMARK    1  A    between atoms: C2_2  and  C3_3 
REMARK       I    between atoms: C3_3  and  N1_5 
REMARK    2  A    between atoms: N1_5  and  N2_7 
REMARK    3  A    between atoms: C5_16  and  O2_17 
ROOT
HETATM    1  C1  UNL     1      45.184  -3.681  12.265  1.00  0.00     0.074 C 
HETATM    2  C2  UNL     1      46.156  -2.569  12.113  1.00  0.00     0.189 A 
HETATM    3  N3  UNL     1      47.274  -3.064  11.257  1.00  0.00    -0.330 N 
ATOM      4  H3  UNL     1      47.879  -3.780  11.660  1.00  0.00     0.165 HD
HETATM    5  C4  UNL     1      47.546  -2.683  10.085  1.00  0.00     0.193 A 
HETATM    6  N4  UNL     1      48.670  -3.314   9.474  1.00  0.00    -0.063 NA
HETATM    7  N5  UNL     1      46.836  -1.665   9.446  1.00  0.00    -0.297 N 
ATOM      8  H5  UNL     1      47.065  -1.369   8.497  1.00  0.00     0.172 HD
HETATM    9  C5  UNL     1      45.779  -1.061  10.181  1.00  0.00     0.221 A 
HETATM   10  N6  UNL     1      45.469  -1.434  11.455  1.00  0.00    -0.322 N 
ATOM     11  H6  UNL     1      44.750  -0.921  11.965  1.00  0.00     0.166 HD
ENDROOT
BRANCH   2  12
HETATM   12  C3  UNL     1      46.822  -2.096  13.338  1.00  0.00     0.284 C 
HETATM   13  O1  UNL     1      46.027  -2.042  14.361  1.00  0.00    -0.267 OA
HETATM   14  N1  UNL     1      48.156  -1.723  13.539  1.00  0.00    -0.273 N 
ATOM     15  H1  UNL     1      48.839  -1.780  12.785  1.00  0.00     0.189 HD
BRANCH  14  16
HETATM   16  N2  UNL     1      48.513  -1.277  14.789  1.00  0.00    -0.342 N 
ATOM     17  H22 UNL     1      47.801  -0.940  15.436  1.00  0.00     0.176 HD
ATOM     18  H21 UNL     1      49.503  -1.298  15.035  1.00  0.00     0.176 HD
ENDBRANCH  14  16
ENDBRANCH   2  12
BRANCH   9  19
HETATM   19  O2  UNL     1      45.084  -0.093   9.589  1.00  0.00    -0.332 OA
ATOM     20  H2  UNL     1      44.140  -0.190   9.541  1.00  0.00     0.220 HD
ENDBRANCH   9  19
TORSDOF 3
ENDMDL
MODEL 2
REMARK VINA RESULT: -5.372545097      2.322      3.720
REMARK  3 active torsions:
REMARK  status: ('A' for Active; 'I' for Inactive)
REMARK    1  A    between atoms: C2_2  and  C3_3 
REMARK       I    between atoms: C3_3  and  N1_5 
REMARK    2  A    between atoms: N1_5  and  N2_7 
REMARK    3  A    between atoms: C5_16  and  O2_17 
ROOT
HETATM    1  C1  UNL     1      48.651  -1.855  11.944  1.00  0.00     0.074 C 
HETATM    2  C2  UNL     1      47.812  -2.568  10.949  1.00  0.00     0.189 A 
HETATM    3  N3  UNL     1      46.682  -3.204  11.687  1.00  0.00    -0.330 N 
ATOM      4  H3  UNL     1      46.918  -3.975  12.313  1.00  0.00     0.165 HD
HETATM    5  C4  UNL     1      45.464  -2.882  11.615  1.00  0.00     0.193 A 
HETATM    6  N4  UNL     1      44.572  -3.645  12.427  1.00  0.00    -0.063 NA
HETATM    7  N5  UNL     1      45.003  -1.889  10.750  1.00  0.00    -0.297 N 
ATOM      8  H5  UNL     1      44.016  -1.637  10.703  1.00  0.00     0.172 HD
HETATM    9  C5  UNL     1      45.976  -1.244   9.938  1.00  0.00     0.221 A 
HETATM   10  N6  UNL     1      47.297  -1.578   9.976  1.00  0.00    -0.322 N 
ATOM     11  H6  UNL     1      47.943  -1.136   9.322  1.00  0.00     0.166 HD
ENDROOT
BRANCH   2  12
HETATM   12  C3  UNL     1      48.443  -3.685  10.225  1.00  0.00     0.284 C 
HETATM   13  O1  UNL     1      48.380  -3.555   8.936  1.00  0.00    -0.267 OA
HETATM   14  N1  UNL     1      49.089  -4.820  10.726  1.00  0.00    -0.273 N 
ATOM     15  H1  UNL     1      49.205  -4.961  11.729  1.00  0.00     0.189 HD
BRANCH  14  16
HETATM   16  N2  UNL     1      49.562  -5.738   9.821  1.00  0.00    -0.342 N 
ATOM     17  H22 UNL     1      50.233  -5.456   9.107  1.00  0.00     0.176 HD
ATOM     18  H21 UNL     1      49.217  -6.696   9.893  1.00  0.00     0.176 HD
ENDBRANCH  14  16
ENDBRANCH   2  12
BRANCH   9  19
HETATM   19  O2  UNL     1      45.560  -0.288   9.111  1.00  0.00    -0.332 OA
ATOM     20  H2  UNL     1      45.756   0.613   9.339  1.00  0.00     0.220 HD
ENDBRANCH   9  19
TORSDOF 3
ENDMDL
MODEL 3
REMARK VINA RESULT: -5.266394726      2.033      3.200
REMARK  3 active torsions:
REMARK  status: ('A' for Active; 'I' for Inactive)
REMARK    1  A    between atoms: C2_2  and  C3_3 
REMARK       I    between atoms: C3_3  and  N1_5 
REMARK    2  A    between atoms: N1_5  and  N2_7 
REMARK    3  A    between atoms: C5_16  and  O2_17 
ROOT
HETATM    1  C1  UNL     1      48.531  -3.568  10.013  1.00  0.00     0.074 C 
HETATM    2  C2  UNL     1      47.992  -2.611  11.012  1.00  0.00     0.189 A 
HETATM    3  N3  UNL     1      47.166  -1.610  10.275  1.00  0.00    -0.330 N 
ATOM      4  H3  UNL     1      47.665  -0.967   9.659  1.00  0.00     0.165 HD
HETATM    5  C4  UNL     1      45.913  -1.479  10.338  1.00  0.00     0.193 A 
HETATM    6  N4  UNL     1      45.356  -0.443   9.531  1.00  0.00    -0.063 NA
HETATM    7  N5  UNL     1      45.122  -2.252  11.191  1.00  0.00    -0.297 N 
ATOM      8  H5  UNL     1      44.110  -2.137  11.230  1.00  0.00     0.172 HD
HETATM    9  C5  UNL     1      45.797  -3.206  12.001  1.00  0.00     0.221 A 
HETATM   10  N6  UNL     1      47.151  -3.363  11.972  1.00  0.00    -0.322 N 
ATOM     11  H6  UNL     1      47.593  -4.010  12.624  1.00  0.00     0.166 HD
ENDROOT
BRANCH   2  12
HETATM   12  C3  UNL     1      48.971  -1.797  11.751  1.00  0.00     0.284 C 
HETATM   13  O1  UNL     1      49.875  -1.271  10.985  1.00  0.00    -0.267 OA
HETATM   14  N1  UNL     1      49.044  -1.516  13.119  1.00  0.00    -0.273 N 
ATOM     15  H1  UNL     1      48.341  -1.868  13.769  1.00  0.00     0.189 HD
BRANCH  14  16
HETATM   16  N2  UNL     1      50.095  -0.749  13.559  1.00  0.00    -0.342 N 
ATOM     17  H22 UNL     1      50.192  -0.531  14.550  1.00  0.00     0.176 HD
ATOM     18  H21 UNL     1      50.761  -0.413  12.863  1.00  0.00     0.176 HD
ENDBRANCH  14  16
ENDBRANCH   2  12
BRANCH   9  19
HETATM   19  O2  UNL     1      45.062  -3.959  12.816  1.00  0.00    -0.332 OA
ATOM     20  H2  UNL     1      44.700  -4.766  12.468  1.00  0.00     0.220 HD
ENDBRANCH   9  19
TORSDOF 3
ENDMDL
MODEL 4
REMARK VINA RESULT: -5.174967980      1.105      1.105
REMARK  3 active torsions:
REMARK  status: ('A' for Active; 'I' for Inactive)
REMARK    1  A    between atoms: C2_2  and  C3_3 
REMARK       I    between atoms: C3_3  and  N1_5 
REMARK    2  A    between atoms: N1_5  and  N2_7 
REMARK    3  A    between atoms: C5_16  and  O2_17 
ROOT
HETATM    1  C1  UNL     1      45.927  -3.936  12.672  1.00  0.00     0.074 C 
HETATM    2  C2  UNL     1      46.856  -2.833  12.323  1.00  0.00     0.189 A 
HETATM    3  N3  UNL     1      47.706  -3.303  11.191  1.00  0.00    -0.330 N 
ATOM      4  H3  UNL     1      48.375  -4.046  11.396  1.00  0.00     0.165 HD
HETATM    5  C4  UNL     1      47.681  -2.874  10.004  1.00  0.00     0.193 A 
HETATM    6  N4  UNL     1      48.596  -3.491   9.101  1.00  0.00    -0.063 NA
HETATM    7  N5  UNL     1      46.858  -1.817   9.610  1.00  0.00    -0.297 N 
ATOM      8  H5  UNL     1      46.846  -1.480   8.647  1.00  0.00     0.172 HD
HETATM    9  C5  UNL     1      46.039  -1.232  10.614  1.00  0.00     0.221 A 
HETATM   10  N6  UNL     1      46.054  -1.659  11.909  1.00  0.00    -0.322 N 
ATOM     11  H6  UNL     1      45.502  -1.160  12.606  1.00  0.00     0.166 HD
ENDROOT
BRANCH   2  12
HETATM   12  C3  UNL     1      47.825  -2.426  13.355  1.00  0.00     0.284 C 
HETATM   13  O1  UNL     1      48.888  -3.168  13.376  1.00  0.00    -0.267 OA
HETATM   14  N1  UNL     1      47.757  -1.374  14.275  1.00  0.00    -0.273 N 
ATOM     15  H1  UNL     1      46.965  -0.731  14.284  1.00  0.00     0.189 HD
BRANCH  14  16
HETATM   16  N2  UNL     1      48.793  -1.236  15.165  1.00  0.00    -0.342 N 
ATOM     17  H22 UNL     1      49.061  -2.015  15.765  1.00  0.00     0.176 HD
ATOM     18  H21 UNL     1      49.273  -0.336  15.199  1.00  0.00     0.176 HD
ENDBRANCH  14  16
ENDBRANCH   2  12
BRANCH   9  19
HETATM   19  O2  UNL     1      45.241  -0.228  10.259  1.00  0.00    -0.332 OA
ATOM     20  H2  UNL     1      45.062   0.445  10.904  1.00  0.00     0.220 HD
ENDBRANCH   9  19
TORSDOF 3
ENDMDL
MODEL 5
REMARK VINA RESULT: -5.128443298      2.090      3.774
REMARK  3 active torsions:
REMARK  status: ('A' for Active; 'I' for Inactive)
REMARK    1  A    between atoms: C2_2  and  C3_3 
REMARK       I    between atoms: C3_3  and  N1_5 
REMARK    2  A    between atoms: N1_5  and  N2_7 
REMARK    3  A    between atoms: C5_16  and  O2_17 
ROOT
HETATM    1  C1  UNL     1      49.228  -1.395  10.698  1.00  0.00     0.074 C 
HETATM    2  C2  UNL     1      48.114  -2.376  10.695  1.00  0.00     0.189 A 
HETATM    3  N3  UNL     1      47.564  -2.436  12.081  1.00  0.00    -0.330 N 
ATOM      4  H3  UNL     1      48.165  -2.846  12.796  1.00  0.00     0.165 HD
HETATM    5  C4  UNL     1      46.430  -2.030  12.456  1.00  0.00     0.193 A 
HETATM    6  N4  UNL     1      46.138  -2.197  13.842  1.00  0.00    -0.063 NA
HETATM    7  N5  UNL     1      45.490  -1.510  11.564  1.00  0.00    -0.297 N 
ATOM      8  H5  UNL     1      44.577  -1.183  11.881  1.00  0.00     0.172 HD
HETATM    9  C5  UNL     1      45.866  -1.456  10.194  1.00  0.00     0.221 A 
HETATM   10  N6  UNL     1      47.076  -1.902   9.751  1.00  0.00    -0.322 N 
ATOM     11  H6  UNL     1      47.270  -1.909   8.750  1.00  0.00     0.166 HD
ENDROOT
BRANCH   2  12
HETATM   12  C3  UNL     1      48.458  -3.774  10.383  1.00  0.00     0.284 C 
HETATM   13  O1  UNL     1      48.508  -4.013   9.110  1.00  0.00    -0.267 OA
HETATM   14  N1  UNL     1      48.742  -4.835  11.249  1.00  0.00    -0.273 N 
ATOM     15  H1  UNL     1      48.757  -4.702  12.260  1.00  0.00     0.189 HD
BRANCH  14  16
HETATM   16  N2  UNL     1      48.999  -6.064  10.691  1.00  0.00    -0.342 N 
ATOM     17  H22 UNL     1      48.855  -6.214   9.693  1.00  0.00     0.176 HD
ATOM     18  H21 UNL     1      49.333  -6.805  11.308  1.00  0.00     0.176 HD
ENDBRANCH  14  16
ENDBRANCH   2  12
BRANCH   9  19
HETATM   19  O2  UNL     1      44.989  -0.956   9.328  1.00  0.00    -0.332 OA
ATOM     20  H2  UNL     1      45.012  -1.281   8.435  1.00  0.00     0.220 HD
ENDBRANCH   9  19
TORSDOF 3
ENDMDL
