MODEL 1
REMARK VINA RESULT: -5.669013441      0.000      0.000
REMARK  3 active torsions:
REMARK  status: ('A' for Active; 'I' for Inactive)
REMARK    1  A    between atoms: N1_1  and  N2_4 
REMARK    2  A    between atoms: N2_4  and  N3_6 
REMARK    3  A    between atoms: N3_6  and  C1_8 
ROOT
HETATM    1  C1  UNL     1      46.795  -3.801  11.827  1.00  0.00     0.194 C 
HETATM    2  N4  UNL     1      47.752  -3.664  10.864  1.00  0.00    -0.289 N 
ATOM      3  H4  UNL     1      48.434  -4.423  10.844  1.00  0.00     0.172 HD
HETATM    4  C2  UNL     1      47.960  -2.721   9.942  1.00  0.00     0.330 C 
HETATM    5  O1  UNL     1      49.046  -2.692   9.315  1.00  0.00    -0.246 OA
HETATM    6  N5  UNL     1      47.071  -1.745   9.602  1.00  0.00    -0.260 N 
ATOM      7  H5  UNL     1      47.358  -1.153   8.822  1.00  0.00     0.175 HD
HETATM    8  C3  UNL     1      45.874  -1.440  10.135  1.00  0.00     0.331 C 
HETATM    9  O2  UNL     1      45.376  -0.381   9.710  1.00  0.00    -0.246 OA
HETATM   10  N6  UNL     1      45.180  -2.138  11.052  1.00  0.00    -0.272 N 
ATOM     11  H6  UNL     1      44.195  -1.889  11.141  1.00  0.00     0.174 HD
HETATM   12  C4  UNL     1      45.610  -3.131  11.877  1.00  0.00     0.295 C 
HETATM   13  O3  UNL     1      44.849  -3.488  12.793  1.00  0.00    -0.264 OA
ENDROOT
BRANCH   1  14
HETATM   14  N3  UNL     1      47.115  -4.643  12.718  1.00  0.00    -0.267 N 
ATOM     15  H3  UNL     1      47.280  -5.598  12.399  1.00  0.00     0.190 HD
BRANCH  14  16
HETATM   16  N2  UNL     1      47.265  -4.419  14.064  1.00  0.00    -0.248 N 
ATOM     17  H2  UNL     1      48.085  -3.906  14.387  1.00  0.00     0.207 HD
BRANCH  16  18
HETATM   18  N1  UNL     1      46.336  -4.868  15.007  1.00  0.00    -0.331 N 
ATOM     19  H12 UNL     1      46.067  -5.851  14.977  1.00  0.00     0.178 HD
ATOM     20  H11 UNL     1      45.929  -4.251  15.709  1.00  0.00     0.178 HD
ENDBRANCH  16  18
ENDBRANCH  14  16
ENDBRANCH   1  14
TORSDOF 3
ENDMDL
MODEL 2
REMARK VINA RESULT: -5.208954803      2.088      2.214
REMARK  3 active torsions:
REMARK  status: ('A' for Active; 'I' for Inactive)
REMARK    1  A    between atoms: N1_1  and  N2_4 
REMARK    2  A    between atoms: N2_4  and  N3_6 
REMARK    3  A    between atoms: N3_6  and  C1_8 
ROOT
HETATM    1  C1  UNL     1      47.880  -2.209  12.516  1.00  0.00     0.194 C 
HETATM    2  N4  UNL     1      48.435  -2.343  11.278  1.00  0.00    -0.289 N 
ATOM      3  H4  UNL     1      49.373  -2.745  11.284  1.00  0.00     0.172 HD
HETATM    4  C2  UNL     1      47.978  -2.046  10.059  1.00  0.00     0.330 C 
HETATM    5  O1  UNL     1      48.766  -2.043   9.082  1.00  0.00    -0.246 OA
HETATM    6  N5  UNL     1      46.686  -1.731   9.759  1.00  0.00    -0.260 N 
ATOM      7  H5  UNL     1      46.492  -1.608   8.766  1.00  0.00     0.175 HD
HETATM    8  C3  UNL     1      45.627  -1.556  10.570  1.00  0.00     0.331 C 
HETATM    9  O2  UNL     1      44.613  -1.107  10.004  1.00  0.00    -0.246 OA
HETATM   10  N6  UNL     1      45.551  -1.809  11.889  1.00  0.00    -0.272 N 
ATOM     11  H6  UNL     1      44.607  -1.857  12.274  1.00  0.00     0.174 HD
HETATM   12  C4  UNL     1      46.558  -2.008  12.782  1.00  0.00     0.295 C 
HETATM   13  O3  UNL     1      46.264  -2.014  13.990  1.00  0.00    -0.264 OA
ENDROOT
BRANCH   1  14
HETATM   14  N3  UNL     1      48.735  -2.287  13.448  1.00  0.00    -0.267 N 
ATOM     15  H3  UNL     1      49.055  -3.225  13.690  1.00  0.00     0.190 HD
BRANCH  14  16
HETATM   16  N2  UNL     1      49.281  -1.255  14.169  1.00  0.00    -0.248 N 
ATOM     17  H2  UNL     1      50.081  -0.754  13.781  1.00  0.00     0.207 HD
BRANCH  16  18
HETATM   18  N1  UNL     1      48.782  -0.866  15.416  1.00  0.00    -0.331 N 
ATOM     19  H12 UNL     1      47.833  -0.497  15.453  1.00  0.00     0.178 HD
ATOM     20  H11 UNL     1      49.332  -0.939  16.272  1.00  0.00     0.178 HD
ENDBRANCH  16  18
ENDBRANCH  14  16
ENDBRANCH   1  14
TORSDOF 3
ENDMDL
MODEL 3
REMARK VINA RESULT: -5.071482428      1.331      2.665
REMARK  3 active torsions:
REMARK  status: ('A' for Active; 'I' for Inactive)
REMARK    1  A    between atoms: N1_1  and  N2_4 
REMARK    2  A    between atoms: N2_4  and  N3_6 
REMARK    3  A    between atoms: N3_6  and  C1_8 
ROOT
HETATM    1  C1  UNL     1      46.673  -3.503  11.966  1.00  0.00     0.194 C 
HETATM    2  N4  UNL     1      46.121  -2.311  11.599  1.00  0.00    -0.289 N 
ATOM      3  H4  UNL     1      45.396  -1.975  12.234  1.00  0.00     0.172 HD
HETATM    4  C2  UNL     1      46.353  -1.503  10.561  1.00  0.00     0.330 C 
HETATM    5  O1  UNL     1      45.553  -0.571  10.307  1.00  0.00    -0.246 OA
HETATM    6  N5  UNL     1      47.418  -1.597   9.715  1.00  0.00    -0.260 N 
ATOM      7  H5  UNL     1      47.485  -0.851   9.023  1.00  0.00     0.175 HD
HETATM    8  C3  UNL     1      48.394  -2.520   9.651  1.00  0.00     0.331 C 
HETATM    9  O2  UNL     1      49.133  -2.421   8.654  1.00  0.00    -0.246 OA
HETATM   10  N6  UNL     1      48.647  -3.512  10.525  1.00  0.00    -0.272 N 
ATOM     11  H6  UNL     1      49.568  -3.944  10.445  1.00  0.00     0.174 HD
HETATM   12  C4  UNL     1      47.845  -4.018  11.501  1.00  0.00     0.295 C 
HETATM   13  O3  UNL     1      48.204  -5.074  12.050  1.00  0.00    -0.264 OA
ENDROOT
BRANCH   1  14
HETATM   14  N3  UNL     1      45.970  -4.127  12.817  1.00  0.00    -0.267 N 
ATOM     15  H3  UNL     1      45.170  -4.642  12.450  1.00  0.00     0.190 HD
BRANCH  14  16
HETATM   16  N2  UNL     1      46.162  -4.189  14.174  1.00  0.00    -0.248 N 
ATOM     17  H2  UNL     1      45.761  -3.458  14.760  1.00  0.00     0.207 HD
BRANCH  16  18
HETATM   18  N1  UNL     1      46.886  -5.219  14.782  1.00  0.00    -0.331 N 
ATOM     19  H12 UNL     1      46.712  -5.402  15.770  1.00  0.00     0.178 HD
ATOM     20  H11 UNL     1      47.568  -5.782  14.275  1.00  0.00     0.178 HD
ENDBRANCH  16  18
ENDBRANCH  14  16
ENDBRANCH   1  14
TORSDOF 3
ENDMDL
MODEL 4
REMARK VINA RESULT: -4.932245285      1.375      3.653
REMARK  3 active torsions:
REMARK  status: ('A' for Active; 'I' for Inactive)
REMARK    1  A    between atoms: N1_1  and  N2_4 
REMARK    2  A    between atoms: N2_4  and  N3_6 
REMARK    3  A    between atoms: N3_6  and  C1_8 
ROOT
HETATM    1  C1  UNL     1      47.933  -3.410  10.787  1.00  0.00     0.194 C 
HETATM    2  N4  UNL     1      46.986  -3.577  11.754  1.00  0.00    -0.289 N 
ATOM      3  H4  UNL     1      47.280  -4.177  12.525  1.00  0.00     0.172 HD
HETATM    4  C2  UNL     1      45.744  -3.102  11.876  1.00  0.00     0.330 C 
HETATM    5  O1  UNL     1      44.975  -3.584  12.743  1.00  0.00    -0.246 OA
HETATM    6  N5  UNL     1      45.207  -2.102  11.121  1.00  0.00    -0.260 N 
ATOM      7  H5  UNL     1      44.272  -1.807  11.399  1.00  0.00     0.175 HD
HETATM    8  C3  UNL     1      45.719  -1.444  10.066  1.00  0.00     0.331 C 
HETATM    9  O2  UNL     1      44.912  -0.696   9.484  1.00  0.00    -0.246 OA
HETATM   10  N6  UNL     1      46.975  -1.509   9.586  1.00  0.00    -0.272 N 
ATOM     11  H6  UNL     1      47.242  -0.758   8.950  1.00  0.00     0.174 HD
HETATM   12  C4  UNL     1      47.938  -2.438   9.833  1.00  0.00     0.295 C 
HETATM   13  O3  UNL     1      48.954  -2.417   9.116  1.00  0.00    -0.264 OA
ENDROOT
BRANCH   1  14
HETATM   14  N3  UNL     1      48.855  -4.277  10.850  1.00  0.00    -0.267 N 
ATOM     15  H3  UNL     1      49.489  -4.205  11.646  1.00  0.00     0.190 HD
BRANCH  14  16
HETATM   16  N2  UNL     1      49.100  -5.301   9.970  1.00  0.00    -0.248 N 
ATOM     17  H2  UNL     1      48.542  -6.152  10.040  1.00  0.00     0.207 HD
BRANCH  16  18
HETATM   18  N1  UNL     1      50.086  -5.222   8.982  1.00  0.00    -0.331 N 
ATOM     19  H12 UNL     1      49.857  -4.725   8.122  1.00  0.00     0.178 HD
ATOM     20  H11 UNL     1      51.009  -5.639   9.097  1.00  0.00     0.178 HD
ENDBRANCH  16  18
ENDBRANCH  14  16
ENDBRANCH   1  14
TORSDOF 3
ENDMDL
MODEL 5
REMARK VINA RESULT: -4.891658852      1.345      3.072
REMARK  3 active torsions:
REMARK  status: ('A' for Active; 'I' for Inactive)
REMARK    1  A    between atoms: N1_1  and  N2_4 
REMARK    2  A    between atoms: N2_4  and  N3_6 
REMARK    3  A    between atoms: N3_6  and  C1_8 
ROOT
HETATM    1  C1  UNL     1      47.736  -3.619  10.912  1.00  0.00     0.194 C 
HETATM    2  N4  UNL     1      46.735  -3.586  11.838  1.00  0.00    -0.289 N 
ATOM      3  H4  UNL     1      46.885  -4.206  12.635  1.00  0.00     0.172 HD
HETATM    4  C2  UNL     1      45.595  -2.892  11.895  1.00  0.00     0.330 C 
HETATM    5  O1  UNL     1      44.718  -3.204  12.735  1.00  0.00    -0.246 OA
HETATM    6  N5  UNL     1      45.278  -1.835  11.094  1.00  0.00    -0.260 N 
ATOM      7  H5  UNL     1      44.400  -1.369  11.324  1.00  0.00     0.175 HD
HETATM    8  C3  UNL     1      45.942  -1.311  10.049  1.00  0.00     0.331 C 
HETATM    9  O2  UNL     1      45.307  -0.448   9.415  1.00  0.00    -0.246 OA
HETATM   10  N6  UNL     1      47.184  -1.613   9.628  1.00  0.00    -0.272 N 
ATOM     11  H6  UNL     1      47.607  -0.941   8.988  1.00  0.00     0.174 HD
HETATM   12  C4  UNL     1      47.954  -2.691   9.938  1.00  0.00     0.295 C 
HETATM   13  O3  UNL     1      48.985  -2.874   9.268  1.00  0.00    -0.264 OA
ENDROOT
BRANCH   1  14
HETATM   14  N3  UNL     1      48.483  -4.635  11.034  1.00  0.00    -0.267 N 
ATOM     15  H3  UNL     1      49.170  -4.781  10.294  1.00  0.00     0.190 HD
BRANCH  14  16
HETATM   16  N2  UNL     1      48.476  -5.561  12.047  1.00  0.00    -0.248 N 
ATOM     17  H2  UNL     1      48.897  -5.312  12.942  1.00  0.00     0.207 HD
BRANCH  16  18
HETATM   18  N1  UNL     1      47.913  -6.831  11.897  1.00  0.00    -0.331 N 
ATOM     19  H12 UNL     1      47.133  -6.931  11.247  1.00  0.00     0.178 HD
ATOM     20  H11 UNL     1      48.254  -7.645  12.408  1.00  0.00     0.178 HD
ENDBRANCH  16  18
ENDBRANCH  14  16
ENDBRANCH   1  14
TORSDOF 3
ENDMDL
