MODEL 1
REMARK VINA RESULT: -4.664583263      0.000      0.000
REMARK  6 active torsions:
REMARK  status: ('A' for Active; 'I' for Inactive)
REMARK    1  A    between atoms: N1_1  and  C1_4 
REMARK    2  A    between atoms: N4_10  and  O1_11 
REMARK    3  A    between atoms: C3_13  and  C4_14 
REMARK    4  A    between atoms: C4_14  and  O2_15 
REMARK    5  A    between atoms: C4_14  and  N5_17 
REMARK    6  A    between atoms: N5_17  and  N6_19 
ROOT
HETATM    1  C1  UNL     1      46.430  -1.581  10.039  1.00  0.00     0.135 A 
HETATM    2  N2  UNL     1      47.473  -1.205   9.201  1.00  0.00    -0.336 N 
ATOM      3  H2  UNL     1      47.277  -0.773   8.298  1.00  0.00     0.168 HD
HETATM    4  C2  UNL     1      48.715  -1.412   9.583  1.00  0.00     0.201 A 
HETATM    5  N3  UNL     1      48.973  -1.982  10.773  1.00  0.00    -0.270 N 
ATOM      6  H3  UNL     1      49.941  -2.136  11.057  1.00  0.00     0.190 HD
HETATM    7  N4  UNL     1      47.997  -2.345  11.578  1.00  0.00    -0.154 N 
HETATM    8  C3  UNL     1      46.681  -2.158  11.235  1.00  0.00     0.176 A 
ENDROOT
BRANCH   8   9
HETATM    9  C4  UNL     1      45.713  -2.684  12.150  1.00  0.00     0.190 C 
BRANCH   9  10
HETATM   10  O2  UNL     1      44.818  -1.826  12.585  1.00  0.00    -0.343 OA
ATOM     11  H2  UNL     1      43.950  -2.180  12.737  1.00  0.00     0.219 HD
ENDBRANCH   9  10
BRANCH   9  12
HETATM   12  N5  UNL     1      45.564  -3.967  12.667  1.00  0.00    -0.285 N 
ATOM     13  H5  UNL     1      45.064  -4.677  12.134  1.00  0.00     0.188 HD
BRANCH  12  14
HETATM   14  N6  UNL     1      46.109  -4.286  13.938  1.00  0.00    -0.343 N 
ATOM     15  H62 UNL     1      46.975  -4.825  13.984  1.00  0.00     0.176 HD
ATOM     16  H61 UNL     1      45.637  -3.979  14.787  1.00  0.00     0.176 HD
ENDBRANCH  12  14
ENDBRANCH   9  12
ENDBRANCH   8   9
BRANCH   1  17
HETATM   17  N1  UNL     1      45.261  -1.296   9.618  1.00  0.00    -0.383 N 
ATOM     18  H12 UNL     1      44.958  -0.353   9.375  1.00  0.00     0.157 HD
ATOM     19  H11 UNL     1      44.635  -2.091   9.493  1.00  0.00     0.157 HD
ENDBRANCH   1  17
BRANCH   7  20
HETATM   20  O1  UNL     1      48.343  -2.920  12.776  1.00  0.00    -0.267 OA
ATOM     21  H1  UNL     1      47.639  -3.238  13.329  1.00  0.00     0.247 HD
ENDBRANCH   7  20
TORSDOF 6
ENDMDL
MODEL 2
REMARK VINA RESULT: -4.609585618      1.755      3.231
REMARK  6 active torsions:
REMARK  status: ('A' for Active; 'I' for Inactive)
REMARK    1  A    between atoms: N1_1  and  C1_4 
REMARK    2  A    between atoms: N4_10  and  O1_11 
REMARK    3  A    between atoms: C3_13  and  C4_14 
REMARK    4  A    between atoms: C4_14  and  O2_15 
REMARK    5  A    between atoms: C4_14  and  N5_17 
REMARK    6  A    between atoms: N5_17  and  N6_19 
ROOT
HETATM    1  C1  UNL     1      46.689  -3.686  11.874  1.00  0.00     0.135 A 
HETATM    2  N2  UNL     1      47.803  -4.504  11.734  1.00  0.00    -0.336 N 
ATOM      3  H2  UNL     1      47.888  -5.357  12.287  1.00  0.00     0.168 HD
HETATM    4  C2  UNL     1      48.749  -4.169  10.882  1.00  0.00     0.201 A 
HETATM    5  N3  UNL     1      48.638  -3.043  10.153  1.00  0.00    -0.270 N 
ATOM      6  H3  UNL     1      49.378  -2.796   9.497  1.00  0.00     0.190 HD
HETATM    7  N4  UNL     1      47.590  -2.257  10.275  1.00  0.00    -0.154 N 
HETATM    8  C3  UNL     1      46.572  -2.552  11.147  1.00  0.00     0.176 A 
ENDROOT
BRANCH   8   9
HETATM    9  C4  UNL     1      45.537  -1.569  11.259  1.00  0.00     0.190 C 
BRANCH   9  10
HETATM   10  O2  UNL     1      44.962  -1.482  12.438  1.00  0.00    -0.343 OA
ATOM     11  H2  UNL     1      44.778  -2.309  12.867  1.00  0.00     0.219 HD
ENDBRANCH   9  10
BRANCH   9  12
HETATM   12  N5  UNL     1      45.026  -0.684  10.314  1.00  0.00    -0.285 N 
ATOM     13  H5  UNL     1      44.891   0.297  10.555  1.00  0.00     0.188 HD
BRANCH  12  14
HETATM   14  N6  UNL     1      44.695  -1.149   9.016  1.00  0.00    -0.343 N 
ATOM     15  H62 UNL     1      44.678  -2.153   8.838  1.00  0.00     0.176 HD
ATOM     16  H61 UNL     1      44.478  -0.481   8.276  1.00  0.00     0.176 HD
ENDBRANCH  12  14
ENDBRANCH   9  12
ENDBRANCH   8   9
BRANCH   1  17
HETATM   17  N1  UNL     1      45.796  -4.111  12.678  1.00  0.00    -0.383 N 
ATOM     18  H12 UNL     1      45.648  -5.097  12.893  1.00  0.00     0.157 HD
ATOM     19  H11 UNL     1      45.247  -3.390  13.143  1.00  0.00     0.157 HD
ENDBRANCH   1  17
BRANCH   7  20
HETATM   20  O1  UNL     1      47.551  -1.127   9.496  1.00  0.00    -0.267 OA
ATOM     21  H1  UNL     1      48.373  -0.684   9.324  1.00  0.00     0.247 HD
ENDBRANCH   7  20
TORSDOF 6
ENDMDL
MODEL 3
REMARK VINA RESULT: -4.597010591      1.953      3.253
REMARK  6 active torsions:
REMARK  status: ('A' for Active; 'I' for Inactive)
REMARK    1  A    between atoms: N1_1  and  C1_4 
REMARK    2  A    between atoms: N4_10  and  O1_11 
REMARK    3  A    between atoms: C3_13  and  C4_14 
REMARK    4  A    between atoms: C4_14  and  O2_15 
REMARK    5  A    between atoms: C4_14  and  N5_17 
REMARK    6  A    between atoms: N5_17  and  N6_19 
ROOT
HETATM    1  C1  UNL     1      47.599  -1.799  12.824  1.00  0.00     0.135 A 
HETATM    2  N2  UNL     1      48.973  -1.815  13.028  1.00  0.00    -0.336 N 
ATOM      3  H2  UNL     1      49.354  -1.765  13.973  1.00  0.00     0.168 HD
HETATM    4  C2  UNL     1      49.780  -1.896  11.991  1.00  0.00     0.201 A 
HETATM    5  N3  UNL     1      49.278  -1.961  10.744  1.00  0.00    -0.270 N 
ATOM      6  H3  UNL     1      49.914  -2.024   9.950  1.00  0.00     0.190 HD
HETATM    7  N4  UNL     1      47.979  -1.946  10.534  1.00  0.00    -0.154 N 
HETATM    8  C3  UNL     1      47.087  -1.861  11.574  1.00  0.00     0.176 A 
ENDROOT
BRANCH   8   9
HETATM    9  C4  UNL     1      45.706  -1.752  11.211  1.00  0.00     0.190 C 
BRANCH   9  10
HETATM   10  O2  UNL     1      44.961  -2.798  11.493  1.00  0.00    -0.343 OA
ATOM     11  H2  UNL     1      44.726  -3.346  10.753  1.00  0.00     0.219 HD
ENDBRANCH   9  10
BRANCH   9  12
HETATM   12  N5  UNL     1      45.014  -0.715  10.594  1.00  0.00    -0.285 N 
ATOM     13  H5  UNL     1      44.476  -0.056  11.156  1.00  0.00     0.188 HD
BRANCH  12  14
HETATM   14  N6  UNL     1      45.058  -0.574   9.183  1.00  0.00    -0.343 N 
ATOM     15  H62 UNL     1      45.543  -1.280   8.630  1.00  0.00     0.176 HD
ATOM     16  H61 UNL     1      44.610   0.226   8.737  1.00  0.00     0.176 HD
ENDBRANCH  12  14
ENDBRANCH   9  12
ENDBRANCH   8   9
BRANCH   1  17
HETATM   17  N1  UNL     1      46.890  -1.774  13.883  1.00  0.00    -0.383 N 
ATOM     18  H12 UNL     1      47.185  -2.174  14.774  1.00  0.00     0.157 HD
ATOM     19  H11 UNL     1      46.001  -1.282  13.803  1.00  0.00     0.157 HD
ENDBRANCH   1  17
BRANCH   7  20
HETATM   20  O1  UNL     1      47.546  -2.016   9.233  1.00  0.00    -0.267 OA
ATOM     21  H1  UNL     1      47.104  -2.812   8.960  1.00  0.00     0.247 HD
ENDBRANCH   7  20
TORSDOF 6
ENDMDL
MODEL 4
REMARK VINA RESULT: -4.579770769      1.512      2.813
REMARK  6 active torsions:
REMARK  status: ('A' for Active; 'I' for Inactive)
REMARK    1  A    between atoms: N1_1  and  C1_4 
REMARK    2  A    between atoms: N4_10  and  O1_11 
REMARK    3  A    between atoms: C3_13  and  C4_14 
REMARK    4  A    between atoms: C4_14  and  O2_15 
REMARK    5  A    between atoms: C4_14  and  N5_17 
REMARK    6  A    between atoms: N5_17  and  N6_19 
ROOT
HETATM    1  C1  UNL     1      47.507  -2.637  10.490  1.00  0.00     0.135 A 
HETATM    2  N2  UNL     1      46.972  -1.621   9.708  1.00  0.00    -0.336 N 
ATOM      3  H2  UNL     1      47.537  -1.179   8.983  1.00  0.00     0.168 HD
HETATM    4  C2  UNL     1      45.730  -1.235   9.910  1.00  0.00     0.201 A 
HETATM    5  N3  UNL     1      44.985  -1.818  10.867  1.00  0.00    -0.270 N 
ATOM      6  H3  UNL     1      44.025  -1.509  11.013  1.00  0.00     0.190 HD
HETATM    7  N4  UNL     1      45.477  -2.780  11.617  1.00  0.00    -0.154 N 
HETATM    8  C3  UNL     1      46.766  -3.226  11.456  1.00  0.00     0.176 A 
ENDROOT
BRANCH   8   9
HETATM    9  C4  UNL     1      47.214  -4.207  12.398  1.00  0.00     0.190 C 
BRANCH   9  10
HETATM   10  O2  UNL     1      47.474  -5.395  11.899  1.00  0.00    -0.343 OA
ATOM     11  H2  UNL     1      47.317  -6.128  12.483  1.00  0.00     0.219 HD
ENDBRANCH   9  10
BRANCH   9  12
HETATM   12  N5  UNL     1      47.416  -4.113  13.771  1.00  0.00    -0.285 N 
ATOM     13  H5  UNL     1      48.290  -3.734  14.134  1.00  0.00     0.188 HD
BRANCH  12  14
HETATM   14  N6  UNL     1      46.405  -4.546  14.667  1.00  0.00    -0.343 N 
ATOM     15  H62 UNL     1      45.804  -5.325  14.397  1.00  0.00     0.176 HD
ATOM     16  H61 UNL     1      46.285  -4.079  15.566  1.00  0.00     0.176 HD
ENDBRANCH  12  14
ENDBRANCH   9  12
ENDBRANCH   8   9
BRANCH   1  17
HETATM   17  N1  UNL     1      48.696  -2.988  10.193  1.00  0.00    -0.383 N 
ATOM     18  H12 UNL     1      49.314  -2.447   9.587  1.00  0.00     0.157 HD
ATOM     19  H11 UNL     1      49.024  -3.844  10.639  1.00  0.00     0.157 HD
ENDBRANCH   1  17
BRANCH   7  20
HETATM   20  O1  UNL     1      44.654  -3.325  12.571  1.00  0.00    -0.267 OA
ATOM     21  H1  UNL     1      44.986  -4.064  13.068  1.00  0.00     0.247 HD
ENDBRANCH   7  20
TORSDOF 6
ENDMDL
MODEL 5
REMARK VINA RESULT: -4.565880794      1.876      3.902
REMARK  6 active torsions:
REMARK  status: ('A' for Active; 'I' for Inactive)
REMARK    1  A    between atoms: N1_1  and  C1_4 
REMARK    2  A    between atoms: N4_10  and  O1_11 
REMARK    3  A    between atoms: C3_13  and  C4_14 
REMARK    4  A    between atoms: C4_14  and  O2_15 
REMARK    5  A    between atoms: C4_14  and  N5_17 
REMARK    6  A    between atoms: N5_17  and  N6_19 
ROOT
HETATM    1  C1  UNL     1      48.619  -1.747  11.992  1.00  0.00     0.135 A 
HETATM    2  N2  UNL     1      48.816  -1.849  13.363  1.00  0.00    -0.336 N 
ATOM      3  H2  UNL     1      49.757  -1.796  13.753  1.00  0.00     0.168 HD
HETATM    4  C2  UNL     1      47.778  -2.016  14.155  1.00  0.00     0.201 A 
HETATM    5  N3  UNL     1      46.536  -2.087  13.641  1.00  0.00    -0.270 N 
ATOM      6  H3  UNL     1      45.741  -2.216  14.266  1.00  0.00     0.190 HD
HETATM    7  N4  UNL     1      46.333  -1.992  12.344  1.00  0.00    -0.154 N 
HETATM    8  C3  UNL     1      47.375  -1.820  11.467  1.00  0.00     0.176 A 
ENDROOT
BRANCH   8   9
HETATM    9  C4  UNL     1      47.033  -1.832  10.077  1.00  0.00     0.190 C 
BRANCH   9  10
HETATM   10  O2  UNL     1      47.557  -2.809   9.372  1.00  0.00    -0.343 OA
ATOM     11  H2  UNL     1      47.201  -3.673   9.540  1.00  0.00     0.219 HD
ENDBRANCH   9  10
BRANCH   9  12
HETATM   12  N5  UNL     1      46.235  -0.966   9.337  1.00  0.00    -0.285 N 
ATOM     13  H5  UNL     1      46.652  -0.164   8.864  1.00  0.00     0.188 HD
BRANCH  12  14
HETATM   14  N6  UNL     1      44.839  -1.198   9.239  1.00  0.00    -0.343 N 
ATOM     15  H62 UNL     1      44.463  -1.607   8.383  1.00  0.00     0.176 HD
ATOM     16  H61 UNL     1      44.226  -0.958  10.018  1.00  0.00     0.176 HD
ENDBRANCH  12  14
ENDBRANCH   9  12
ENDBRANCH   8   9
BRANCH   1  17
HETATM   17  N1  UNL     1      49.669  -1.532  11.303  1.00  0.00    -0.383 N 
ATOM     18  H12 UNL     1      49.911  -2.049  10.458  1.00  0.00     0.157 HD
ATOM     19  H11 UNL     1      50.256  -0.763  11.628  1.00  0.00     0.157 HD
ENDBRANCH   1  17
BRANCH   7  20
HETATM   20  O1  UNL     1      45.037  -2.074  11.898  1.00  0.00    -0.267 OA
ATOM     21  H1  UNL     1      44.620  -1.270  11.612  1.00  0.00     0.247 HD
ENDBRANCH   7  20
TORSDOF 6
ENDMDL
