MODEL 1
REMARK VINA RESULT: -3.316818064      0.000      0.000
REMARK  5 active torsions:
REMARK  status: ('A' for Active; 'I' for Inactive)
REMARK    1  A    between atoms: C2_2  and  C3_3 
REMARK    2  A    between atoms: C3_3  and  N1_4 
REMARK    3  A    between atoms: N1_4  and  C4_7 
REMARK    4  A    between atoms: C5_8  and  N2_9 
REMARK    5  A    between atoms: C6_13  and  N3_14 
ROOT
HETATM    1  C4  UNL     1     -17.092  27.973  28.079  1.00  0.00     0.250 A 
HETATM    2  C5  UNL     1     -18.136  28.710  28.854  1.00  0.00     0.248 A 
HETATM    3  C6  UNL     1     -17.720  29.153  27.475  1.00  0.00     0.248 A 
ENDROOT
BRANCH   1   4
HETATM    4  N1  UNL     1     -17.469  26.594  27.770  1.00  0.00    -0.067 N 
ATOM      5  H12 UNL     1     -18.165  26.539  27.026  1.00  0.00     0.277 HD
ATOM      6  H11 UNL     1     -18.021  26.166  28.513  1.00  0.00     0.277 HD
BRANCH   4   7
HETATM    7  C3  UNL     1     -16.251  25.825  27.458  1.00  0.00     0.232 C 
BRANCH   7   8
HETATM    8  C2  UNL     1     -15.056  26.700  27.262  1.00  0.00     0.023 C 
HETATM    9  C1  UNL     1     -14.509  26.612  25.862  1.00  0.00     0.007 C 
ENDBRANCH   7   8
ENDBRANCH   4   7
ENDBRANCH   1   4
BRANCH   2  10
HETATM   10  N2  UNL     1     -19.464  28.221  28.957  1.00  0.00    -0.071 N 
ATOM     11  H23 UNL     1     -20.096  29.022  28.947  1.00  0.00     0.274 HD
ATOM     12  H22 UNL     1     -19.698  27.758  28.079  1.00  0.00     0.274 HD
ATOM     13  H21 UNL     1     -19.747  27.607  29.721  1.00  0.00     0.274 HD
ENDBRANCH   2  10
BRANCH   3  14
HETATM   14  N3  UNL     1     -18.675  29.023  26.396  1.00  0.00    -0.071 N 
ATOM     15  H33 UNL     1     -18.991  28.054  26.370  1.00  0.00     0.274 HD
ATOM     16  H32 UNL     1     -19.527  29.514  26.668  1.00  0.00     0.274 HD
ATOM     17  H31 UNL     1     -18.438  29.304  25.445  1.00  0.00     0.274 HD
ENDBRANCH   3  14
TORSDOF 5
ENDMDL
MODEL 2
REMARK VINA RESULT: -3.190944657      1.048      1.422
REMARK  5 active torsions:
REMARK  status: ('A' for Active; 'I' for Inactive)
REMARK    1  A    between atoms: C2_2  and  C3_3 
REMARK    2  A    between atoms: C3_3  and  N1_4 
REMARK    3  A    between atoms: N1_4  and  C4_7 
REMARK    4  A    between atoms: C5_8  and  N2_9 
REMARK    5  A    between atoms: C6_13  and  N3_14 
ROOT
HETATM    1  C4  UNL     1     -17.493  28.712  28.326  1.00  0.00     0.250 A 
HETATM    2  C5  UNL     1     -18.718  29.054  29.112  1.00  0.00     0.248 A 
HETATM    3  C6  UNL     1     -18.432  29.698  27.780  1.00  0.00     0.248 A 
ENDROOT
BRANCH   1   4
HETATM    4  N1  UNL     1     -17.443  27.310  27.915  1.00  0.00    -0.067 N 
ATOM      5  H12 UNL     1     -18.215  27.058  27.296  1.00  0.00     0.277 HD
ATOM      6  H11 UNL     1     -17.661  26.673  28.680  1.00  0.00     0.277 HD
BRANCH   4   7
HETATM    7  C3  UNL     1     -16.127  27.036  27.312  1.00  0.00     0.232 C 
BRANCH   7   8
HETATM    8  C2  UNL     1     -15.775  25.584  27.342  1.00  0.00     0.023 C 
HETATM    9  C1  UNL     1     -16.982  24.701  27.163  1.00  0.00     0.007 C 
ENDBRANCH   7   8
ENDBRANCH   4   7
ENDBRANCH   1   4
BRANCH   2  10
HETATM   10  N2  UNL     1     -19.844  28.191  29.137  1.00  0.00    -0.071 N 
ATOM     11  H23 UNL     1     -19.589  27.326  28.662  1.00  0.00     0.274 HD
ATOM     12  H22 UNL     1     -19.975  27.873  30.097  1.00  0.00     0.274 HD
ATOM     13  H21 UNL     1     -20.751  28.490  28.779  1.00  0.00     0.274 HD
ENDBRANCH   2  10
BRANCH   3  14
HETATM   14  N3  UNL     1     -19.292  29.373  26.663  1.00  0.00    -0.071 N 
ATOM     15  H33 UNL     1     -18.706  29.027  25.904  1.00  0.00     0.274 HD
ATOM     16  H32 UNL     1     -19.828  28.541  26.910  1.00  0.00     0.274 HD
ATOM     17  H31 UNL     1     -19.937  30.061  26.276  1.00  0.00     0.274 HD
ENDBRANCH   3  14
TORSDOF 5
ENDMDL
MODEL 3
REMARK VINA RESULT: -3.185504375      3.412      4.421
REMARK  5 active torsions:
REMARK  status: ('A' for Active; 'I' for Inactive)
REMARK    1  A    between atoms: C2_2  and  C3_3 
REMARK    2  A    between atoms: C3_3  and  N1_4 
REMARK    3  A    between atoms: N1_4  and  C4_7 
REMARK    4  A    between atoms: C5_8  and  N2_9 
REMARK    5  A    between atoms: C6_13  and  N3_14 
ROOT
HETATM    1  C4  UNL     1     -13.954  28.308  26.933  1.00  0.00     0.250 A 
HETATM    2  C5  UNL     1     -14.127  29.786  26.792  1.00  0.00     0.248 A 
HETATM    3  C6  UNL     1     -12.764  29.165  26.964  1.00  0.00     0.248 A 
ENDROOT
BRANCH   1   4
HETATM    4  N1  UNL     1     -14.396  27.560  25.757  1.00  0.00    -0.067 N 
ATOM      5  H12 UNL     1     -13.664  27.477  25.051  1.00  0.00     0.277 HD
ATOM      6  H11 UNL     1     -15.073  28.079  25.198  1.00  0.00     0.277 HD
BRANCH   4   7
HETATM    7  C3  UNL     1     -14.911  26.249  26.190  1.00  0.00     0.232 C 
BRANCH   7   8
HETATM    8  C2  UNL     1     -16.048  26.371  27.152  1.00  0.00     0.023 C 
HETATM    9  C1  UNL     1     -16.744  25.056  27.381  1.00  0.00     0.007 C 
ENDBRANCH   7   8
ENDBRANCH   4   7
ENDBRANCH   1   4
BRANCH   2  10
HETATM   10  N2  UNL     1     -14.362  30.386  25.528  1.00  0.00    -0.071 N 
ATOM     11  H23 UNL     1     -15.075  31.105  25.648  1.00  0.00     0.274 HD
ATOM     12  H22 UNL     1     -13.542  30.941  25.285  1.00  0.00     0.274 HD
ATOM     13  H21 UNL     1     -14.615  29.827  24.713  1.00  0.00     0.274 HD
ENDBRANCH   2  10
BRANCH   3  14
HETATM   14  N3  UNL     1     -11.845  29.210  25.849  1.00  0.00    -0.071 N 
ATOM     15  H33 UNL     1     -11.188  29.972  26.012  1.00  0.00     0.274 HD
ATOM     16  H32 UNL     1     -11.237  28.393  25.908  1.00  0.00     0.274 HD
ATOM     17  H31 UNL     1     -12.182  29.284  24.890  1.00  0.00     0.274 HD
ENDBRANCH   3  14
TORSDOF 5
ENDMDL
MODEL 4
REMARK VINA RESULT: -3.155337651      1.546      4.250
REMARK  5 active torsions:
REMARK  status: ('A' for Active; 'I' for Inactive)
REMARK    1  A    between atoms: C2_2  and  C3_3 
REMARK    2  A    between atoms: C3_3  and  N1_4 
REMARK    3  A    between atoms: N1_4  and  C4_7 
REMARK    4  A    between atoms: C5_8  and  N2_9 
REMARK    5  A    between atoms: C6_13  and  N3_14 
ROOT
HETATM    1  C4  UNL     1     -16.499  27.120  27.881  1.00  0.00     0.250 A 
HETATM    2  C5  UNL     1     -15.235  26.509  27.368  1.00  0.00     0.248 A 
HETATM    3  C6  UNL     1     -16.395  25.658  27.817  1.00  0.00     0.248 A 
ENDROOT
BRANCH   1   4
HETATM    4  N1  UNL     1     -17.190  27.938  26.885  1.00  0.00    -0.067 N 
ATOM      5  H12 UNL     1     -17.817  27.388  26.297  1.00  0.00     0.277 HD
ATOM      6  H11 UNL     1     -16.564  28.270  26.152  1.00  0.00     0.277 HD
BRANCH   4   7
HETATM    7  C3  UNL     1     -17.886  29.040  27.572  1.00  0.00     0.232 C 
BRANCH   7   8
HETATM    8  C2  UNL     1     -18.613  28.584  28.795  1.00  0.00     0.023 C 
HETATM    9  C1  UNL     1     -20.011  29.137  28.866  1.00  0.00     0.007 C 
ENDBRANCH   7   8
ENDBRANCH   4   7
ENDBRANCH   1   4
BRANCH   2  10
HETATM   10  N2  UNL     1     -14.949  26.457  25.979  1.00  0.00    -0.071 N 
ATOM     11  H23 UNL     1     -13.956  26.657  25.855  1.00  0.00     0.274 HD
ATOM     12  H22 UNL     1     -15.005  25.483  25.683  1.00  0.00     0.274 HD
ATOM     13  H21 UNL     1     -15.470  27.020  25.308  1.00  0.00     0.274 HD
ENDBRANCH   2  10
BRANCH   3  14
HETATM   14  N3  UNL     1     -17.115  24.900  26.819  1.00  0.00    -0.071 N 
ATOM     15  H33 UNL     1     -18.019  25.348  26.674  1.00  0.00     0.274 HD
ATOM     16  H32 UNL     1     -16.660  25.051  25.919  1.00  0.00     0.274 HD
ATOM     17  H31 UNL     1     -17.273  23.899  26.930  1.00  0.00     0.274 HD
ENDBRANCH   3  14
TORSDOF 5
ENDMDL
MODEL 5
REMARK VINA RESULT: -3.087455821      2.010      3.735
REMARK  5 active torsions:
REMARK  status: ('A' for Active; 'I' for Inactive)
REMARK    1  A    between atoms: C2_2  and  C3_3 
REMARK    2  A    between atoms: C3_3  and  N1_4 
REMARK    3  A    between atoms: N1_4  and  C4_7 
REMARK    4  A    between atoms: C5_8  and  N2_9 
REMARK    5  A    between atoms: C6_13  and  N3_14 
ROOT
HETATM    1  C4  UNL     1     -16.433  27.046  27.872  1.00  0.00     0.250 A 
HETATM    2  C5  UNL     1     -15.179  26.444  27.325  1.00  0.00     0.248 A 
HETATM    3  C6  UNL     1     -16.324  25.585  27.796  1.00  0.00     0.248 A 
ENDROOT
BRANCH   1   4
HETATM    4  N1  UNL     1     -17.152  27.867  26.899  1.00  0.00    -0.067 N 
ATOM      5  H12 UNL     1     -18.156  27.689  26.906  1.00  0.00     0.277 HD
ATOM      6  H11 UNL     1     -16.965  27.583  25.938  1.00  0.00     0.277 HD
BRANCH   4   7
HETATM    7  C3  UNL     1     -16.830  29.285  27.140  1.00  0.00     0.232 C 
BRANCH   7   8
HETATM    8  C2  UNL     1     -16.056  29.895  26.018  1.00  0.00     0.023 C 
HETATM    9  C1  UNL     1     -14.599  30.065  26.357  1.00  0.00     0.007 C 
ENDBRANCH   7   8
ENDBRANCH   4   7
ENDBRANCH   1   4
BRANCH   2  10
HETATM   10  N2  UNL     1     -14.927  26.403  25.929  1.00  0.00    -0.071 N 
ATOM     11  H23 UNL     1     -15.825  26.355  25.448  1.00  0.00     0.274 HD
ATOM     12  H22 UNL     1     -14.584  27.320  25.644  1.00  0.00     0.274 HD
ATOM     13  H21 UNL     1     -14.314  25.697  25.520  1.00  0.00     0.274 HD
ENDBRANCH   2  10
BRANCH   3  14
HETATM   14  N3  UNL     1     -17.065  24.830  26.810  1.00  0.00    -0.071 N 
ATOM     15  H33 UNL     1     -18.059  24.946  27.006  1.00  0.00     0.274 HD
ATOM     16  H32 UNL     1     -16.971  25.305  25.913  1.00  0.00     0.274 HD
ATOM     17  H31 UNL     1     -16.886  23.837  26.663  1.00  0.00     0.274 HD
ENDBRANCH   3  14
TORSDOF 5
ENDMDL
