MODEL 1
REMARK VINA RESULT: -3.581924709      0.000      0.000
REMARK  5 active torsions:
REMARK  status: ('A' for Active; 'I' for Inactive)
REMARK    1  A    between atoms: N1_1  and  C1_5 
REMARK    2  A    between atoms: C1_5  and  C2_6 
REMARK    3  A    between atoms: C2_6  and  C3_7 
REMARK    4  A    between atoms: C3_7  and  N2_8 
REMARK    5  A    between atoms: N2_8  and  C4_10 
ROOT
HETATM    1  N2  UNL     1     -17.060  27.035  27.265  1.00  0.00    -0.225 N 
ATOM      2  H2  UNL     1     -17.422  27.214  26.328  1.00  0.00     0.177 HD
ENDROOT
BRANCH   1   3
HETATM    3  C3  UNL     1     -16.389  25.796  27.469  1.00  0.00     0.140 C 
BRANCH   3   4
HETATM    4  C2  UNL     1     -14.888  25.932  27.244  1.00  0.00     0.047 C 
BRANCH   4   5
HETATM    5  C1  UNL     1     -14.656  26.613  25.914  1.00  0.00     0.231 C 
BRANCH   5   6
HETATM    6  N1  UNL     1     -13.848  27.803  26.140  1.00  0.00    -0.079 N 
ATOM      7  H13 UNL     1     -12.889  27.693  25.811  1.00  0.00     0.274 HD
ATOM      8  H12 UNL     1     -14.115  28.579  25.535  1.00  0.00     0.274 HD
ATOM      9  H11 UNL     1     -13.897  28.043  27.130  1.00  0.00     0.274 HD
ENDBRANCH   5   6
ENDBRANCH   4   5
ENDBRANCH   3   4
ENDBRANCH   1   3
BRANCH   1  10
HETATM   10  C4  UNL     1     -17.252  27.944  28.139  1.00  0.00     0.693 A 
HETATM   11  N3  UNL     1     -18.500  28.311  28.539  1.00  0.00    -0.185 N 
HETATM   12  C5  UNL     1     -18.385  29.274  29.453  1.00  0.00     0.215 A 
ATOM     13  H3  UNL     1     -19.376  27.916  28.197  1.00  0.00     0.185 HD
HETATM   14  N4  UNL     1     -17.098  29.533  29.650  1.00  0.00    -0.281 N 
HETATM   15  N5  UNL     1     -16.423  28.712  28.839  1.00  0.00    -0.131 N 
ATOM     16  H4  UNL     1     -16.702  30.220  30.290  1.00  0.00     0.188 HD
ATOM     17  H5  UNL     1     -15.406  28.679  28.768  1.00  0.00     0.205 HD
ENDBRANCH   1  10
TORSDOF 5
ENDMDL
MODEL 2
REMARK VINA RESULT: -3.561368672      2.269      3.592
REMARK  5 active torsions:
REMARK  status: ('A' for Active; 'I' for Inactive)
REMARK    1  A    between atoms: N1_1  and  C1_5 
REMARK    2  A    between atoms: C1_5  and  C2_6 
REMARK    3  A    between atoms: C2_6  and  C3_7 
REMARK    4  A    between atoms: C3_7  and  N2_8 
REMARK    5  A    between atoms: N2_8  and  C4_10 
ROOT
HETATM    1  N2  UNL     1     -14.971  28.227  26.086  1.00  0.00    -0.225 N 
ATOM      2  H2  UNL     1     -14.931  28.276  25.068  1.00  0.00     0.177 HD
ENDROOT
BRANCH   1   3
HETATM    3  C3  UNL     1     -14.186  29.171  26.807  1.00  0.00     0.140 C 
BRANCH   3   4
HETATM    4  C2  UNL     1     -12.762  28.668  27.012  1.00  0.00     0.047 C 
BRANCH   4   5
HETATM    5  C1  UNL     1     -12.626  28.152  28.427  1.00  0.00     0.231 C 
BRANCH   5   6
HETATM    6  N1  UNL     1     -13.662  28.769  29.243  1.00  0.00    -0.079 N 
ATOM      7  H13 UNL     1     -13.498  28.646  30.242  1.00  0.00     0.274 HD
ATOM      8  H12 UNL     1     -13.625  29.788  29.220  1.00  0.00     0.274 HD
ATOM      9  H11 UNL     1     -14.567  28.403  28.948  1.00  0.00     0.274 HD
ENDBRANCH   5   6
ENDBRANCH   4   5
ENDBRANCH   3   4
ENDBRANCH   1   3
BRANCH   1  10
HETATM   10  C4  UNL     1     -15.720  27.325  26.590  1.00  0.00     0.693 A 
HETATM   11  N3  UNL     1     -15.373  26.009  26.582  1.00  0.00    -0.185 N 
HETATM   12  C5  UNL     1     -16.343  25.312  27.174  1.00  0.00     0.215 A 
ATOM     13  H3  UNL     1     -14.515  25.621  26.190  1.00  0.00     0.185 HD
HETATM   14  N4  UNL     1     -17.301  26.146  27.559  1.00  0.00    -0.281 N 
HETATM   15  N5  UNL     1     -16.903  27.368  27.194  1.00  0.00    -0.131 N 
ATOM     16  H4  UNL     1     -18.168  25.903  28.038  1.00  0.00     0.188 HD
ATOM     17  H5  UNL     1     -17.436  28.222  27.358  1.00  0.00     0.205 HD
ENDBRANCH   1  10
TORSDOF 5
ENDMDL
MODEL 3
REMARK VINA RESULT: -3.534177385      2.461      3.768
REMARK  5 active torsions:
REMARK  status: ('A' for Active; 'I' for Inactive)
REMARK    1  A    between atoms: N1_1  and  C1_5 
REMARK    2  A    between atoms: C1_5  and  C2_6 
REMARK    3  A    between atoms: C2_6  and  C3_7 
REMARK    4  A    between atoms: C3_7  and  N2_8 
REMARK    5  A    between atoms: N2_8  and  C4_10 
ROOT
HETATM    1  N2  UNL     1     -14.143  27.620  26.133  1.00  0.00    -0.225 N 
ATOM      2  H2  UNL     1     -13.903  27.368  25.174  1.00  0.00     0.177 HD
ENDROOT
BRANCH   1   3
HETATM    3  C3  UNL     1     -13.264  28.519  26.801  1.00  0.00     0.140 C 
BRANCH   3   4
HETATM    4  C2  UNL     1     -12.943  28.037  28.211  1.00  0.00     0.047 C 
BRANCH   4   5
HETATM    5  C1  UNL     1     -11.506  28.382  28.529  1.00  0.00     0.231 C 
BRANCH   5   6
HETATM    6  N1  UNL     1     -10.928  27.289  29.298  1.00  0.00    -0.079 N 
ATOM      7  H13 UNL     1     -11.410  26.403  29.142  1.00  0.00     0.274 HD
ATOM      8  H12 UNL     1     -10.010  27.010  28.954  1.00  0.00     0.274 HD
ATOM      9  H11 UNL     1     -10.912  27.558  30.281  1.00  0.00     0.274 HD
ENDBRANCH   5   6
ENDBRANCH   4   5
ENDBRANCH   3   4
ENDBRANCH   1   3
BRANCH   1  10
HETATM   10  C4  UNL     1     -15.203  27.100  26.618  1.00  0.00     0.693 A 
HETATM   11  N3  UNL     1     -15.313  25.762  26.845  1.00  0.00    -0.185 N 
HETATM   12  C5  UNL     1     -16.523  25.518  27.349  1.00  0.00     0.215 A 
ATOM     13  H3  UNL     1     -14.592  25.065  26.660  1.00  0.00     0.185 HD
HETATM   14  N4  UNL     1     -17.188  26.662  27.451  1.00  0.00    -0.281 N 
HETATM   15  N5  UNL     1     -16.367  27.614  27.000  1.00  0.00    -0.131 N 
ATOM     16  H4  UNL     1     -18.137  26.788  27.803  1.00  0.00     0.188 HD
ATOM     17  H5  UNL     1     -16.603  28.606  26.955  1.00  0.00     0.205 HD
ENDBRANCH   1  10
TORSDOF 5
ENDMDL
MODEL 4
REMARK VINA RESULT: -3.516553483      2.534      4.049
REMARK  5 active torsions:
REMARK  status: ('A' for Active; 'I' for Inactive)
REMARK    1  A    between atoms: N1_1  and  C1_5 
REMARK    2  A    between atoms: C1_5  and  C2_6 
REMARK    3  A    between atoms: C2_6  and  C3_7 
REMARK    4  A    between atoms: C3_7  and  N2_8 
REMARK    5  A    between atoms: N2_8  and  C4_10 
ROOT
HETATM    1  N2  UNL     1     -13.725  27.973  26.707  1.00  0.00    -0.225 N 
ATOM      2  H2  UNL     1     -12.986  27.995  26.005  1.00  0.00     0.177 HD
ENDROOT
BRANCH   1   3
HETATM    3  C3  UNL     1     -15.029  27.620  26.258  1.00  0.00     0.140 C 
BRANCH   3   4
HETATM    4  C2  UNL     1     -15.318  26.143  26.499  1.00  0.00     0.047 C 
BRANCH   4   5
HETATM    5  C1  UNL     1     -16.389  26.023  27.559  1.00  0.00     0.231 C 
BRANCH   5   6
HETATM    6  N1  UNL     1     -16.792  24.627  27.652  1.00  0.00    -0.079 N 
ATOM      7  H13 UNL     1     -16.576  24.216  28.560  1.00  0.00     0.274 HD
ATOM      8  H12 UNL     1     -17.805  24.512  27.683  1.00  0.00     0.274 HD
ATOM      9  H11 UNL     1     -16.364  24.115  26.880  1.00  0.00     0.274 HD
ENDBRANCH   5   6
ENDBRANCH   4   5
ENDBRANCH   3   4
ENDBRANCH   1   3
BRANCH   1  10
HETATM   10  C4  UNL     1     -13.391  28.265  27.904  1.00  0.00     0.693 A 
HETATM   11  N3  UNL     1     -12.107  28.161  28.342  1.00  0.00    -0.185 N 
HETATM   12  C5  UNL     1     -12.066  28.531  29.622  1.00  0.00     0.215 A 
ATOM     13  H3  UNL     1     -11.310  27.851  27.786  1.00  0.00     0.185 HD
HETATM   14  N4  UNL     1     -13.288  28.870  30.014  1.00  0.00    -0.281 N 
HETATM   15  N5  UNL     1     -14.082  28.701  28.952  1.00  0.00    -0.131 N 
ATOM     16  H4  UNL     1     -13.566  29.195  30.940  1.00  0.00     0.188 HD
ATOM     17  H5  UNL     1     -15.086  28.883  28.947  1.00  0.00     0.205 HD
ENDBRANCH   1  10
TORSDOF 5
ENDMDL
MODEL 5
REMARK VINA RESULT: -3.455233648      1.459      2.407
REMARK  5 active torsions:
REMARK  status: ('A' for Active; 'I' for Inactive)
REMARK    1  A    between atoms: N1_1  and  C1_5 
REMARK    2  A    between atoms: C1_5  and  C2_6 
REMARK    3  A    between atoms: C2_6  and  C3_7 
REMARK    4  A    between atoms: C3_7  and  N2_8 
REMARK    5  A    between atoms: N2_8  and  C4_10 
ROOT
HETATM    1  N2  UNL     1     -15.959  28.458  26.611  1.00  0.00    -0.225 N 
ATOM      2  H2  UNL     1     -15.703  29.050  25.821  1.00  0.00     0.177 HD
ENDROOT
BRANCH   1   3
HETATM    3  C3  UNL     1     -14.999  27.494  27.029  1.00  0.00     0.140 C 
BRANCH   3   4
HETATM    4  C2  UNL     1     -15.305  26.118  26.451  1.00  0.00     0.047 C 
BRANCH   4   5
HETATM    5  C1  UNL     1     -15.944  25.269  27.526  1.00  0.00     0.231 C 
BRANCH   5   6
HETATM    6  N1  UNL     1     -17.304  24.951  27.116  1.00  0.00    -0.079 N 
ATOM      7  H13 UNL     1     -17.956  24.933  27.900  1.00  0.00     0.274 HD
ATOM      8  H12 UNL     1     -17.741  25.706  26.588  1.00  0.00     0.274 HD
ATOM      9  H11 UNL     1     -17.289  24.071  26.600  1.00  0.00     0.274 HD
ENDBRANCH   5   6
ENDBRANCH   4   5
ENDBRANCH   3   4
ENDBRANCH   1   3
BRANCH   1  10
HETATM   10  C4  UNL     1     -17.109  28.654  27.129  1.00  0.00     0.693 A 
HETATM   11  N3  UNL     1     -17.335  28.508  28.463  1.00  0.00    -0.185 N 
HETATM   12  C5  UNL     1     -18.618  28.777  28.706  1.00  0.00     0.215 A 
ATOM     13  H3  UNL     1     -16.641  28.238  29.160  1.00  0.00     0.185 HD
HETATM   14  N4  UNL     1     -19.217  29.092  27.564  1.00  0.00    -0.281 N 
HETATM   15  N5  UNL     1     -18.281  29.011  26.615  1.00  0.00    -0.131 N 
ATOM     16  H4  UNL     1     -20.197  29.345  27.437  1.00  0.00     0.188 HD
ATOM     17  H5  UNL     1     -18.444  29.199  25.625  1.00  0.00     0.205 HD
ENDBRANCH   1  10
TORSDOF 5
ENDMDL
