MODEL 1
REMARK VINA RESULT: -3.815982994      0.000      0.000
REMARK  5 active torsions:
REMARK  status: ('A' for Active; 'I' for Inactive)
REMARK    1  A    between atoms: N1_1  and  C1_5 
REMARK    2  A    between atoms: C1_5  and  C2_6 
REMARK    3  A    between atoms: C2_6  and  N2_7 
REMARK    4  A    between atoms: N2_7  and  C3_9 
REMARK    5  A    between atoms: N3_12  and  O1_13 
ROOT
HETATM    1  C3  UNL     1     -16.837  27.648  27.018  1.00  0.00     0.119 A 
HETATM    2  C4  UNL     1     -15.544  27.711  26.558  1.00  0.00     0.071 A 
HETATM    3  C5  UNL     1     -14.895  26.520  26.853  1.00  0.00     0.147 A 
HETATM    4  N3  UNL     1     -15.820  25.773  27.486  1.00  0.00    -0.173 N 
HETATM    5  N4  UNL     1     -16.966  26.437  27.584  1.00  0.00    -0.260 N 
ATOM      6  H4  UNL     1     -17.816  26.080  28.022  1.00  0.00     0.191 HD
ENDROOT
BRANCH   1   7
HETATM    7  N2  UNL     1     -17.836  28.675  26.911  1.00  0.00    -0.374 N 
ATOM      8  H2  UNL     1     -18.330  28.814  26.029  1.00  0.00     0.161 HD
BRANCH   7   9
HETATM    9  C2  UNL     1     -18.142  29.507  28.038  1.00  0.00     0.148 C 
BRANCH   9  10
HETATM   10  C1  UNL     1     -19.569  29.265  28.458  1.00  0.00     0.249 C 
BRANCH  10  11
HETATM   11  N1  UNL     1     -19.723  28.039  29.210  1.00  0.00    -0.078 N 
ATOM     12  H13 UNL     1     -20.676  27.939  29.558  1.00  0.00     0.274 HD
ATOM     13  H12 UNL     1     -19.686  27.225  28.596  1.00  0.00     0.274 HD
ATOM     14  H11 UNL     1     -19.044  27.959  29.967  1.00  0.00     0.274 HD
ENDBRANCH  10  11
ENDBRANCH   9  10
ENDBRANCH   7   9
ENDBRANCH   1   7
BRANCH   4  15
HETATM   15  O1  UNL     1     -15.567  24.502  27.949  1.00  0.00    -0.268 OA
ATOM     16  H1  UNL     1     -15.789  23.719  27.459  1.00  0.00     0.247 HD
ENDBRANCH   4  15
TORSDOF 5
ENDMDL
MODEL 2
REMARK VINA RESULT: -3.689218662      1.239      1.421
REMARK  5 active torsions:
REMARK  status: ('A' for Active; 'I' for Inactive)
REMARK    1  A    between atoms: N1_1  and  C1_5 
REMARK    2  A    between atoms: C1_5  and  C2_6 
REMARK    3  A    between atoms: C2_6  and  N2_7 
REMARK    4  A    between atoms: N2_7  and  C3_9 
REMARK    5  A    between atoms: N3_12  and  O1_13 
ROOT
HETATM    1  C3  UNL     1     -16.894  27.662  27.149  1.00  0.00     0.119 A 
HETATM    2  C4  UNL     1     -15.634  27.727  26.605  1.00  0.00     0.071 A 
HETATM    3  C5  UNL     1     -14.978  26.524  26.824  1.00  0.00     0.147 A 
HETATM    4  N3  UNL     1     -15.866  25.767  27.497  1.00  0.00    -0.173 N 
HETATM    5  N4  UNL     1     -16.996  26.437  27.689  1.00  0.00    -0.260 N 
ATOM      6  H4  UNL     1     -17.818  26.075  28.174  1.00  0.00     0.191 HD
ENDROOT
BRANCH   1   7
HETATM    7  N2  UNL     1     -17.888  28.699  27.136  1.00  0.00    -0.374 N 
ATOM      8  H2  UNL     1     -18.736  28.584  26.580  1.00  0.00     0.161 HD
BRANCH   7   9
HETATM    9  C2  UNL     1     -17.694  29.896  27.901  1.00  0.00     0.148 C 
BRANCH   9  10
HETATM   10  C1  UNL     1     -17.645  29.544  29.365  1.00  0.00     0.249 C 
BRANCH  10  11
HETATM   11  N1  UNL     1     -16.365  29.850  29.964  1.00  0.00    -0.078 N 
ATOM     12  H13 UNL     1     -15.786  29.013  30.043  1.00  0.00     0.274 HD
ATOM     13  H12 UNL     1     -15.781  30.393  29.327  1.00  0.00     0.274 HD
ATOM     14  H11 UNL     1     -16.458  30.318  30.866  1.00  0.00     0.274 HD
ENDBRANCH  10  11
ENDBRANCH   9  10
ENDBRANCH   7   9
ENDBRANCH   1   7
BRANCH   4  15
HETATM   15  O1  UNL     1     -15.594  24.482  27.909  1.00  0.00    -0.268 OA
ATOM     16  H1  UNL     1     -16.147  23.741  27.690  1.00  0.00     0.247 HD
ENDBRANCH   4  15
TORSDOF 5
ENDMDL
MODEL 3
REMARK VINA RESULT: -3.675992164      2.336      3.897
REMARK  5 active torsions:
REMARK  status: ('A' for Active; 'I' for Inactive)
REMARK    1  A    between atoms: N1_1  and  C1_5 
REMARK    2  A    between atoms: C1_5  and  C2_6 
REMARK    3  A    between atoms: C2_6  and  N2_7 
REMARK    4  A    between atoms: N2_7  and  C3_9 
REMARK    5  A    between atoms: N3_12  and  O1_13 
ROOT
HETATM    1  C3  UNL     1     -15.002  27.172  26.838  1.00  0.00     0.119 A 
HETATM    2  C4  UNL     1     -16.144  27.834  27.217  1.00  0.00     0.071 A 
HETATM    3  C5  UNL     1     -17.054  26.920  27.731  1.00  0.00     0.147 A 
HETATM    4  N3  UNL     1     -16.431  25.730  27.644  1.00  0.00    -0.173 N 
HETATM    5  N4  UNL     1     -15.220  25.876  27.118  1.00  0.00    -0.260 N 
ATOM      6  H4  UNL     1     -14.556  25.120  26.951  1.00  0.00     0.191 HD
ENDROOT
BRANCH   1   7
HETATM    7  N2  UNL     1     -13.823  27.757  26.260  1.00  0.00    -0.374 N 
ATOM      8  H2  UNL     1     -13.523  27.477  25.327  1.00  0.00     0.161 HD
BRANCH   7   9
HETATM    9  C2  UNL     1     -13.068  28.733  26.991  1.00  0.00     0.148 C 
BRANCH   9  10
HETATM   10  C1  UNL     1     -12.640  28.140  28.309  1.00  0.00     0.249 C 
BRANCH  10  11
HETATM   11  N1  UNL     1     -13.309  28.756  29.434  1.00  0.00    -0.078 N 
ATOM     12  H13 UNL     1     -12.925  28.421  30.318  1.00  0.00     0.274 HD
ATOM     13  H12 UNL     1     -13.064  29.743  29.512  1.00  0.00     0.274 HD
ATOM     14  H11 UNL     1     -14.321  28.630  29.402  1.00  0.00     0.274 HD
ENDBRANCH  10  11
ENDBRANCH   9  10
ENDBRANCH   7   9
ENDBRANCH   1   7
BRANCH   4  15
HETATM   15  O1  UNL     1     -17.008  24.551  28.057  1.00  0.00    -0.268 OA
ATOM     16  H1  UNL     1     -16.765  24.111  28.864  1.00  0.00     0.247 HD
ENDBRANCH   4  15
TORSDOF 5
ENDMDL
MODEL 4
REMARK VINA RESULT: -3.675524514      1.790      2.082
REMARK  5 active torsions:
REMARK  status: ('A' for Active; 'I' for Inactive)
REMARK    1  A    between atoms: N1_1  and  C1_5 
REMARK    2  A    between atoms: C1_5  and  C2_6 
REMARK    3  A    between atoms: C2_6  and  N2_7 
REMARK    4  A    between atoms: N2_7  and  C3_9 
REMARK    5  A    between atoms: N3_12  and  O1_13 
ROOT
HETATM    1  C3  UNL     1     -16.867  27.201  27.547  1.00  0.00     0.119 A 
HETATM    2  C4  UNL     1     -16.661  25.847  27.655  1.00  0.00     0.071 A 
HETATM    3  C5  UNL     1     -15.545  25.493  26.909  1.00  0.00     0.147 A 
HETATM    4  N3  UNL     1     -15.111  26.649  26.371  1.00  0.00    -0.173 N 
HETATM    5  N4  UNL     1     -15.890  27.658  26.746  1.00  0.00    -0.260 N 
ATOM      6  H4  UNL     1     -15.765  28.631  26.468  1.00  0.00     0.191 HD
ENDROOT
BRANCH   1   7
HETATM    7  N2  UNL     1     -17.917  27.961  28.168  1.00  0.00    -0.374 N 
ATOM      8  H2  UNL     1     -18.619  27.487  28.736  1.00  0.00     0.161 HD
BRANCH   7   9
HETATM    9  C2  UNL     1     -17.983  29.382  27.990  1.00  0.00     0.148 C 
BRANCH   9  10
HETATM   10  C1  UNL     1     -19.281  29.735  27.309  1.00  0.00     0.249 C 
BRANCH  10  11
HETATM   11  N1  UNL     1     -19.296  29.347  25.916  1.00  0.00    -0.078 N 
ATOM     12  H13 UNL     1     -19.793  30.035  25.349  1.00  0.00     0.274 HD
ATOM     13  H12 UNL     1     -18.368  29.433  25.500  1.00  0.00     0.274 HD
ATOM     14  H11 UNL     1     -19.676  28.411  25.776  1.00  0.00     0.274 HD
ENDBRANCH  10  11
ENDBRANCH   9  10
ENDBRANCH   7   9
ENDBRANCH   1   7
BRANCH   4  15
HETATM   15  O1  UNL     1     -14.009  26.726  25.552  1.00  0.00    -0.268 OA
ATOM     16  H1  UNL     1     -13.980  26.335  24.686  1.00  0.00     0.247 HD
ENDBRANCH   4  15
TORSDOF 5
ENDMDL
MODEL 5
REMARK VINA RESULT: -3.674394307      2.292      2.888
REMARK  5 active torsions:
REMARK  status: ('A' for Active; 'I' for Inactive)
REMARK    1  A    between atoms: N1_1  and  C1_5 
REMARK    2  A    between atoms: C1_5  and  C2_6 
REMARK    3  A    between atoms: C2_6  and  N2_7 
REMARK    4  A    between atoms: N2_7  and  C3_9 
REMARK    5  A    between atoms: N3_12  and  O1_13 
ROOT
HETATM    1  C3  UNL     1     -15.900  27.507  26.820  1.00  0.00     0.119 A 
HETATM    2  C4  UNL     1     -14.990  26.479  26.774  1.00  0.00     0.071 A 
HETATM    3  C5  UNL     1     -15.587  25.318  27.246  1.00  0.00     0.147 A 
HETATM    4  N3  UNL     1     -16.844  25.684  27.565  1.00  0.00    -0.173 N 
HETATM    5  N4  UNL     1     -17.030  26.975  27.314  1.00  0.00    -0.260 N 
ATOM      6  H4  UNL     1     -17.899  27.484  27.472  1.00  0.00     0.191 HD
ENDROOT
BRANCH   1   7
HETATM    7  N2  UNL     1     -15.675  28.869  26.420  1.00  0.00    -0.374 N 
ATOM      8  H2  UNL     1     -16.233  29.276  25.669  1.00  0.00     0.161 HD
BRANCH   7   9
HETATM    9  C2  UNL     1     -14.671  29.658  27.071  1.00  0.00     0.148 C 
BRANCH   9  10
HETATM   10  C1  UNL     1     -15.026  29.803  28.529  1.00  0.00     0.249 C 
BRANCH  10  11
HETATM   11  N1  UNL     1     -14.068  29.156  29.398  1.00  0.00    -0.078 N 
ATOM     12  H13 UNL     1     -14.403  28.239  29.695  1.00  0.00     0.274 HD
ATOM     13  H12 UNL     1     -13.238  28.868  28.880  1.00  0.00     0.274 HD
ATOM     14  H11 UNL     1     -13.818  29.733  30.201  1.00  0.00     0.274 HD
ENDBRANCH  10  11
ENDBRANCH   9  10
ENDBRANCH   7   9
ENDBRANCH   1   7
BRANCH   4  15
HETATM   15  O1  UNL     1     -17.771  24.806  28.076  1.00  0.00    -0.268 OA
ATOM     16  H1  UNL     1     -17.539  24.079  28.642  1.00  0.00     0.247 HD
ENDBRANCH   4  15
TORSDOF 5
ENDMDL
