MODEL 1
REMARK VINA RESULT: -3.012194909      0.000      0.000
REMARK  4 active torsions:
REMARK  status: ('A' for Active; 'I' for Inactive)
REMARK    1  A    between atoms: N1_1  and  C1_5 
REMARK    2  A    between atoms: C1_5  and  C2_6 
REMARK    3  A    between atoms: C2_6  and  C3_7 
REMARK    4  A    between atoms: C3_7  and  N2_8 
ROOT
HETATM    1  N2  UNL     1     -15.284  27.764  26.819  1.00  0.00     0.115 N 
HETATM    2  C4  UNL     1     -15.085  26.435  26.310  1.00  0.00     0.302 C 
HETATM    3  C5  UNL     1     -16.181  25.662  27.048  1.00  0.00     0.264 C 
HETATM    4  N3  UNL     1     -16.942  26.646  27.798  1.00  0.00    -0.047 N 
ATOM      5  H31 UNL     1     -16.695  26.738  28.784  1.00  0.00     0.279 HD
ATOM      6  H32 UNL     1     -17.917  26.408  27.978  1.00  0.00     0.279 HD
HETATM    7  C6  UNL     1     -16.719  27.838  26.973  1.00  0.00     0.502 C 
ENDROOT
BRANCH   1   8
HETATM    8  C3  UNL     1     -14.672  27.930  28.103  1.00  0.00     0.276 C 
BRANCH   8   9
HETATM    9  C2  UNL     1     -13.157  28.121  28.047  1.00  0.00     0.057 C 
BRANCH   9  10
HETATM   10  C1  UNL     1     -12.863  29.353  27.216  1.00  0.00     0.231 C 
BRANCH  10  11
HETATM   11  N1  UNL     1     -12.064  29.106  26.069  1.00  0.00    -0.079 N 
ATOM     12  H13 UNL     1     -12.605  29.258  25.218  1.00  0.00     0.274 HD
ATOM     13  H12 UNL     1     -11.359  29.836  25.961  1.00  0.00     0.274 HD
ATOM     14  H11 UNL     1     -11.628  28.184  26.054  1.00  0.00     0.274 HD
ENDBRANCH  10  11
ENDBRANCH   9  10
ENDBRANCH   8   9
ENDBRANCH   1   8
TORSDOF 4
ENDMDL
MODEL 2
REMARK VINA RESULT: -3.008670177      1.751      3.715
REMARK  4 active torsions:
REMARK  status: ('A' for Active; 'I' for Inactive)
REMARK    1  A    between atoms: N1_1  and  C1_5 
REMARK    2  A    between atoms: C1_5  and  C2_6 
REMARK    3  A    between atoms: C2_6  and  C3_7 
REMARK    4  A    between atoms: C3_7  and  N2_8 
ROOT
HETATM    1  N2  UNL     1     -15.326  28.631  27.024  1.00  0.00     0.115 N 
HETATM    2  C4  UNL     1     -16.757  28.680  26.902  1.00  0.00     0.302 C 
HETATM    3  C5  UNL     1     -17.175  28.923  28.355  1.00  0.00     0.264 C 
HETATM    4  N3  UNL     1     -15.947  29.096  29.111  1.00  0.00    -0.047 N 
ATOM      5  H31 UNL     1     -15.615  28.270  29.610  1.00  0.00     0.279 HD
ATOM      6  H32 UNL     1     -16.020  29.676  29.947  1.00  0.00     0.279 HD
HETATM    7  C6  UNL     1     -15.058  29.603  28.060  1.00  0.00     0.502 C 
ENDROOT
BRANCH   1   8
HETATM    8  C3  UNL     1     -14.881  27.345  27.469  1.00  0.00     0.276 C 
BRANCH   8   9
HETATM    9  C2  UNL     1     -15.358  26.188  26.593  1.00  0.00     0.057 C 
BRANCH   9  10
HETATM   10  C1  UNL     1     -16.046  25.170  27.480  1.00  0.00     0.231 C 
BRANCH  10  11
HETATM   11  N1  UNL     1     -17.425  24.988  27.198  1.00  0.00    -0.079 N 
ATOM     12  H13 UNL     1     -17.990  25.635  27.747  1.00  0.00     0.274 HD
ATOM     13  H12 UNL     1     -17.643  25.321  26.258  1.00  0.00     0.274 HD
ATOM     14  H11 UNL     1     -17.755  24.032  27.323  1.00  0.00     0.274 HD
ENDBRANCH  10  11
ENDBRANCH   9  10
ENDBRANCH   8   9
ENDBRANCH   1   8
TORSDOF 4
ENDMDL
MODEL 3
REMARK VINA RESULT: -2.991579230      1.408      1.524
REMARK  4 active torsions:
REMARK  status: ('A' for Active; 'I' for Inactive)
REMARK    1  A    between atoms: N1_1  and  C1_5 
REMARK    2  A    between atoms: C1_5  and  C2_6 
REMARK    3  A    between atoms: C2_6  and  C3_7 
REMARK    4  A    between atoms: C3_7  and  N2_8 
ROOT
HETATM    1  N2  UNL     1     -14.923  27.809  26.712  1.00  0.00     0.115 N 
HETATM    2  C4  UNL     1     -14.844  26.479  26.173  1.00  0.00     0.302 C 
HETATM    3  C5  UNL     1     -15.937  25.765  26.973  1.00  0.00     0.264 C 
HETATM    4  N3  UNL     1     -16.581  26.782  27.785  1.00  0.00    -0.047 N 
ATOM      5  H31 UNL     1     -16.265  26.841  28.753  1.00  0.00     0.279 HD
ATOM      6  H32 UNL     1     -17.556  26.603  28.026  1.00  0.00     0.279 HD
HETATM    7  C6  UNL     1     -16.337  27.971  26.962  1.00  0.00     0.502 C 
ENDROOT
BRANCH   1   8
HETATM    8  C3  UNL     1     -14.218  27.914  27.955  1.00  0.00     0.276 C 
BRANCH   8   9
HETATM    9  C2  UNL     1     -12.760  28.345  27.805  1.00  0.00     0.057 C 
BRANCH   9  10
HETATM   10  C1  UNL     1     -12.112  28.315  29.174  1.00  0.00     0.231 C 
BRANCH  10  11
HETATM   11  N1  UNL     1     -11.034  27.399  29.288  1.00  0.00    -0.079 N 
ATOM     12  H13 UNL     1     -10.369  27.533  28.526  1.00  0.00     0.274 HD
ATOM     13  H12 UNL     1     -10.440  27.642  30.082  1.00  0.00     0.274 HD
ATOM     14  H11 UNL     1     -11.319  26.421  29.343  1.00  0.00     0.274 HD
ENDBRANCH  10  11
ENDBRANCH   9  10
ENDBRANCH   8   9
ENDBRANCH   1   8
TORSDOF 4
ENDMDL
MODEL 4
REMARK VINA RESULT: -2.991496418      1.219      4.092
REMARK  4 active torsions:
REMARK  status: ('A' for Active; 'I' for Inactive)
REMARK    1  A    between atoms: N1_1  and  C1_5 
REMARK    2  A    between atoms: C1_5  and  C2_6 
REMARK    3  A    between atoms: C2_6  and  C3_7 
REMARK    4  A    between atoms: C3_7  and  N2_8 
ROOT
HETATM    1  N2  UNL     1     -14.794  28.323  27.529  1.00  0.00     0.115 N 
HETATM    2  C4  UNL     1     -13.504  27.931  28.026  1.00  0.00     0.302 C 
HETATM    3  C5  UNL     1     -12.573  28.681  27.070  1.00  0.00     0.264 C 
HETATM    4  N3  UNL     1     -13.425  29.493  26.220  1.00  0.00    -0.047 N 
ATOM      5  H31 UNL     1     -13.637  29.102  25.302  1.00  0.00     0.279 HD
ATOM      6  H32 UNL     1     -13.001  30.345  25.852  1.00  0.00     0.279 HD
HETATM    7  C6  UNL     1     -14.576  29.689  27.109  1.00  0.00     0.502 C 
ENDROOT
BRANCH   1   8
HETATM    8  C3  UNL     1     -15.176  27.544  26.389  1.00  0.00     0.276 C 
BRANCH   8   9
HETATM    9  C2  UNL     1     -15.349  26.056  26.687  1.00  0.00     0.057 C 
BRANCH   9  10
HETATM   10  C1  UNL     1     -16.607  25.879  27.513  1.00  0.00     0.231 C 
BRANCH  10  11
HETATM   11  N1  UNL     1     -17.122  24.556  27.513  1.00  0.00    -0.079 N 
ATOM     12  H13 UNL     1     -18.118  24.561  27.293  1.00  0.00     0.274 HD
ATOM     13  H12 UNL     1     -16.768  24.035  26.710  1.00  0.00     0.274 HD
ATOM     14  H11 UNL     1     -16.951  24.040  28.377  1.00  0.00     0.274 HD
ENDBRANCH  10  11
ENDBRANCH   9  10
ENDBRANCH   8   9
ENDBRANCH   1   8
TORSDOF 4
ENDMDL
MODEL 5
REMARK VINA RESULT: -2.989955545      1.477      4.031
REMARK  4 active torsions:
REMARK  status: ('A' for Active; 'I' for Inactive)
REMARK    1  A    between atoms: N1_1  and  C1_5 
REMARK    2  A    between atoms: C1_5  and  C2_6 
REMARK    3  A    between atoms: C2_6  and  C3_7 
REMARK    4  A    between atoms: C3_7  and  N2_8 
ROOT
HETATM    1  N2  UNL     1     -13.981  28.275  26.758  1.00  0.00     0.115 N 
HETATM    2  C4  UNL     1     -14.087  29.708  26.736  1.00  0.00     0.302 C 
HETATM    3  C5  UNL     1     -14.390  30.010  28.207  1.00  0.00     0.264 C 
HETATM    4  N3  UNL     1     -14.311  28.742  28.910  1.00  0.00    -0.047 N 
ATOM      5  H31 UNL     1     -15.202  28.277  29.085  1.00  0.00     0.279 HD
ATOM      6  H32 UNL     1     -14.051  28.797  29.894  1.00  0.00     0.279 HD
HETATM    7  C6  UNL     1     -13.375  28.017  28.044  1.00  0.00     0.502 C 
ENDROOT
BRANCH   1   8
HETATM    8  C3  UNL     1     -15.271  27.654  26.721  1.00  0.00     0.276 C 
BRANCH   8   9
HETATM    9  C2  UNL     1     -15.228  26.157  26.420  1.00  0.00     0.057 C 
BRANCH   9  10
HETATM   10  C1  UNL     1     -16.011  25.432  27.496  1.00  0.00     0.231 C 
BRANCH  10  11
HETATM   11  N1  UNL     1     -17.258  24.913  27.059  1.00  0.00    -0.079 N 
ATOM     12  H13 UNL     1     -17.183  24.562  26.104  1.00  0.00     0.274 HD
ATOM     13  H12 UNL     1     -17.473  24.043  27.547  1.00  0.00     0.274 HD
ATOM     14  H11 UNL     1     -18.035  25.568  27.137  1.00  0.00     0.274 HD
ENDBRANCH  10  11
ENDBRANCH   9  10
ENDBRANCH   8   9
ENDBRANCH   1   8
TORSDOF 4
ENDMDL
