MODEL 1
REMARK VINA RESULT: -10.445633128      0.000      0.000
REMARK  3 active torsions:
REMARK  status: ('A' for Active; 'I' for Inactive)
REMARK    1  A    between atoms: C1_6  and  C2_7 
REMARK    2  A    between atoms: C6_11  and  O3_12 
REMARK    3  A    between atoms: N4_32  and  C21_34 
ROOT
HETATM    1  O1  UNL     1      35.717 -13.076  40.593  1.00  0.00    -0.200 OA
HETATM    2  S1  UNL     1      36.417 -12.980  41.834  1.00  0.00     0.265 S 
HETATM    3  O2  UNL     1      35.834 -14.015  42.794  1.00  0.00    -0.200 OA
HETATM    4  N1  UNL     1      35.934 -11.385  42.728  1.00  0.00    -0.279 N 
ATOM      5  H1  UNL     1      35.211 -11.452  43.445  1.00  0.00     0.179 HD
HETATM    6  C1  UNL     1      36.481 -10.130  42.491  1.00  0.00     0.068 C 
HETATM    7  C8  UNL     1      37.492  -9.218  43.236  1.00  0.00     0.049 A 
HETATM    8  C9  UNL     1      38.779  -9.149  43.766  1.00  0.00     0.119 A 
HETATM    9  N2  UNL     1      39.014  -7.919  44.247  1.00  0.00    -0.341 N 
ATOM     10  H2  UNL     1      39.889  -7.626  44.681  1.00  0.00     0.167 HD
HETATM   11  C10 UNL     1      37.963  -7.137  44.086  1.00  0.00     0.045 A 
HETATM   12  C11 UNL     1      37.770  -5.799  44.453  1.00  0.00     0.030 A 
HETATM   13  C12 UNL     1      36.590  -5.182  44.204  1.00  0.00     0.002 A 
HETATM   14  C13 UNL     1      35.612  -5.892  43.595  1.00  0.00     0.001 A 
HETATM   15  C14 UNL     1      35.833  -7.199  43.249  1.00  0.00     0.015 A 
HETATM   16  C15 UNL     1      37.041  -7.873  43.488  1.00  0.00     0.007 A 
HETATM   17  N3  UNL     1      39.927 -10.112  44.025  1.00  0.00    -0.342 N 
ATOM     18  H3  UNL     1      40.859  -9.776  44.266  1.00  0.00     0.167 HD
HETATM   19  C16 UNL     1      39.653 -11.477  43.920  1.00  0.00     0.033 C 
HETATM   20  C17 UNL     1      38.332 -11.605  43.618  1.00  0.00     0.031 C 
HETATM   21  C18 UNL     1      38.362 -11.775  42.135  1.00  0.00     0.030 C 
HETATM   22  C19 UNL     1      38.103 -13.101  41.999  1.00  0.00     0.106 C 
HETATM   23  C20 UNL     1      39.073 -14.045  42.275  1.00  0.00     0.056 C 
HETATM   24  N4  UNL     1      38.743 -15.078  41.829  1.00  0.00    -0.355 N 
ATOM     25  H4  UNL     1      37.839 -14.903  41.388  1.00  0.00     0.166 HD
HETATM   26  C27 UNL     1      40.266 -13.778  43.112  1.00  0.00     0.033 C 
HETATM   27  C28 UNL     1      40.519 -12.554  43.868  1.00  0.00     0.032 C 
ENDROOT
BRANCH   6  28
HETATM   28  C2  UNL     1      36.136  -9.515  41.142  1.00  0.00    -0.005 A 
HETATM   29  C3  UNL     1      35.094  -8.643  40.950  1.00  0.00     0.014 A 
HETATM   30  C4  UNL     1      34.860  -8.099  39.707  1.00  0.00     0.004 A 
HETATM   31  C5  UNL     1      35.667  -8.414  38.612  1.00  0.00     0.036 A 
HETATM   32  C6  UNL     1      36.709  -9.284  38.800  1.00  0.00     0.066 A 
HETATM   33  C7  UNL     1      36.941  -9.825  40.041  1.00  0.00     0.050 A 
BRANCH  32  34
HETATM   34  O3  UNL     1      37.530  -9.622  37.751  1.00  0.00    -0.361 OA
ATOM     35  H3  UNL     1      37.629  -9.035  37.010  1.00  0.00     0.217 HD
ENDBRANCH  32  34
ENDBRANCH   6  28
BRANCH  24  36
HETATM   36  C21 UNL     1      38.989 -16.375  41.624  1.00  0.00     0.032 A 
HETATM   37  C22 UNL     1      38.014 -17.283  41.234  1.00  0.00     0.029 A 
HETATM   38  C23 UNL     1      38.314 -18.603  41.029  1.00  0.00     0.002 A 
HETATM   39  C24 UNL     1      39.579 -19.119  41.191  1.00  0.00     0.000 A 
HETATM   40  C25 UNL     1      40.556 -18.234  41.577  1.00  0.00     0.002 A 
HETATM   41  C26 UNL     1      40.282 -16.909  41.788  1.00  0.00     0.029 A 
ENDBRANCH  24  36
TORSDOF 3
ENDMDL
MODEL 2
REMARK VINA RESULT: -10.388548155      6.138     10.182
REMARK  3 active torsions:
REMARK  status: ('A' for Active; 'I' for Inactive)
REMARK    1  A    between atoms: C1_6  and  C2_7 
REMARK    2  A    between atoms: C6_11  and  O3_12 
REMARK    3  A    between atoms: N4_32  and  C21_34 
ROOT
HETATM    1  O1  UNL     1      46.159 -11.487  46.354  1.00  0.00    -0.200 OA
HETATM    2  S1  UNL     1      44.828 -11.083  46.672  1.00  0.00     0.265 S 
HETATM    3  O2  UNL     1      44.653 -11.157  48.187  1.00  0.00    -0.200 OA
HETATM    4  N1  UNL     1      43.599 -12.416  46.130  1.00  0.00    -0.279 N 
ATOM      5  H1  UNL     1      43.284 -13.078  46.840  1.00  0.00     0.179 HD
HETATM    6  C1  UNL     1      43.090 -12.569  44.846  1.00  0.00     0.068 C 
HETATM    7  C8  UNL     1      41.729 -12.263  44.165  1.00  0.00     0.049 A 
HETATM    8  C9  UNL     1      40.794 -11.265  43.899  1.00  0.00     0.119 A 
HETATM    9  N2  UNL     1      39.804 -11.753  43.136  1.00  0.00    -0.341 N 
ATOM     10  H2  UNL     1      39.006 -11.208  42.809  1.00  0.00     0.167 HD
HETATM   11  C10 UNL     1      39.997 -13.029  42.865  1.00  0.00     0.045 A 
HETATM   12  C11 UNL     1      39.213 -13.923  42.125  1.00  0.00     0.030 A 
HETATM   13  C12 UNL     1      39.594 -15.215  41.982  1.00  0.00     0.002 A 
HETATM   14  C13 UNL     1      40.746 -15.612  42.571  1.00  0.00     0.001 A 
HETATM   15  C14 UNL     1      41.490 -14.713  43.287  1.00  0.00     0.015 A 
HETATM   16  C15 UNL     1      41.131 -13.367  43.458  1.00  0.00     0.007 A 
HETATM   17  N3  UNL     1      40.557  -9.823  44.321  1.00  0.00    -0.342 N 
ATOM     18  H3  UNL     1      39.883  -9.231  43.836  1.00  0.00     0.167 HD
HETATM   19  C16 UNL     1      41.301  -9.342  45.401  1.00  0.00     0.033 C 
HETATM   20  C17 UNL     1      42.081 -10.365  45.845  1.00  0.00     0.031 C 
HETATM   21  C18 UNL     1      43.385 -10.084  45.174  1.00  0.00     0.030 C 
HETATM   22  C19 UNL     1      44.132  -9.606  46.201  1.00  0.00     0.106 C 
HETATM   23  C20 UNL     1      43.937  -8.328  46.687  1.00  0.00     0.056 C 
HETATM   24  N4  UNL     1      44.852  -8.027  47.356  1.00  0.00    -0.355 N 
ATOM     25  H4  UNL     1      45.476  -8.834  47.338  1.00  0.00     0.166 HD
HETATM   26  C27 UNL     1      42.698  -7.547  46.471  1.00  0.00     0.033 C 
HETATM   27  C28 UNL     1      41.473  -8.046  45.852  1.00  0.00     0.032 C 
ENDROOT
BRANCH   6  28
HETATM   28  C2  UNL     1      44.095 -13.025  43.798  1.00  0.00    -0.005 A 
HETATM   29  C3  UNL     1      44.353 -12.331  42.643  1.00  0.00     0.014 A 
HETATM   30  C4  UNL     1      45.300 -12.786  41.752  1.00  0.00     0.004 A 
HETATM   31  C5  UNL     1      46.020 -13.958  41.993  1.00  0.00     0.036 A 
HETATM   32  C6  UNL     1      45.764 -14.654  43.146  1.00  0.00     0.066 A 
HETATM   33  C7  UNL     1      44.820 -14.198  44.032  1.00  0.00     0.050 A 
BRANCH  32  34
HETATM   34  O3  UNL     1      46.449 -15.812  43.424  1.00  0.00    -0.361 OA
ATOM     35  H3  UNL     1      47.145 -16.109  42.849  1.00  0.00     0.217 HD
ENDBRANCH  32  34
ENDBRANCH   6  28
BRANCH  24  36
HETATM   36  C21 UNL     1      45.465  -7.127  48.131  1.00  0.00     0.032 A 
HETATM   37  C22 UNL     1      45.545  -5.778  47.815  1.00  0.00     0.029 A 
HETATM   38  C23 UNL     1      46.179  -4.891  48.644  1.00  0.00     0.002 A 
HETATM   39  C24 UNL     1      46.771  -5.263  49.828  1.00  0.00     0.000 A 
HETATM   40  C25 UNL     1      46.701  -6.594  50.156  1.00  0.00     0.002 A 
HETATM   41  C26 UNL     1      46.073  -7.502  49.345  1.00  0.00     0.029 A 
ENDBRANCH  24  36
TORSDOF 3
ENDMDL
MODEL 3
REMARK VINA RESULT: -10.306516055      4.386      6.299
REMARK  3 active torsions:
REMARK  status: ('A' for Active; 'I' for Inactive)
REMARK    1  A    between atoms: C1_6  and  C2_7 
REMARK    2  A    between atoms: C6_11  and  O3_12 
REMARK    3  A    between atoms: N4_32  and  C21_34 
ROOT
HETATM    1  O1  UNL     1      44.554 -11.712  44.105  1.00  0.00    -0.200 OA
HETATM    2  S1  UNL     1      43.692 -12.125  43.044  1.00  0.00     0.265 S 
HETATM    3  O2  UNL     1      44.455 -11.992  41.727  1.00  0.00    -0.200 OA
HETATM    4  N1  UNL     1      42.334 -10.836  42.774  1.00  0.00    -0.279 N 
ATOM      5  H1  UNL     1      42.481 -10.151  42.032  1.00  0.00     0.179 HD
HETATM    6  C1  UNL     1      41.154 -10.744  43.501  1.00  0.00     0.068 C 
HETATM    7  C8  UNL     1      39.669 -11.101  43.225  1.00  0.00     0.049 A 
HETATM    8  C9  UNL     1      38.797 -12.124  42.856  1.00  0.00     0.119 A 
HETATM    9  N2  UNL     1      37.531 -11.685  42.886  1.00  0.00    -0.341 N 
ATOM     10  H2  UNL     1      36.717 -12.256  42.658  1.00  0.00     0.167 HD
HETATM   11  C10 UNL     1      37.475 -10.417  43.248  1.00  0.00     0.045 A 
HETATM   12  C11 UNL     1      36.371  -9.568  43.392  1.00  0.00     0.030 A 
HETATM   13  C12 UNL     1      36.542  -8.276  43.764  1.00  0.00     0.002 A 
HETATM   14  C13 UNL     1      37.801  -7.837  43.991  1.00  0.00     0.001 A 
HETATM   15  C14 UNL     1      38.860  -8.693  43.842  1.00  0.00     0.015 A 
HETATM   16  C15 UNL     1      38.725 -10.037  43.459  1.00  0.00     0.007 A 
HETATM   17  N3  UNL     1      38.915 -13.551  42.343  1.00  0.00    -0.342 N 
ATOM     18  H3  UNL     1      38.108 -14.174  42.314  1.00  0.00     0.167 HD
HETATM   19  C16 UNL     1      40.174 -13.975  41.912  1.00  0.00     0.033 C 
HETATM   20  C17 UNL     1      41.026 -12.922  42.046  1.00  0.00     0.031 C 
HETATM   21  C18 UNL     1      41.679 -13.209  43.358  1.00  0.00     0.030 C 
HETATM   22  C19 UNL     1      42.910 -13.632  42.971  1.00  0.00     0.106 C 
HETATM   23  C20 UNL     1      43.092 -14.892  42.436  1.00  0.00     0.056 C 
HETATM   24  N4  UNL     1      44.237 -15.150  42.441  1.00  0.00    -0.355 N 
ATOM     25  H4  UNL     1      44.694 -14.334  42.847  1.00  0.00     0.166 HD
HETATM   26  C27 UNL     1      42.000 -15.702  41.850  1.00  0.00     0.033 C 
HETATM   27  C28 UNL     1      40.630 -15.248  41.624  1.00  0.00     0.032 C 
ENDROOT
BRANCH   6  28
HETATM   28  C2  UNL     1      41.315 -10.315  44.952  1.00  0.00    -0.005 A 
HETATM   29  C3  UNL     1      40.911 -11.079  46.019  1.00  0.00     0.014 A 
HETATM   30  C4  UNL     1      41.118 -10.642  47.308  1.00  0.00     0.004 A 
HETATM   31  C5  UNL     1      41.738  -9.419  47.570  1.00  0.00     0.036 A 
HETATM   32  C6  UNL     1      42.143  -8.654  46.507  1.00  0.00     0.066 A 
HETATM   33  C7  UNL     1      41.936  -9.092  45.223  1.00  0.00     0.050 A 
BRANCH  32  34
HETATM   34  O3  UNL     1      42.758  -7.443  46.718  1.00  0.00    -0.361 OA
ATOM     35  H3  UNL     1      42.804  -7.073  47.592  1.00  0.00     0.217 HD
ENDBRANCH  32  34
ENDBRANCH   6  28
BRANCH  24  36
HETATM   36  C21 UNL     1      45.225 -16.007  42.166  1.00  0.00     0.032 A 
HETATM   37  C22 UNL     1      45.028 -17.372  42.008  1.00  0.00     0.029 A 
HETATM   38  C23 UNL     1      46.070 -18.211  41.721  1.00  0.00     0.002 A 
HETATM   39  C24 UNL     1      47.366 -17.774  41.568  1.00  0.00     0.000 A 
HETATM   40  C25 UNL     1      47.578 -16.426  41.721  1.00  0.00     0.002 A 
HETATM   41  C26 UNL     1      46.553 -15.564  42.009  1.00  0.00     0.029 A 
ENDBRANCH  24  36
TORSDOF 3
ENDMDL
MODEL 4
REMARK VINA RESULT: -10.198987785      4.473      7.802
REMARK  3 active torsions:
REMARK  status: ('A' for Active; 'I' for Inactive)
REMARK    1  A    between atoms: C1_6  and  C2_7 
REMARK    2  A    between atoms: C6_11  and  O3_12 
REMARK    3  A    between atoms: N4_32  and  C21_34 
ROOT
HETATM    1  O1  UNL     1      40.806 -13.531  43.894  1.00  0.00    -0.200 OA
HETATM    2  S1  UNL     1      40.851 -12.156  43.517  1.00  0.00     0.265 S 
HETATM    3  O2  UNL     1      41.023 -12.080  42.001  1.00  0.00    -0.200 OA
HETATM    4  N1  UNL     1      42.485 -11.384  44.076  1.00  0.00    -0.279 N 
ATOM      5  H1  UNL     1      43.234 -11.324  43.386  1.00  0.00     0.179 HD
HETATM    6  C1  UNL     1      42.750 -10.892  45.348  1.00  0.00     0.068 C 
HETATM    7  C8  UNL     1      42.866  -9.475  45.971  1.00  0.00     0.049 A 
HETATM    8  C9  UNL     1      42.205  -8.263  46.163  1.00  0.00     0.119 A 
HETATM    9  N2  UNL     1      42.955  -7.443  46.914  1.00  0.00    -0.341 N 
ATOM     10  H2  UNL     1      42.679  -6.501  47.191  1.00  0.00     0.167 HD
HETATM   11  C10 UNL     1      44.097  -8.014  47.247  1.00  0.00     0.045 A 
HETATM   12  C11 UNL     1      45.169  -7.517  47.999  1.00  0.00     0.030 A 
HETATM   13  C12 UNL     1      46.270  -8.277  48.211  1.00  0.00     0.002 A 
HETATM   14  C13 UNL     1      46.303  -9.519  47.678  1.00  0.00     0.001 A 
HETATM   15  C14 UNL     1      45.238  -9.976  46.947  1.00  0.00     0.015 A 
HETATM   16  C15 UNL     1      44.080  -9.221  46.706  1.00  0.00     0.007 A 
HETATM   17  N3  UNL     1      40.925  -7.606  45.671  1.00  0.00    -0.342 N 
ATOM     18  H3  UNL     1      40.560  -6.760  46.108  1.00  0.00     0.167 HD
HETATM   19  C16 UNL     1      40.269  -8.209  44.596  1.00  0.00     0.033 C 
HETATM   20  C17 UNL     1      41.007  -9.289  44.222  1.00  0.00     0.031 C 
HETATM   21  C18 UNL     1      40.310 -10.408  44.922  1.00  0.00     0.030 C 
HETATM   22  C19 UNL     1      39.653 -11.013  43.899  1.00  0.00     0.106 C 
HETATM   23  C20 UNL     1      38.517 -10.449  43.353  1.00  0.00     0.056 C 
HETATM   24  N4  UNL     1      37.964 -11.253  42.701  1.00  0.00    -0.355 N 
ATOM     25  H4  UNL     1      38.534 -12.096  42.774  1.00  0.00     0.166 HD
HETATM   26  C27 UNL     1      38.159  -9.019  43.494  1.00  0.00     0.033 C 
HETATM   27  C28 UNL     1      38.999  -7.987  44.094  1.00  0.00     0.032 C 
ENDROOT
BRANCH   6  28
HETATM   28  C2  UNL     1      42.834 -11.941  46.447  1.00  0.00    -0.005 A 
HETATM   29  C3  UNL     1      43.668 -13.029  46.396  1.00  0.00     0.014 A 
HETATM   30  C4  UNL     1      43.715 -13.923  47.443  1.00  0.00     0.004 A 
HETATM   31  C5  UNL     1      42.923 -13.752  48.579  1.00  0.00     0.036 A 
HETATM   32  C6  UNL     1      42.089 -12.666  48.634  1.00  0.00     0.066 A 
HETATM   33  C7  UNL     1      42.043 -11.777  47.590  1.00  0.00     0.050 A 
BRANCH  32  34
HETATM   34  O3  UNL     1      41.291 -12.458  49.734  1.00  0.00    -0.361 OA
ATOM     35  H3  UNL     1      40.753 -13.163  50.078  1.00  0.00     0.217 HD
ENDBRANCH  32  34
ENDBRANCH   6  28
BRANCH  24  36
HETATM   36  C21 UNL     1      36.943 -11.587  41.907  1.00  0.00     0.032 A 
HETATM   37  C22 UNL     1      36.442 -10.753  40.918  1.00  0.00     0.029 A 
HETATM   38  C23 UNL     1      35.396 -11.141  40.124  1.00  0.00     0.002 A 
HETATM   39  C24 UNL     1      34.776 -12.362  40.244  1.00  0.00     0.000 A 
HETATM   40  C25 UNL     1      35.259 -13.201  41.218  1.00  0.00     0.002 A 
HETATM   41  C26 UNL     1      36.304 -12.837  42.025  1.00  0.00     0.029 A 
ENDBRANCH  24  36
TORSDOF 3
ENDMDL
MODEL 5
REMARK VINA RESULT: -10.146436075      4.360      8.037
REMARK  3 active torsions:
REMARK  status: ('A' for Active; 'I' for Inactive)
REMARK    1  A    between atoms: C1_6  and  C2_7 
REMARK    2  A    between atoms: C6_11  and  O3_12 
REMARK    3  A    between atoms: N4_32  and  C21_34 
ROOT
HETATM    1  O1  UNL     1      42.941 -12.524  45.320  1.00  0.00    -0.200 OA
HETATM    2  S1  UNL     1      41.913 -11.584  45.632  1.00  0.00     0.265 S 
HETATM    3  O2  UNL     1      41.736 -11.552  47.149  1.00  0.00    -0.200 OA
HETATM    4  N1  UNL     1      40.228 -12.271  45.115  1.00  0.00    -0.279 N 
ATOM      5  H1  UNL     1      39.666 -12.724  45.837  1.00  0.00     0.179 HD
HETATM    6  C1  UNL     1      39.692 -12.212  43.835  1.00  0.00     0.068 C 
HETATM    7  C8  UNL     1      38.588 -11.364  43.149  1.00  0.00     0.049 A 
HETATM    8  C9  UNL     1      38.167 -10.066  42.866  1.00  0.00     0.119 A 
HETATM    9  N2  UNL     1      37.057 -10.095  42.113  1.00  0.00    -0.341 N 
ATOM     10  H2  UNL     1      36.566  -9.266  41.777  1.00  0.00     0.167 HD
HETATM   11  C10 UNL     1      36.684 -11.335  41.864  1.00  0.00     0.045 A 
HETATM   12  C11 UNL     1      35.586 -11.819  41.141  1.00  0.00     0.030 A 
HETATM   13  C12 UNL     1      35.376 -13.152  41.021  1.00  0.00     0.002 A 
HETATM   14  C13 UNL     1      36.252 -13.994  41.615  1.00  0.00     0.001 A 
HETATM   15  C14 UNL     1      37.316 -13.489  42.315  1.00  0.00     0.015 A 
HETATM   16  C15 UNL     1      37.568 -12.117  42.462  1.00  0.00     0.007 A 
HETATM   17  N3  UNL     1      38.574  -8.655  43.263  1.00  0.00    -0.342 N 
ATOM     18  H3  UNL     1      38.213  -7.839  42.768  1.00  0.00     0.167 HD
HETATM   19  C16 UNL     1      39.460  -8.522  44.333  1.00  0.00     0.033 C 
HETATM   20  C17 UNL     1      39.732  -9.773  44.795  1.00  0.00     0.031 C 
HETATM   21  C18 UNL     1      41.024 -10.087  44.118  1.00  0.00     0.030 C 
HETATM   22  C19 UNL     1      41.913  -9.959  45.136  1.00  0.00     0.106 C 
HETATM   23  C20 UNL     1      42.287  -8.713  45.599  1.00  0.00     0.056 C 
HETATM   24  N4  UNL     1      43.249  -8.822  46.262  1.00  0.00    -0.355 N 
ATOM     25  H4  UNL     1      43.467  -9.819  46.258  1.00  0.00     0.166 HD
HETATM   26  C27 UNL     1      41.500  -7.480  45.370  1.00  0.00     0.033 C 
HETATM   27  C28 UNL     1      40.174  -7.417  44.761  1.00  0.00     0.032 C 
ENDROOT
BRANCH   6  28
HETATM   28  C2  UNL     1      40.396 -13.070  42.794  1.00  0.00    -0.005 A 
HETATM   29  C3  UNL     1      41.190 -12.558  41.799  1.00  0.00     0.014 A 
HETATM   30  C4  UNL     1      41.823 -13.397  40.909  1.00  0.00     0.004 A 
HETATM   31  C5  UNL     1      41.678 -14.783  40.989  1.00  0.00     0.036 A 
HETATM   32  C6  UNL     1      40.886 -15.299  41.982  1.00  0.00     0.066 A 
HETATM   33  C7  UNL     1      40.257 -14.460  42.868  1.00  0.00     0.050 A 
BRANCH  32  34
HETATM   34  O3  UNL     1      40.716 -16.658  42.099  1.00  0.00    -0.361 OA
ATOM     35  H3  UNL     1      40.651 -17.203  41.323  1.00  0.00     0.217 HD
ENDBRANCH  32  34
ENDBRANCH   6  28
BRANCH  24  36
HETATM   36  C21 UNL     1      44.194  -8.259  47.021  1.00  0.00     0.032 A 
HETATM   37  C22 UNL     1      44.720  -8.863  48.154  1.00  0.00     0.029 A 
HETATM   38  C23 UNL     1      45.693  -8.251  48.898  1.00  0.00     0.002 A 
HETATM   39  C24 UNL     1      46.213  -7.017  48.584  1.00  0.00     0.000 A 
HETATM   40  C25 UNL     1      45.703  -6.405  47.465  1.00  0.00     0.002 A 
HETATM   41  C26 UNL     1      44.730  -6.996  46.703  1.00  0.00     0.029 A 
ENDBRANCH  24  36
TORSDOF 3
ENDMDL
