MODEL 1
REMARK VINA RESULT: -9.488877411      0.000      0.000
REMARK  3 active torsions:
REMARK  status: ('A' for Active; 'I' for Inactive)
REMARK       I    between atoms: N2_8  and  C7_9 
REMARK       I    between atoms: C7_9  and  N3_11 
REMARK    1  A    between atoms: N3_11  and  C8_13 
REMARK    2  A    between atoms: C8_13  and  C9_14 
REMARK    3  A    between atoms: C24_31  and  O2_32 
ROOT
HETATM    1  N1  UNL     1      42.846 -15.936  46.369  1.00  0.00    -0.102 NA
HETATM    2  C1  UNL     1      43.388 -14.838  45.635  1.00  0.00     0.048 A 
HETATM    3  C2  UNL     1      44.620 -14.891  45.059  1.00  0.00     0.029 A 
HETATM    4  C3  UNL     1      45.056 -13.809  44.391  1.00  0.00     0.034 A 
HETATM    5  C4  UNL     1      44.381 -12.555  44.196  1.00  0.00     0.061 A 
HETATM    6  C5  UNL     1      43.124 -12.539  44.798  1.00  0.00     0.073 A 
HETATM    7  C6  UNL     1      42.664 -13.692  45.503  1.00  0.00     0.059 A 
HETATM    8  N2  UNL     1      42.105 -11.533  44.814  1.00  0.00    -0.262 N 
HETATM    9  C7  UNL     1      40.854 -11.961  44.235  1.00  0.00     0.328 C 
HETATM   10  O1  UNL     1      40.783 -13.133  43.750  1.00  0.00    -0.246 OA
HETATM   11  N3  UNL     1      39.678 -11.178  44.163  1.00  0.00    -0.338 N 
ATOM     12  H3  UNL     1      39.679 -10.232  44.545  1.00  0.00     0.164 HD
HETATM   13  C15 UNL     1      42.117 -10.173  45.345  1.00  0.00     0.054 A 
HETATM   14  C16 UNL     1      41.745  -9.175  44.459  1.00  0.00     0.031 A 
HETATM   15  C17 UNL     1      41.579  -7.848  44.780  1.00  0.00     0.002 A 
HETATM   16  C18 UNL     1      41.797  -7.487  46.085  1.00  0.00     0.001 A 
HETATM   17  C19 UNL     1      42.167  -8.460  46.977  1.00  0.00     0.014 A 
HETATM   18  C20 UNL     1      42.346  -9.817  46.666  1.00  0.00    -0.009 A 
HETATM   19  C21 UNL     1      42.781 -10.659  47.767  1.00  0.00     0.011 C 
HETATM   20  C22 UNL     1      43.922 -11.185  48.148  1.00  0.00    -0.007 C 
HETATM   21  C23 UNL     1      45.248 -11.050  47.506  1.00  0.00     0.149 C 
HETATM   22  N4  UNL     1      45.458  -9.773  46.930  1.00  0.00    -0.367 N 
ATOM     23  H4  UNL     1      45.387  -9.055  47.652  1.00  0.00     0.161 HD
HETATM   24  C24 UNL     1      45.723  -9.191  45.729  1.00  0.00     0.150 C 
HETATM   25  C25 UNL     1      46.255  -9.510  44.394  1.00  0.00     0.059 A 
HETATM   26  C26 UNL     1      47.282  -8.568  44.058  1.00  0.00     0.021 A 
HETATM   27  C27 UNL     1      47.967  -8.597  42.875  1.00  0.00     0.018 A 
HETATM   28  C28 UNL     1      47.637  -9.577  41.991  1.00  0.00     0.090 A 
HETATM   29  N5  UNL     1      46.722 -10.398  42.315  1.00  0.00    -0.351 N 
ATOM     30  H5  UNL     1      46.520 -11.109  41.611  1.00  0.00     0.166 HD
HETATM   31  C29 UNL     1      45.933 -10.491  43.497  1.00  0.00     0.120 A 
HETATM   32  N6  UNL     1      45.081 -11.610  43.431  1.00  0.00    -0.340 N 
ATOM     33  H6  UNL     1      44.906 -11.812  42.447  1.00  0.00     0.167 HD
ENDROOT
BRANCH  11  34
HETATM   34  C8  UNL     1      38.456 -11.707  43.546  1.00  0.00     0.162 C 
BRANCH  34  35
HETATM   35  C9  UNL     1      37.448 -10.706  43.241  1.00  0.00    -0.040 A 
HETATM   36  C10 UNL     1      36.223 -11.037  42.730  1.00  0.00     0.009 A 
HETATM   37  C11 UNL     1      35.250 -10.101  42.435  1.00  0.00     0.001 A 
HETATM   38  C12 UNL     1      35.529  -8.778  42.669  1.00  0.00     0.000 A 
HETATM   39  C13 UNL     1      36.768  -8.414  43.188  1.00  0.00     0.001 A 
HETATM   40  C14 UNL     1      37.724  -9.365  43.474  1.00  0.00     0.009 A 
ENDBRANCH  34  35
ENDBRANCH  11  34
BRANCH  24  41
HETATM   41  O2  UNL     1      45.403  -7.881  45.736  1.00  0.00    -0.346 OA
ATOM     42  H2  UNL     1      45.814  -7.420  45.014  1.00  0.00     0.219 HD
ENDBRANCH  24  41
TORSDOF 3
ENDMDL
MODEL 2
REMARK VINA RESULT: -9.471969106      2.075      3.760
REMARK  3 active torsions:
REMARK  status: ('A' for Active; 'I' for Inactive)
REMARK       I    between atoms: N2_8  and  C7_9 
REMARK       I    between atoms: C7_9  and  N3_11 
REMARK    1  A    between atoms: N3_11  and  C8_13 
REMARK    2  A    between atoms: C8_13  and  C9_14 
REMARK    3  A    between atoms: C24_31  and  O2_32 
ROOT
HETATM    1  N1  UNL     1      45.872 -12.697  41.811  1.00  0.00    -0.102 NA
HETATM    2  C1  UNL     1      45.607 -11.635  42.728  1.00  0.00     0.048 A 
HETATM    3  C2  UNL     1      46.408 -10.538  42.817  1.00  0.00     0.029 A 
HETATM    4  C3  UNL     1      46.089  -9.588  43.712  1.00  0.00     0.034 A 
HETATM    5  C4  UNL     1      44.981  -9.568  44.627  1.00  0.00     0.061 A 
HETATM    6  C5  UNL     1      44.182 -10.705  44.505  1.00  0.00     0.073 A 
HETATM    7  C6  UNL     1      44.525 -11.709  43.551  1.00  0.00     0.059 A 
HETATM    8  N2  UNL     1      42.969 -11.073  45.171  1.00  0.00    -0.262 N 
HETATM    9  C7  UNL     1      41.850 -11.264  44.280  1.00  0.00     0.328 C 
HETATM   10  O1  UNL     1      42.026 -11.061  43.037  1.00  0.00    -0.246 OA
HETATM   11  N3  UNL     1      40.552 -11.669  44.673  1.00  0.00    -0.338 N 
ATOM     12  H3  UNL     1      40.360 -11.853  45.658  1.00  0.00     0.164 HD
HETATM   13  C15 UNL     1      42.693 -11.317  46.584  1.00  0.00     0.054 A 
HETATM   14  C16 UNL     1      41.644 -10.594  47.128  1.00  0.00     0.031 A 
HETATM   15  C17 UNL     1      41.145 -10.752  48.399  1.00  0.00     0.002 A 
HETATM   16  C18 UNL     1      41.734 -11.705  49.190  1.00  0.00     0.001 A 
HETATM   17  C19 UNL     1      42.774 -12.430  48.671  1.00  0.00     0.014 A 
HETATM   18  C20 UNL     1      43.300 -12.279  47.378  1.00  0.00    -0.009 A 
HETATM   19  C21 UNL     1      44.433 -13.131  47.059  1.00  0.00     0.011 C 
HETATM   20  C22 UNL     1      45.734 -12.969  46.988  1.00  0.00    -0.007 C 
HETATM   21  C23 UNL     1      46.515 -11.742  47.252  1.00  0.00     0.149 C 
HETATM   22  N4  UNL     1      45.974 -10.954  48.298  1.00  0.00    -0.367 N 
ATOM     23  H4  UNL     1      45.947 -11.497  49.160  1.00  0.00     0.161 HD
HETATM   24  C24 UNL     1      45.477  -9.707  48.526  1.00  0.00     0.150 C 
HETATM   25  C25 UNL     1      45.481  -8.349  47.956  1.00  0.00     0.059 A 
HETATM   26  C26 UNL     1      45.842  -7.411  48.978  1.00  0.00     0.021 A 
HETATM   27  C27 UNL     1      45.929  -6.063  48.761  1.00  0.00     0.018 A 
HETATM   28  C28 UNL     1      45.652  -5.619  47.506  1.00  0.00     0.090 A 
HETATM   29  N5  UNL     1      45.335  -6.473  46.619  1.00  0.00    -0.351 N 
ATOM     30  H5  UNL     1      45.139  -6.079  45.699  1.00  0.00     0.166 HD
HETATM   31  C29 UNL     1      45.207  -7.890  46.698  1.00  0.00     0.120 A 
HETATM   32  N6  UNL     1      44.891  -8.425  45.435  1.00  0.00    -0.340 N 
ATOM     33  H6  UNL     1      44.411  -7.701  44.900  1.00  0.00     0.167 HD
ENDROOT
BRANCH  11  34
HETATM   34  C8  UNL     1      39.480 -11.827  43.684  1.00  0.00     0.162 C 
BRANCH  34  35
HETATM   35  C9  UNL     1      38.559 -10.706  43.602  1.00  0.00    -0.040 A 
HETATM   36  C10 UNL     1      38.953  -9.421  43.854  1.00  0.00     0.009 A 
HETATM   37  C11 UNL     1      38.093  -8.341  43.780  1.00  0.00     0.001 A 
HETATM   38  C12 UNL     1      36.785  -8.572  43.437  1.00  0.00     0.000 A 
HETATM   39  C13 UNL     1      36.359  -9.871  43.176  1.00  0.00     0.001 A 
HETATM   40  C14 UNL     1      37.233 -10.934  43.257  1.00  0.00     0.009 A 
ENDBRANCH  34  35
ENDBRANCH  11  34
BRANCH  24  41
HETATM   41  O2  UNL     1      44.726  -9.675  49.646  1.00  0.00    -0.346 OA
ATOM     42  H2  UNL     1      43.893  -9.247  49.492  1.00  0.00     0.219 HD
ENDBRANCH  24  41
TORSDOF 3
ENDMDL
MODEL 3
REMARK VINA RESULT: -9.390027695      1.788      7.640
REMARK  3 active torsions:
REMARK  status: ('A' for Active; 'I' for Inactive)
REMARK       I    between atoms: N2_8  and  C7_9 
REMARK       I    between atoms: C7_9  and  N3_11 
REMARK    1  A    between atoms: N3_11  and  C8_13 
REMARK    2  A    between atoms: C8_13  and  C9_14 
REMARK    3  A    between atoms: C24_31  and  O2_32 
ROOT
HETATM    1  N1  UNL     1      45.298  -7.729  48.181  1.00  0.00    -0.102 NA
HETATM    2  C1  UNL     1      44.417  -8.065  47.109  1.00  0.00     0.048 A 
HETATM    3  C2  UNL     1      43.182  -7.507  46.985  1.00  0.00     0.029 A 
HETATM    4  C3  UNL     1      42.414  -7.884  45.948  1.00  0.00     0.034 A 
HETATM    5  C4  UNL     1      42.724  -8.834  44.915  1.00  0.00     0.061 A 
HETATM    6  C5  UNL     1      43.996  -9.382  45.073  1.00  0.00     0.073 A 
HETATM    7  C6  UNL     1      44.808  -8.975  46.175  1.00  0.00     0.059 A 
HETATM    8  N2  UNL     1      44.723 -10.313  44.263  1.00  0.00    -0.262 N 
HETATM    9  C7  UNL     1      45.968  -9.793  43.752  1.00  0.00     0.328 C 
HETATM   10  O1  UNL     1      46.279  -8.592  44.026  1.00  0.00    -0.246 OA
HETATM   11  N3  UNL     1      46.893 -10.517  42.963  1.00  0.00    -0.338 N 
ATOM     12  H3  UNL     1      46.696 -11.489  42.722  1.00  0.00     0.164 HD
HETATM   13  C15 UNL     1      44.428 -11.697  43.905  1.00  0.00     0.054 A 
HETATM   14  C16 UNL     1      44.434 -11.984  42.549  1.00  0.00     0.031 A 
HETATM   15  C17 UNL     1      44.294 -13.237  42.001  1.00  0.00     0.002 A 
HETATM   16  C18 UNL     1      44.140 -14.288  42.869  1.00  0.00     0.001 A 
HETATM   17  C19 UNL     1      44.130 -14.024  44.215  1.00  0.00     0.014 A 
HETATM   18  C20 UNL     1      44.265 -12.752  44.792  1.00  0.00    -0.009 A 
HETATM   19  C21 UNL     1      44.184 -12.709  46.241  1.00  0.00     0.011 C 
HETATM   20  C22 UNL     1      43.262 -12.380  47.116  1.00  0.00    -0.007 C 
HETATM   21  C23 UNL     1      41.883 -11.915  46.857  1.00  0.00     0.149 C 
HETATM   22  N4  UNL     1      41.294 -12.532  45.725  1.00  0.00    -0.367 N 
ATOM     23  H4  UNL     1      41.261 -13.542  45.862  1.00  0.00     0.161 HD
HETATM   24  C24 UNL     1      40.757 -12.216  44.515  1.00  0.00     0.150 C 
HETATM   25  C25 UNL     1      40.177 -11.079  43.780  1.00  0.00     0.059 A 
HETATM   26  C26 UNL     1      38.915 -11.472  43.226  1.00  0.00     0.021 A 
HETATM   27  C27 UNL     1      38.130 -10.635  42.481  1.00  0.00     0.018 A 
HETATM   28  C28 UNL     1      38.596  -9.375  42.269  1.00  0.00     0.090 A 
HETATM   29  N5  UNL     1      39.719  -9.054  42.772  1.00  0.00    -0.351 N 
ATOM     30  H5  UNL     1      40.014  -8.097  42.579  1.00  0.00     0.166 HD
HETATM   31  C29 UNL     1      40.633  -9.810  43.561  1.00  0.00     0.120 A 
HETATM   32  N6  UNL     1      41.727  -9.010  43.944  1.00  0.00    -0.340 N 
ATOM     33  H6  UNL     1      41.836  -8.274  43.246  1.00  0.00     0.167 HD
ENDROOT
BRANCH  11  34
HETATM   34  C8  UNL     1      48.132  -9.891  42.488  1.00  0.00     0.162 C 
BRANCH  34  35
HETATM   35  C9  UNL     1      48.104  -9.472  41.097  1.00  0.00    -0.040 A 
HETATM   36  C10 UNL     1      48.633  -8.280  40.684  1.00  0.00     0.009 A 
HETATM   37  C11 UNL     1      48.618  -7.864  39.366  1.00  0.00     0.001 A 
HETATM   38  C12 UNL     1      48.046  -8.689  38.430  1.00  0.00     0.000 A 
HETATM   39  C13 UNL     1      47.501  -9.907  38.824  1.00  0.00     0.001 A 
HETATM   40  C14 UNL     1      47.525 -10.302  40.144  1.00  0.00     0.009 A 
ENDBRANCH  34  35
ENDBRANCH  11  34
BRANCH  24  41
HETATM   41  O2  UNL     1      40.734 -13.285  43.693  1.00  0.00    -0.346 OA
ATOM     42  H2  UNL     1      40.511 -13.034  42.805  1.00  0.00     0.219 HD
ENDBRANCH  24  41
TORSDOF 3
ENDMDL
MODEL 4
REMARK VINA RESULT: -9.377211441      1.488      1.713
REMARK  3 active torsions:
REMARK  status: ('A' for Active; 'I' for Inactive)
REMARK       I    between atoms: N2_8  and  C7_9 
REMARK       I    between atoms: C7_9  and  N3_11 
REMARK    1  A    between atoms: N3_11  and  C8_13 
REMARK    2  A    between atoms: C8_13  and  C9_14 
REMARK    3  A    between atoms: C24_31  and  O2_32 
ROOT
HETATM    1  N1  UNL     1      44.031 -16.412  43.905  1.00  0.00    -0.102 NA
HETATM    2  C1  UNL     1      44.399 -15.139  43.371  1.00  0.00     0.048 A 
HETATM    3  C2  UNL     1      45.463 -14.986  42.536  1.00  0.00     0.029 A 
HETATM    4  C3  UNL     1      45.743 -13.751  42.084  1.00  0.00     0.034 A 
HETATM    5  C4  UNL     1      45.055 -12.523  42.374  1.00  0.00     0.061 A 
HETATM    6  C5  UNL     1      43.972 -12.720  43.230  1.00  0.00     0.073 A 
HETATM    7  C6  UNL     1      43.677 -14.034  43.704  1.00  0.00     0.059 A 
HETATM    8  N2  UNL     1      42.996 -11.801  43.734  1.00  0.00    -0.262 N 
HETATM    9  C7  UNL     1      41.640 -12.131  43.366  1.00  0.00     0.328 C 
HETATM   10  O1  UNL     1      41.446 -13.147  42.627  1.00  0.00    -0.246 OA
HETATM   11  N3  UNL     1      40.488 -11.414  43.765  1.00  0.00    -0.338 N 
ATOM     12  H3  UNL     1      40.588 -10.595  44.365  1.00  0.00     0.164 HD
HETATM   13  C15 UNL     1      43.146 -10.619  44.577  1.00  0.00     0.054 A 
HETATM   14  C16 UNL     1      42.589  -9.450  44.083  1.00  0.00     0.031 A 
HETATM   15  C17 UNL     1      42.517  -8.256  44.760  1.00  0.00     0.002 A 
HETATM   16  C18 UNL     1      43.036  -8.222  46.030  1.00  0.00     0.001 A 
HETATM   17  C19 UNL     1      43.593  -9.368  46.536  1.00  0.00     0.014 A 
HETATM   18  C20 UNL     1      43.681 -10.594  45.857  1.00  0.00    -0.009 A 
HETATM   19  C21 UNL     1      44.350 -11.662  46.578  1.00  0.00     0.011 C 
HETATM   20  C22 UNL     1      45.543 -12.210  46.543  1.00  0.00    -0.007 C 
HETATM   21  C23 UNL     1      46.684 -11.854  45.672  1.00  0.00     0.149 C 
HETATM   22  N4  UNL     1      46.768 -10.464  45.408  1.00  0.00    -0.367 N 
ATOM     23  H4  UNL     1      46.874  -9.954  46.285  1.00  0.00     0.161 HD
HETATM   24  C24 UNL     1      46.753  -9.588  44.367  1.00  0.00     0.150 C 
HETATM   25  C25 UNL     1      46.956  -9.536  42.909  1.00  0.00     0.059 A 
HETATM   26  C26 UNL     1      47.887  -8.491  42.600  1.00  0.00     0.021 A 
HETATM   27  C27 UNL     1      48.278  -8.189  41.325  1.00  0.00     0.018 A 
HETATM   28  C28 UNL     1      47.741  -8.931  40.320  1.00  0.00     0.090 A 
HETATM   29  N5  UNL     1      46.917  -9.852  40.623  1.00  0.00    -0.351 N 
ATOM     30  H5  UNL     1      46.549 -10.373  39.827  1.00  0.00     0.166 HD
HETATM   31  C29 UNL     1      46.424 -10.276  41.891  1.00  0.00     0.120 A 
HETATM   32  N6  UNL     1      45.568 -11.384  41.737  1.00  0.00    -0.340 N 
ATOM     33  H6  UNL     1      45.167 -11.341  40.800  1.00  0.00     0.167 HD
ENDROOT
BRANCH  11  34
HETATM   34  C8  UNL     1      39.151 -11.831  43.329  1.00  0.00     0.162 C 
BRANCH  34  35
HETATM   35  C9  UNL     1      38.153 -10.775  43.336  1.00  0.00    -0.040 A 
HETATM   36  C10 UNL     1      36.825 -11.026  43.129  1.00  0.00     0.009 A 
HETATM   37  C11 UNL     1      35.860 -10.036  43.134  1.00  0.00     0.001 A 
HETATM   38  C12 UNL     1      36.257  -8.742  43.360  1.00  0.00     0.000 A 
HETATM   39  C13 UNL     1      37.603  -8.460  43.574  1.00  0.00     0.001 A 
HETATM   40  C14 UNL     1      38.549  -9.463  43.563  1.00  0.00     0.009 A 
ENDBRANCH  34  35
ENDBRANCH  11  34
BRANCH  24  41
HETATM   41  O2  UNL     1      46.458  -8.339  44.780  1.00  0.00    -0.346 OA
ATOM     42  H2  UNL     1      46.304  -7.758  44.045  1.00  0.00     0.219 HD
ENDBRANCH  24  41
TORSDOF 3
ENDMDL
MODEL 5
REMARK VINA RESULT: -9.294871356      1.503      1.552
REMARK  3 active torsions:
REMARK  status: ('A' for Active; 'I' for Inactive)
REMARK       I    between atoms: N2_8  and  C7_9 
REMARK       I    between atoms: C7_9  and  N3_11 
REMARK    1  A    between atoms: N3_11  and  C8_13 
REMARK    2  A    between atoms: C8_13  and  C9_14 
REMARK    3  A    between atoms: C24_31  and  O2_32 
ROOT
HETATM    1  N1  UNL     1      41.592 -16.111  43.505  1.00  0.00    -0.102 NA
HETATM    2  C1  UNL     1      42.388 -14.937  43.335  1.00  0.00     0.048 A 
HETATM    3  C2  UNL     1      43.707 -14.998  43.008  1.00  0.00     0.029 A 
HETATM    4  C3  UNL     1      44.383 -13.844  42.874  1.00  0.00     0.034 A 
HETATM    5  C4  UNL     1      43.891 -12.504  43.037  1.00  0.00     0.061 A 
HETATM    6  C5  UNL     1      42.537 -12.482  43.369  1.00  0.00     0.073 A 
HETATM    7  C6  UNL     1      41.824 -13.710  43.507  1.00  0.00     0.059 A 
HETATM    8  N2  UNL     1      41.640 -11.383  43.572  1.00  0.00    -0.262 N 
HETATM    9  C7  UNL     1      40.518 -11.371  42.664  1.00  0.00     0.328 C 
HETATM   10  O1  UNL     1      40.449 -12.279  41.778  1.00  0.00    -0.246 OA
HETATM   11  N3  UNL     1      39.467 -10.424  42.677  1.00  0.00    -0.338 N 
ATOM     12  H3  UNL     1      39.471  -9.679  43.374  1.00  0.00     0.164 HD
HETATM   13  C15 UNL     1      41.659 -10.308  44.560  1.00  0.00     0.054 A 
HETATM   14  C16 UNL     1      41.593  -9.021  44.051  1.00  0.00     0.031 A 
HETATM   15  C17 UNL     1      41.484  -7.874  44.803  1.00  0.00     0.002 A 
HETATM   16  C18 UNL     1      41.433  -8.020  46.165  1.00  0.00     0.001 A 
HETATM   17  C19 UNL     1      41.498  -9.286  46.688  1.00  0.00     0.014 A 
HETATM   18  C20 UNL     1      41.615 -10.466  45.937  1.00  0.00    -0.009 A 
HETATM   19  C21 UNL     1      41.708 -11.693  46.710  1.00  0.00     0.011 C 
HETATM   20  C22 UNL     1      42.679 -12.501  47.067  1.00  0.00    -0.007 C 
HETATM   21  C23 UNL     1      44.122 -12.383  46.766  1.00  0.00     0.149 C 
HETATM   22  N4  UNL     1      44.576 -11.041  46.748  1.00  0.00    -0.367 N 
ATOM     23  H4  UNL     1      44.411 -10.609  47.657  1.00  0.00     0.161 HD
HETATM   24  C24 UNL     1      45.160 -10.139  45.912  1.00  0.00     0.150 C 
HETATM   25  C25 UNL     1      45.948 -10.071  44.670  1.00  0.00     0.059 A 
HETATM   26  C26 UNL     1      47.108  -9.258  44.892  1.00  0.00     0.021 A 
HETATM   27  C27 UNL     1      48.038  -8.998  43.924  1.00  0.00     0.018 A 
HETATM   28  C28 UNL     1      47.826  -9.549  42.698  1.00  0.00     0.090 A 
HETATM   29  N5  UNL     1      46.789 -10.265  42.529  1.00  0.00    -0.351 N 
ATOM     30  H5  UNL     1      46.685 -10.649  41.590  1.00  0.00     0.166 HD
HETATM   31  C29 UNL     1      45.747 -10.619  43.434  1.00  0.00     0.120 A 
HETATM   32  N6  UNL     1      44.832 -11.488  42.811  1.00  0.00    -0.340 N 
ATOM     33  H6  UNL     1      44.866 -11.311  41.807  1.00  0.00     0.167 HD
ENDROOT
BRANCH  11  34
HETATM   34  C8  UNL     1      38.373 -10.498  41.702  1.00  0.00     0.162 C 
BRANCH  34  35
HETATM   35  C9  UNL     1      37.281  -9.571  41.945  1.00  0.00    -0.040 A 
HETATM   36  C10 UNL     1      36.257  -9.401  41.055  1.00  0.00     0.009 A 
HETATM   37  C11 UNL     1      35.209  -8.527  41.268  1.00  0.00     0.001 A 
HETATM   38  C12 UNL     1      35.196  -7.797  42.430  1.00  0.00     0.000 A 
HETATM   39  C13 UNL     1      36.226  -7.950  43.353  1.00  0.00     0.001 A 
HETATM   40  C14 UNL     1      37.264  -8.828  43.119  1.00  0.00     0.009 A 
ENDBRANCH  34  35
ENDBRANCH  11  34
BRANCH  24  41
HETATM   41  O2  UNL     1      44.971  -8.875  46.343  1.00  0.00    -0.346 OA
ATOM     42  H2  UNL     1      44.290  -8.833  47.003  1.00  0.00     0.219 HD
ENDBRANCH  24  41
TORSDOF 3
ENDMDL
