MODEL 1
REMARK VINA RESULT: -7.198675160      0.000      0.000
REMARK  4 active torsions:
REMARK  status: ('A' for Active; 'I' for Inactive)
REMARK    1  A    between atoms: C3_4  and  C4_5 
REMARK    2  A    between atoms: C3_4  and  C5_8 
REMARK    3  A    between atoms: C7_12  and  N3_13 
REMARK    4  A    between atoms: C9_22  and  N6_23 
ROOT
HETATM    1  N1  UNL     1     -19.983 -98.013  -6.727  1.00  0.00    -0.192 NA
HETATM    2  C1  UNL     1     -18.920 -98.442  -6.456  1.00  0.00     0.089 C 
HETATM    3  C2  UNL     1     -17.612 -98.956  -6.163  1.00  0.00     0.114 C 
HETATM    4  C3  UNL     1     -17.290 -99.481  -5.013  1.00  0.00     0.081 C 
ENDROOT
BRANCH   4   5
HETATM    5  C4  UNL     1     -18.273 -99.568  -3.923  1.00  0.00     0.212 C 
HETATM    6  O1  UNL     1     -19.104-100.483  -3.920  1.00  0.00    -0.644 OA
HETATM    7  O2  UNL     1     -18.297 -98.659  -2.901  1.00  0.00    -0.644 OA
ENDBRANCH   4   5
BRANCH   4   8
HETATM    8  C5  UNL     1     -15.991-100.118  -4.751  1.00  0.00     0.094 A 
HETATM    9  N2  UNL     1     -16.048-101.268  -4.042  1.00  0.00    -0.347 N 
HETATM   10  C6  UNL     1     -14.921-101.986  -3.751  1.00  0.00     0.119 A 
ATOM     11  H2  UNL     1     -16.952-101.609  -3.718  1.00  0.00     0.166 HD
HETATM   12  C7  UNL     1     -14.828-103.143  -3.044  1.00  0.00     0.209 A 
HETATM   13  C8  UNL     1     -13.750-101.462  -4.223  1.00  0.00     0.123 A 
HETATM   14  N4  UNL     1     -13.605-103.654  -2.882  1.00  0.00    -0.304 N 
HETATM   15  S1  UNL     1     -12.584-102.601  -3.664  1.00  0.00     0.008 SA
ATOM     16  H4  UNL     1     -13.352-104.508  -2.385  1.00  0.00     0.176 HD
HETATM   17  N5  UNL     1     -13.695-100.321  -4.928  1.00  0.00    -0.332 N 
HETATM   18  C9  UNL     1     -14.844 -99.599  -5.222  1.00  0.00     0.128 A 
ATOM     19  H5  UNL     1     -12.792 -99.978  -5.254  1.00  0.00     0.168 HD
BRANCH  12  20
HETATM   20  N3  UNL     1     -15.961-103.840  -2.442  1.00  0.00    -0.095 N 
HETATM   21  O3  UNL     1     -17.039-103.291  -2.219  1.00  0.00    -0.530 OA
HETATM   22  O4  UNL     1     -15.854-105.159  -2.114  1.00  0.00    -0.530 OA
ENDBRANCH  12  20
BRANCH  18  23
HETATM   23  N6  UNL     1     -14.666 -98.624  -5.954  1.00  0.00    -0.384 N 
ATOM     24  H62 UNL     1     -14.975 -97.735  -5.563  1.00  0.00     0.157 HD
ATOM     25  H61 UNL     1     -14.191 -98.566  -6.855  1.00  0.00     0.157 HD
ENDBRANCH  18  23
ENDBRANCH   4   8
TORSDOF 4
ENDMDL
MODEL 2
REMARK VINA RESULT: -6.504168006      1.330      1.709
REMARK  4 active torsions:
REMARK  status: ('A' for Active; 'I' for Inactive)
REMARK    1  A    between atoms: C3_4  and  C4_5 
REMARK    2  A    between atoms: C3_4  and  C5_8 
REMARK    3  A    between atoms: C7_12  and  N3_13 
REMARK    4  A    between atoms: C9_22  and  N6_23 
ROOT
HETATM    1  N1  UNL     1     -20.353 -97.862  -4.283  1.00  0.00    -0.192 NA
HETATM    2  C1  UNL     1     -19.333 -98.428  -4.113  1.00  0.00     0.089 C 
HETATM    3  C2  UNL     1     -18.093 -99.107  -3.866  1.00  0.00     0.114 C 
HETATM    4  C3  UNL     1     -17.407 -99.707  -4.799  1.00  0.00     0.081 C 
ENDROOT
BRANCH   4   5
HETATM    5  C4  UNL     1     -17.885 -99.728  -6.190  1.00  0.00     0.212 C 
HETATM    6  O1  UNL     1     -18.628-100.641  -6.568  1.00  0.00    -0.644 OA
HETATM    7  O2  UNL     1     -17.530 -98.758  -7.087  1.00  0.00    -0.644 OA
ENDBRANCH   4   5
BRANCH   4   8
HETATM    8  C5  UNL     1     -16.079-100.297  -4.574  1.00  0.00     0.094 A 
HETATM    9  N2  UNL     1     -16.079-101.473  -3.906  1.00  0.00    -0.347 N 
HETATM   10  C6  UNL     1     -14.920-102.152  -3.652  1.00  0.00     0.119 A 
ATOM     11  H2  UNL     1     -16.965-101.863  -3.584  1.00  0.00     0.166 HD
HETATM   12  C7  UNL     1     -14.770-103.328  -2.987  1.00  0.00     0.209 A 
HETATM   13  C8  UNL     1     -13.778-101.562  -4.117  1.00  0.00     0.123 A 
HETATM   14  N4  UNL     1     -13.525-103.792  -2.856  1.00  0.00    -0.304 N 
HETATM   15  S1  UNL     1     -12.558-102.670  -3.611  1.00  0.00     0.008 SA
ATOM     16  H4  UNL     1     -13.231-104.651  -2.393  1.00  0.00     0.176 HD
HETATM   17  N5  UNL     1     -13.779-100.396  -4.781  1.00  0.00    -0.332 N 
HETATM   18  C9  UNL     1     -14.961 -99.714  -5.037  1.00  0.00     0.128 A 
ATOM     19  H5  UNL     1     -12.895-100.004  -5.104  1.00  0.00     0.168 HD
BRANCH  12  20
HETATM   20  N3  UNL     1     -15.866-104.094  -2.400  1.00  0.00    -0.095 N 
HETATM   21  O3  UNL     1     -15.718-105.227  -1.943  1.00  0.00    -0.530 OA
HETATM   22  O4  UNL     1     -17.115-103.553  -2.331  1.00  0.00    -0.530 OA
ENDBRANCH  12  20
BRANCH  18  23
HETATM   23  N6  UNL     1     -14.833 -98.707  -5.737  1.00  0.00    -0.384 N 
ATOM     24  H62 UNL     1     -15.071 -98.837  -6.719  1.00  0.00     0.157 HD
ATOM     25  H61 UNL     1     -14.599 -97.752  -5.465  1.00  0.00     0.157 HD
ENDBRANCH  18  23
ENDBRANCH   4   8
TORSDOF 4
ENDMDL
MODEL 3
REMARK VINA RESULT: -6.375498838      3.474      4.772
REMARK  4 active torsions:
REMARK  status: ('A' for Active; 'I' for Inactive)
REMARK    1  A    between atoms: C3_4  and  C4_5 
REMARK    2  A    between atoms: C3_4  and  C5_8 
REMARK    3  A    between atoms: C7_12  and  N3_13 
REMARK    4  A    between atoms: C9_22  and  N6_23 
ROOT
HETATM    1  N1  UNL     1     -24.380 -98.728  -5.943  1.00  0.00    -0.192 NA
HETATM    2  C1  UNL     1     -23.309 -99.170  -5.732  1.00  0.00     0.089 C 
HETATM    3  C2  UNL     1     -22.021 -99.736  -5.449  1.00  0.00     0.114 C 
HETATM    4  C3  UNL     1     -20.910 -99.276  -5.956  1.00  0.00     0.081 C 
ENDROOT
BRANCH   4   5
HETATM    5  C4  UNL     1     -20.920 -98.128  -6.875  1.00  0.00     0.212 C 
HETATM    6  O1  UNL     1     -20.103 -97.214  -6.719  1.00  0.00    -0.644 OA
HETATM    7  O2  UNL     1     -21.812 -98.041  -7.907  1.00  0.00    -0.644 OA
ENDBRANCH   4   5
BRANCH   4   8
HETATM    8  C5  UNL     1     -19.580 -99.775  -5.574  1.00  0.00     0.094 A 
HETATM    9  N2  UNL     1     -19.077 -99.252  -4.433  1.00  0.00    -0.347 N 
HETATM   10  C6  UNL     1     -17.864 -99.646  -3.939  1.00  0.00     0.119 A 
ATOM     11  H2  UNL     1     -19.614 -98.547  -3.928  1.00  0.00     0.166 HD
HETATM   12  C7  UNL     1     -17.234 -99.200  -2.819  1.00  0.00     0.209 A 
HETATM   13  C8  UNL     1     -17.209-100.594  -4.673  1.00  0.00     0.123 A 
HETATM   14  N4  UNL     1     -16.041 -99.732  -2.546  1.00  0.00    -0.304 N 
HETATM   15  S1  UNL     1     -15.757-100.819  -3.772  1.00  0.00     0.008 SA
ATOM     16  H4  UNL     1     -15.434 -99.519  -1.755  1.00  0.00     0.176 HD
HETATM   17  N5  UNL     1     -17.710-101.114  -5.803  1.00  0.00    -0.332 N 
HETATM   18  C9  UNL     1     -18.944-100.711  -6.298  1.00  0.00     0.128 A 
ATOM     19  H5  UNL     1     -17.175-101.819  -6.310  1.00  0.00     0.168 HD
BRANCH  12  20
HETATM   20  N3  UNL     1     -17.764 -98.176  -1.922  1.00  0.00    -0.095 N 
HETATM   21  O3  UNL     1     -18.519 -97.283  -2.303  1.00  0.00    -0.530 OA
HETATM   22  O4  UNL     1     -17.433 -98.192  -0.600  1.00  0.00    -0.530 OA
ENDBRANCH  12  20
BRANCH  18  23
HETATM   23  N6  UNL     1     -19.330-101.334  -7.289  1.00  0.00    -0.384 N 
ATOM     24  H62 UNL     1     -18.760-101.202  -8.124  1.00  0.00     0.157 HD
ATOM     25  H61 UNL     1     -20.085-102.014  -7.375  1.00  0.00     0.157 HD
ENDBRANCH  18  23
ENDBRANCH   4   8
TORSDOF 4
ENDMDL
MODEL 4
REMARK VINA RESULT: -6.293658791      2.277      3.352
REMARK  4 active torsions:
REMARK  status: ('A' for Active; 'I' for Inactive)
REMARK    1  A    between atoms: C3_4  and  C4_5 
REMARK    2  A    between atoms: C3_4  and  C5_8 
REMARK    3  A    between atoms: C7_12  and  N3_13 
REMARK    4  A    between atoms: C9_22  and  N6_23 
ROOT
HETATM    1  N1  UNL     1     -23.030 -99.312  -5.716  1.00  0.00    -0.192 NA
HETATM    2  C1  UNL     1     -21.901 -99.133  -5.999  1.00  0.00     0.089 C 
HETATM    3  C2  UNL     1     -20.536 -98.908  -6.383  1.00  0.00     0.114 C 
HETATM    4  C3  UNL     1     -19.534 -99.003  -5.553  1.00  0.00     0.081 C 
ENDROOT
BRANCH   4   5
HETATM    5  C4  UNL     1     -19.756 -99.346  -4.140  1.00  0.00     0.212 C 
HETATM    6  O1  UNL     1     -20.416-100.351  -3.852  1.00  0.00    -0.644 OA
HETATM    7  O2  UNL     1     -19.250 -98.582  -3.126  1.00  0.00    -0.644 OA
ENDBRANCH   4   5
BRANCH   4   8
HETATM    8  C5  UNL     1     -18.128 -98.893  -5.968  1.00  0.00     0.094 A 
HETATM    9  N2  UNL     1     -17.244 -99.548  -5.181  1.00  0.00    -0.347 N 
HETATM   10  C6  UNL     1     -15.906 -99.559  -5.464  1.00  0.00     0.119 A 
ATOM     11  H2  UNL     1     -17.583-100.044  -4.357  1.00  0.00     0.166 HD
HETATM   12  C7  UNL     1     -14.909-100.160  -4.760  1.00  0.00     0.209 A 
HETATM   13  C8  UNL     1     -15.534 -98.872  -6.584  1.00  0.00     0.123 A 
HETATM   14  N4  UNL     1     -13.669-100.022  -5.233  1.00  0.00    -0.304 N 
HETATM   15  S1  UNL     1     -13.826 -99.096  -6.605  1.00  0.00     0.008 SA
ATOM     16  H4  UNL     1     -12.810-100.402  -4.837  1.00  0.00     0.176 HD
HETATM   17  N5  UNL     1     -16.412 -98.225  -7.366  1.00  0.00    -0.332 N 
HETATM   18  C9  UNL     1     -17.770 -98.219  -7.074  1.00  0.00     0.128 A 
ATOM     19  H5  UNL     1     -16.076 -97.728  -8.191  1.00  0.00     0.168 HD
BRANCH  12  20
HETATM   20  N3  UNL     1     -15.106-100.918  -3.527  1.00  0.00    -0.095 N 
HETATM   21  O3  UNL     1     -14.307-101.766  -3.132  1.00  0.00    -0.530 OA
HETATM   22  O4  UNL     1     -16.206-100.691  -2.755  1.00  0.00    -0.530 OA
ENDBRANCH  12  20
BRANCH  18  23
HETATM   23  N6  UNL     1     -18.477 -97.671  -7.922  1.00  0.00    -0.384 N 
ATOM     24  H62 UNL     1     -18.242 -97.901  -8.887  1.00  0.00     0.157 HD
ATOM     25  H61 UNL     1     -19.302 -97.084  -7.799  1.00  0.00     0.157 HD
ENDBRANCH  18  23
ENDBRANCH   4   8
TORSDOF 4
ENDMDL
MODEL 5
REMARK VINA RESULT: -6.182536871      3.403      4.416
REMARK  4 active torsions:
REMARK  status: ('A' for Active; 'I' for Inactive)
REMARK    1  A    between atoms: C3_4  and  C4_5 
REMARK    2  A    between atoms: C3_4  and  C5_8 
REMARK    3  A    between atoms: C7_12  and  N3_13 
REMARK    4  A    between atoms: C9_22  and  N6_23 
ROOT
HETATM    1  N1  UNL     1     -22.372 -97.824  -7.910  1.00  0.00    -0.192 NA
HETATM    2  C1  UNL     1     -21.577 -98.394  -7.253  1.00  0.00     0.089 C 
HETATM    3  C2  UNL     1     -20.637 -99.112  -6.440  1.00  0.00     0.114 C 
HETATM    4  C3  UNL     1     -19.381 -98.778  -6.331  1.00  0.00     0.081 C 
ENDROOT
BRANCH   4   5
HETATM    5  C4  UNL     1     -18.844 -97.620  -7.062  1.00  0.00     0.212 C 
HETATM    6  O1  UNL     1     -17.966 -97.790  -7.916  1.00  0.00    -0.644 OA
HETATM    7  O2  UNL     1     -19.290 -96.350  -6.825  1.00  0.00    -0.644 OA
ENDBRANCH   4   5
BRANCH   4   8
HETATM    8  C5  UNL     1     -18.447 -99.437  -5.407  1.00  0.00     0.094 A 
HETATM    9  N2  UNL     1     -17.136 -99.250  -5.685  1.00  0.00    -0.347 N 
HETATM   10  C6  UNL     1     -16.155 -99.778  -4.893  1.00  0.00     0.119 A 
ATOM     11  H2  UNL     1     -16.874 -98.704  -6.505  1.00  0.00     0.166 HD
HETATM   12  C7  UNL     1     -14.808 -99.682  -5.058  1.00  0.00     0.209 A 
HETATM   13  C8  UNL     1     -16.589-100.495  -3.815  1.00  0.00     0.123 A 
HETATM   14  N4  UNL     1     -14.045-100.296  -4.150  1.00  0.00    -0.304 N 
HETATM   15  S1  UNL     1     -15.111-100.998  -3.085  1.00  0.00     0.008 SA
ATOM     16  H4  UNL     1     -13.026-100.327  -4.118  1.00  0.00     0.176 HD
HETATM   17  N5  UNL     1     -17.890-100.678  -3.538  1.00  0.00    -0.332 N 
HETATM   18  C9  UNL     1     -18.881-100.137  -4.346  1.00  0.00     0.128 A 
ATOM     19  H5  UNL     1     -18.155-101.224  -2.719  1.00  0.00     0.168 HD
BRANCH  12  20
HETATM   20  N3  UNL     1     -14.156 -98.979  -6.158  1.00  0.00    -0.095 N 
HETATM   21  O3  UNL     1     -14.388 -97.801  -6.427  1.00  0.00    -0.530 OA
HETATM   22  O4  UNL     1     -13.237 -99.625  -6.931  1.00  0.00    -0.530 OA
ENDBRANCH  12  20
BRANCH  18  23
HETATM   23  N6  UNL     1     -20.030-100.298  -3.929  1.00  0.00    -0.384 N 
ATOM     24  H62 UNL     1     -20.761-100.138  -4.621  1.00  0.00     0.157 HD
ATOM     25  H61 UNL     1     -20.350-100.637  -3.022  1.00  0.00     0.157 HD
ENDBRANCH  18  23
ENDBRANCH   4   8
TORSDOF 4
ENDMDL
