MODEL 1
REMARK VINA RESULT: -7.238907499      0.000      0.000
REMARK  5 active torsions:
REMARK  status: ('A' for Active; 'I' for Inactive)
REMARK    1  A    between atoms: C2_2  and  O2_4 
REMARK    2  A    between atoms: O2_4  and  C3_5 
REMARK    3  A    between atoms: C3_5  and  N1_6 
REMARK    4  A    between atoms: C4_7  and  C5_8 
REMARK    5  A    between atoms: C8_16  and  N4_17 
ROOT
HETATM    1  N1  UNL     1     -15.632 -99.478  -5.110  1.00  0.00    -0.196 N 
HETATM    2  C4  UNL     1     -15.355 -98.787  -6.219  1.00  0.00     0.224 A 
HETATM    3  N2  UNL     1     -16.563 -98.420  -6.735  1.00  0.00    -0.255 N 
ATOM      4  H2  UNL     1     -16.708 -97.875  -7.586  1.00  0.00     0.191 HD
HETATM    5  N3  UNL     1     -17.509 -98.886  -5.952  1.00  0.00    -0.175 N 
HETATM    6  C6  UNL     1     -18.872 -98.906  -5.850  1.00  0.00     0.065 A 
HETATM    7  C7  UNL     1     -19.204 -99.613  -4.716  1.00  0.00     0.015 A 
HETATM    8  C8  UNL     1     -17.980 -99.993  -4.177  1.00  0.00     0.150 A 
HETATM    9  N5  UNL     1     -16.970 -99.541  -4.944  1.00  0.00    -0.148 N 
HETATM   10  C9  UNL     1     -20.609 -99.848  -4.271  1.00  0.00     0.044 C 
HETATM   11  C10 UNL     1     -21.592 -99.384  -5.281  1.00  0.00     0.005 C 
HETATM   12  C11 UNL     1     -21.080 -99.356  -6.693  1.00  0.00     0.006 C 
HETATM   13  C12 UNL     1     -19.947 -98.326  -6.712  1.00  0.00     0.062 C 
ENDROOT
BRANCH   1  14
HETATM   14  C3  UNL     1     -14.714-100.054  -4.144  1.00  0.00     0.266 C 
BRANCH  14  15
HETATM   15  O2  UNL     1     -14.432-101.381  -4.247  1.00  0.00    -0.272 OA
BRANCH  15  16
HETATM   16  C2  UNL     1     -14.552-102.465  -3.477  1.00  0.00     0.260 C 
HETATM   17  C1  UNL     1     -13.388-103.292  -2.995  1.00  0.00     0.126 C 
HETATM   18  O1  UNL     1     -15.680-102.846  -3.113  1.00  0.00    -0.265 OA
ENDBRANCH  15  16
ENDBRANCH  14  15
ENDBRANCH   1  14
BRANCH   2  19
HETATM   19  C5  UNL     1     -14.056 -98.487  -6.856  1.00  0.00     0.248 C 
HETATM   20  O3  UNL     1     -13.579 -97.334  -6.720  1.00  0.00    -0.642 OA
HETATM   21  O4  UNL     1     -13.326 -99.381  -7.593  1.00  0.00    -0.642 OA
ENDBRANCH   2  19
BRANCH   8  22
HETATM   22  N4  UNL     1     -17.915-100.676  -3.093  1.00  0.00    -0.382 N 
ATOM     23  H42 UNL     1     -18.647-100.845  -2.405  1.00  0.00     0.157 HD
ATOM     24  H41 UNL     1     -17.053-101.144  -2.815  1.00  0.00     0.157 HD
ENDBRANCH   8  22
TORSDOF 5
ENDMDL
MODEL 2
REMARK VINA RESULT: -6.209293689      1.959      5.323
REMARK  5 active torsions:
REMARK  status: ('A' for Active; 'I' for Inactive)
REMARK    1  A    between atoms: C2_2  and  O2_4 
REMARK    2  A    between atoms: O2_4  and  C3_5 
REMARK    3  A    between atoms: C3_5  and  N1_6 
REMARK    4  A    between atoms: C4_7  and  C5_8 
REMARK    5  A    between atoms: C8_16  and  N4_17 
ROOT
HETATM    1  N1  UNL     1     -15.903 -99.454  -5.293  1.00  0.00    -0.196 N 
HETATM    2  C4  UNL     1     -14.774 -99.174  -5.950  1.00  0.00     0.224 A 
HETATM    3  N2  UNL     1     -13.893-100.155  -5.601  1.00  0.00    -0.255 N 
ATOM      4  H2  UNL     1     -12.932-100.238  -5.932  1.00  0.00     0.191 HD
HETATM    5  N3  UNL     1     -14.492-100.974  -4.768  1.00  0.00    -0.175 N 
HETATM    6  C6  UNL     1     -14.241-102.111  -4.051  1.00  0.00     0.065 A 
HETATM    7  C7  UNL     1     -15.383-102.437  -3.355  1.00  0.00     0.015 A 
HETATM    8  C8  UNL     1     -16.293-101.445  -3.701  1.00  0.00     0.150 A 
HETATM    9  N5  UNL     1     -15.729-100.572  -4.557  1.00  0.00    -0.148 N 
HETATM   10  C9  UNL     1     -15.493-103.624  -2.457  1.00  0.00     0.044 C 
HETATM   11  C10 UNL     1     -14.183-104.298  -2.273  1.00  0.00     0.005 C 
HETATM   12  C11 UNL     1     -12.986-103.414  -2.465  1.00  0.00     0.006 C 
HETATM   13  C12 UNL     1     -13.020-102.966  -3.929  1.00  0.00     0.062 C 
ENDROOT
BRANCH   1  14
HETATM   14  C3  UNL     1     -17.180 -98.764  -5.346  1.00  0.00     0.266 C 
BRANCH  14  15
HETATM   15  O2  UNL     1     -18.283 -99.490  -5.675  1.00  0.00    -0.272 OA
BRANCH  15  16
HETATM   16  C2  UNL     1     -19.589 -99.453  -5.405  1.00  0.00     0.260 C 
HETATM   17  C1  UNL     1     -20.603 -98.709  -6.234  1.00  0.00     0.126 C 
HETATM   18  O1  UNL     1     -20.036-100.061  -4.414  1.00  0.00    -0.265 OA
ENDBRANCH  15  16
ENDBRANCH  14  15
ENDBRANCH   1  14
BRANCH   2  19
HETATM   19  C5  UNL     1     -14.443 -98.039  -6.835  1.00  0.00     0.248 C 
HETATM   20  O3  UNL     1     -14.949 -98.011  -7.983  1.00  0.00    -0.642 OA
HETATM   21  O4  UNL     1     -13.613 -97.004  -6.495  1.00  0.00    -0.642 OA
ENDBRANCH   2  19
BRANCH   8  22
HETATM   22  N4  UNL     1     -17.484-101.440  -3.228  1.00  0.00    -0.382 N 
ATOM     23  H42 UNL     1     -17.790-101.210  -2.283  1.00  0.00     0.157 HD
ATOM     24  H41 UNL     1     -18.286-101.684  -3.810  1.00  0.00     0.157 HD
ENDBRANCH   8  22
TORSDOF 5
ENDMDL
MODEL 3
REMARK VINA RESULT: -5.786796918      2.246      5.848
REMARK  5 active torsions:
REMARK  status: ('A' for Active; 'I' for Inactive)
REMARK    1  A    between atoms: C2_2  and  O2_4 
REMARK    2  A    between atoms: O2_4  and  C3_5 
REMARK    3  A    between atoms: C3_5  and  N1_6 
REMARK    4  A    between atoms: C4_7  and  C5_8 
REMARK    5  A    between atoms: C8_16  and  N4_17 
ROOT
HETATM    1  N1  UNL     1     -16.958 -99.673  -4.806  1.00  0.00    -0.196 N 
HETATM    2  C4  UNL     1     -18.170-100.012  -4.359  1.00  0.00     0.224 A 
HETATM    3  N2  UNL     1     -17.985-101.137  -3.611  1.00  0.00    -0.255 N 
ATOM      4  H2  UNL     1     -18.716-101.655  -3.122  1.00  0.00     0.191 HD
HETATM    5  N3  UNL     1     -16.707-101.441  -3.626  1.00  0.00    -0.175 N 
HETATM    6  C6  UNL     1     -15.846-102.378  -3.127  1.00  0.00     0.065 A 
HETATM    7  C7  UNL     1     -14.578-102.066  -3.565  1.00  0.00     0.015 A 
HETATM    8  C8  UNL     1     -14.750-100.919  -4.330  1.00  0.00     0.150 A 
HETATM    9  N5  UNL     1     -16.048-100.561  -4.351  1.00  0.00    -0.148 N 
HETATM   10  C9  UNL     1     -13.366-102.866  -3.223  1.00  0.00     0.044 C 
HETATM   11  C10 UNL     1     -13.716-104.119  -2.508  1.00  0.00     0.005 C 
HETATM   12  C11 UNL     1     -15.097-104.639  -2.787  1.00  0.00     0.006 C 
HETATM   13  C12 UNL     1     -16.064-103.575  -2.259  1.00  0.00     0.062 C 
ENDROOT
BRANCH   1  14
HETATM   14  C3  UNL     1     -16.572 -98.523  -5.603  1.00  0.00     0.266 C 
BRANCH  14  15
HETATM   15  O2  UNL     1     -15.774 -98.737  -6.685  1.00  0.00    -0.272 OA
BRANCH  15  16
HETATM   16  C2  UNL     1     -14.536 -98.411  -7.062  1.00  0.00     0.260 C 
HETATM   17  C1  UNL     1     -13.762 -99.133  -8.134  1.00  0.00     0.126 C 
HETATM   18  O1  UNL     1     -13.953 -97.455  -6.517  1.00  0.00    -0.265 OA
ENDBRANCH  15  16
ENDBRANCH  14  15
ENDBRANCH   1  14
BRANCH   2  19
HETATM   19  C5  UNL     1     -19.488 -99.396  -4.618  1.00  0.00     0.248 C 
HETATM   20  O3  UNL     1     -20.518-100.076  -4.392  1.00  0.00    -0.642 OA
HETATM   21  O4  UNL     1     -19.672 -98.125  -5.093  1.00  0.00    -0.642 OA
ENDBRANCH   2  19
BRANCH   8  22
HETATM   22  N4  UNL     1     -13.756-100.343  -4.899  1.00  0.00    -0.382 N 
ATOM     23  H42 UNL     1     -13.126 -99.639  -4.515  1.00  0.00     0.157 HD
ATOM     24  H41 UNL     1     -13.493-100.565  -5.859  1.00  0.00     0.157 HD
ENDBRANCH   8  22
TORSDOF 5
ENDMDL
MODEL 4
REMARK VINA RESULT: -5.533985200      2.637      6.396
REMARK  5 active torsions:
REMARK  status: ('A' for Active; 'I' for Inactive)
REMARK    1  A    between atoms: C2_2  and  O2_4 
REMARK    2  A    between atoms: O2_4  and  C3_5 
REMARK    3  A    between atoms: C3_5  and  N1_6 
REMARK    4  A    between atoms: C4_7  and  C5_8 
REMARK    5  A    between atoms: C8_16  and  N4_17 
ROOT
HETATM    1  N1  UNL     1     -17.213 -99.685  -4.781  1.00  0.00    -0.196 N 
HETATM    2  C4  UNL     1     -18.251-100.088  -4.041  1.00  0.00     0.224 A 
HETATM    3  N2  UNL     1     -17.779-101.112  -3.274  1.00  0.00    -0.255 N 
ATOM      4  H2  UNL     1     -18.320-101.643  -2.591  1.00  0.00     0.191 HD
HETATM    5  N3  UNL     1     -16.511-101.298  -3.562  1.00  0.00    -0.175 N 
HETATM    6  C6  UNL     1     -15.462-102.100  -3.208  1.00  0.00     0.065 A 
HETATM    7  C7  UNL     1     -14.366-101.719  -3.951  1.00  0.00     0.015 A 
HETATM    8  C8  UNL     1     -14.831-100.672  -4.739  1.00  0.00     0.150 A 
HETATM    9  N5  UNL     1     -16.133-100.438  -4.485  1.00  0.00    -0.148 N 
HETATM   10  C9  UNL     1     -13.027-102.368  -3.840  1.00  0.00     0.044 C 
HETATM   11  C10 UNL     1     -13.068-103.571  -2.972  1.00  0.00     0.005 C 
HETATM   12  C11 UNL     1     -14.410-104.239  -2.882  1.00  0.00     0.006 C 
HETATM   13  C12 UNL     1     -15.347-103.220  -2.226  1.00  0.00     0.062 C 
ENDROOT
BRANCH   1  14
HETATM   14  C3  UNL     1     -17.145 -98.588  -5.730  1.00  0.00     0.266 C 
BRANCH  14  15
HETATM   15  O2  UNL     1     -18.112 -98.511  -6.684  1.00  0.00    -0.272 OA
BRANCH  15  16
HETATM   16  C2  UNL     1     -19.212 -97.787  -6.899  1.00  0.00     0.260 C 
HETATM   17  C1  UNL     1     -20.591 -98.373  -7.064  1.00  0.00     0.126 C 
HETATM   18  O1  UNL     1     -19.135 -96.547  -6.974  1.00  0.00    -0.265 OA
ENDBRANCH  15  16
ENDBRANCH  14  15
ENDBRANCH   1  14
BRANCH   2  19
HETATM   19  C5  UNL     1     -19.652 -99.622  -4.032  1.00  0.00     0.248 C 
HETATM   20  O3  UNL     1     -19.893 -98.465  -3.609  1.00  0.00    -0.642 OA
HETATM   21  O4  UNL     1     -20.722-100.367  -4.453  1.00  0.00    -0.642 OA
ENDBRANCH   2  19
BRANCH   8  22
HETATM   22  N4  UNL     1     -14.059-100.067  -5.564  1.00  0.00    -0.382 N 
ATOM     23  H42 UNL     1     -13.046 -99.957  -5.521  1.00  0.00     0.157 HD
ATOM     24  H41 UNL     1     -14.428 -99.613  -6.400  1.00  0.00     0.157 HD
ENDBRANCH   8  22
TORSDOF 5
ENDMDL
MODEL 5
REMARK VINA RESULT: -5.481697918      0.950      1.147
REMARK  5 active torsions:
REMARK  status: ('A' for Active; 'I' for Inactive)
REMARK    1  A    between atoms: C2_2  and  O2_4 
REMARK    2  A    between atoms: O2_4  and  C3_5 
REMARK    3  A    between atoms: C3_5  and  N1_6 
REMARK    4  A    between atoms: C4_7  and  C5_8 
REMARK    5  A    between atoms: C8_16  and  N4_17 
ROOT
HETATM    1  N1  UNL     1     -16.257 -99.372  -5.128  1.00  0.00    -0.196 N 
HETATM    2  C4  UNL     1     -15.829 -98.854  -6.283  1.00  0.00     0.224 A 
HETATM    3  N2  UNL     1     -16.947 -98.405  -6.921  1.00  0.00    -0.255 N 
ATOM      4  H2  UNL     1     -16.970 -97.950  -7.834  1.00  0.00     0.191 HD
HETATM    5  N3  UNL     1     -17.989 -98.658  -6.163  1.00  0.00    -0.175 N 
HETATM    6  C6  UNL     1     -19.347 -98.499  -6.158  1.00  0.00     0.065 A 
HETATM    7  C7  UNL     1     -19.833 -99.023  -4.981  1.00  0.00     0.015 A 
HETATM    8  C8  UNL     1     -18.703 -99.484  -4.317  1.00  0.00     0.150 A 
HETATM    9  N5  UNL     1     -17.600 -99.252  -5.053  1.00  0.00    -0.148 N 
HETATM   10  C9  UNL     1     -21.280 -99.031  -4.616  1.00  0.00     0.044 C 
HETATM   11  C10 UNL     1     -22.134 -98.572  -5.740  1.00  0.00     0.005 C 
HETATM   12  C11 UNL     1     -21.542 -98.771  -7.105  1.00  0.00     0.006 C 
HETATM   13  C12 UNL     1     -20.286 -97.897  -7.153  1.00  0.00     0.062 C 
ENDROOT
BRANCH   1  14
HETATM   14  C3  UNL     1     -15.479 -99.939  -4.042  1.00  0.00     0.266 C 
BRANCH  14  15
HETATM   15  O2  UNL     1     -15.125-101.250  -4.129  1.00  0.00    -0.272 OA
BRANCH  15  16
HETATM   16  C2  UNL     1     -14.049-101.989  -3.850  1.00  0.00     0.260 C 
HETATM   17  C1  UNL     1     -14.064-103.200  -2.954  1.00  0.00     0.126 C 
HETATM   18  O1  UNL     1     -12.945-101.690  -4.344  1.00  0.00    -0.265 OA
ENDBRANCH  15  16
ENDBRANCH  14  15
ENDBRANCH   1  14
BRANCH   2  19
HETATM   19  C5  UNL     1     -14.467 -98.791  -6.852  1.00  0.00     0.248 C 
HETATM   20  O3  UNL     1     -14.346 -98.578  -8.082  1.00  0.00    -0.642 OA
HETATM   21  O4  UNL     1     -13.315 -98.952  -6.130  1.00  0.00    -0.642 OA
ENDBRANCH   2  19
BRANCH   8  22
HETATM   22  N4  UNL     1     -18.789-100.039  -3.164  1.00  0.00    -0.382 N 
ATOM     23  H42 UNL     1     -19.610-100.137  -2.567  1.00  0.00     0.157 HD
ATOM     24  H41 UNL     1     -17.976-100.463  -2.719  1.00  0.00     0.157 HD
ENDBRANCH   8  22
TORSDOF 5
ENDMDL
