MODEL 1
REMARK VINA RESULT: -5.349151883      0.000      0.000
REMARK  4 active torsions:
REMARK  status: ('A' for Active; 'I' for Inactive)
REMARK    1  A    between atoms: N3_6  and  O1_7 
REMARK    2  A    between atoms: O1_7  and  C4_8 
REMARK    3  A    between atoms: C7_13  and  N5_14 
REMARK    4  A    between atoms: C10_19  and  N6_20 
ROOT
HETATM    1  N1  UNL     1      -6.273-102.191   0.629  1.00  0.00    -0.191 NA
HETATM    2  C1  UNL     1      -7.260-102.116   1.271  1.00  0.00     0.104 C 
HETATM    3  C2  UNL     1      -8.431-102.070   2.087  1.00  0.00     0.103 A 
HETATM    4  C3  UNL     1      -8.811-103.109   2.966  1.00  0.00     0.167 A 
HETATM    5  N2  UNL     1      -8.070-104.330   3.077  1.00  0.00    -0.079 NA
HETATM    6  N3  UNL     1      -9.909-102.742   3.611  1.00  0.00    -0.196 N 
HETATM    7  C5  UNL     1     -10.263-101.511   3.194  1.00  0.00     0.081 A 
HETATM    8  C6  UNL     1     -11.295-100.680   3.561  1.00  0.00     0.062 A 
HETATM    9  C7  UNL     1     -11.453 -99.433   3.012  1.00  0.00     0.038 A 
HETATM   10  C9  UNL     1     -10.554 -99.032   2.084  1.00  0.00     0.066 A 
HETATM   11  C10 UNL     1      -9.460 -99.827   1.646  1.00  0.00     0.119 A 
HETATM   12  C11 UNL     1      -9.345-101.066   2.230  1.00  0.00     0.051 A 
ENDROOT
BRANCH   6  13
HETATM   13  O1  UNL     1     -10.607-103.446   4.551  1.00  0.00    -0.174 OA
BRANCH  13  14
HETATM   14  C4  UNL     1     -11.545-104.383   4.137  1.00  0.00     0.395 C 
HETATM   15  N4  UNL     1     -12.915-103.999   3.890  1.00  0.00    -0.031 NA
HETATM   16  O2  UNL     1     -11.155-105.569   3.987  1.00  0.00    -0.240 OA
ENDBRANCH  13  14
ENDBRANCH   6  13
BRANCH  11  17
HETATM   17  N6  UNL     1      -8.620 -99.268   0.674  1.00  0.00    -0.115 N 
HETATM   18  O4  UNL     1      -8.651 -99.331  -0.534  1.00  0.00    -0.532 OA
HETATM   19  O5  UNL     1      -7.619 -98.404   1.174  1.00  0.00    -0.532 OA
ENDBRANCH  11  17
BRANCH   9  20
HETATM   20  N5  UNL     1     -12.530 -98.595   3.415  1.00  0.00    -0.334 N 
HETATM   21  C8  UNL     1     -12.455 -97.357   3.553  1.00  0.00     0.353 C 
HETATM   22  O3  UNL     1     -12.466 -96.125   3.556  1.00  0.00    -0.283 OA
ATOM     23  H5  UNL     1     -13.428 -99.039   3.605  1.00  0.00     0.168 HD
ENDBRANCH   9  20
TORSDOF 4
ENDMDL
MODEL 2
REMARK VINA RESULT: -5.340932557     10.203     10.975
REMARK  4 active torsions:
REMARK  status: ('A' for Active; 'I' for Inactive)
REMARK    1  A    between atoms: N3_6  and  O1_7 
REMARK    2  A    between atoms: O1_7  and  C4_8 
REMARK    3  A    between atoms: C7_13  and  N5_14 
REMARK    4  A    between atoms: C10_19  and  N6_20 
ROOT
HETATM    1  N1  UNL     1     -13.919 -98.095  -6.645  1.00  0.00    -0.191 NA
HETATM    2  C1  UNL     1     -14.700 -98.710  -6.008  1.00  0.00     0.104 C 
HETATM    3  C2  UNL     1     -15.603 -99.456  -5.191  1.00  0.00     0.103 A 
HETATM    4  C3  UNL     1     -15.195-100.224  -4.078  1.00  0.00     0.167 A 
HETATM    5  N2  UNL     1     -13.819-100.358  -3.701  1.00  0.00    -0.079 NA
HETATM    6  N3  UNL     1     -16.268-100.750  -3.505  1.00  0.00    -0.196 N 
HETATM    7  C5  UNL     1     -17.359-100.360  -4.194  1.00  0.00     0.081 A 
HETATM    8  C6  UNL     1     -18.699-100.605  -4.006  1.00  0.00     0.062 A 
HETATM    9  C7  UNL     1     -19.657-100.075  -4.832  1.00  0.00     0.038 A 
HETATM   10  C9  UNL     1     -19.246 -99.293  -5.857  1.00  0.00     0.066 A 
HETATM   11  C10 UNL     1     -17.883 -98.991  -6.126  1.00  0.00     0.119 A 
HETATM   12  C11 UNL     1     -16.963 -99.543  -5.265  1.00  0.00     0.051 A 
ENDROOT
BRANCH   6  13
HETATM   13  O1  UNL     1     -16.325-101.554  -2.403  1.00  0.00    -0.174 OA
BRANCH  13  14
HETATM   14  C4  UNL     1     -16.085-102.915  -2.545  1.00  0.00     0.395 C 
HETATM   15  N4  UNL     1     -14.755-103.409  -2.811  1.00  0.00    -0.031 NA
HETATM   16  O2  UNL     1     -17.066-103.693  -2.431  1.00  0.00    -0.240 OA
ENDBRANCH  13  14
ENDBRANCH   6  13
BRANCH  11  17
HETATM   17  N6  UNL     1     -17.621 -98.168  -7.229  1.00  0.00    -0.115 N 
HETATM   18  O4  UNL     1     -16.709 -98.170  -8.023  1.00  0.00    -0.532 OA
HETATM   19  O5  UNL     1     -18.640 -97.234  -7.532  1.00  0.00    -0.532 OA
ENDBRANCH  11  17
BRANCH   9  20
HETATM   20  N5  UNL     1     -21.035-100.344  -4.609  1.00  0.00    -0.334 N 
HETATM   21  C8  UNL     1     -21.976 -99.774  -5.198  1.00  0.00     0.353 C 
HETATM   22  O3  UNL     1     -22.924 -99.346  -5.858  1.00  0.00    -0.283 OA
ATOM     23  H5  UNL     1     -21.272-101.054  -3.916  1.00  0.00     0.168 HD
ENDBRANCH   9  20
TORSDOF 4
ENDMDL
MODEL 3
REMARK VINA RESULT: -5.074330201      9.553     10.154
REMARK  4 active torsions:
REMARK  status: ('A' for Active; 'I' for Inactive)
REMARK    1  A    between atoms: N3_6  and  O1_7 
REMARK    2  A    between atoms: O1_7  and  C4_8 
REMARK    3  A    between atoms: C7_13  and  N5_14 
REMARK    4  A    between atoms: C10_19  and  N6_20 
ROOT
HETATM    1  N1  UNL     1     -12.892 -99.277  -6.423  1.00  0.00    -0.191 NA
HETATM    2  C1  UNL     1     -13.760 -99.773  -5.797  1.00  0.00     0.104 C 
HETATM    3  C2  UNL     1     -14.768-100.388  -4.994  1.00  0.00     0.103 A 
HETATM    4  C3  UNL     1     -14.489-101.320  -3.970  1.00  0.00     0.167 A 
HETATM    5  N2  UNL     1     -13.159-101.767  -3.680  1.00  0.00    -0.079 NA
HETATM    6  N3  UNL     1     -15.627-101.665  -3.384  1.00  0.00    -0.196 N 
HETATM    7  C5  UNL     1     -16.637-100.999  -3.978  1.00  0.00     0.081 A 
HETATM    8  C6  UNL     1     -17.990-100.980  -3.738  1.00  0.00     0.062 A 
HETATM    9  C7  UNL     1     -18.846-100.194  -4.465  1.00  0.00     0.038 A 
HETATM   10  C9  UNL     1     -18.319 -99.423  -5.445  1.00  0.00     0.066 A 
HETATM   11  C10 UNL     1     -16.933 -99.384  -5.762  1.00  0.00     0.119 A 
HETATM   12  C11 UNL     1     -16.118-100.188  -5.001  1.00  0.00     0.051 A 
ENDROOT
BRANCH   6  13
HETATM   13  O1  UNL     1     -15.809-102.536  -2.348  1.00  0.00    -0.174 OA
BRANCH  13  14
HETATM   14  C4  UNL     1     -15.517-103.881  -2.535  1.00  0.00     0.395 C 
HETATM   15  N4  UNL     1     -14.183-104.387  -2.312  1.00  0.00    -0.031 NA
HETATM   16  O2  UNL     1     -16.454-104.635  -2.903  1.00  0.00    -0.240 OA
ENDBRANCH  13  14
ENDBRANCH   6  13
BRANCH  11  17
HETATM   17  N6  UNL     1     -16.547 -98.537  -6.809  1.00  0.00    -0.115 N 
HETATM   18  O4  UNL     1     -15.451 -98.208  -7.202  1.00  0.00    -0.532 OA
HETATM   19  O5  UNL     1     -17.609 -98.053  -7.609  1.00  0.00    -0.532 OA
ENDBRANCH  11  17
BRANCH   9  20
HETATM   20  N5  UNL     1     -20.241-100.193  -4.189  1.00  0.00    -0.334 N 
HETATM   21  C8  UNL     1     -21.117 -99.733  -4.950  1.00  0.00     0.353 C 
HETATM   22  O3  UNL     1     -22.020 -99.428  -5.731  1.00  0.00    -0.283 OA
ATOM     23  H5  UNL     1     -20.548-100.598  -3.305  1.00  0.00     0.168 HD
ENDBRANCH   9  20
TORSDOF 4
ENDMDL
MODEL 4
REMARK VINA RESULT: -4.924665625      1.959      4.581
REMARK  4 active torsions:
REMARK  status: ('A' for Active; 'I' for Inactive)
REMARK    1  A    between atoms: N3_6  and  O1_7 
REMARK    2  A    between atoms: O1_7  and  C4_8 
REMARK    3  A    between atoms: C7_13  and  N5_14 
REMARK    4  A    between atoms: C10_19  and  N6_20 
ROOT
HETATM    1  N1  UNL     1      -8.711 -96.448   1.734  1.00  0.00    -0.191 NA
HETATM    2  C1  UNL     1      -8.933 -97.602   1.847  1.00  0.00     0.104 C 
HETATM    3  C2  UNL     1      -9.139 -99.009   1.978  1.00  0.00     0.103 A 
HETATM    4  C3  UNL     1      -8.194 -99.977   1.570  1.00  0.00     0.167 A 
HETATM    5  N2  UNL     1      -6.957 -99.624   0.940  1.00  0.00    -0.079 NA
HETATM    6  N3  UNL     1      -8.660-101.181   1.871  1.00  0.00    -0.196 N 
HETATM    7  C5  UNL     1      -9.865-101.043   2.456  1.00  0.00     0.081 A 
HETATM    8  C6  UNL     1     -10.746-101.965   2.971  1.00  0.00     0.062 A 
HETATM    9  C7  UNL     1     -11.929-101.591   3.555  1.00  0.00     0.038 A 
HETATM   10  C9  UNL     1     -12.217-100.270   3.613  1.00  0.00     0.066 A 
HETATM   11  C10 UNL     1     -11.365 -99.251   3.105  1.00  0.00     0.119 A 
HETATM   12  C11 UNL     1     -10.190 -99.679   2.533  1.00  0.00     0.051 A 
ENDROOT
BRANCH   6  13
HETATM   13  O1  UNL     1      -8.065-102.391   1.652  1.00  0.00    -0.174 OA
BRANCH  13  14
HETATM   14  C4  UNL     1      -7.270-102.945   2.647  1.00  0.00     0.395 C 
HETATM   15  N4  UNL     1      -5.939-102.444   2.895  1.00  0.00    -0.031 NA
HETATM   16  O2  UNL     1      -7.753-103.892   3.318  1.00  0.00    -0.240 OA
ENDBRANCH  13  14
ENDBRANCH   6  13
BRANCH  11  17
HETATM   17  N6  UNL     1     -11.809 -97.930   3.239  1.00  0.00    -0.115 N 
HETATM   18  O4  UNL     1     -12.384 -97.202   2.464  1.00  0.00    -0.532 OA
HETATM   19  O5  UNL     1     -11.646 -97.373   4.530  1.00  0.00    -0.532 OA
ENDBRANCH  11  17
BRANCH   9  20
HETATM   20  N5  UNL     1     -12.818-102.569   4.081  1.00  0.00    -0.334 N 
HETATM   21  C8  UNL     1     -12.588-103.795   4.116  1.00  0.00     0.353 C 
HETATM   22  O3  UNL     1     -12.341-104.987   4.305  1.00  0.00    -0.283 OA
ATOM     23  H5  UNL     1     -13.709-102.244   4.458  1.00  0.00     0.168 HD
ENDBRANCH   9  20
TORSDOF 4
ENDMDL
MODEL 5
REMARK VINA RESULT: -4.907700547      1.836      4.739
REMARK  4 active torsions:
REMARK  status: ('A' for Active; 'I' for Inactive)
REMARK    1  A    between atoms: N3_6  and  O1_7 
REMARK    2  A    between atoms: O1_7  and  C4_8 
REMARK    3  A    between atoms: C7_13  and  N5_14 
REMARK    4  A    between atoms: C10_19  and  N6_20 
ROOT
HETATM    1  N1  UNL     1     -11.414 -97.927   1.880  1.00  0.00    -0.191 NA
HETATM    2  C1  UNL     1     -10.984 -98.966   2.238  1.00  0.00     0.104 C 
HETATM    3  C2  UNL     1     -10.521-100.239   2.690  1.00  0.00     0.103 A 
HETATM    4  C3  UNL     1     -11.216-101.033   3.630  1.00  0.00     0.167 A 
HETATM    5  N2  UNL     1     -12.433-100.600   4.249  1.00  0.00    -0.079 NA
HETATM    6  N3  UNL     1     -10.555-102.169   3.800  1.00  0.00    -0.196 N 
HETATM    7  C5  UNL     1      -9.460-102.153   3.015  1.00  0.00     0.081 A 
HETATM    8  C6  UNL     1      -8.469-103.082   2.804  1.00  0.00     0.062 A 
HETATM    9  C7  UNL     1      -7.442-102.861   1.922  1.00  0.00     0.038 A 
HETATM   10  C9  UNL     1      -7.424-101.684   1.254  1.00  0.00     0.066 A 
HETATM   11  C10 UNL     1      -8.406-100.668   1.413  1.00  0.00     0.119 A 
HETATM   12  C11 UNL     1      -9.416-100.942   2.306  1.00  0.00     0.051 A 
ENDROOT
BRANCH   6  13
HETATM   13  O1  UNL     1     -10.878-103.216   4.616  1.00  0.00    -0.174 OA
BRANCH  13  14
HETATM   14  C4  UNL     1     -11.619-104.272   4.101  1.00  0.00     0.395 C 
HETATM   15  N4  UNL     1     -11.051-105.595   4.000  1.00  0.00    -0.031 NA
HETATM   16  O2  UNL     1     -12.796-104.030   3.730  1.00  0.00    -0.240 OA
ENDBRANCH  13  14
ENDBRANCH   6  13
BRANCH  11  17
HETATM   17  N6  UNL     1      -8.244 -99.505   0.651  1.00  0.00    -0.115 N 
HETATM   18  O4  UNL     1      -8.645 -99.215  -0.453  1.00  0.00    -0.532 OA
HETATM   19  O5  UNL     1      -7.579 -98.445   1.312  1.00  0.00    -0.532 OA
ENDBRANCH  11  17
BRANCH   9  20
HETATM   20  N5  UNL     1      -6.433-103.843   1.723  1.00  0.00    -0.334 N 
HETATM   21  C8  UNL     1      -5.700-104.303   2.622  1.00  0.00     0.353 C 
HETATM   22  O3  UNL     1      -5.062-104.889   3.498  1.00  0.00    -0.283 OA
ATOM     23  H5  UNL     1      -6.299-104.198   0.776  1.00  0.00     0.168 HD
ENDBRANCH   9  20
TORSDOF 4
ENDMDL
