MODEL 1
REMARK VINA RESULT: -6.372093403      0.000      0.000
REMARK  4 active torsions:
REMARK  status: ('A' for Active; 'I' for Inactive)
REMARK    1  A    between atoms: O1_2  and  C2_3 
REMARK    2  A    between atoms: C5_6  and  N1_7 
REMARK    3  A    between atoms: N1_7  and  C6_9 
REMARK    4  A    between atoms: C7_18  and  N7_19 
ROOT
HETATM    1  C2  UNL     1     -21.294 -98.839  -5.859  1.00  0.00     0.112 A 
HETATM    2  C3  UNL     1     -20.414 -99.051  -4.836  1.00  0.00     0.062 A 
HETATM    3  C4  UNL     1     -19.107 -99.042  -5.122  1.00  0.00     0.047 A 
HETATM    4  C5  UNL     1     -18.028 -99.234  -4.244  1.00  0.00     0.149 A 
HETATM    5  N6  UNL     1     -16.783 -99.189  -4.714  1.00  0.00    -0.175 N 
ATOM      6  H6  UNL     1     -16.028 -99.334  -4.043  1.00  0.00     0.186 HD
HETATM    7  C7  UNL     1     -16.439 -98.974  -5.971  1.00  0.00     0.682 A 
HETATM    8  N8  UNL     1     -17.459 -98.784  -6.849  1.00  0.00    -0.184 N 
ATOM      9  H8  UNL     1     -17.260 -98.614  -7.835  1.00  0.00     0.185 HD
HETATM   10  C10 UNL     1     -18.750 -98.822  -6.407  1.00  0.00     0.107 A 
HETATM   11  S1  UNL     1     -20.256 -98.628  -7.216  1.00  0.00    -0.046 SA
ENDROOT
BRANCH   4  12
HETATM   12  N1  UNL     1     -18.197 -99.478  -2.857  1.00  0.00    -0.173 N 
ATOM     13  H1  UNL     1     -18.501-100.403  -2.557  1.00  0.00     0.186 HD
BRANCH  12  14
HETATM   14  C6  UNL     1     -17.981 -98.578  -1.959  1.00  0.00     0.709 A 
HETATM   15  N2  UNL     1     -18.250 -97.267  -2.077  1.00  0.00    -0.117 N 
HETATM   16  N3  UNL     1     -17.893 -96.660  -0.954  1.00  0.00     0.006 NA
ATOM     17  H2  UNL     1     -18.661 -96.814  -2.893  1.00  0.00     0.202 HD
HETATM   18  N4  UNL     1     -17.395 -97.562  -0.111  1.00  0.00     0.006 NA
HETATM   19  N5  UNL     1     -17.452 -98.744  -0.734  1.00  0.00    -0.117 N 
ATOM     20  H5  UNL     1     -17.143 -99.634  -0.341  1.00  0.00     0.202 HD
ENDBRANCH  12  14
ENDBRANCH   4  12
BRANCH   7  21
HETATM   21  N7  UNL     1     -15.099 -98.934  -6.436  1.00  0.00    -0.226 N 
HETATM   22  C8  UNL     1     -14.021 -99.591  -5.728  1.00  0.00     0.168 C 
HETATM   23  C9  UNL     1     -14.809 -98.213  -7.657  1.00  0.00     0.168 C 
ENDBRANCH   7  21
BRANCH   1  24
HETATM   24  O1  UNL     1     -22.691 -98.797  -5.843  1.00  0.00    -0.349 OA
HETATM   25  C1  UNL     1     -23.375 -99.940  -5.332  1.00  0.00     0.211 C 
ENDBRANCH   1  24
TORSDOF 4
ENDMDL
MODEL 2
REMARK VINA RESULT: -5.986436365      2.561      4.717
REMARK  4 active torsions:
REMARK  status: ('A' for Active; 'I' for Inactive)
REMARK    1  A    between atoms: O1_2  and  C2_3 
REMARK    2  A    between atoms: C5_6  and  N1_7 
REMARK    3  A    between atoms: N1_7  and  C6_9 
REMARK    4  A    between atoms: C7_18  and  N7_19 
ROOT
HETATM    1  C2  UNL     1     -15.311 -98.987  -5.840  1.00  0.00     0.112 A 
HETATM    2  C3  UNL     1     -16.171 -99.177  -4.796  1.00  0.00     0.062 A 
HETATM    3  C4  UNL     1     -17.484 -99.149  -5.052  1.00  0.00     0.047 A 
HETATM    4  C5  UNL     1     -18.546 -99.317  -4.148  1.00  0.00     0.149 A 
HETATM    5  N6  UNL     1     -19.800 -99.257  -4.591  1.00  0.00    -0.175 N 
ATOM      6  H6  UNL     1     -20.542 -99.383  -3.902  1.00  0.00     0.186 HD
HETATM    7  C7  UNL     1     -20.169 -99.047  -5.842  1.00  0.00     0.682 A 
HETATM    8  N8  UNL     1     -19.166 -98.880  -6.744  1.00  0.00    -0.184 N 
ATOM      9  H8  UNL     1     -19.384 -98.714  -7.726  1.00  0.00     0.185 HD
HETATM   10  C10 UNL     1     -17.867 -98.935  -6.331  1.00  0.00     0.107 A 
HETATM   11  S1  UNL     1     -16.376 -98.772  -7.175  1.00  0.00    -0.046 SA
ENDROOT
BRANCH   4  12
HETATM   12  N1  UNL     1     -18.350 -99.551  -2.763  1.00  0.00    -0.173 N 
ATOM     13  H1  UNL     1     -18.426-100.506  -2.413  1.00  0.00     0.186 HD
BRANCH  12  14
HETATM   14  C6  UNL     1     -18.079 -98.607  -1.928  1.00  0.00     0.709 A 
HETATM   15  N2  UNL     1     -18.268 -97.293  -2.135  1.00  0.00    -0.117 N 
HETATM   16  N3  UNL     1     -17.874 -96.634  -1.055  1.00  0.00     0.006 NA
ATOM     17  H2  UNL     1     -18.651 -96.872  -2.982  1.00  0.00     0.202 HD
HETATM   18  N4  UNL     1     -17.432 -97.505  -0.151  1.00  0.00     0.006 NA
HETATM   19  N5  UNL     1     -17.561 -98.721  -0.693  1.00  0.00    -0.117 N 
ATOM     20  H5  UNL     1     -17.307 -99.599  -0.239  1.00  0.00     0.202 HD
ENDBRANCH  12  14
ENDBRANCH   4  12
BRANCH   7  21
HETATM   21  N7  UNL     1     -21.518 -98.989  -6.277  1.00  0.00    -0.226 N 
HETATM   22  C8  UNL     1     -22.584 -99.662  -5.565  1.00  0.00     0.168 C 
HETATM   23  C9  UNL     1     -21.831 -98.231  -7.469  1.00  0.00     0.168 C 
ENDBRANCH   7  21
BRANCH   1  24
HETATM   24  O1  UNL     1     -13.914 -98.968  -5.856  1.00  0.00    -0.349 OA
HETATM   25  C1  UNL     1     -13.266 -99.434  -7.038  1.00  0.00     0.211 C 
ENDBRANCH   1  24
TORSDOF 4
ENDMDL
MODEL 3
REMARK VINA RESULT: -5.923154737      2.417      3.249
REMARK  4 active torsions:
REMARK  status: ('A' for Active; 'I' for Inactive)
REMARK    1  A    between atoms: O1_2  and  C2_3 
REMARK    2  A    between atoms: C5_6  and  N1_7 
REMARK    3  A    between atoms: N1_7  and  C6_9 
REMARK    4  A    between atoms: C7_18  and  N7_19 
ROOT
HETATM    1  C2  UNL     1     -20.545 -99.675  -5.058  1.00  0.00     0.112 A 
HETATM    2  C3  UNL     1     -19.506-100.126  -4.295  1.00  0.00     0.062 A 
HETATM    3  C4  UNL     1     -18.262 -99.856  -4.708  1.00  0.00     0.047 A 
HETATM    4  C5  UNL     1     -17.050-100.213  -4.095  1.00  0.00     0.149 A 
HETATM    5  N6  UNL     1     -15.898 -99.853  -4.658  1.00  0.00    -0.175 N 
ATOM      6  H6  UNL     1     -15.041-100.132  -4.181  1.00  0.00     0.186 HD
HETATM    7  C7  UNL     1     -15.768 -99.165  -5.778  1.00  0.00     0.682 A 
HETATM    8  N8  UNL     1     -16.922 -98.803  -6.399  1.00  0.00    -0.184 N 
ATOM      9  H8  UNL     1     -16.890 -98.271  -7.268  1.00  0.00     0.185 HD
HETATM   10  C10 UNL     1     -18.123 -99.153  -5.854  1.00  0.00     0.107 A 
HETATM   11  S1  UNL     1     -19.746 -98.871  -6.353  1.00  0.00    -0.046 SA
ENDROOT
BRANCH   4  12
HETATM   12  N1  UNL     1     -16.986-100.952  -2.886  1.00  0.00    -0.173 N 
ATOM     13  H1  UNL     1     -17.460-100.583  -2.062  1.00  0.00     0.186 HD
BRANCH  12  14
HETATM   14  C6  UNL     1     -16.353-102.071  -2.786  1.00  0.00     0.709 A 
HETATM   15  N2  UNL     1     -16.853-103.219  -2.298  1.00  0.00    -0.117 N 
HETATM   16  N3  UNL     1     -15.909-104.148  -2.355  1.00  0.00     0.006 NA
ATOM     17  H2  UNL     1     -17.799-103.353  -1.943  1.00  0.00     0.202 HD
HETATM   18  N4  UNL     1     -14.805-103.616  -2.873  1.00  0.00     0.006 NA
HETATM   19  N5  UNL     1     -15.083-102.335  -3.139  1.00  0.00    -0.117 N 
ATOM     20  H5  UNL     1     -14.432-101.662  -3.547  1.00  0.00     0.202 HD
ENDBRANCH  12  14
ENDBRANCH   4  12
BRANCH   7  21
HETATM   21  N7  UNL     1     -14.522 -98.799  -6.349  1.00  0.00    -0.226 N 
HETATM   22  C8  UNL     1     -13.318 -99.571  -6.125  1.00  0.00     0.168 C 
HETATM   23  C9  UNL     1     -14.460 -97.615  -7.179  1.00  0.00     0.168 C 
ENDBRANCH   7  21
BRANCH   1  24
HETATM   24  O1  UNL     1     -21.922 -99.813  -4.864  1.00  0.00    -0.349 OA
HETATM   25  C1  UNL     1     -22.784 -99.144  -5.783  1.00  0.00     0.211 C 
ENDBRANCH   1  24
TORSDOF 4
ENDMDL
MODEL 4
REMARK VINA RESULT: -5.373657561      2.537      3.412
REMARK  4 active torsions:
REMARK  status: ('A' for Active; 'I' for Inactive)
REMARK    1  A    between atoms: O1_2  and  C2_3 
REMARK    2  A    between atoms: C5_6  and  N1_7 
REMARK    3  A    between atoms: N1_7  and  C6_9 
REMARK    4  A    between atoms: C7_18  and  N7_19 
ROOT
HETATM    1  C2  UNL     1     -20.309 -99.786  -4.916  1.00  0.00     0.112 A 
HETATM    2  C3  UNL     1     -19.232-100.199  -4.185  1.00  0.00     0.062 A 
HETATM    3  C4  UNL     1     -18.011 -99.897  -4.642  1.00  0.00     0.047 A 
HETATM    4  C5  UNL     1     -16.769-100.212  -4.068  1.00  0.00     0.149 A 
HETATM    5  N6  UNL     1     -15.648 -99.825  -4.673  1.00  0.00    -0.175 N 
ATOM      6  H6  UNL     1     -14.767-100.074  -4.223  1.00  0.00     0.186 HD
HETATM    7  C7  UNL     1     -15.576 -99.146  -5.804  1.00  0.00     0.682 A 
HETATM    8  N8  UNL     1     -16.760 -98.824  -6.388  1.00  0.00    -0.184 N 
ATOM      9  H8  UNL     1     -16.773 -98.301  -7.264  1.00  0.00     0.185 HD
HETATM   10  C10 UNL     1     -17.932 -99.203  -5.800  1.00  0.00     0.107 A 
HETATM   11  S1  UNL     1     -19.578 -98.974  -6.246  1.00  0.00    -0.046 SA
ENDROOT
BRANCH   4  12
HETATM   12  N1  UNL     1     -16.643-100.936  -2.854  1.00  0.00    -0.173 N 
ATOM     13  H1  UNL     1     -17.019-100.526  -2.000  1.00  0.00     0.186 HD
BRANCH  12  14
HETATM   14  C6  UNL     1     -16.072-102.090  -2.787  1.00  0.00     0.709 A 
HETATM   15  N2  UNL     1     -14.892-102.419  -3.340  1.00  0.00    -0.117 N 
HETATM   16  N3  UNL     1     -14.634-103.688  -3.057  1.00  0.00     0.006 NA
ATOM     17  H2  UNL     1     -14.295-101.797  -3.884  1.00  0.00     0.202 HD
HETATM   18  N4  UNL     1     -15.631-104.185  -2.329  1.00  0.00     0.006 NA
HETATM   19  N5  UNL     1     -16.516-103.195  -2.164  1.00  0.00    -0.117 N 
ATOM     20  H5  UNL     1     -17.392-103.268  -1.645  1.00  0.00     0.202 HD
ENDBRANCH  12  14
ENDBRANCH   4  12
BRANCH   7  21
HETATM   21  N7  UNL     1     -14.361 -98.750  -6.420  1.00  0.00    -0.226 N 
HETATM   22  C8  UNL     1     -14.097 -97.374  -6.785  1.00  0.00     0.168 C 
HETATM   23  C9  UNL     1     -13.359 -99.759  -6.690  1.00  0.00     0.168 C 
ENDBRANCH   7  21
BRANCH   1  24
HETATM   24  O1  UNL     1     -21.674 -99.962  -4.674  1.00  0.00    -0.349 OA
HETATM   25  C1  UNL     1     -22.566 -99.749  -5.767  1.00  0.00     0.211 C 
ENDBRANCH   1  24
TORSDOF 4
ENDMDL
MODEL 5
REMARK VINA RESULT: -5.272126105      1.079      1.385
REMARK  4 active torsions:
REMARK  status: ('A' for Active; 'I' for Inactive)
REMARK    1  A    between atoms: O1_2  and  C2_3 
REMARK    2  A    between atoms: C5_6  and  N1_7 
REMARK    3  A    between atoms: N1_7  and  C6_9 
REMARK    4  A    between atoms: C7_18  and  N7_19 
ROOT
HETATM    1  C2  UNL     1     -20.102 -98.484  -6.448  1.00  0.00     0.112 A 
HETATM    2  C3  UNL     1     -19.534 -98.804  -5.247  1.00  0.00     0.062 A 
HETATM    3  C4  UNL     1     -18.219 -99.048  -5.221  1.00  0.00     0.047 A 
HETATM    4  C5  UNL     1     -17.424 -99.391  -4.115  1.00  0.00     0.149 A 
HETATM    5  N6  UNL     1     -16.119 -99.598  -4.284  1.00  0.00    -0.175 N 
ATOM      6  H6  UNL     1     -15.578 -99.846  -3.455  1.00  0.00     0.186 HD
HETATM    7  C7  UNL     1     -15.464 -99.510  -5.428  1.00  0.00     0.682 A 
HETATM    8  N8  UNL     1     -16.203 -99.179  -6.519  1.00  0.00    -0.184 N 
ATOM      9  H8  UNL     1     -15.757 -99.096  -7.433  1.00  0.00     0.185 HD
HETATM   10  C10 UNL     1     -17.544 -98.959  -6.389  1.00  0.00     0.107 A 
HETATM   11  S1  UNL     1     -18.762 -98.533  -7.527  1.00  0.00    -0.046 SA
ENDROOT
BRANCH   4  12
HETATM   12  N1  UNL     1     -17.947 -99.533  -2.805  1.00  0.00    -0.173 N 
ATOM     13  H1  UNL     1     -18.406-100.408  -2.554  1.00  0.00     0.186 HD
BRANCH  12  14
HETATM   14  C6  UNL     1     -17.865 -98.601  -1.917  1.00  0.00     0.709 A 
HETATM   15  N2  UNL     1     -18.243 -97.322  -2.080  1.00  0.00    -0.117 N 
HETATM   16  N3  UNL     1     -18.008 -96.666  -0.953  1.00  0.00     0.006 NA
ATOM     17  H2  UNL     1     -18.643 -96.923  -2.929  1.00  0.00     0.202 HD
HETATM   18  N4  UNL     1     -17.483 -97.505  -0.062  1.00  0.00     0.006 NA
HETATM   19  N5  UNL     1     -17.397 -98.698  -0.660  1.00  0.00    -0.117 N 
ATOM     20  H5  UNL     1     -17.034 -99.549  -0.230  1.00  0.00     0.202 HD
ENDBRANCH  12  14
ENDBRANCH   4  12
BRANCH   7  21
HETATM   21  N7  UNL     1     -14.071 -99.738  -5.568  1.00  0.00    -0.226 N 
HETATM   22  C8  UNL     1     -13.289 -99.100  -6.606  1.00  0.00     0.168 C 
HETATM   23  C9  UNL     1     -13.418-100.638  -4.642  1.00  0.00     0.168 C 
ENDBRANCH   7  21
BRANCH   1  24
HETATM   24  O1  UNL     1     -21.432 -98.186  -6.757  1.00  0.00    -0.349 OA
HETATM   25  C1  UNL     1     -22.444 -98.911  -6.060  1.00  0.00     0.211 C 
ENDBRANCH   1  24
TORSDOF 4
ENDMDL
