MODEL 1
REMARK VINA RESULT: -7.830527045      0.000      0.000
REMARK  7 active torsions:
REMARK  status: ('A' for Active; 'I' for Inactive)
REMARK    1  A    between atoms: C3_4  and  N2_5 
REMARK    2  A    between atoms: C4_8  and  N3_9 
REMARK    3  A    between atoms: N3_9  and  N4_11 
REMARK    4  A    between atoms: C5_13  and  C6_14 
REMARK    5  A    between atoms: C9_17  and  O3_18 
REMARK    6  A    between atoms: N6_22  and  N7_23 
REMARK    7  A    between atoms: N7_23  and  O4_27 
ROOT
HETATM    1  C1  UNL     1     -13.846-102.721  -3.127  1.00  0.00     0.179 C 
HETATM    2  N1  UNL     1     -14.261-101.543  -3.920  1.00  0.00    -0.279 N 
HETATM    3  C2  UNL     1     -13.590-100.953  -4.898  1.00  0.00     0.152 A 
HETATM    4  C3  UNL     1     -14.333 -99.866  -5.425  1.00  0.00     0.168 A 
HETATM    5  C4  UNL     1     -15.482 -99.851  -4.696  1.00  0.00     0.199 A 
HETATM    6  N6  UNL     1     -15.395-100.894  -3.785  1.00  0.00    -0.133 N 
ENDROOT
BRANCH   5   7
HETATM    7  N3  UNL     1     -16.518 -99.140  -4.783  1.00  0.00    -0.281 N 
ATOM      8  H3  UNL     1     -16.429 -98.196  -4.407  1.00  0.00     0.188 HD
BRANCH   7   9
HETATM    9  N4  UNL     1     -17.734 -99.442  -5.303  1.00  0.00    -0.308 N 
HETATM   10  C5  UNL     1     -18.819 -98.925  -4.763  1.00  0.00     0.136 C 
ATOM     11  H4  UNL     1     -17.808-100.065  -6.107  1.00  0.00     0.186 HD
BRANCH  10  12
HETATM   12  C6  UNL     1     -20.144 -99.197  -5.260  1.00  0.00     0.051 A 
HETATM   13  C7  UNL     1     -20.854 -98.285  -6.070  1.00  0.00     0.035 A 
HETATM   14  C8  UNL     1     -22.053 -98.856  -6.356  1.00  0.00     0.058 A 
HETATM   15  C9  UNL     1     -22.101-100.095  -5.746  1.00  0.00     0.140 A 
HETATM   16  N5  UNL     1     -20.930-100.264  -5.092  1.00  0.00    -0.336 N 
ATOM     17  H5  UNL     1     -20.682-101.090  -4.548  1.00  0.00     0.168 HD
BRANCH  15  18
HETATM   18  O3  UNL     1     -23.108-101.028  -5.758  1.00  0.00    -0.346 OA
ATOM     19  H3  UNL     1     -23.724-101.236  -6.450  1.00  0.00     0.219 HD
ENDBRANCH  15  18
ENDBRANCH  10  12
ENDBRANCH   7   9
ENDBRANCH   5   7
BRANCH   4  20
HETATM   20  N2  UNL     1     -13.871 -99.043  -6.484  1.00  0.00    -0.110 N 
HETATM   21  O1  UNL     1     -14.073 -97.788  -6.394  1.00  0.00    -0.532 OA
HETATM   22  O2  UNL     1     -13.239 -99.439  -7.615  1.00  0.00    -0.532 OA
ENDBRANCH   4  20
BRANCH   6  23
HETATM   23  N7  UNL     1     -16.374-101.189  -2.844  1.00  0.00    -0.078 N 
HETATM   24  N8  UNL     1     -16.767-102.346  -2.572  1.00  0.00    -0.302 N 
ATOM     25  H82 UNL     1     -16.344-103.115  -3.091  1.00  0.00     0.181 HD
ATOM     26  H81 UNL     1     -17.486-102.563  -1.881  1.00  0.00     0.181 HD
BRANCH  23  27
HETATM   27  O4  UNL     1     -16.955-100.135  -2.133  1.00  0.00    -0.252 OA
ATOM     28  H4  UNL     1     -17.685-100.325  -1.556  1.00  0.00     0.248 HD
ENDBRANCH  23  27
ENDBRANCH   6  23
TORSDOF 7
ENDMDL
MODEL 2
REMARK VINA RESULT: -7.601196934      2.016      5.862
REMARK  7 active torsions:
REMARK  status: ('A' for Active; 'I' for Inactive)
REMARK    1  A    between atoms: C3_4  and  N2_5 
REMARK    2  A    between atoms: C4_8  and  N3_9 
REMARK    3  A    between atoms: N3_9  and  N4_11 
REMARK    4  A    between atoms: C5_13  and  C6_14 
REMARK    5  A    between atoms: C9_17  and  O3_18 
REMARK    6  A    between atoms: N6_22  and  N7_23 
REMARK    7  A    between atoms: N7_23  and  O4_27 
ROOT
HETATM    1  C1  UNL     1     -20.400 -98.760  -6.769  1.00  0.00     0.179 C 
HETATM    2  N1  UNL     1     -18.996 -98.820  -6.303  1.00  0.00    -0.279 N 
HETATM    3  C2  UNL     1     -17.905 -98.534  -6.997  1.00  0.00     0.152 A 
HETATM    4  C3  UNL     1     -16.748 -98.694  -6.191  1.00  0.00     0.168 A 
HETATM    5  C4  UNL     1     -17.225 -99.093  -4.981  1.00  0.00     0.199 A 
HETATM    6  N6  UNL     1     -18.607 -99.159  -5.095  1.00  0.00    -0.133 N 
ENDROOT
BRANCH   5   7
HETATM    7  N3  UNL     1     -16.646 -99.313  -3.886  1.00  0.00    -0.281 N 
ATOM      8  H3  UNL     1     -16.465 -98.486  -3.317  1.00  0.00     0.188 HD
BRANCH   7   9
HETATM    9  N4  UNL     1     -16.225-100.486  -3.349  1.00  0.00    -0.308 N 
HETATM   10  C5  UNL     1     -15.207-101.122  -3.890  1.00  0.00     0.136 C 
ATOM     11  H4  UNL     1     -16.694-100.873  -2.530  1.00  0.00     0.186 HD
BRANCH  10  12
HETATM   12  C6  UNL     1     -14.703-102.370  -3.375  1.00  0.00     0.051 A 
HETATM   13  C7  UNL     1     -13.322-102.651  -3.282  1.00  0.00     0.035 A 
HETATM   14  C8  UNL     1     -13.205-103.899  -2.757  1.00  0.00     0.058 A 
HETATM   15  C9  UNL     1     -14.473-104.394  -2.523  1.00  0.00     0.140 A 
HETATM   16  N5  UNL     1     -15.351-103.442  -2.910  1.00  0.00    -0.336 N 
ATOM     17  H5  UNL     1     -16.366-103.529  -2.856  1.00  0.00     0.168 HD
BRANCH  15  18
HETATM   18  O3  UNL     1     -14.847-105.607  -2.000  1.00  0.00    -0.346 OA
ATOM     19  H3  UNL     1     -14.628-105.990  -1.159  1.00  0.00     0.219 HD
ENDBRANCH  15  18
ENDBRANCH  10  12
ENDBRANCH   7   9
ENDBRANCH   5   7
BRANCH   4  20
HETATM   20  N2  UNL     1     -15.430 -98.460  -6.660  1.00  0.00    -0.110 N 
HETATM   21  O1  UNL     1     -15.271 -98.238  -7.905  1.00  0.00    -0.532 OA
HETATM   22  O2  UNL     1     -14.288 -98.458  -5.932  1.00  0.00    -0.532 OA
ENDBRANCH   4  20
BRANCH   6  23
HETATM   23  N7  UNL     1     -19.454 -99.553  -4.067  1.00  0.00    -0.078 N 
HETATM   24  N8  UNL     1     -20.464-100.278  -4.223  1.00  0.00    -0.302 N 
ATOM     25  H82 UNL     1     -20.676-100.583  -5.172  1.00  0.00     0.181 HD
ATOM     26  H81 UNL     1     -21.086-100.568  -3.468  1.00  0.00     0.181 HD
BRANCH  23  27
HETATM   27  O4  UNL     1     -19.164 -99.136  -2.766  1.00  0.00    -0.252 OA
ATOM     28  H4  UNL     1     -18.505 -99.611  -2.273  1.00  0.00     0.248 HD
ENDBRANCH  23  27
ENDBRANCH   6  23
TORSDOF 7
ENDMDL
MODEL 3
REMARK VINA RESULT: -7.494761320      2.038      6.197
REMARK  7 active torsions:
REMARK  status: ('A' for Active; 'I' for Inactive)
REMARK    1  A    between atoms: C3_4  and  N2_5 
REMARK    2  A    between atoms: C4_8  and  N3_9 
REMARK    3  A    between atoms: N3_9  and  N4_11 
REMARK    4  A    between atoms: C5_13  and  C6_14 
REMARK    5  A    between atoms: C9_17  and  O3_18 
REMARK    6  A    between atoms: N6_22  and  N7_23 
REMARK    7  A    between atoms: N7_23  and  O4_27 
ROOT
HETATM    1  C1  UNL     1     -20.379 -98.688  -6.738  1.00  0.00     0.179 C 
HETATM    2  N1  UNL     1     -18.986 -98.812  -6.254  1.00  0.00    -0.279 N 
HETATM    3  C2  UNL     1     -17.874 -98.554  -6.925  1.00  0.00     0.152 A 
HETATM    4  C3  UNL     1     -16.737 -98.774  -6.107  1.00  0.00     0.168 A 
HETATM    5  C4  UNL     1     -17.248 -99.179  -4.912  1.00  0.00     0.199 A 
HETATM    6  N6  UNL     1     -18.629 -99.188  -5.047  1.00  0.00    -0.133 N 
ENDROOT
BRANCH   5   7
HETATM    7  N3  UNL     1     -16.694 -99.443  -3.813  1.00  0.00    -0.281 N 
ATOM      8  H3  UNL     1     -17.150 -99.047  -2.991  1.00  0.00     0.188 HD
BRANCH   7   9
HETATM    9  N4  UNL     1     -15.580-100.175  -3.558  1.00  0.00    -0.308 N 
HETATM   10  C5  UNL     1     -15.578-101.467  -3.810  1.00  0.00     0.136 C 
ATOM     11  H4  UNL     1     -14.749 -99.726  -3.173  1.00  0.00     0.186 HD
BRANCH  10  12
HETATM   12  C6  UNL     1     -14.433-102.308  -3.567  1.00  0.00     0.051 A 
HETATM   13  C7  UNL     1     -14.500-103.468  -2.765  1.00  0.00     0.035 A 
HETATM   14  C8  UNL     1     -13.256-104.015  -2.752  1.00  0.00     0.058 A 
HETATM   15  C9  UNL     1     -12.426-103.225  -3.524  1.00  0.00     0.140 A 
HETATM   16  N5  UNL     1     -13.173-102.203  -3.998  1.00  0.00    -0.336 N 
ATOM     17  H5  UNL     1     -12.824-101.457  -4.599  1.00  0.00     0.168 HD
BRANCH  15  18
HETATM   18  O3  UNL     1     -11.091-103.385  -3.802  1.00  0.00    -0.346 OA
ATOM     19  H3  UNL     1     -10.679-103.746  -4.579  1.00  0.00     0.219 HD
ENDBRANCH  15  18
ENDBRANCH  10  12
ENDBRANCH   7   9
ENDBRANCH   5   7
BRANCH   4  20
HETATM   20  N2  UNL     1     -15.404 -98.582  -6.552  1.00  0.00    -0.110 N 
HETATM   21  O1  UNL     1     -14.465 -98.736  -5.705  1.00  0.00    -0.532 OA
HETATM   22  O2  UNL     1     -14.997 -98.232  -7.796  1.00  0.00    -0.532 OA
ENDBRANCH   4  20
BRANCH   6  23
HETATM   23  N7  UNL     1     -19.506 -99.570  -4.040  1.00  0.00    -0.078 N 
HETATM   24  N8  UNL     1     -20.520-100.284  -4.219  1.00  0.00    -0.302 N 
ATOM     25  H82 UNL     1     -20.712-100.589  -5.173  1.00  0.00     0.181 HD
ATOM     26  H81 UNL     1     -21.164-100.565  -3.479  1.00  0.00     0.181 HD
BRANCH  23  27
HETATM   27  O4  UNL     1     -19.244 -99.152  -2.733  1.00  0.00    -0.252 OA
ATOM     28  H4  UNL     1     -18.399 -99.358  -2.351  1.00  0.00     0.248 HD
ENDBRANCH  23  27
ENDBRANCH   6  23
TORSDOF 7
ENDMDL
MODEL 4
REMARK VINA RESULT: -7.402987567      1.647      1.847
REMARK  7 active torsions:
REMARK  status: ('A' for Active; 'I' for Inactive)
REMARK    1  A    between atoms: C3_4  and  N2_5 
REMARK    2  A    between atoms: C4_8  and  N3_9 
REMARK    3  A    between atoms: N3_9  and  N4_11 
REMARK    4  A    between atoms: C5_13  and  C6_14 
REMARK    5  A    between atoms: C9_17  and  O3_18 
REMARK    6  A    between atoms: N6_22  and  N7_23 
REMARK    7  A    between atoms: N7_23  and  O4_27 
ROOT
HETATM    1  C1  UNL     1     -12.806-103.058  -3.591  1.00  0.00     0.179 C 
HETATM    2  N1  UNL     1     -13.833-102.054  -3.949  1.00  0.00    -0.279 N 
HETATM    3  C2  UNL     1     -13.678-100.979  -4.707  1.00  0.00     0.152 A 
HETATM    4  C3  UNL     1     -14.905-100.278  -4.832  1.00  0.00     0.168 A 
HETATM    5  C4  UNL     1     -15.791-101.006  -4.100  1.00  0.00     0.199 A 
HETATM    6  N6  UNL     1     -15.092-102.084  -3.576  1.00  0.00    -0.133 N 
ENDROOT
BRANCH   5   7
HETATM    7  N3  UNL     1     -17.030-100.878  -3.920  1.00  0.00    -0.281 N 
ATOM      8  H3  UNL     1     -17.349-101.034  -2.964  1.00  0.00     0.188 HD
BRANCH   7   9
HETATM    9  N4  UNL     1     -18.007-100.563  -4.808  1.00  0.00    -0.308 N 
HETATM   10  C5  UNL     1     -19.001 -99.786  -4.434  1.00  0.00     0.136 C 
ATOM     11  H4  UNL     1     -17.970-100.927  -5.760  1.00  0.00     0.186 HD
BRANCH  10  12
HETATM   12  C6  UNL     1     -20.073 -99.407  -5.320  1.00  0.00     0.051 A 
HETATM   13  C7  UNL     1     -21.430 -99.659  -5.023  1.00  0.00     0.035 A 
HETATM   14  C8  UNL     1     -22.161 -99.175  -6.060  1.00  0.00     0.058 A 
HETATM   15  C9  UNL     1     -21.293 -98.631  -6.988  1.00  0.00     0.140 A 
HETATM   16  N5  UNL     1     -20.041 -98.792  -6.506  1.00  0.00    -0.336 N 
ATOM     17  H5  UNL     1     -19.191 -98.487  -6.980  1.00  0.00     0.168 HD
BRANCH  15  18
HETATM   18  O3  UNL     1     -21.575 -98.026  -8.188  1.00  0.00    -0.346 OA
ATOM     19  H3  UNL     1     -21.039 -97.966  -8.969  1.00  0.00     0.219 HD
ENDBRANCH  15  18
ENDBRANCH  10  12
ENDBRANCH   7   9
ENDBRANCH   5   7
BRANCH   4  20
HETATM   20  N2  UNL     1     -15.051 -99.084  -5.583  1.00  0.00    -0.110 N 
HETATM   21  O1  UNL     1     -16.232 -98.678  -5.832  1.00  0.00    -0.532 OA
HETATM   22  O2  UNL     1     -14.063 -98.311  -6.095  1.00  0.00    -0.532 OA
ENDBRANCH   4  20
BRANCH   6  23
HETATM   23  N7  UNL     1     -15.654-103.049  -2.749  1.00  0.00    -0.078 N 
HETATM   24  N8  UNL     1     -15.173-104.191  -2.567  1.00  0.00    -0.302 N 
ATOM     25  H82 UNL     1     -14.319-104.422  -3.073  1.00  0.00     0.181 HD
ATOM     26  H81 UNL     1     -15.585-104.899  -1.959  1.00  0.00     0.181 HD
BRANCH  23  27
HETATM   27  O4  UNL     1     -16.825-102.731  -2.055  1.00  0.00    -0.252 OA
ATOM     28  H4  UNL     1     -16.779-102.086  -1.359  1.00  0.00     0.248 HD
ENDBRANCH  23  27
ENDBRANCH   6  23
TORSDOF 7
ENDMDL
MODEL 5
REMARK VINA RESULT: -7.370234187      1.424      1.611
REMARK  7 active torsions:
REMARK  status: ('A' for Active; 'I' for Inactive)
REMARK    1  A    between atoms: C3_4  and  N2_5 
REMARK    2  A    between atoms: C4_8  and  N3_9 
REMARK    3  A    between atoms: N3_9  and  N4_11 
REMARK    4  A    between atoms: C5_13  and  C6_14 
REMARK    5  A    between atoms: C9_17  and  O3_18 
REMARK    6  A    between atoms: N6_22  and  N7_23 
REMARK    7  A    between atoms: N7_23  and  O4_27 
ROOT
HETATM    1  C1  UNL     1     -12.713-103.141  -3.605  1.00  0.00     0.179 C 
HETATM    2  N1  UNL     1     -13.757-102.147  -3.938  1.00  0.00    -0.279 N 
HETATM    3  C2  UNL     1     -13.623-101.055  -4.675  1.00  0.00     0.152 A 
HETATM    4  C3  UNL     1     -14.862-100.372  -4.781  1.00  0.00     0.168 A 
HETATM    5  C4  UNL     1     -15.733-101.128  -4.059  1.00  0.00     0.199 A 
HETATM    6  N6  UNL     1     -15.014-102.205  -3.560  1.00  0.00    -0.133 N 
ENDROOT
BRANCH   5   7
HETATM    7  N3  UNL     1     -16.973-101.023  -3.871  1.00  0.00    -0.281 N 
ATOM      8  H3  UNL     1     -17.292-101.270  -2.934  1.00  0.00     0.188 HD
BRANCH   7   9
HETATM    9  N4  UNL     1     -17.949-100.631  -4.728  1.00  0.00    -0.308 N 
HETATM   10  C5  UNL     1     -19.013-100.009  -4.263  1.00  0.00     0.136 C 
ATOM     11  H4  UNL     1     -17.860-100.817  -5.726  1.00  0.00     0.186 HD
BRANCH  10  12
HETATM   12  C6  UNL     1     -20.089 -99.562  -5.110  1.00  0.00     0.051 A 
HETATM   13  C7  UNL     1     -19.880 -98.714  -6.220  1.00  0.00     0.035 A 
HETATM   14  C8  UNL     1     -21.094 -98.497  -6.789  1.00  0.00     0.058 A 
HETATM   15  C9  UNL     1     -22.045 -99.187  -6.062  1.00  0.00     0.140 A 
HETATM   16  N5  UNL     1     -21.399 -99.817  -5.056  1.00  0.00    -0.336 N 
ATOM     17  H5  UNL     1     -21.848-100.404  -4.353  1.00  0.00     0.168 HD
BRANCH  15  18
HETATM   18  O3  UNL     1     -23.401 -99.267  -6.265  1.00  0.00    -0.346 OA
ATOM     19  H3  UNL     1     -24.106 -99.206  -5.631  1.00  0.00     0.219 HD
ENDBRANCH  15  18
ENDBRANCH  10  12
ENDBRANCH   7   9
ENDBRANCH   5   7
BRANCH   4  20
HETATM   20  N2  UNL     1     -15.030 -99.166  -5.508  1.00  0.00    -0.110 N 
HETATM   21  O1  UNL     1     -16.219 -98.771  -5.738  1.00  0.00    -0.532 OA
HETATM   22  O2  UNL     1     -14.058 -98.370  -6.014  1.00  0.00    -0.532 OA
ENDBRANCH   4  20
BRANCH   6  23
HETATM   23  N7  UNL     1     -15.556-103.194  -2.749  1.00  0.00    -0.078 N 
HETATM   24  N8  UNL     1     -15.062-104.335  -2.600  1.00  0.00    -0.302 N 
ATOM     25  H82 UNL     1     -14.213-104.547  -3.123  1.00  0.00     0.181 HD
ATOM     26  H81 UNL     1     -15.460-105.062  -2.004  1.00  0.00     0.181 HD
BRANCH  23  27
HETATM   27  O4  UNL     1     -16.721-102.905  -2.033  1.00  0.00    -0.252 OA
ATOM     28  H4  UNL     1     -17.371-103.589  -1.929  1.00  0.00     0.248 HD
ENDBRANCH  23  27
ENDBRANCH   6  23
TORSDOF 7
ENDMDL
