MODEL 1
REMARK VINA RESULT: -7.655450566      0.000      0.000
REMARK  14 active torsions:
REMARK  status: ('A' for Active; 'I' for Inactive)
REMARK    1  A    between atoms: S1_2  and  C2_3 
REMARK    2  A    between atoms: C3_4  and  O1_5 
REMARK    3  A    between atoms: C4_7  and  O2_8 
REMARK    4  A    between atoms: C5_10  and  O3_11 
REMARK    5  A    between atoms: C6_13  and  N1_14 
REMARK    6  A    between atoms: N1_14  and  C7_15 
REMARK    7  A    between atoms: C7_15  and  O4_16 
REMARK    8  A    between atoms: C7_15  and  C8_18 
REMARK    9  A    between atoms: C8_18  and  C13_26 
REMARK   10  A    between atoms: N2_19  and  O5_21 
REMARK   11  A    between atoms: O5_21  and  C9_22 
REMARK   12  A    between atoms: C14_29  and  O8_30 
REMARK   13  A    between atoms: O8_30  and  C15_31 
REMARK   14  A    between atoms: C19_35  and  N3_36 
ROOT
HETATM    1  C2  UNL     1       7.508 -10.280  -3.915  1.00  0.00     0.110 C 
HETATM    2  C3  UNL     1       7.102 -10.700  -5.297  1.00  0.00     0.165 C 
HETATM    3  C4  UNL     1       7.058 -12.194  -5.318  1.00  0.00     0.180 C 
HETATM    4  C5  UNL     1       8.420 -12.677  -4.972  1.00  0.00     0.188 C 
HETATM    5  C6  UNL     1       9.463 -11.661  -4.681  1.00  0.00     0.227 C 
HETATM    6  C14 UNL     1       8.966 -10.647  -3.641  1.00  0.00     0.176 C 
ENDROOT
BRANCH   5   7
HETATM    7  N1  UNL     1      10.637 -12.335  -4.238  1.00  0.00    -0.412 NA
BRANCH   7   8
HETATM    8  C7  UNL     1      11.724 -12.959  -3.827  1.00  0.00     0.245 C 
BRANCH   8   9
HETATM    9  O4  UNL     1      12.702 -12.202  -3.274  1.00  0.00    -0.334 OA
ATOM     10  H4  UNL     1      13.512 -12.640  -3.041  1.00  0.00     0.220 HD
ENDBRANCH   8   9
BRANCH   8  11
HETATM   11  C8  UNL     1      12.168 -14.341  -3.837  1.00  0.00     0.196 C 
HETATM   12  N2  UNL     1      12.085 -14.941  -4.978  1.00  0.00    -0.255 N 
ATOM     13  H2  UNL     1      11.723 -14.393  -5.758  1.00  0.00     0.195 HD
BRANCH  12  14
HETATM   14  O5  UNL     1      12.430 -16.224  -5.242  1.00  0.00    -0.270 OA
BRANCH  14  15
HETATM   15  C9  UNL     1      11.538 -17.108  -5.910  1.00  0.00     0.078 C 
HETATM   16  C10 UNL     1      10.456 -17.644  -4.964  1.00  0.00     0.048 C 
HETATM   17  C11 UNL     1      12.241 -18.315  -6.472  1.00  0.00     0.048 C 
HETATM   18  C12 UNL     1      10.834 -16.391  -7.019  1.00  0.00     0.048 C 
ENDBRANCH  14  15
ENDBRANCH  12  14
BRANCH  11  19
HETATM   19  C13 UNL     1      12.598 -15.109  -2.721  1.00  0.00     0.234 C 
HETATM   20  O6  UNL     1      11.930 -15.874  -1.994  1.00  0.00    -0.643 OA
HETATM   21  O7  UNL     1      13.992 -15.000  -2.381  1.00  0.00    -0.643 OA
ENDBRANCH  11  19
ENDBRANCH   8  11
ENDBRANCH   7   8
ENDBRANCH   5   7
BRANCH   4  22
HETATM   22  O3  UNL     1       8.292 -13.586  -3.881  1.00  0.00    -0.390 OA
ATOM     23  H3  UNL     1       9.055 -13.478  -3.324  1.00  0.00     0.210 HD
ENDBRANCH   4  22
BRANCH   6  24
HETATM   24  O8  UNL     1       9.641  -9.443  -3.684  1.00  0.00    -0.374 OA
BRANCH  24  25
HETATM   25  C15 UNL     1      10.398  -9.073  -2.625  1.00  0.00     0.152 C 
HETATM   26  C16 UNL     1      11.856  -8.778  -2.894  1.00  0.00     0.034 C 
HETATM   27  C17 UNL     1      11.757  -7.481  -3.711  1.00  0.00     0.005 C 
HETATM   28  C18 UNL     1      10.434  -6.836  -3.280  1.00  0.00     0.035 C 
HETATM   29  C19 UNL     1      10.043  -7.665  -2.108  1.00  0.00     0.212 C 
BRANCH  29  30
HETATM   30  N3  UNL     1       8.777  -7.472  -1.583  1.00  0.00    -0.073 N 
ATOM     31  H33 UNL     1       8.122  -8.101  -2.047  1.00  0.00     0.274 HD
ATOM     32  H32 UNL     1       8.749  -7.833  -0.630  1.00  0.00     0.274 HD
ATOM     33  H31 UNL     1       8.398  -6.525  -1.594  1.00  0.00     0.274 HD
ENDBRANCH  29  30
ENDBRANCH  24  25
ENDBRANCH   6  24
BRANCH   3  34
HETATM   34  O2  UNL     1       6.035 -12.642  -4.469  1.00  0.00    -0.390 OA
ATOM     35  H2  UNL     1       5.726 -13.491  -4.766  1.00  0.00     0.210 HD
ENDBRANCH   3  34
BRANCH   1  36
HETATM   36  S1  UNL     1       6.517 -10.923  -2.585  1.00  0.00    -0.163 SA
HETATM   37  C1  UNL     1       5.772  -9.672  -1.542  1.00  0.00     0.090 C 
ENDBRANCH   1  36
BRANCH   2  38
HETATM   38  O1  UNL     1       5.938 -10.083  -5.719  1.00  0.00    -0.392 OA
ATOM     39  H1  UNL     1       5.504 -10.561  -6.416  1.00  0.00     0.210 HD
ENDBRANCH   2  38
TORSDOF 14
ENDMDL
MODEL 2
REMARK VINA RESULT: -7.430347362      1.911      2.600
REMARK  14 active torsions:
REMARK  status: ('A' for Active; 'I' for Inactive)
REMARK    1  A    between atoms: S1_2  and  C2_3 
REMARK    2  A    between atoms: C3_4  and  O1_5 
REMARK    3  A    between atoms: C4_7  and  O2_8 
REMARK    4  A    between atoms: C5_10  and  O3_11 
REMARK    5  A    between atoms: C6_13  and  N1_14 
REMARK    6  A    between atoms: N1_14  and  C7_15 
REMARK    7  A    between atoms: C7_15  and  O4_16 
REMARK    8  A    between atoms: C7_15  and  C8_18 
REMARK    9  A    between atoms: C8_18  and  C13_26 
REMARK   10  A    between atoms: N2_19  and  O5_21 
REMARK   11  A    between atoms: O5_21  and  C9_22 
REMARK   12  A    between atoms: C14_29  and  O8_30 
REMARK   13  A    between atoms: O8_30  and  C15_31 
REMARK   14  A    between atoms: C19_35  and  N3_36 
ROOT
HETATM    1  C2  UNL     1       8.810  -9.003  -2.745  1.00  0.00     0.110 C 
HETATM    2  C3  UNL     1       7.638  -8.666  -3.618  1.00  0.00     0.165 C 
HETATM    3  C4  UNL     1       6.689  -9.821  -3.563  1.00  0.00     0.180 C 
HETATM    4  C5  UNL     1       7.423 -11.014  -4.058  1.00  0.00     0.188 C 
HETATM    5  C6  UNL     1       8.842 -10.838  -4.461  1.00  0.00     0.227 C 
HETATM    6  C14 UNL     1       9.641 -10.129  -3.359  1.00  0.00     0.176 C 
ENDROOT
BRANCH   5   7
HETATM    7  N1  UNL     1       9.386 -12.119  -4.762  1.00  0.00    -0.412 NA
BRANCH   7   8
HETATM    8  C7  UNL     1       9.891 -13.305  -5.042  1.00  0.00     0.245 C 
BRANCH   8   9
HETATM    9  O4  UNL     1       9.066 -14.209  -5.624  1.00  0.00    -0.334 OA
ATOM     10  H4  UNL     1       9.466 -14.983  -6.003  1.00  0.00     0.220 HD
ENDBRANCH   8   9
BRANCH   8  11
HETATM   11  C8  UNL     1      11.188 -13.928  -4.853  1.00  0.00     0.196 C 
HETATM   12  N2  UNL     1      11.852 -14.165  -5.935  1.00  0.00    -0.255 N 
ATOM     13  H2  UNL     1      11.410 -13.893  -6.813  1.00  0.00     0.195 HD
BRANCH  12  14
HETATM   14  O5  UNL     1      13.076 -14.740  -6.023  1.00  0.00    -0.270 OA
BRANCH  14  15
HETATM   15  C9  UNL     1      13.255 -16.010  -6.638  1.00  0.00     0.078 C 
HETATM   16  C10 UNL     1      14.327 -15.963  -7.734  1.00  0.00     0.048 C 
HETATM   17  C11 UNL     1      11.999 -16.510  -7.300  1.00  0.00     0.048 C 
HETATM   18  C12 UNL     1      13.708 -17.015  -5.625  1.00  0.00     0.048 C 
ENDBRANCH  14  15
ENDBRANCH  12  14
BRANCH  11  19
HETATM   19  C13 UNL     1      11.754 -14.369  -3.626  1.00  0.00     0.234 C 
HETATM   20  O6  UNL     1      11.672 -15.492  -3.086  1.00  0.00    -0.643 OA
HETATM   21  O7  UNL     1      12.533 -13.396  -2.906  1.00  0.00    -0.643 OA
ENDBRANCH  11  19
ENDBRANCH   8  11
ENDBRANCH   7   8
ENDBRANCH   5   7
BRANCH   4  22
HETATM   22  O3  UNL     1       7.310 -12.034  -3.068  1.00  0.00    -0.390 OA
ATOM     23  H3  UNL     1       8.141 -12.085  -2.610  1.00  0.00     0.210 HD
ENDBRANCH   4  22
BRANCH   6  24
HETATM   24  O8  UNL     1      10.781  -9.504  -3.825  1.00  0.00    -0.374 OA
BRANCH  24  25
HETATM   25  C15 UNL     1      11.306  -8.476  -3.118  1.00  0.00     0.152 C 
HETATM   26  C16 UNL     1      12.722  -8.643  -2.616  1.00  0.00     0.034 C 
HETATM   27  C17 UNL     1      13.518  -8.593  -3.929  1.00  0.00     0.005 C 
HETATM   28  C18 UNL     1      12.645  -7.781  -4.894  1.00  0.00     0.035 C 
HETATM   29  C19 UNL     1      11.591  -7.240  -3.994  1.00  0.00     0.212 C 
BRANCH  29  30
HETATM   30  N3  UNL     1      10.512  -6.606  -4.583  1.00  0.00    -0.073 N 
ATOM     31  H33 UNL     1      10.252  -7.106  -5.433  1.00  0.00     0.274 HD
ATOM     32  H32 UNL     1       9.681  -6.754  -4.010  1.00  0.00     0.274 HD
ATOM     33  H31 UNL     1      10.602  -5.612  -4.792  1.00  0.00     0.274 HD
ENDBRANCH  29  30
ENDBRANCH  24  25
ENDBRANCH   6  24
BRANCH   3  34
HETATM   34  O2  UNL     1       6.174  -9.938  -2.262  1.00  0.00    -0.390 OA
ATOM     35  H2  UNL     1       5.315 -10.343  -2.299  1.00  0.00     0.210 HD
ENDBRANCH   3  34
BRANCH   1  36
HETATM   36  S1  UNL     1       8.426  -9.451  -1.067  1.00  0.00    -0.163 SA
HETATM   37  C1  UNL     1       9.838  -9.970  -0.094  1.00  0.00     0.090 C 
ENDBRANCH   1  36
BRANCH   2  38
HETATM   38  O1  UNL     1       7.074  -7.443  -3.303  1.00  0.00    -0.392 OA
ATOM     39  H1  UNL     1       7.687  -6.860  -2.868  1.00  0.00     0.210 HD
ENDBRANCH   2  38
TORSDOF 14
ENDMDL
MODEL 3
REMARK VINA RESULT: -7.261345396      6.948      9.642
REMARK  14 active torsions:
REMARK  status: ('A' for Active; 'I' for Inactive)
REMARK    1  A    between atoms: S1_2  and  C2_3 
REMARK    2  A    between atoms: C3_4  and  O1_5 
REMARK    3  A    between atoms: C4_7  and  O2_8 
REMARK    4  A    between atoms: C5_10  and  O3_11 
REMARK    5  A    between atoms: C6_13  and  N1_14 
REMARK    6  A    between atoms: N1_14  and  C7_15 
REMARK    7  A    between atoms: C7_15  and  O4_16 
REMARK    8  A    between atoms: C7_15  and  C8_18 
REMARK    9  A    between atoms: C8_18  and  C13_26 
REMARK   10  A    between atoms: N2_19  and  O5_21 
REMARK   11  A    between atoms: O5_21  and  C9_22 
REMARK   12  A    between atoms: C14_29  and  O8_30 
REMARK   13  A    between atoms: O8_30  and  C15_31 
REMARK   14  A    between atoms: C19_35  and  N3_36 
ROOT
HETATM    1  C2  UNL     1      11.163  -5.032  -3.945  1.00  0.00     0.110 C 
HETATM    2  C3  UNL     1      11.494  -6.490  -3.815  1.00  0.00     0.165 C 
HETATM    3  C4  UNL     1      10.413  -7.125  -3.000  1.00  0.00     0.180 C 
HETATM    4  C5  UNL     1      10.401  -6.441  -1.681  1.00  0.00     0.188 C 
HETATM    5  C6  UNL     1      11.374  -5.342  -1.460  1.00  0.00     0.227 C 
HETATM    6  C14 UNL     1      11.313  -4.318  -2.602  1.00  0.00     0.176 C 
ENDROOT
BRANCH   5   7
HETATM    7  N1  UNL     1      11.094  -4.739  -0.200  1.00  0.00    -0.412 NA
BRANCH   7   8
HETATM    8  C7  UNL     1      10.837  -4.182   0.967  1.00  0.00     0.245 C 
BRANCH   8   9
HETATM    9  O4  UNL     1      10.426  -2.890   0.960  1.00  0.00    -0.334 OA
ATOM     10  H4  UNL     1      10.425  -2.430   1.791  1.00  0.00     0.220 HD
ENDBRANCH   8   9
BRANCH   8  11
HETATM   11  C8  UNL     1      10.906  -4.631   2.346  1.00  0.00     0.196 C 
HETATM   12  N2  UNL     1      11.378  -5.821   2.517  1.00  0.00    -0.255 N 
ATOM     13  H2  UNL     1      11.659  -6.327   1.678  1.00  0.00     0.195 HD
BRANCH  12  14
HETATM   14  O5  UNL     1      11.537  -6.463   3.699  1.00  0.00    -0.270 OA
BRANCH  14  15
HETATM   15  C9  UNL     1      11.934  -7.829   3.752  1.00  0.00     0.078 C 
HETATM   16  C10 UNL     1      11.349  -8.635   2.586  1.00  0.00     0.048 C 
HETATM   17  C11 UNL     1      11.470  -8.512   5.010  1.00  0.00     0.048 C 
HETATM   18  C12 UNL     1      13.424  -7.938   3.657  1.00  0.00     0.048 C 
ENDBRANCH  14  15
ENDBRANCH  12  14
BRANCH  11  19
HETATM   19  C13 UNL     1      10.439  -3.938   3.495  1.00  0.00     0.234 C 
HETATM   20  O6  UNL     1      11.094  -3.504   4.465  1.00  0.00    -0.643 OA
HETATM   21  O7  UNL     1       9.022  -3.694   3.552  1.00  0.00    -0.643 OA
ENDBRANCH  11  19
ENDBRANCH   8  11
ENDBRANCH   7   8
ENDBRANCH   5   7
BRANCH   4  22
HETATM   22  O3  UNL     1       9.071  -5.984  -1.443  1.00  0.00    -0.390 OA
ATOM     23  H3  UNL     1       8.618  -6.657  -0.949  1.00  0.00     0.210 HD
ENDBRANCH   4  22
BRANCH   6  24
HETATM   24  O8  UNL     1      12.469  -3.573  -2.732  1.00  0.00    -0.374 OA
BRANCH  24  25
HETATM   25  C15 UNL     1      13.104  -3.139  -1.618  1.00  0.00     0.152 C 
HETATM   26  C16 UNL     1      14.614  -3.167  -1.635  1.00  0.00     0.034 C 
HETATM   27  C17 UNL     1      14.927  -2.062  -2.656  1.00  0.00     0.005 C 
HETATM   28  C18 UNL     1      13.717  -1.121  -2.608  1.00  0.00     0.035 C 
HETATM   29  C19 UNL     1      12.974  -1.616  -1.419  1.00  0.00     0.212 C 
BRANCH  29  30
HETATM   30  N3  UNL     1      11.709  -1.101  -1.196  1.00  0.00    -0.073 N 
ATOM     31  H33 UNL     1      11.042  -1.869  -1.123  1.00  0.00     0.274 HD
ATOM     32  H32 UNL     1      11.664  -0.716  -0.254  1.00  0.00     0.274 HD
ATOM     33  H31 UNL     1      11.354  -0.410  -1.858  1.00  0.00     0.274 HD
ENDBRANCH  29  30
ENDBRANCH  24  25
ENDBRANCH   6  24
BRANCH   3  34
HETATM   34  O2  UNL     1       9.203  -7.071  -3.709  1.00  0.00    -0.390 OA
ATOM     35  H2  UNL     1       9.215  -6.326  -4.298  1.00  0.00     0.210 HD
ENDBRANCH   3  34
BRANCH   1  36
HETATM   36  S1  UNL     1       9.550  -4.656  -4.594  1.00  0.00    -0.163 SA
HETATM   37  C1  UNL     1       9.559  -3.601  -6.042  1.00  0.00     0.090 C 
ENDBRANCH   1  36
BRANCH   2  38
HETATM   38  O1  UNL     1      11.723  -7.093  -5.038  1.00  0.00    -0.392 OA
ATOM     39  H1  UNL     1      11.894  -8.025  -4.959  1.00  0.00     0.210 HD
ENDBRANCH   2  38
TORSDOF 14
ENDMDL
MODEL 4
REMARK VINA RESULT: -7.217391009      4.901      7.276
REMARK  14 active torsions:
REMARK  status: ('A' for Active; 'I' for Inactive)
REMARK    1  A    between atoms: S1_2  and  C2_3 
REMARK    2  A    between atoms: C3_4  and  O1_5 
REMARK    3  A    between atoms: C4_7  and  O2_8 
REMARK    4  A    between atoms: C5_10  and  O3_11 
REMARK    5  A    between atoms: C6_13  and  N1_14 
REMARK    6  A    between atoms: N1_14  and  C7_15 
REMARK    7  A    between atoms: C7_15  and  O4_16 
REMARK    8  A    between atoms: C7_15  and  C8_18 
REMARK    9  A    between atoms: C8_18  and  C13_26 
REMARK   10  A    between atoms: N2_19  and  O5_21 
REMARK   11  A    between atoms: O5_21  and  C9_22 
REMARK   12  A    between atoms: C14_29  and  O8_30 
REMARK   13  A    between atoms: O8_30  and  C15_31 
REMARK   14  A    between atoms: C19_35  and  N3_36 
ROOT
HETATM    1  C2  UNL     1      12.173  -7.640  -1.925  1.00  0.00     0.110 C 
HETATM    2  C3  UNL     1      12.784  -8.661  -2.839  1.00  0.00     0.165 C 
HETATM    3  C4  UNL     1      11.714  -9.125  -3.775  1.00  0.00     0.180 C 
HETATM    4  C5  UNL     1      10.628  -9.706  -2.944  1.00  0.00     0.188 C 
HETATM    5  C6  UNL     1      10.801  -9.696  -1.469  1.00  0.00     0.227 C 
HETATM    6  C14 UNL     1      11.173  -8.293  -0.971  1.00  0.00     0.176 C 
ENDROOT
BRANCH   5   7
HETATM    7  N1  UNL     1       9.595 -10.162  -0.871  1.00  0.00    -0.412 NA
BRANCH   7   8
HETATM    8  C7  UNL     1       8.480 -10.595  -0.318  1.00  0.00     0.245 C 
BRANCH   8   9
HETATM    9  O4  UNL     1       8.567 -11.117   0.930  1.00  0.00    -0.334 OA
ATOM     10  H4  UNL     1       7.957 -10.792   1.581  1.00  0.00     0.220 HD
ENDBRANCH   8   9
BRANCH   8  11
HETATM   11  C8  UNL     1       7.095 -10.674  -0.748  1.00  0.00     0.196 C 
HETATM   12  N2  UNL     1       6.364 -11.525  -0.109  1.00  0.00    -0.255 N 
ATOM     13  H2  UNL     1       6.820 -12.055   0.633  1.00  0.00     0.195 HD
BRANCH  12  14
HETATM   14  O5  UNL     1       5.052 -11.785  -0.325  1.00  0.00    -0.270 OA
BRANCH  14  15
HETATM   15  C9  UNL     1       4.151 -11.994   0.755  1.00  0.00     0.078 C 
HETATM   16  C10 UNL     1       4.849 -12.637   1.960  1.00  0.00     0.048 C 
HETATM   17  C11 UNL     1       3.016 -12.912   0.387  1.00  0.00     0.048 C 
HETATM   18  C12 UNL     1       3.590 -10.686   1.220  1.00  0.00     0.048 C 
ENDBRANCH  14  15
ENDBRANCH  12  14
BRANCH  11  19
HETATM   19  C13 UNL     1       6.498  -9.980  -1.835  1.00  0.00     0.234 C 
HETATM   20  O6  UNL     1       5.756  -8.976  -1.808  1.00  0.00    -0.643 OA
HETATM   21  O7  UNL     1       6.787 -10.494  -3.148  1.00  0.00    -0.643 OA
ENDBRANCH  11  19
ENDBRANCH   8  11
ENDBRANCH   7   8
ENDBRANCH   5   7
BRANCH   4  22
HETATM   22  O3  UNL     1       9.411  -9.056  -3.307  1.00  0.00    -0.390 OA
ATOM     23  H3  UNL     1       8.832  -9.087  -2.554  1.00  0.00     0.210 HD
ENDBRANCH   4  22
BRANCH   6  24
HETATM   24  O8  UNL     1      11.815  -8.298   0.253  1.00  0.00    -0.374 OA
BRANCH  24  25
HETATM   25  C15 UNL     1      11.125  -7.940   1.361  1.00  0.00     0.152 C 
HETATM   26  C16 UNL     1      11.264  -8.833   2.572  1.00  0.00     0.034 C 
HETATM   27  C17 UNL     1      12.722  -8.568   2.979  1.00  0.00     0.005 C 
HETATM   28  C18 UNL     1      13.036  -7.164   2.446  1.00  0.00     0.035 C 
HETATM   29  C19 UNL     1      11.695  -6.673   2.029  1.00  0.00     0.212 C 
BRANCH  29  30
HETATM   30  N3  UNL     1      11.643  -5.489   1.315  1.00  0.00    -0.073 N 
ATOM     31  H33 UNL     1      11.212  -5.664   0.407  1.00  0.00     0.274 HD
ATOM     32  H32 UNL     1      10.952  -4.871   1.740  1.00  0.00     0.274 HD
ATOM     33  H31 UNL     1      12.514  -4.977   1.181  1.00  0.00     0.274 HD
ENDBRANCH  29  30
ENDBRANCH  24  25
ENDBRANCH   6  24
BRANCH   3  34
HETATM   34  O2  UNL     1      11.325  -8.059  -4.601  1.00  0.00    -0.390 OA
ATOM     35  H2  UNL     1      10.390  -7.913  -4.508  1.00  0.00     0.210 HD
ENDBRANCH   3  34
BRANCH   1  36
HETATM   36  S1  UNL     1      11.364  -6.270  -2.721  1.00  0.00    -0.163 SA
HETATM   37  C1  UNL     1       9.799  -5.802  -1.986  1.00  0.00     0.090 C 
ENDBRANCH   1  36
BRANCH   2  38
HETATM   38  O1  UNL     1      13.931  -8.200  -3.459  1.00  0.00    -0.392 OA
ATOM     39  H1  UNL     1      14.696  -8.255  -2.898  1.00  0.00     0.210 HD
ENDBRANCH   2  38
TORSDOF 14
ENDMDL
MODEL 5
REMARK VINA RESULT: -7.204466608      5.329      8.910
REMARK  14 active torsions:
REMARK  status: ('A' for Active; 'I' for Inactive)
REMARK    1  A    between atoms: S1_2  and  C2_3 
REMARK    2  A    between atoms: C3_4  and  O1_5 
REMARK    3  A    between atoms: C4_7  and  O2_8 
REMARK    4  A    between atoms: C5_10  and  O3_11 
REMARK    5  A    between atoms: C6_13  and  N1_14 
REMARK    6  A    between atoms: N1_14  and  C7_15 
REMARK    7  A    between atoms: C7_15  and  O4_16 
REMARK    8  A    between atoms: C7_15  and  C8_18 
REMARK    9  A    between atoms: C8_18  and  C13_26 
REMARK   10  A    between atoms: N2_19  and  O5_21 
REMARK   11  A    between atoms: O5_21  and  C9_22 
REMARK   12  A    between atoms: C14_29  and  O8_30 
REMARK   13  A    between atoms: O8_30  and  C15_31 
REMARK   14  A    between atoms: C19_35  and  N3_36 
ROOT
HETATM    1  C2  UNL     1       9.410  -7.969  -2.687  1.00  0.00     0.110 C 
HETATM    2  C3  UNL     1      10.628  -8.815  -2.908  1.00  0.00     0.165 C 
HETATM    3  C4  UNL     1      11.039  -9.367  -1.580  1.00  0.00     0.180 C 
HETATM    4  C5  UNL     1      11.324  -8.208  -0.694  1.00  0.00     0.188 C 
HETATM    5  C6  UNL     1      11.142  -6.845  -1.254  1.00  0.00     0.227 C 
HETATM    6  C14 UNL     1       9.761  -6.701  -1.908  1.00  0.00     0.176 C 
ENDROOT
BRANCH   5   7
HETATM    7  N1  UNL     1      11.327  -5.899  -0.206  1.00  0.00    -0.412 NA
BRANCH   7   8
HETATM    8  C7  UNL     1      11.499  -5.023   0.765  1.00  0.00     0.245 C 
BRANCH   8   9
HETATM    9  O4  UNL     1      11.964  -3.798   0.420  1.00  0.00    -0.334 OA
ATOM     10  H4  UNL     1      12.890  -3.723   0.224  1.00  0.00     0.220 HD
ENDBRANCH   8   9
BRANCH   8  11
HETATM   11  C8  UNL     1      11.321  -5.054   2.206  1.00  0.00     0.196 C 
HETATM   12  N2  UNL     1      11.498  -6.207   2.761  1.00  0.00    -0.255 N 
ATOM     13  H2  UNL     1      11.748  -6.979   2.143  1.00  0.00     0.195 HD
BRANCH  12  14
HETATM   14  O5  UNL     1      11.386  -6.494   4.080  1.00  0.00    -0.270 OA
BRANCH  14  15
HETATM   15  C9  UNL     1      12.088  -7.585   4.663  1.00  0.00     0.078 C 
HETATM   16  C10 UNL     1      12.640  -7.229   6.049  1.00  0.00     0.048 C 
HETATM   17  C11 UNL     1      13.271  -8.013   3.837  1.00  0.00     0.048 C 
HETATM   18  C12 UNL     1      11.169  -8.753   4.844  1.00  0.00     0.048 C 
ENDBRANCH  14  15
ENDBRANCH  12  14
BRANCH  11  19
HETATM   19  C13 UNL     1      10.900  -3.983   3.038  1.00  0.00     0.234 C 
HETATM   20  O6  UNL     1      11.591  -3.096   3.580  1.00  0.00    -0.643 OA
HETATM   21  O7  UNL     1       9.485  -3.898   3.290  1.00  0.00    -0.643 OA
ENDBRANCH  11  19
ENDBRANCH   8  11
ENDBRANCH   7   8
ENDBRANCH   5   7
BRANCH   4  22
HETATM   22  O3  UNL     1      10.545  -8.367   0.490  1.00  0.00    -0.390 OA
ATOM     23  H3  UNL     1      11.049  -8.019   1.216  1.00  0.00     0.210 HD
ENDBRANCH   4  22
BRANCH   6  24
HETATM   24  O8  UNL     1       9.702  -5.690  -2.848  1.00  0.00    -0.374 OA
BRANCH  24  25
HETATM   25  C15 UNL     1      10.802  -5.411  -3.586  1.00  0.00     0.152 C 
HETATM   26  C16 UNL     1      10.681  -5.576  -5.083  1.00  0.00     0.034 C 
HETATM   27  C17 UNL     1       9.731  -4.423  -5.441  1.00  0.00     0.005 C 
HETATM   28  C18 UNL     1       9.932  -3.382  -4.333  1.00  0.00     0.035 C 
HETATM   29  C19 UNL     1      11.127  -3.904  -3.617  1.00  0.00     0.212 C 
BRANCH  29  30
HETATM   30  N3  UNL     1      11.473  -3.295  -2.423  1.00  0.00    -0.073 N 
ATOM     31  H33 UNL     1      11.927  -3.978  -1.818  1.00  0.00     0.274 HD
ATOM     32  H32 UNL     1      12.240  -2.643  -2.588  1.00  0.00     0.274 HD
ATOM     33  H31 UNL     1      10.736  -2.821  -1.902  1.00  0.00     0.274 HD
ENDBRANCH  29  30
ENDBRANCH  24  25
ENDBRANCH   6  24
BRANCH   3  34
HETATM   34  O2  UNL     1      10.047 -10.242  -1.112  1.00  0.00    -0.390 OA
ATOM     35  H2  UNL     1       9.974 -10.162  -0.168  1.00  0.00     0.210 HD
ENDBRANCH   3  34
BRANCH   1  36
HETATM   36  S1  UNL     1       8.049  -8.765  -1.862  1.00  0.00    -0.163 SA
HETATM   37  C1  UNL     1       6.895  -9.588  -2.958  1.00  0.00     0.090 C 
ENDBRANCH   1  36
BRANCH   2  38
HETATM   38  O1  UNL     1      10.442  -9.767  -3.894  1.00  0.00    -0.392 OA
ATOM     39  H1  UNL     1       9.903 -10.493  -3.603  1.00  0.00     0.210 HD
ENDBRANCH   2  38
TORSDOF 14
ENDMDL
