MODEL 1
REMARK VINA RESULT: -8.530136471      0.000      0.000
REMARK  12 active torsions:
REMARK  status: ('A' for Active; 'I' for Inactive)
REMARK    1  A    between atoms: C2_2  and  C3_3 
REMARK    2  A    between atoms: C3_3  and  N1_4 
REMARK    3  A    between atoms: N1_4  and  C4_6 
REMARK    4  A    between atoms: C5_7  and  O1_8 
REMARK    5  A    between atoms: O1_8  and  C6_9 
REMARK    6  A    between atoms: C8_11  and  O2_12 
REMARK    7  A    between atoms: O2_12  and  C9_13 
REMARK    8  A    between atoms: C15_20  and  O4_21 
REMARK    9  A    between atoms: C16_23  and  N2_24 
REMARK   10  A    between atoms: C18_29  and  N3_30 
REMARK   11  A    between atoms: C21_37  and  O6_38 
REMARK   12  A    between atoms: C22_40  and  O7_41 
ROOT
HETATM    1  C6  UNL     1      13.810  -6.166   2.737  1.00  0.00     0.158 C 
HETATM    2  C7  UNL     1      12.888  -6.941   1.829  1.00  0.00     0.068 C 
HETATM    3  C8  UNL     1      11.827  -6.034   1.241  1.00  0.00     0.155 C 
HETATM    4  C16 UNL     1      11.740  -4.748   2.058  1.00  0.00     0.214 C 
HETATM    5  C17 UNL     1      12.991  -3.946   2.030  1.00  0.00     0.070 C 
HETATM    6  C18 UNL     1      14.181  -4.826   2.223  1.00  0.00     0.214 C 
ENDROOT
BRANCH   1   7
HETATM    7  O1  UNL     1      13.411  -6.228   4.050  1.00  0.00    -0.348 OA
BRANCH   7   8
HETATM    8  C5  UNL     1      14.227  -6.908   4.895  1.00  0.00     0.310 C 
HETATM    9  C4  UNL     1      13.338  -7.426   6.045  1.00  0.00     0.073 C 
HETATM   10  C22 UNL     1      14.141  -8.211   7.029  1.00  0.00     0.199 C 
HETATM   11  C21 UNL     1      15.609  -8.267   6.652  1.00  0.00     0.181 C 
HETATM   12  C19 UNL     1      15.878  -8.470   5.210  1.00  0.00     0.152 C 
HETATM   13  O5  UNL     1      14.936  -7.962   4.346  1.00  0.00    -0.348 OA
HETATM   14  C20 UNL     1      17.244  -7.837   4.908  1.00  0.00     0.042 C 
BRANCH   9  15
HETATM   15  N1  UNL     1      12.101  -7.899   5.627  1.00  0.00    -0.370 N 
ATOM     16  H1  UNL     1      11.406  -7.206   5.352  1.00  0.00     0.164 HD
BRANCH  15  17
HETATM   17  C3  UNL     1      11.731  -9.227   5.549  1.00  0.00     0.060 C 
BRANCH  17  18
HETATM   18  C2  UNL     1      10.447  -9.619   4.891  1.00  0.00     0.040 C 
HETATM   19  C1  UNL     1       9.690 -10.711   5.604  1.00  0.00     0.010 C 
ENDBRANCH  17  18
ENDBRANCH  15  17
ENDBRANCH   9  15
BRANCH  10  20
HETATM   20  O7  UNL     1      14.139  -7.616   8.321  1.00  0.00    -0.387 OA
ATOM     21  H7  UNL     1      13.343  -7.126   8.490  1.00  0.00     0.210 HD
ENDBRANCH  10  20
BRANCH  11  22
HETATM   22  O6  UNL     1      16.332  -7.184   7.200  1.00  0.00    -0.390 OA
ATOM     23  H6  UNL     1      15.834  -6.692   7.841  1.00  0.00     0.210 HD
ENDBRANCH  11  22
ENDBRANCH   7   8
ENDBRANCH   1   7
BRANCH   6  24
HETATM   24  N3  UNL     1      14.795  -5.008   0.907  1.00  0.00    -0.072 N 
ATOM     25  H33 UNL     1      14.110  -5.184   0.171  1.00  0.00     0.274 HD
ATOM     26  H32 UNL     1      15.182  -4.143   0.527  1.00  0.00     0.274 HD
ATOM     27  H31 UNL     1      15.489  -5.751   0.988  1.00  0.00     0.274 HD
ENDBRANCH   6  24
BRANCH   3  28
HETATM   28  O2  UNL     1      12.043  -5.713  -0.067  1.00  0.00    -0.376 OA
BRANCH  28  29
HETATM   29  C9  UNL     1      12.083  -6.735  -0.971  1.00  0.00     0.151 C 
HETATM   30  C10 UNL     1      12.576  -6.145  -2.304  1.00  0.00     0.043 C 
HETATM   31  C11 UNL     1      11.346  -5.892  -3.183  1.00  0.00     0.041 C 
HETATM   32  C12 UNL     1      10.225  -5.390  -2.306  1.00  0.00     0.175 C 
HETATM   33  C15 UNL     1      10.915  -7.249  -3.736  1.00  0.00     0.126 C 
HETATM   34  O3  UNL     1       9.762  -6.459  -1.545  1.00  0.00    -0.383 OA
HETATM   35  C13 UNL     1      10.769  -7.378  -1.269  1.00  0.00     0.152 C 
HETATM   36  C14 UNL     1      10.936  -8.200  -2.554  1.00  0.00     0.066 C 
BRANCH  33  37
HETATM   37  O4  UNL     1      11.780  -7.644  -4.740  1.00  0.00    -0.395 OA
ATOM     38  H4  UNL     1      12.030  -8.552  -4.614  1.00  0.00     0.210 HD
ENDBRANCH  33  37
ENDBRANCH  28  29
ENDBRANCH   3  28
BRANCH   4  39
HETATM   39  N2  UNL     1      10.580  -4.012   1.594  1.00  0.00    -0.072 N 
ATOM     40  H23 UNL     1       9.699  -4.431   1.892  1.00  0.00     0.274 HD
ATOM     41  H22 UNL     1      10.466  -3.114   2.062  1.00  0.00     0.274 HD
ATOM     42  H21 UNL     1      10.655  -3.925   0.581  1.00  0.00     0.274 HD
ENDBRANCH   4  39
TORSDOF 12
ENDMDL
MODEL 2
REMARK VINA RESULT: -8.421149215      2.032      8.469
REMARK  12 active torsions:
REMARK  status: ('A' for Active; 'I' for Inactive)
REMARK    1  A    between atoms: C2_2  and  C3_3 
REMARK    2  A    between atoms: C3_3  and  N1_4 
REMARK    3  A    between atoms: N1_4  and  C4_6 
REMARK    4  A    between atoms: C5_7  and  O1_8 
REMARK    5  A    between atoms: O1_8  and  C6_9 
REMARK    6  A    between atoms: C8_11  and  O2_12 
REMARK    7  A    between atoms: O2_12  and  C9_13 
REMARK    8  A    between atoms: C15_20  and  O4_21 
REMARK    9  A    between atoms: C16_23  and  N2_24 
REMARK   10  A    between atoms: C18_29  and  N3_30 
REMARK   11  A    between atoms: C21_37  and  O6_38 
REMARK   12  A    between atoms: C22_40  and  O7_41 
ROOT
HETATM    1  C6  UNL     1      11.221  -6.489   0.565  1.00  0.00     0.158 C 
HETATM    2  C7  UNL     1      11.692  -7.493   1.590  1.00  0.00     0.068 C 
HETATM    3  C8  UNL     1      13.100  -7.173   2.046  1.00  0.00     0.155 C 
HETATM    4  C16 UNL     1      13.763  -6.229   1.046  1.00  0.00     0.214 C 
HETATM    5  C17 UNL     1      13.084  -4.912   0.939  1.00  0.00     0.070 C 
HETATM    6  C18 UNL     1      11.604  -5.089   0.868  1.00  0.00     0.214 C 
ENDROOT
BRANCH   1   7
HETATM    7  O1  UNL     1      11.448  -6.921  -0.719  1.00  0.00    -0.348 OA
BRANCH   7   8
HETATM    8  C5  UNL     1      10.411  -7.543  -1.336  1.00  0.00     0.310 C 
HETATM    9  C4  UNL     1      10.112  -6.736  -2.616  1.00  0.00     0.073 C 
HETATM   10  C22 UNL     1       8.991  -7.351  -3.387  1.00  0.00     0.199 C 
HETATM   11  C21 UNL     1       8.433  -8.581  -2.696  1.00  0.00     0.181 C 
HETATM   12  C19 UNL     1       9.447  -9.480  -2.100  1.00  0.00     0.152 C 
HETATM   13  O5  UNL     1      10.602  -8.875  -1.661  1.00  0.00    -0.348 OA
HETATM   14  C20 UNL     1       8.776 -10.212  -0.930  1.00  0.00     0.042 C 
BRANCH   9  15
HETATM   15  N1  UNL     1      11.252  -6.300  -3.282  1.00  0.00    -0.370 N 
ATOM     16  H1  UNL     1      11.809  -5.578  -2.826  1.00  0.00     0.164 HD
BRANCH  15  17
HETATM   17  C3  UNL     1      11.694  -6.758  -4.506  1.00  0.00     0.060 C 
BRANCH  17  18
HETATM   18  C2  UNL     1      12.477  -8.029  -4.602  1.00  0.00     0.040 C 
HETATM   19  C1  UNL     1      13.459  -8.242  -3.478  1.00  0.00     0.010 C 
ENDBRANCH  17  18
ENDBRANCH  15  17
ENDBRANCH   9  15
BRANCH  10  20
HETATM   20  O7  UNL     1       7.873  -6.480  -3.498  1.00  0.00    -0.387 OA
ATOM     21  H7  UNL     1       7.325  -6.692  -4.244  1.00  0.00     0.210 HD
ENDBRANCH  10  20
BRANCH  11  22
HETATM   22  O6  UNL     1       7.393  -8.251  -1.798  1.00  0.00    -0.390 OA
ATOM     23  H6  UNL     1       6.589  -8.725  -1.972  1.00  0.00     0.210 HD
ENDBRANCH  11  22
ENDBRANCH   7   8
ENDBRANCH   1   7
BRANCH   6  24
HETATM   24  N3  UNL     1      11.070  -4.758   2.190  1.00  0.00    -0.072 N 
ATOM     25  H33 UNL     1      10.185  -4.253   2.144  1.00  0.00     0.274 HD
ATOM     26  H32 UNL     1      10.733  -5.576   2.698  1.00  0.00     0.274 HD
ATOM     27  H31 UNL     1      11.793  -4.247   2.697  1.00  0.00     0.274 HD
ENDBRANCH   6  24
BRANCH   3  28
HETATM   28  O2  UNL     1      13.161  -6.612   3.288  1.00  0.00    -0.376 OA
BRANCH  28  29
HETATM   29  C9  UNL     1      13.102  -7.451   4.363  1.00  0.00     0.151 C 
HETATM   30  C10 UNL     1      13.155  -6.575   5.628  1.00  0.00     0.043 C 
HETATM   31  C11 UNL     1      14.598  -6.594   6.146  1.00  0.00     0.041 C 
HETATM   32  C12 UNL     1      15.533  -6.569   4.960  1.00  0.00     0.175 C 
HETATM   33  C15 UNL     1      14.794  -7.936   6.849  1.00  0.00     0.126 C 
HETATM   34  O3  UNL     1      15.480  -7.816   4.345  1.00  0.00    -0.383 OA
HETATM   35  C13 UNL     1      14.234  -8.417   4.486  1.00  0.00     0.152 C 
HETATM   36  C14 UNL     1      14.211  -8.979   5.914  1.00  0.00     0.066 C 
BRANCH  33  37
HETATM   37  O4  UNL     1      14.159  -7.921   8.077  1.00  0.00    -0.395 OA
ATOM     38  H4  UNL     1      14.105  -8.803   8.424  1.00  0.00     0.210 HD
ENDBRANCH  33  37
ENDBRANCH  28  29
ENDBRANCH   3  28
BRANCH   4  39
HETATM   39  N2  UNL     1      15.163  -6.122   1.406  1.00  0.00    -0.072 N 
ATOM     40  H23 UNL     1      15.322  -5.513   2.209  1.00  0.00     0.274 HD
ATOM     41  H22 UNL     1      15.535  -6.980   1.814  1.00  0.00     0.274 HD
ATOM     42  H21 UNL     1      15.674  -5.824   0.575  1.00  0.00     0.274 HD
ENDBRANCH   4  39
TORSDOF 12
ENDMDL
MODEL 3
REMARK VINA RESULT: -8.301199716      1.997      8.598
REMARK  12 active torsions:
REMARK  status: ('A' for Active; 'I' for Inactive)
REMARK    1  A    between atoms: C2_2  and  C3_3 
REMARK    2  A    between atoms: C3_3  and  N1_4 
REMARK    3  A    between atoms: N1_4  and  C4_6 
REMARK    4  A    between atoms: C5_7  and  O1_8 
REMARK    5  A    between atoms: O1_8  and  C6_9 
REMARK    6  A    between atoms: C8_11  and  O2_12 
REMARK    7  A    between atoms: O2_12  and  C9_13 
REMARK    8  A    between atoms: C15_20  and  O4_21 
REMARK    9  A    between atoms: C16_23  and  N2_24 
REMARK   10  A    between atoms: C18_29  and  N3_30 
REMARK   11  A    between atoms: C21_37  and  O6_38 
REMARK   12  A    between atoms: C22_40  and  O7_41 
ROOT
HETATM    1  C6  UNL     1      11.342  -6.181   0.430  1.00  0.00     0.158 C 
HETATM    2  C7  UNL     1      11.737  -7.248   1.422  1.00  0.00     0.068 C 
HETATM    3  C8  UNL     1      13.131  -6.993   1.957  1.00  0.00     0.155 C 
HETATM    4  C16 UNL     1      13.865  -6.021   1.037  1.00  0.00     0.214 C 
HETATM    5  C17 UNL     1      13.227  -4.680   0.967  1.00  0.00     0.070 C 
HETATM    6  C18 UNL     1      11.748  -4.811   0.820  1.00  0.00     0.214 C 
ENDROOT
BRANCH   1   7
HETATM    7  O1  UNL     1      11.616  -6.556  -0.863  1.00  0.00    -0.348 OA
BRANCH   7   8
HETATM    8  C5  UNL     1      10.635  -7.231  -1.515  1.00  0.00     0.310 C 
HETATM    9  C4  UNL     1      10.148  -6.311  -2.653  1.00  0.00     0.073 C 
HETATM   10  C22 UNL     1       9.073  -6.971  -3.451  1.00  0.00     0.199 C 
HETATM   11  C21 UNL     1       8.731  -8.349  -2.917  1.00  0.00     0.181 C 
HETATM   12  C19 UNL     1       9.894  -9.166  -2.501  1.00  0.00     0.152 C 
HETATM   13  O5  UNL     1      10.983  -8.466  -2.033  1.00  0.00    -0.348 OA
HETATM   14  C20 UNL     1       9.405 -10.136  -1.417  1.00  0.00     0.042 C 
BRANCH   9  15
HETATM   15  N1  UNL     1      11.172  -5.631  -3.301  1.00  0.00    -0.370 N 
ATOM     16  H1  UNL     1      11.941  -6.190  -3.670  1.00  0.00     0.164 HD
BRANCH  15  17
HETATM   17  C3  UNL     1      11.241  -4.265  -3.487  1.00  0.00     0.060 C 
BRANCH  17  18
HETATM   18  C2  UNL     1      10.170  -3.549  -4.248  1.00  0.00     0.040 C 
HETATM   19  C1  UNL     1       9.952  -4.063  -5.649  1.00  0.00     0.010 C 
ENDBRANCH  17  18
ENDBRANCH  15  17
ENDBRANCH   9  15
BRANCH  10  20
HETATM   20  O7  UNL     1       7.842  -6.261  -3.387  1.00  0.00    -0.387 OA
ATOM     21  H7  UNL     1       7.477  -6.253  -2.510  1.00  0.00     0.210 HD
ENDBRANCH  10  20
BRANCH  11  22
HETATM   22  O6  UNL     1       7.717  -8.294  -1.936  1.00  0.00    -0.390 OA
ATOM     23  H6  UNL     1       6.893  -7.964  -2.273  1.00  0.00     0.210 HD
ENDBRANCH  11  22
ENDBRANCH   7   8
ENDBRANCH   1   7
BRANCH   6  24
HETATM   24  N3  UNL     1      11.163  -4.529   2.132  1.00  0.00    -0.072 N 
ATOM     25  H33 UNL     1      10.546  -5.273   2.458  1.00  0.00     0.274 HD
ATOM     26  H32 UNL     1      11.845  -4.577   2.889  1.00  0.00     0.274 HD
ATOM     27  H31 UNL     1      10.696  -3.623   2.076  1.00  0.00     0.274 HD
ENDBRANCH   6  24
BRANCH   3  28
HETATM   28  O2  UNL     1      13.149  -6.496   3.227  1.00  0.00    -0.376 OA
BRANCH  28  29
HETATM   29  C9  UNL     1      13.094  -7.392   4.256  1.00  0.00     0.151 C 
HETATM   30  C10 UNL     1      13.093  -6.582   5.565  1.00  0.00     0.043 C 
HETATM   31  C11 UNL     1      14.525  -6.584   6.113  1.00  0.00     0.041 C 
HETATM   32  C12 UNL     1      15.483  -6.468   4.952  1.00  0.00     0.175 C 
HETATM   33  C15 UNL     1      14.749  -7.955   6.750  1.00  0.00     0.126 C 
HETATM   34  O3  UNL     1      15.483  -7.682   4.272  1.00  0.00    -0.383 OA
HETATM   35  C13 UNL     1      14.254  -8.328   4.354  1.00  0.00     0.152 C 
HETATM   36  C14 UNL     1      14.218  -8.964   5.750  1.00  0.00     0.066 C 
BRANCH  33  37
HETATM   37  O4  UNL     1      14.088  -8.023   7.963  1.00  0.00    -0.395 OA
ATOM     38  H4  UNL     1      14.482  -7.419   8.580  1.00  0.00     0.210 HD
ENDBRANCH  33  37
ENDBRANCH  28  29
ENDBRANCH   3  28
BRANCH   4  39
HETATM   39  N2  UNL     1      15.249  -5.973   1.465  1.00  0.00    -0.072 N 
ATOM     40  H23 UNL     1      15.705  -5.089   1.238  1.00  0.00     0.274 HD
ATOM     41  H22 UNL     1      15.350  -5.920   2.478  1.00  0.00     0.274 HD
ATOM     42  H21 UNL     1      15.725  -6.780   1.060  1.00  0.00     0.274 HD
ENDBRANCH   4  39
TORSDOF 12
ENDMDL
MODEL 4
REMARK VINA RESULT: -8.131635594      2.108      8.359
REMARK  12 active torsions:
REMARK  status: ('A' for Active; 'I' for Inactive)
REMARK    1  A    between atoms: C2_2  and  C3_3 
REMARK    2  A    between atoms: C3_3  and  N1_4 
REMARK    3  A    between atoms: N1_4  and  C4_6 
REMARK    4  A    between atoms: C5_7  and  O1_8 
REMARK    5  A    between atoms: O1_8  and  C6_9 
REMARK    6  A    between atoms: C8_11  and  O2_12 
REMARK    7  A    between atoms: O2_12  and  C9_13 
REMARK    8  A    between atoms: C15_20  and  O4_21 
REMARK    9  A    between atoms: C16_23  and  N2_24 
REMARK   10  A    between atoms: C18_29  and  N3_30 
REMARK   11  A    between atoms: C21_37  and  O6_38 
REMARK   12  A    between atoms: C22_40  and  O7_41 
ROOT
HETATM    1  C6  UNL     1      11.631  -5.507   0.238  1.00  0.00     0.158 C 
HETATM    2  C7  UNL     1      11.891  -6.652   1.186  1.00  0.00     0.068 C 
HETATM    3  C8  UNL     1      13.306  -6.591   1.724  1.00  0.00     0.155 C 
HETATM    4  C16 UNL     1      14.154  -5.682   0.838  1.00  0.00     0.214 C 
HETATM    5  C17 UNL     1      13.687  -4.272   0.823  1.00  0.00     0.070 C 
HETATM    6  C18 UNL     1      12.203  -4.213   0.679  1.00  0.00     0.214 C 
ENDROOT
BRANCH   1   7
HETATM    7  O1  UNL     1      11.857  -5.862  -1.070  1.00  0.00    -0.348 OA
BRANCH   7   8
HETATM    8  C5  UNL     1      10.934  -6.680  -1.639  1.00  0.00     0.310 C 
HETATM    9  C4  UNL     1      10.254  -5.866  -2.759  1.00  0.00     0.073 C 
HETATM   10  C22 UNL     1       9.227  -6.686  -3.467  1.00  0.00     0.199 C 
HETATM   11  C21 UNL     1       9.110  -8.081  -2.884  1.00  0.00     0.181 C 
HETATM   12  C19 UNL     1      10.397  -8.724  -2.534  1.00  0.00     0.152 C 
HETATM   13  O5  UNL     1      11.410  -7.873  -2.156  1.00  0.00    -0.348 OA
HETATM   14  C20 UNL     1      10.116  -9.719  -1.399  1.00  0.00     0.042 C 
BRANCH   9  15
HETATM   15  N1  UNL     1      11.133  -5.075  -3.489  1.00  0.00    -0.370 N 
ATOM     16  H1  UNL     1      11.938  -5.539  -3.908  1.00  0.00     0.164 HD
BRANCH  15  17
HETATM   17  C3  UNL     1      11.012  -3.716  -3.695  1.00  0.00     0.060 C 
BRANCH  17  18
HETATM   18  C2  UNL     1       9.949  -3.178  -4.600  1.00  0.00     0.040 C 
HETATM   19  C1  UNL     1       9.772  -3.953  -5.882  1.00  0.00     0.010 C 
ENDBRANCH  17  18
ENDBRANCH  15  17
ENDBRANCH   9  15
BRANCH  10  20
HETATM   20  O7  UNL     1       7.919  -6.144  -3.332  1.00  0.00    -0.387 OA
ATOM     21  H7  UNL     1       7.513  -5.971  -4.173  1.00  0.00     0.210 HD
ENDBRANCH  10  20
BRANCH  11  22
HETATM   22  O6  UNL     1       8.165  -8.133  -1.836  1.00  0.00    -0.390 OA
ATOM     23  H6  UNL     1       7.289  -8.344  -2.137  1.00  0.00     0.210 HD
ENDBRANCH  11  22
ENDBRANCH   7   8
ENDBRANCH   1   7
BRANCH   6  24
HETATM   24  N3  UNL     1      11.657  -3.912   2.003  1.00  0.00    -0.072 N 
ATOM     25  H33 UNL     1      12.266  -4.219   2.761  1.00  0.00     0.274 HD
ATOM     26  H32 UNL     1      11.666  -2.915   2.218  1.00  0.00     0.274 HD
ATOM     27  H31 UNL     1      10.724  -4.320   2.054  1.00  0.00     0.274 HD
ENDBRANCH   6  24
BRANCH   3  28
HETATM   28  O2  UNL     1      13.385  -6.150   3.012  1.00  0.00    -0.376 OA
BRANCH  28  29
HETATM   29  C9  UNL     1      13.986  -6.969   3.924  1.00  0.00     0.151 C 
HETATM   30  C10 UNL     1      13.417  -8.384   3.711  1.00  0.00     0.043 C 
HETATM   31  C11 UNL     1      12.325  -8.608   4.763  1.00  0.00     0.041 C 
HETATM   32  C12 UNL     1      11.560  -7.319   4.943  1.00  0.00     0.175 C 
HETATM   33  C15 UNL     1      13.039  -8.899   6.082  1.00  0.00     0.126 C 
HETATM   34  O3  UNL     1      12.377  -6.427   5.630  1.00  0.00    -0.383 OA
HETATM   35  C13 UNL     1      13.725  -6.635   5.356  1.00  0.00     0.152 C 
HETATM   36  C14 UNL     1      14.131  -7.852   6.198  1.00  0.00     0.066 C 
BRANCH  33  37
HETATM   37  O4  UNL     1      13.548 -10.185   6.067  1.00  0.00    -0.395 OA
ATOM     38  H4  UNL     1      14.425 -10.190   6.430  1.00  0.00     0.210 HD
ENDBRANCH  33  37
ENDBRANCH  28  29
ENDBRANCH   3  28
BRANCH   4  39
HETATM   39  N2  UNL     1      15.534  -5.823   1.261  1.00  0.00    -0.072 N 
ATOM     40  H23 UNL     1      15.915  -6.750   1.070  1.00  0.00     0.274 HD
ATOM     41  H22 UNL     1      16.183  -5.290   0.682  1.00  0.00     0.274 HD
ATOM     42  H21 UNL     1      15.582  -5.570   2.248  1.00  0.00     0.274 HD
ENDBRANCH   4  39
TORSDOF 12
ENDMDL
MODEL 5
REMARK VINA RESULT: -7.951287080      1.946      8.118
REMARK  12 active torsions:
REMARK  status: ('A' for Active; 'I' for Inactive)
REMARK    1  A    between atoms: C2_2  and  C3_3 
REMARK    2  A    between atoms: C3_3  and  N1_4 
REMARK    3  A    between atoms: N1_4  and  C4_6 
REMARK    4  A    between atoms: C5_7  and  O1_8 
REMARK    5  A    between atoms: O1_8  and  C6_9 
REMARK    6  A    between atoms: C8_11  and  O2_12 
REMARK    7  A    between atoms: O2_12  and  C9_13 
REMARK    8  A    between atoms: C15_20  and  O4_21 
REMARK    9  A    between atoms: C16_23  and  N2_24 
REMARK   10  A    between atoms: C18_29  and  N3_30 
REMARK   11  A    between atoms: C21_37  and  O6_38 
REMARK   12  A    between atoms: C22_40  and  O7_41 
ROOT
HETATM    1  C6  UNL     1      11.361  -5.590  -0.052  1.00  0.00     0.158 C 
HETATM    2  C7  UNL     1      11.994  -6.819   0.554  1.00  0.00     0.068 C 
HETATM    3  C8  UNL     1      13.314  -6.474   1.211  1.00  0.00     0.155 C 
HETATM    4  C16 UNL     1      13.807  -5.124   0.697  1.00  0.00     0.214 C 
HETATM    5  C17 UNL     1      12.900  -3.997   1.038  1.00  0.00     0.070 C 
HETATM    6  C18 UNL     1      11.478  -4.372   0.785  1.00  0.00     0.214 C 
ENDROOT
BRANCH   1   7
HETATM    7  O1  UNL     1      11.679  -5.451  -1.382  1.00  0.00    -0.348 OA
BRANCH   7   8
HETATM    8  C5  UNL     1      11.551  -6.563  -2.150  1.00  0.00     0.310 C 
HETATM    9  C4  UNL     1      10.037  -6.814  -2.312  1.00  0.00     0.073 C 
HETATM   10  C22 UNL     1       9.783  -8.013  -3.164  1.00  0.00     0.199 C 
HETATM   11  C21 UNL     1      11.070  -8.674  -3.618  1.00  0.00     0.181 C 
HETATM   12  C19 UNL     1      12.143  -7.740  -4.028  1.00  0.00     0.152 C 
HETATM   13  O5  UNL     1      12.150  -6.517  -3.397  1.00  0.00    -0.348 OA
HETATM   14  C20 UNL     1      13.483  -8.449  -3.785  1.00  0.00     0.042 C 
BRANCH   9  15
HETATM   15  N1  UNL     1       9.295  -5.656  -2.508  1.00  0.00    -0.370 N 
ATOM     16  H1  UNL     1       9.186  -5.032  -1.709  1.00  0.00     0.164 HD
BRANCH  15  17
HETATM   17  C3  UNL     1       8.694  -5.275  -3.691  1.00  0.00     0.060 C 
BRANCH  17  18
HETATM   18  C2  UNL     1       9.485  -4.588  -4.758  1.00  0.00     0.040 C 
HETATM   19  C1  UNL     1      10.350  -3.457  -4.261  1.00  0.00     0.010 C 
ENDBRANCH  17  18
ENDBRANCH  15  17
ENDBRANCH   9  15
BRANCH  10  20
HETATM   20  O7  UNL     1       9.098  -9.040  -2.458  1.00  0.00    -0.387 OA
ATOM     21  H7  UNL     1       9.680  -9.540  -1.897  1.00  0.00     0.210 HD
ENDBRANCH  10  20
BRANCH  11  22
HETATM   22  O6  UNL     1      11.512  -9.649  -2.696  1.00  0.00    -0.390 OA
ATOM     23  H6  UNL     1      12.422  -9.891  -2.819  1.00  0.00     0.210 HD
ENDBRANCH  11  22
ENDBRANCH   7   8
ENDBRANCH   1   7
BRANCH   6  24
HETATM   24  N3  UNL     1      10.877  -4.667   2.086  1.00  0.00    -0.072 N 
ATOM     25  H33 UNL     1       9.899  -4.380   2.144  1.00  0.00     0.274 HD
ATOM     26  H32 UNL     1      10.734  -5.665   2.240  1.00  0.00     0.274 HD
ATOM     27  H31 UNL     1      11.460  -4.235   2.803  1.00  0.00     0.274 HD
ENDBRANCH   6  24
BRANCH   3  28
HETATM   28  O2  UNL     1      13.255  -6.433   2.572  1.00  0.00    -0.376 OA
BRANCH  28  29
HETATM   29  C9  UNL     1      13.839  -7.457   3.261  1.00  0.00     0.151 C 
HETATM   30  C10 UNL     1      12.722  -8.450   3.633  1.00  0.00     0.043 C 
HETATM   31  C11 UNL     1      12.323  -8.175   5.088  1.00  0.00     0.041 C 
HETATM   32  C12 UNL     1      12.352  -6.684   5.319  1.00  0.00     0.175 C 
HETATM   33  C15 UNL     1      13.410  -8.792   5.965  1.00  0.00     0.126 C 
HETATM   34  O3  UNL     1      13.683  -6.280   5.354  1.00  0.00    -0.383 OA
HETATM   35  C13 UNL     1      14.492  -7.074   4.549  1.00  0.00     0.152 C 
HETATM   36  C14 UNL     1      14.728  -8.362   5.349  1.00  0.00     0.066 C 
BRANCH  33  37
HETATM   37  O4  UNL     1      13.269 -10.167   5.992  1.00  0.00    -0.395 OA
ATOM     38  H4  UNL     1      14.037 -10.578   5.614  1.00  0.00     0.210 HD
ENDBRANCH  33  37
ENDBRANCH  28  29
ENDBRANCH   3  28
BRANCH   4  39
HETATM   39  N2  UNL     1      15.159  -4.937   1.184  1.00  0.00    -0.072 N 
ATOM     40  H23 UNL     1      15.527  -5.760   1.660  1.00  0.00     0.274 HD
ATOM     41  H22 UNL     1      15.849  -4.896   0.434  1.00  0.00     0.274 HD
ATOM     42  H21 UNL     1      15.163  -4.103   1.772  1.00  0.00     0.274 HD
ENDBRANCH   4  39
TORSDOF 12
ENDMDL
