MODEL 1
REMARK VINA RESULT: -8.423405376      0.000      0.000
REMARK  12 active torsions:
REMARK  status: ('A' for Active; 'I' for Inactive)
REMARK       I    between atoms: C2_2  and  N1_4 
REMARK    1  A    between atoms: N1_4  and  C3_6 
REMARK    2  A    between atoms: C4_7  and  N2_8 
REMARK    3  A    between atoms: C6_13  and  N3_14 
REMARK    4  A    between atoms: C7_18  and  O2_19 
REMARK    5  A    between atoms: O2_19  and  C8_20 
REMARK    6  A    between atoms: C11_24  and  O4_25 
REMARK    7  A    between atoms: O4_25  and  C12_26 
REMARK    8  A    between atoms: C12_26  and  C13_27 
REMARK    9  A    between atoms: C13_27  and  C14_28 
REMARK   10  A    between atoms: C20_34  and  O5_35 
REMARK   11  A    between atoms: C21_37  and  N4_38 
REMARK   12  A    between atoms: C22_42  and  O6_43 
ROOT
HETATM    1  C8  UNL     1      11.524 -12.370  -3.697  1.00  0.00     0.293 C 
HETATM    2  O3  UNL     1      11.580 -11.671  -2.456  1.00  0.00    -0.351 OA
HETATM    3  C9  UNL     1      11.553 -10.300  -2.638  1.00  0.00     0.152 C 
HETATM    4  C10 UNL     1      12.720  -9.747  -3.385  1.00  0.00     0.042 C 
HETATM    5  C11 UNL     1      10.233  -9.798  -3.210  1.00  0.00     0.180 C 
HETATM    6  C20 UNL     1       9.521 -11.040  -3.742  1.00  0.00     0.184 C 
HETATM    7  C21 UNL     1      10.579 -11.708  -4.635  1.00  0.00     0.269 C 
ENDROOT
BRANCH   1   8
HETATM    8  O2  UNL     1      11.297 -13.688  -3.420  1.00  0.00    -0.349 OA
BRANCH   8   9
HETATM    9  C7  UNL     1      12.344 -14.556  -3.734  1.00  0.00     0.185 C 
HETATM   10  C6  UNL     1      12.285 -15.681  -2.684  1.00  0.00     0.217 C 
HETATM   11  C5  UNL     1      13.422 -16.640  -2.918  1.00  0.00     0.070 C 
HETATM   12  C4  UNL     1      13.206 -17.297  -4.243  1.00  0.00     0.210 C 
HETATM   13  C3  UNL     1      13.035 -16.353  -5.383  1.00  0.00     0.146 C 
HETATM   14  C22 UNL     1      12.300 -15.095  -5.117  1.00  0.00     0.174 C 
BRANCH  10  15
HETATM   15  N3  UNL     1      11.016 -16.336  -2.736  1.00  0.00    -0.072 N 
ATOM     16  H33 UNL     1      11.092 -17.315  -2.459  1.00  0.00     0.274 HD
ATOM     17  H32 UNL     1      10.398 -16.007  -1.993  1.00  0.00     0.274 HD
ATOM     18  H31 UNL     1      10.576 -16.243  -3.652  1.00  0.00     0.274 HD
ENDBRANCH  10  15
BRANCH  12  19
HETATM   19  N2  UNL     1      12.109 -18.236  -4.122  1.00  0.00    -0.073 N 
ATOM     20  H23 UNL     1      12.391 -19.061  -3.593  1.00  0.00     0.274 HD
ATOM     21  H22 UNL     1      11.388 -17.877  -3.496  1.00  0.00     0.274 HD
ATOM     22  H21 UNL     1      11.711 -18.498  -5.024  1.00  0.00     0.274 HD
ENDBRANCH  12  19
BRANCH  13  23
HETATM   23  N1  UNL     1      14.366 -15.972  -5.874  1.00  0.00    -0.352 N 
HETATM   24  C2  UNL     1      14.902 -16.464  -7.089  1.00  0.00     0.214 C 
HETATM   25  C1  UNL     1      16.239 -16.089  -7.595  1.00  0.00     0.117 C 
HETATM   26  O1  UNL     1      14.224 -17.262  -7.794  1.00  0.00    -0.274 OA
ATOM     27  H1  UNL     1      14.927 -15.328  -5.317  1.00  0.00     0.163 HD
ENDBRANCH  13  23
BRANCH  14  28
HETATM   28  O6  UNL     1      12.712 -14.156  -6.070  1.00  0.00    -0.391 OA
ATOM     29  H6  UNL     1      12.027 -13.501  -6.143  1.00  0.00     0.210 HD
ENDBRANCH  14  28
ENDBRANCH   8   9
ENDBRANCH   1   8
BRANCH   7  30
HETATM   30  N4  UNL     1       9.969 -12.550  -5.619  1.00  0.00    -0.068 N 
ATOM     31  H43 UNL     1      10.250 -12.248  -6.552  1.00  0.00     0.275 HD
ATOM     32  H42 UNL     1      10.392 -13.477  -5.589  1.00  0.00     0.275 HD
ATOM     33  H41 UNL     1       8.953 -12.633  -5.575  1.00  0.00     0.275 HD
ENDBRANCH   7  30
BRANCH   6  34
HETATM   34  O5  UNL     1       8.372 -10.752  -4.416  1.00  0.00    -0.391 OA
ATOM     35  H5  UNL     1       7.759 -11.477  -4.436  1.00  0.00     0.210 HD
ENDBRANCH   6  34
BRANCH   5  36
HETATM   36  O4  UNL     1       9.484  -9.112  -2.307  1.00  0.00    -0.381 OA
BRANCH  36  37
HETATM   37  C12 UNL     1       9.630  -7.740  -2.338  1.00  0.00     0.168 C 
BRANCH  37  38
HETATM   38  C13 UNL     1       8.767  -7.019  -3.324  1.00  0.00     0.031 C 
BRANCH  38  39
HETATM   39  C14 UNL     1       9.335  -5.601  -3.446  1.00  0.00    -0.013 C 
HETATM   40  C15 UNL     1      10.758  -5.644  -2.992  1.00  0.00     0.005 C 
HETATM   41  C16 UNL     1      11.462  -4.317  -3.132  1.00  0.00     0.000 C 
HETATM   42  C17 UNL     1      10.584  -3.276  -3.793  1.00  0.00     0.000 C 
HETATM   43  C18 UNL     1      10.029  -3.850  -5.078  1.00  0.00     0.000 C 
HETATM   44  C19 UNL     1       9.150  -5.044  -4.824  1.00  0.00     0.005 C 
ENDBRANCH  38  39
ENDBRANCH  37  38
ENDBRANCH  36  37
ENDBRANCH   5  36
TORSDOF 12
ENDMDL
MODEL 2
REMARK VINA RESULT: -8.345847232      3.271      5.168
REMARK  12 active torsions:
REMARK  status: ('A' for Active; 'I' for Inactive)
REMARK       I    between atoms: C2_2  and  N1_4 
REMARK    1  A    between atoms: N1_4  and  C3_6 
REMARK    2  A    between atoms: C4_7  and  N2_8 
REMARK    3  A    between atoms: C6_13  and  N3_14 
REMARK    4  A    between atoms: C7_18  and  O2_19 
REMARK    5  A    between atoms: O2_19  and  C8_20 
REMARK    6  A    between atoms: C11_24  and  O4_25 
REMARK    7  A    between atoms: O4_25  and  C12_26 
REMARK    8  A    between atoms: C12_26  and  C13_27 
REMARK    9  A    between atoms: C13_27  and  C14_28 
REMARK   10  A    between atoms: C20_34  and  O5_35 
REMARK   11  A    between atoms: C21_37  and  N4_38 
REMARK   12  A    between atoms: C22_42  and  O6_43 
ROOT
HETATM    1  C8  UNL     1      10.121  -9.482  -2.210  1.00  0.00     0.293 C 
HETATM    2  O3  UNL     1       9.632  -8.382  -1.446  1.00  0.00    -0.351 OA
HETATM    3  C9  UNL     1      10.531  -7.998  -0.467  1.00  0.00     0.152 C 
HETATM    4  C10 UNL     1      10.800  -9.034   0.573  1.00  0.00     0.042 C 
HETATM    5  C11 UNL     1      11.825  -7.424  -1.033  1.00  0.00     0.180 C 
HETATM    6  C20 UNL     1      11.835  -7.821  -2.507  1.00  0.00     0.184 C 
HETATM    7  C21 UNL     1      11.576  -9.336  -2.476  1.00  0.00     0.269 C 
ENDROOT
BRANCH   1   8
HETATM    8  O2  UNL     1       9.306  -9.625  -3.297  1.00  0.00    -0.349 OA
BRANCH   8   9
HETATM    9  C7  UNL     1       8.627 -10.841  -3.382  1.00  0.00     0.185 C 
HETATM   10  C6  UNL     1       7.131 -10.482  -3.457  1.00  0.00     0.217 C 
HETATM   11  C5  UNL     1       6.318 -11.748  -3.496  1.00  0.00     0.070 C 
HETATM   12  C4  UNL     1       6.638 -12.463  -4.769  1.00  0.00     0.210 C 
HETATM   13  C3  UNL     1       8.087 -12.731  -4.983  1.00  0.00     0.146 C 
HETATM   14  C22 UNL     1       9.043 -11.698  -4.522  1.00  0.00     0.174 C 
BRANCH  10  15
HETATM   15  N3  UNL     1       6.882  -9.652  -4.593  1.00  0.00    -0.072 N 
ATOM     16  H33 UNL     1       6.577 -10.203  -5.396  1.00  0.00     0.274 HD
ATOM     17  H32 UNL     1       6.044  -9.085  -4.461  1.00  0.00     0.274 HD
ATOM     18  H31 UNL     1       7.688  -9.072  -4.826  1.00  0.00     0.274 HD
ENDBRANCH  10  15
BRANCH  12  19
HETATM   19  N2  UNL     1       6.031 -11.742  -5.871  1.00  0.00    -0.073 N 
ATOM     20  H23 UNL     1       5.611 -10.870  -5.549  1.00  0.00     0.274 HD
ATOM     21  H22 UNL     1       6.743 -11.363  -6.495  1.00  0.00     0.274 HD
ATOM     22  H21 UNL     1       5.355 -12.305  -6.387  1.00  0.00     0.274 HD
ENDBRANCH  12  19
BRANCH  13  23
HETATM   23  N1  UNL     1       8.437 -13.975  -4.285  1.00  0.00    -0.352 N 
HETATM   24  C2  UNL     1       9.220 -14.993  -4.883  1.00  0.00     0.214 C 
HETATM   25  C1  UNL     1       9.579 -16.249  -4.193  1.00  0.00     0.117 C 
HETATM   26  O1  UNL     1       9.644 -14.843  -6.062  1.00  0.00    -0.274 OA
ATOM     27  H1  UNL     1       8.103 -14.112  -3.331  1.00  0.00     0.163 HD
ENDBRANCH  13  23
BRANCH  14  28
HETATM   28  O6  UNL     1      10.272 -12.330  -4.296  1.00  0.00    -0.391 OA
ATOM     29  H6  UNL     1      10.297 -12.591  -3.382  1.00  0.00     0.210 HD
ENDBRANCH  14  28
ENDBRANCH   8   9
ENDBRANCH   1   8
BRANCH   7  30
HETATM   30  N4  UNL     1      12.071  -9.970  -3.660  1.00  0.00    -0.068 N 
ATOM     31  H43 UNL     1      12.986  -9.587  -3.900  1.00  0.00     0.275 HD
ATOM     32  H42 UNL     1      12.324 -10.936  -3.453  1.00  0.00     0.275 HD
ATOM     33  H41 UNL     1      11.461  -9.941  -4.477  1.00  0.00     0.275 HD
ENDBRANCH   7  30
BRANCH   6  34
HETATM   34  O5  UNL     1      12.999  -7.500  -3.141  1.00  0.00    -0.391 OA
ATOM     35  H5  UNL     1      12.919  -7.492  -4.087  1.00  0.00     0.210 HD
ENDBRANCH   6  34
BRANCH   5  36
HETATM   36  O4  UNL     1      11.940  -6.083  -0.850  1.00  0.00    -0.381 OA
BRANCH  36  37
HETATM   37  C12 UNL     1      10.939  -5.320  -1.416  1.00  0.00     0.168 C 
BRANCH  37  38
HETATM   38  C13 UNL     1      11.378  -4.028  -2.030  1.00  0.00     0.031 C 
BRANCH  38  39
HETATM   39  C14 UNL     1      10.875  -4.040  -3.477  1.00  0.00    -0.013 C 
HETATM   40  C15 UNL     1       9.718  -4.982  -3.546  1.00  0.00     0.005 C 
HETATM   41  C16 UNL     1       9.078  -5.032  -4.911  1.00  0.00     0.000 C 
HETATM   42  C17 UNL     1       9.703  -4.038  -5.867  1.00  0.00     0.000 C 
HETATM   43  C18 UNL     1       9.720  -2.675  -5.212  1.00  0.00     0.000 C 
HETATM   44  C19 UNL     1      10.571  -2.660  -3.973  1.00  0.00     0.005 C 
ENDBRANCH  38  39
ENDBRANCH  37  38
ENDBRANCH  36  37
ENDBRANCH   5  36
TORSDOF 12
ENDMDL
MODEL 3
REMARK VINA RESULT: -8.261255850      7.842      9.990
REMARK  12 active torsions:
REMARK  status: ('A' for Active; 'I' for Inactive)
REMARK       I    between atoms: C2_2  and  N1_4 
REMARK    1  A    between atoms: N1_4  and  C3_6 
REMARK    2  A    between atoms: C4_7  and  N2_8 
REMARK    3  A    between atoms: C6_13  and  N3_14 
REMARK    4  A    between atoms: C7_18  and  O2_19 
REMARK    5  A    between atoms: O2_19  and  C8_20 
REMARK    6  A    between atoms: C11_24  and  O4_25 
REMARK    7  A    between atoms: O4_25  and  C12_26 
REMARK    8  A    between atoms: C12_26  and  C13_27 
REMARK    9  A    between atoms: C13_27  and  C14_28 
REMARK   10  A    between atoms: C20_34  and  O5_35 
REMARK   11  A    between atoms: C21_37  and  N4_38 
REMARK   12  A    between atoms: C22_42  and  O6_43 
ROOT
HETATM    1  C8  UNL     1      13.292  -4.639   2.783  1.00  0.00     0.293 C 
HETATM    2  O3  UNL     1      12.126  -5.243   2.229  1.00  0.00    -0.351 OA
HETATM    3  C9  UNL     1      11.949  -4.892   0.903  1.00  0.00     0.152 C 
HETATM    4  C10 UNL     1      11.715  -3.437   0.668  1.00  0.00     0.042 C 
HETATM    5  C11 UNL     1      13.038  -5.439  -0.013  1.00  0.00     0.180 C 
HETATM    6  C20 UNL     1      14.168  -5.877   0.916  1.00  0.00     0.184 C 
HETATM    7  C21 UNL     1      14.408  -4.643   1.801  1.00  0.00     0.269 C 
ENDROOT
BRANCH   1   8
HETATM    8  O2  UNL     1      13.531  -5.231   3.990  1.00  0.00    -0.349 OA
BRANCH   8   9
HETATM    9  C7  UNL     1      13.251  -6.597   4.053  1.00  0.00     0.185 C 
HETATM   10  C6  UNL     1      14.563  -7.274   4.492  1.00  0.00     0.217 C 
HETATM   11  C5  UNL     1      14.364  -8.765   4.533  1.00  0.00     0.070 C 
HETATM   12  C4  UNL     1      13.363  -9.068   5.601  1.00  0.00     0.210 C 
HETATM   13  C3  UNL     1      12.070  -8.342   5.464  1.00  0.00     0.146 C 
HETATM   14  C22 UNL     1      12.124  -6.952   4.954  1.00  0.00     0.174 C 
BRANCH  10  15
HETATM   15  N3  UNL     1      14.984  -6.757   5.756  1.00  0.00    -0.072 N 
ATOM     16  H33 UNL     1      15.993  -6.606   5.778  1.00  0.00     0.274 HD
ATOM     17  H32 UNL     1      14.675  -5.794   5.884  1.00  0.00     0.274 HD
ATOM     18  H31 UNL     1      14.682  -7.349   6.530  1.00  0.00     0.274 HD
ENDBRANCH  10  15
BRANCH  12  19
HETATM   19  N2  UNL     1      13.988  -8.864   6.893  1.00  0.00    -0.073 N 
ATOM     20  H23 UNL     1      14.027  -7.872   7.128  1.00  0.00     0.274 HD
ATOM     21  H22 UNL     1      13.382  -9.188   7.647  1.00  0.00     0.274 HD
ATOM     22  H21 UNL     1      14.911  -9.292   6.958  1.00  0.00     0.274 HD
ENDBRANCH  12  19
BRANCH  13  23
HETATM   23  N1  UNL     1      11.207  -9.098   4.547  1.00  0.00    -0.352 N 
HETATM   24  C2  UNL     1      10.333 -10.121   4.989  1.00  0.00     0.214 C 
HETATM   25  C1  UNL     1       9.460 -10.890   4.078  1.00  0.00     0.117 C 
HETATM   26  O1  UNL     1      10.279 -10.410   6.217  1.00  0.00    -0.274 OA
ATOM     27  H1  UNL     1      11.238  -8.877   3.552  1.00  0.00     0.163 HD
ENDBRANCH  13  23
BRANCH  14  28
HETATM   28  O6  UNL     1      10.876  -6.661   4.389  1.00  0.00    -0.391 OA
ATOM     29  H6  UNL     1      10.965  -5.852   3.898  1.00  0.00     0.210 HD
ENDBRANCH  14  28
ENDBRANCH   8   9
ENDBRANCH   1   8
BRANCH   7  30
HETATM   30  N4  UNL     1      15.732  -4.646   2.345  1.00  0.00    -0.068 N 
ATOM     31  H43 UNL     1      16.151  -3.722   2.237  1.00  0.00     0.275 HD
ATOM     32  H42 UNL     1      15.687  -4.711   3.361  1.00  0.00     0.275 HD
ATOM     33  H41 UNL     1      16.368  -5.356   1.982  1.00  0.00     0.275 HD
ENDBRANCH   7  30
BRANCH   6  34
HETATM   34  O5  UNL     1      15.289  -6.271   0.249  1.00  0.00    -0.391 OA
ATOM     35  H5  UNL     1      16.086  -5.892   0.601  1.00  0.00     0.210 HD
ENDBRANCH   6  34
BRANCH   5  36
HETATM   36  O4  UNL     1      12.605  -6.442  -0.821  1.00  0.00    -0.381 OA
BRANCH  36  37
HETATM   37  C12 UNL     1      12.238  -6.060  -2.095  1.00  0.00     0.168 C 
BRANCH  37  38
HETATM   38  C13 UNL     1      10.835  -6.391  -2.491  1.00  0.00     0.031 C 
BRANCH  38  39
HETATM   39  C14 UNL     1      10.323  -5.206  -3.317  1.00  0.00    -0.013 C 
HETATM   40  C15 UNL     1      11.205  -4.037  -3.024  1.00  0.00     0.005 C 
HETATM   41  C16 UNL     1      10.853  -2.814  -3.834  1.00  0.00     0.000 C 
HETATM   42  C17 UNL     1       9.745  -3.092  -4.828  1.00  0.00     0.000 C 
HETATM   43  C18 UNL     1      10.111  -4.318  -5.636  1.00  0.00     0.000 C 
HETATM   44  C19 UNL     1      10.221  -5.545  -4.772  1.00  0.00     0.005 C 
ENDBRANCH  38  39
ENDBRANCH  37  38
ENDBRANCH  36  37
ENDBRANCH   5  36
TORSDOF 12
ENDMDL
MODEL 4
REMARK VINA RESULT: -8.162033278      4.250      6.863
REMARK  12 active torsions:
REMARK  status: ('A' for Active; 'I' for Inactive)
REMARK       I    between atoms: C2_2  and  N1_4 
REMARK    1  A    between atoms: N1_4  and  C3_6 
REMARK    2  A    between atoms: C4_7  and  N2_8 
REMARK    3  A    between atoms: C6_13  and  N3_14 
REMARK    4  A    between atoms: C7_18  and  O2_19 
REMARK    5  A    between atoms: O2_19  and  C8_20 
REMARK    6  A    between atoms: C11_24  and  O4_25 
REMARK    7  A    between atoms: O4_25  and  C12_26 
REMARK    8  A    between atoms: C12_26  and  C13_27 
REMARK    9  A    between atoms: C13_27  and  C14_28 
REMARK   10  A    between atoms: C20_34  and  O5_35 
REMARK   11  A    between atoms: C21_37  and  N4_38 
REMARK   12  A    between atoms: C22_42  and  O6_43 
ROOT
HETATM    1  C8  UNL     1       9.708  -7.751  -3.832  1.00  0.00     0.293 C 
HETATM    2  O3  UNL     1      10.715  -8.233  -2.946  1.00  0.00    -0.351 OA
HETATM    3  C9  UNL     1      11.961  -7.722  -3.260  1.00  0.00     0.152 C 
HETATM    4  C10 UNL     1      12.479  -8.121  -4.601  1.00  0.00     0.042 C 
HETATM    5  C11 UNL     1      12.064  -6.217  -3.045  1.00  0.00     0.180 C 
HETATM    6  C20 UNL     1      10.624  -5.726  -2.912  1.00  0.00     0.184 C 
HETATM    7  C21 UNL     1       9.926  -6.314  -4.148  1.00  0.00     0.269 C 
ENDROOT
BRANCH   1   8
HETATM    8  O2  UNL     1       8.495  -8.090  -3.304  1.00  0.00    -0.349 OA
BRANCH   8   9
HETATM    9  C7  UNL     1       8.342  -9.436  -2.970  1.00  0.00     0.185 C 
HETATM   10  C6  UNL     1       7.615  -9.451  -1.612  1.00  0.00     0.217 C 
HETATM   11  C5  UNL     1       7.456 -10.874  -1.149  1.00  0.00     0.070 C 
HETATM   12  C4  UNL     1       6.552 -11.575  -2.112  1.00  0.00     0.210 C 
HETATM   13  C3  UNL     1       6.986 -11.503  -3.534  1.00  0.00     0.146 C 
HETATM   14  C22 UNL     1       7.619 -10.243  -3.987  1.00  0.00     0.174 C 
BRANCH  10  15
HETATM   15  N3  UNL     1       6.356  -8.782  -1.721  1.00  0.00    -0.072 N 
ATOM     16  H33 UNL     1       6.427  -7.953  -2.312  1.00  0.00     0.274 HD
ATOM     17  H32 UNL     1       5.696  -9.322  -2.280  1.00  0.00     0.274 HD
ATOM     18  H31 UNL     1       5.966  -8.552  -0.806  1.00  0.00     0.274 HD
ENDBRANCH  10  15
BRANCH  12  19
HETATM   19  N2  UNL     1       5.199 -11.095  -1.911  1.00  0.00    -0.073 N 
ATOM     20  H23 UNL     1       4.938 -10.427  -2.636  1.00  0.00     0.274 HD
ATOM     21  H22 UNL     1       4.518 -11.828  -2.109  1.00  0.00     0.274 HD
ATOM     22  H21 UNL     1       5.053 -10.702  -0.982  1.00  0.00     0.274 HD
ENDBRANCH  12  19
BRANCH  13  23
HETATM   23  N1  UNL     1       7.956 -12.578  -3.780  1.00  0.00    -0.352 N 
HETATM   24  C2  UNL     1       7.919 -13.390  -4.940  1.00  0.00     0.214 C 
HETATM   25  C1  UNL     1       8.887 -14.475  -5.199  1.00  0.00     0.117 C 
HETATM   26  O1  UNL     1       7.024 -13.198  -5.809  1.00  0.00    -0.274 OA
ATOM     27  H1  UNL     1       8.686 -12.745  -3.088  1.00  0.00     0.163 HD
ENDBRANCH  13  23
BRANCH  14  28
HETATM   28  O6  UNL     1       8.419 -10.546  -5.096  1.00  0.00    -0.391 OA
ATOM     29  H6  UNL     1       9.225 -10.931  -4.772  1.00  0.00     0.210 HD
ENDBRANCH  14  28
ENDBRANCH   8   9
ENDBRANCH   1   8
BRANCH   7  30
HETATM   30  N4  UNL     1       8.760  -5.557  -4.493  1.00  0.00    -0.068 N 
ATOM     31  H43 UNL     1       9.008  -4.573  -4.598  1.00  0.00     0.275 HD
ATOM     32  H42 UNL     1       8.476  -5.779  -5.447  1.00  0.00     0.275 HD
ATOM     33  H41 UNL     1       7.961  -5.647  -3.865  1.00  0.00     0.275 HD
ENDBRANCH   7  30
BRANCH   6  34
HETATM   34  O5  UNL     1      10.524  -4.368  -2.848  1.00  0.00    -0.391 OA
ATOM     35  H5  UNL     1       9.710  -4.036  -3.208  1.00  0.00     0.210 HD
ENDBRANCH   6  34
BRANCH   5  36
HETATM   36  O4  UNL     1      12.834  -5.879  -1.978  1.00  0.00    -0.381 OA
BRANCH  36  37
HETATM   37  C12 UNL     1      12.686  -6.680  -0.864  1.00  0.00     0.168 C 
BRANCH  37  38
HETATM   38  C13 UNL     1      12.357  -5.966   0.408  1.00  0.00     0.031 C 
BRANCH  38  39
HETATM   39  C14 UNL     1      11.805  -7.023   1.371  1.00  0.00    -0.013 C 
HETATM   40  C15 UNL     1      11.317  -8.171   0.551  1.00  0.00     0.005 C 
HETATM   41  C16 UNL     1      10.811  -9.321   1.387  1.00  0.00     0.000 C 
HETATM   42  C17 UNL     1      11.010  -9.076   2.868  1.00  0.00     0.000 C 
HETATM   43  C18 UNL     1      12.452  -8.688   3.109  1.00  0.00     0.000 C 
HETATM   44  C19 UNL     1      12.808  -7.401   2.417  1.00  0.00     0.005 C 
ENDBRANCH  38  39
ENDBRANCH  37  38
ENDBRANCH  36  37
ENDBRANCH   5  36
TORSDOF 12
ENDMDL
MODEL 5
REMARK VINA RESULT: -8.077105185      6.587      9.693
REMARK  12 active torsions:
REMARK  status: ('A' for Active; 'I' for Inactive)
REMARK       I    between atoms: C2_2  and  N1_4 
REMARK    1  A    between atoms: N1_4  and  C3_6 
REMARK    2  A    between atoms: C4_7  and  N2_8 
REMARK    3  A    between atoms: C6_13  and  N3_14 
REMARK    4  A    between atoms: C7_18  and  O2_19 
REMARK    5  A    between atoms: O2_19  and  C8_20 
REMARK    6  A    between atoms: C11_24  and  O4_25 
REMARK    7  A    between atoms: O4_25  and  C12_26 
REMARK    8  A    between atoms: C12_26  and  C13_27 
REMARK    9  A    between atoms: C13_27  and  C14_28 
REMARK   10  A    between atoms: C20_34  and  O5_35 
REMARK   11  A    between atoms: C21_37  and  N4_38 
REMARK   12  A    between atoms: C22_42  and  O6_43 
ROOT
HETATM    1  C8  UNL     1      13.345  -4.756   0.167  1.00  0.00     0.293 C 
HETATM    2  O3  UNL     1      13.403  -6.128   0.549  1.00  0.00    -0.351 OA
HETATM    3  C9  UNL     1      13.571  -6.274   1.914  1.00  0.00     0.152 C 
HETATM    4  C10 UNL     1      14.852  -5.726   2.447  1.00  0.00     0.042 C 
HETATM    5  C11 UNL     1      12.374  -5.785   2.721  1.00  0.00     0.180 C 
HETATM    6  C20 UNL     1      11.545  -4.947   1.750  1.00  0.00     0.184 C 
HETATM    7  C21 UNL     1      12.567  -3.964   1.156  1.00  0.00     0.269 C 
ENDROOT
BRANCH   1   8
HETATM    8  O2  UNL     1      12.926  -4.705  -1.131  1.00  0.00    -0.349 OA
BRANCH   8   9
HETATM    9  C7  UNL     1      12.130  -5.773  -1.547  1.00  0.00     0.185 C 
HETATM   10  C6  UNL     1      10.775  -5.157  -1.944  1.00  0.00     0.217 C 
HETATM   11  C5  UNL     1       9.832  -6.255  -2.356  1.00  0.00     0.070 C 
HETATM   12  C4  UNL     1      10.377  -6.893  -3.594  1.00  0.00     0.210 C 
HETATM   13  C3  UNL     1      11.778  -7.384  -3.473  1.00  0.00     0.146 C 
HETATM   14  C22 UNL     1      12.711  -6.578  -2.652  1.00  0.00     0.174 C 
BRANCH  10  15
HETATM   15  N3  UNL     1      10.960  -4.194  -2.983  1.00  0.00    -0.072 N 
ATOM     16  H33 UNL     1      11.428  -4.605  -3.791  1.00  0.00     0.274 HD
ATOM     17  H32 UNL     1      10.072  -3.947  -3.421  1.00  0.00     0.274 HD
ATOM     18  H31 UNL     1      11.452  -3.364  -2.651  1.00  0.00     0.274 HD
ENDBRANCH  10  15
BRANCH  12  19
HETATM   19  N2  UNL     1      10.197  -5.978  -4.704  1.00  0.00    -0.073 N 
ATOM     20  H23 UNL     1      10.659  -5.087  -4.522  1.00  0.00     0.274 HD
ATOM     21  H22 UNL     1      10.734  -6.280  -5.517  1.00  0.00     0.274 HD
ATOM     22  H21 UNL     1       9.216  -5.839  -4.946  1.00  0.00     0.274 HD
ENDBRANCH  12  19
BRANCH  13  23
HETATM   23  N1  UNL     1      11.749  -8.730  -2.885  1.00  0.00    -0.352 N 
HETATM   24  C2  UNL     1      11.853  -9.907  -3.665  1.00  0.00     0.214 C 
HETATM   25  C1  UNL     1      11.824 -11.267  -3.087  1.00  0.00     0.117 C 
HETATM   26  O1  UNL     1      11.977  -9.818  -4.917  1.00  0.00    -0.274 OA
ATOM     27  H1  UNL     1      11.650  -8.819  -1.874  1.00  0.00     0.163 HD
ENDBRANCH  13  23
BRANCH  14  28
HETATM   28  O6  UNL     1      13.732  -7.430  -2.214  1.00  0.00    -0.391 OA
ATOM     29  H6  UNL     1      13.678  -7.479  -1.266  1.00  0.00     0.210 HD
ENDBRANCH  14  28
ENDBRANCH   8   9
ENDBRANCH   1   8
BRANCH   7  30
HETATM   30  N4  UNL     1      11.924  -2.786   0.660  1.00  0.00    -0.068 N 
ATOM     31  H43 UNL     1      11.245  -2.450   1.344  1.00  0.00     0.275 HD
ATOM     32  H42 UNL     1      12.584  -2.008   0.658  1.00  0.00     0.275 HD
ATOM     33  H41 UNL     1      11.480  -2.864  -0.255  1.00  0.00     0.275 HD
ENDBRANCH   7  30
BRANCH   6  34
HETATM   34  O5  UNL     1      10.496  -4.315   2.349  1.00  0.00    -0.391 OA
ATOM     35  H5  UNL     1       9.662  -4.741   2.189  1.00  0.00     0.210 HD
ENDBRANCH   6  34
BRANCH   5  36
HETATM   36  O4  UNL     1      11.659  -6.794   3.284  1.00  0.00    -0.381 OA
BRANCH  36  37
HETATM   37  C12 UNL     1      11.784  -6.915   4.653  1.00  0.00     0.168 C 
BRANCH  37  38
HETATM   38  C13 UNL     1      12.522  -8.125   5.132  1.00  0.00     0.031 C 
BRANCH  38  39
HETATM   39  C14 UNL     1      13.875  -7.632   5.655  1.00  0.00    -0.013 C 
HETATM   40  C15 UNL     1      13.860  -7.765   7.142  1.00  0.00     0.005 C 
HETATM   41  C16 UNL     1      15.170  -7.379   7.783  1.00  0.00     0.000 C 
HETATM   42  C17 UNL     1      16.226  -7.040   6.752  1.00  0.00     0.000 C 
HETATM   43  C18 UNL     1      16.307  -8.167   5.747  1.00  0.00     0.000 C 
HETATM   44  C19 UNL     1      15.018  -8.335   4.990  1.00  0.00     0.005 C 
ENDBRANCH  38  39
ENDBRANCH  37  38
ENDBRANCH  36  37
ENDBRANCH   5  36
TORSDOF 12
ENDMDL
