MODEL 1
REMARK VINA RESULT: -8.335142739      0.000      0.000
REMARK  11 active torsions:
REMARK  status: ('A' for Active; 'I' for Inactive)
REMARK       I    between atoms: C2_2  and  N1_4 
REMARK    1  A    between atoms: N1_4  and  C3_6 
REMARK    2  A    between atoms: C4_7  and  N2_8 
REMARK    3  A    between atoms: C6_13  and  N3_14 
REMARK    4  A    between atoms: C7_16  and  N4_18 
REMARK    5  A    between atoms: N4_18  and  C9_20 
REMARK    6  A    between atoms: C11_22  and  C12_23 
REMARK    7  A    between atoms: S2_28  and  N5_29 
REMARK    8  A    between atoms: N5_29  and  O4_31 
REMARK    9  A    between atoms: O4_31  and  C14_32 
REMARK   10  A    between atoms: C14_32  and  O5_33 
REMARK   11  A    between atoms: C16_36  and  O6_37 
ROOT
HETATM    1  O5  UNL     1       9.957 -10.406   5.006  1.00  0.00    -0.255 OA
HETATM    2  C15 UNL     1       9.406 -11.032   6.086  1.00  0.00     0.230 C 
HETATM    3  N6  UNL     1       8.945 -11.563   7.029  1.00  0.00    -0.164 NA
ENDROOT
BRANCH   1   4
HETATM    4  C14 UNL     1       9.624 -10.795   3.680  1.00  0.00     0.391 C 
BRANCH   4   5
HETATM    5  O4  UNL     1       9.974  -9.780   2.771  1.00  0.00    -0.248 OA
BRANCH   5   6
HETATM    6  N5  UNL     1      11.266  -9.714   2.305  1.00  0.00    -0.244 N 
ATOM      7  H5  UNL     1      11.660 -10.443   1.711  1.00  0.00     0.202 HD
BRANCH   6   8
HETATM    8  S2  UNL     1      12.122  -8.423   2.748  1.00  0.00    -0.050 SA
HETATM    9  C6  UNL     1      11.727  -6.710   2.163  1.00  0.00     0.161 C 
HETATM   10  C5  UNL     1      11.992  -5.905   3.444  1.00  0.00     0.072 C 
HETATM   11  C4  UNL     1      13.444  -6.131   3.840  1.00  0.00     0.212 C 
HETATM   12  C3  UNL     1      13.651  -7.312   4.705  1.00  0.00     0.154 C 
HETATM   13  C16 UNL     1      12.599  -8.394   4.535  1.00  0.00     0.217 C 
BRANCH   9  14
HETATM   14  N3  UNL     1      12.685  -6.313   1.184  1.00  0.00    -0.366 N 
HETATM   15  C7  UNL     1      12.453  -6.194  -0.079  1.00  0.00     0.070 C 
HETATM   16  C8  UNL     1      13.514  -5.777  -1.004  1.00  0.00     0.088 C 
ATOM     17  H3  UNL     1      13.629  -6.107   1.508  1.00  0.00     0.162 HD
BRANCH  15  18
HETATM   18  N4  UNL     1      11.154  -6.470  -0.581  1.00  0.00    -0.372 N 
ATOM     19  H4  UNL     1      10.482  -5.704  -0.610  1.00  0.00     0.161 HD
BRANCH  18  20
HETATM   20  C9  UNL     1      10.724  -7.766  -1.052  1.00  0.00     0.117 C 
HETATM   21  C10 UNL     1      11.752  -8.392  -1.856  1.00  0.00     0.024 C 
HETATM   22  C11 UNL     1      11.383  -9.224  -2.793  1.00  0.00     0.075 C 
HETATM   23  S1  UNL     1       9.593  -9.269  -2.747  1.00  0.00    -0.121 SA
HETATM   24  C13 UNL     1       9.417  -7.686  -1.808  1.00  0.00     0.108 C 
BRANCH  22  25
HETATM   25  C12 UNL     1      12.203  -9.973  -3.722  1.00  0.00     0.216 C 
HETATM   26  O2  UNL     1      13.299 -10.447  -3.338  1.00  0.00    -0.644 OA
HETATM   27  O3  UNL     1      11.810 -10.179  -5.016  1.00  0.00    -0.644 OA
ENDBRANCH  22  25
ENDBRANCH  18  20
ENDBRANCH  15  18
ENDBRANCH   9  14
BRANCH  11  28
HETATM   28  N2  UNL     1      13.913  -4.879   4.391  1.00  0.00    -0.073 N 
ATOM     29  H23 UNL     1      13.197  -4.159   4.289  1.00  0.00     0.274 HD
ATOM     30  H22 UNL     1      13.962  -4.939   5.409  1.00  0.00     0.274 HD
ATOM     31  H21 UNL     1      14.801  -4.548   4.016  1.00  0.00     0.274 HD
ENDBRANCH  11  28
BRANCH  12  32
HETATM   32  N1  UNL     1      13.753  -7.040   6.115  1.00  0.00    -0.351 N 
HETATM   33  C2  UNL     1      14.608  -7.652   7.025  1.00  0.00     0.214 C 
HETATM   34  C1  UNL     1      14.630  -7.293   8.462  1.00  0.00     0.117 C 
HETATM   35  O1  UNL     1      15.400  -8.544   6.632  1.00  0.00    -0.274 OA
ATOM     36  H1  UNL     1      13.130  -6.322   6.487  1.00  0.00     0.163 HD
ENDBRANCH  12  32
BRANCH  13  37
HETATM   37  O6  UNL     1      13.044  -9.620   5.004  1.00  0.00    -0.382 OA
ATOM     38  H6  UNL     1      13.613 -10.050   4.376  1.00  0.00     0.211 HD
ENDBRANCH  13  37
ENDBRANCH   6   8
ENDBRANCH   5   6
ENDBRANCH   4   5
ENDBRANCH   1   4
TORSDOF 11
ENDMDL
MODEL 2
REMARK VINA RESULT: -8.281034214      2.571      7.461
REMARK  11 active torsions:
REMARK  status: ('A' for Active; 'I' for Inactive)
REMARK       I    between atoms: C2_2  and  N1_4 
REMARK    1  A    between atoms: N1_4  and  C3_6 
REMARK    2  A    between atoms: C4_7  and  N2_8 
REMARK    3  A    between atoms: C6_13  and  N3_14 
REMARK    4  A    between atoms: C7_16  and  N4_18 
REMARK    5  A    between atoms: N4_18  and  C9_20 
REMARK    6  A    between atoms: C11_22  and  C12_23 
REMARK    7  A    between atoms: S2_28  and  N5_29 
REMARK    8  A    between atoms: N5_29  and  O4_31 
REMARK    9  A    between atoms: O4_31  and  C14_32 
REMARK   10  A    between atoms: C14_32  and  O5_33 
REMARK   11  A    between atoms: C16_36  and  O6_37 
ROOT
HETATM    1  O5  UNL     1       9.322 -11.467   4.698  1.00  0.00    -0.255 OA
HETATM    2  C15 UNL     1       9.082 -11.477   6.042  1.00  0.00     0.230 C 
HETATM    3  N6  UNL     1       8.862 -11.501   7.197  1.00  0.00    -0.164 NA
ENDROOT
BRANCH   1   4
HETATM    4  C14 UNL     1       9.940 -10.352   4.070  1.00  0.00     0.391 C 
BRANCH   4   5
HETATM    5  O4  UNL     1       9.836 -10.462   2.671  1.00  0.00    -0.248 OA
BRANCH   5   6
HETATM    6  N5  UNL     1      10.888 -10.050   1.886  1.00  0.00    -0.244 N 
ATOM      7  H5  UNL     1      11.842 -10.365   2.058  1.00  0.00     0.202 HD
BRANCH   6   8
HETATM    8  S2  UNL     1      10.530  -9.044   0.681  1.00  0.00    -0.050 SA
HETATM    9  C6  UNL     1      11.745  -7.823  -0.001  1.00  0.00     0.161 C 
HETATM   10  C5  UNL     1      11.426  -7.913  -1.501  1.00  0.00     0.072 C 
HETATM   11  C4  UNL     1       9.964  -7.534  -1.686  1.00  0.00     0.212 C 
HETATM   12  C3  UNL     1       9.031  -8.675  -1.561  1.00  0.00     0.154 C 
HETATM   13  C16 UNL     1       9.552  -9.806  -0.693  1.00  0.00     0.217 C 
BRANCH   9  14
HETATM   14  N3  UNL     1      11.403  -6.514   0.449  1.00  0.00    -0.366 N 
HETATM   15  C7  UNL     1      12.090  -5.810   1.282  1.00  0.00     0.070 C 
HETATM   16  C8  UNL     1      11.645  -4.468   1.680  1.00  0.00     0.088 C 
ATOM     17  H3  UNL     1      10.546  -6.102   0.081  1.00  0.00     0.162 HD
BRANCH  15  18
HETATM   18  N4  UNL     1      13.290  -6.340   1.823  1.00  0.00    -0.372 N 
ATOM     19  H4  UNL     1      14.070  -6.499   1.186  1.00  0.00     0.161 HD
BRANCH  18  20
HETATM   20  C9  UNL     1      13.478  -6.668   3.217  1.00  0.00     0.117 C 
HETATM   21  C10 UNL     1      14.794  -6.272   3.669  1.00  0.00     0.024 C 
HETATM   22  C11 UNL     1      15.346  -6.952   4.639  1.00  0.00     0.075 C 
HETATM   23  S1  UNL     1      14.182  -8.244   5.070  1.00  0.00    -0.121 SA
HETATM   24  C13 UNL     1      13.229  -8.134   3.489  1.00  0.00     0.108 C 
BRANCH  22  25
HETATM   25  C12 UNL     1      16.636  -6.763   5.267  1.00  0.00     0.216 C 
HETATM   26  O2  UNL     1      17.665  -7.234   4.724  1.00  0.00    -0.644 OA
HETATM   27  O3  UNL     1      16.764  -6.080   6.445  1.00  0.00    -0.644 OA
ENDBRANCH  22  25
ENDBRANCH  18  20
ENDBRANCH  15  18
ENDBRANCH   9  14
BRANCH  11  28
HETATM   28  N2  UNL     1       9.886  -6.815  -2.937  1.00  0.00    -0.073 N 
ATOM     29  H23 UNL     1      10.776  -6.874  -3.433  1.00  0.00     0.274 HD
ATOM     30  H22 UNL     1       9.282  -7.312  -3.593  1.00  0.00     0.274 HD
ATOM     31  H21 UNL     1       9.592  -5.842  -2.858  1.00  0.00     0.274 HD
ENDBRANCH  11  28
BRANCH  12  32
HETATM   32  N1  UNL     1       8.595  -9.261  -2.801  1.00  0.00    -0.351 N 
HETATM   33  C2  UNL     1       7.298  -9.294  -3.300  1.00  0.00     0.214 C 
HETATM   34  C1  UNL     1       6.959  -9.928  -4.596  1.00  0.00     0.117 C 
HETATM   35  O1  UNL     1       6.364  -8.773  -2.642  1.00  0.00    -0.274 OA
ATOM     36  H1  UNL     1       9.315  -9.699  -3.376  1.00  0.00     0.163 HD
ENDBRANCH  12  32
BRANCH  13  37
HETATM   37  O6  UNL     1       8.527 -10.625  -0.247  1.00  0.00    -0.382 OA
ATOM     38  H6  UNL     1       8.025 -10.213   0.447  1.00  0.00     0.211 HD
ENDBRANCH  13  37
ENDBRANCH   6   8
ENDBRANCH   5   6
ENDBRANCH   4   5
ENDBRANCH   1   4
TORSDOF 11
ENDMDL
MODEL 3
REMARK VINA RESULT: -8.275159964      5.534      8.140
REMARK  11 active torsions:
REMARK  status: ('A' for Active; 'I' for Inactive)
REMARK       I    between atoms: C2_2  and  N1_4 
REMARK    1  A    between atoms: N1_4  and  C3_6 
REMARK    2  A    between atoms: C4_7  and  N2_8 
REMARK    3  A    between atoms: C6_13  and  N3_14 
REMARK    4  A    between atoms: C7_16  and  N4_18 
REMARK    5  A    between atoms: N4_18  and  C9_20 
REMARK    6  A    between atoms: C11_22  and  C12_23 
REMARK    7  A    between atoms: S2_28  and  N5_29 
REMARK    8  A    between atoms: N5_29  and  O4_31 
REMARK    9  A    between atoms: O4_31  and  C14_32 
REMARK   10  A    between atoms: C14_32  and  O5_33 
REMARK   11  A    between atoms: C16_36  and  O6_37 
ROOT
HETATM    1  O5  UNL     1       4.687 -12.244   1.125  1.00  0.00    -0.255 OA
HETATM    2  C15 UNL     1       5.151 -12.656   2.341  1.00  0.00     0.230 C 
HETATM    3  N6  UNL     1       5.531 -13.016   3.394  1.00  0.00    -0.164 NA
ENDROOT
BRANCH   1   4
HETATM    4  C14 UNL     1       5.496 -11.463   0.255  1.00  0.00     0.391 C 
BRANCH   4   5
HETATM    5  O4  UNL     1       4.732 -10.992  -0.829  1.00  0.00    -0.248 OA
BRANCH   5   6
HETATM    6  N5  UNL     1       5.051  -9.782  -1.399  1.00  0.00    -0.244 N 
ATOM      7  H5  UNL     1       4.492  -8.946  -1.233  1.00  0.00     0.202 HD
BRANCH   6   8
HETATM    8  S2  UNL     1       6.357  -9.758  -2.342  1.00  0.00    -0.050 SA
HETATM    9  C6  UNL     1       7.791  -8.625  -2.040  1.00  0.00     0.161 C 
HETATM   10  C5  UNL     1       8.965  -9.555  -2.383  1.00  0.00     0.072 C 
HETATM   11  C4  UNL     1       8.792 -10.002  -3.827  1.00  0.00     0.212 C 
HETATM   12  C3  UNL     1       7.965 -11.218  -3.982  1.00  0.00     0.154 C 
HETATM   13  C16 UNL     1       6.961 -11.427  -2.863  1.00  0.00     0.217 C 
BRANCH   9  14
HETATM   14  N3  UNL     1       7.768  -7.568  -2.996  1.00  0.00    -0.366 N 
HETATM   15  C7  UNL     1       8.476  -6.492  -2.934  1.00  0.00     0.070 C 
HETATM   16  C8  UNL     1       8.376  -5.463  -3.977  1.00  0.00     0.088 C 
ATOM     17  H3  UNL     1       7.141  -7.671  -3.794  1.00  0.00     0.162 HD
BRANCH  15  18
HETATM   18  N4  UNL     1       9.364  -6.301  -1.843  1.00  0.00    -0.372 N 
ATOM     19  H4  UNL     1       8.960  -6.204  -0.912  1.00  0.00     0.161 HD
BRANCH  18  20
HETATM   20  C9  UNL     1      10.801  -6.235  -1.968  1.00  0.00     0.117 C 
HETATM   21  C10 UNL     1      11.247  -6.901  -3.173  1.00  0.00     0.024 C 
HETATM   22  C11 UNL     1      12.439  -7.437  -3.179  1.00  0.00     0.075 C 
HETATM   23  S1  UNL     1      13.128  -7.143  -1.551  1.00  0.00    -0.121 SA
HETATM   24  C13 UNL     1      11.499  -6.794  -0.749  1.00  0.00     0.108 C 
BRANCH  22  25
HETATM   25  C12 UNL     1      13.114  -8.149  -4.243  1.00  0.00     0.216 C 
HETATM   26  O2  UNL     1      14.136  -8.829  -3.982  1.00  0.00    -0.644 OA
HETATM   27  O3  UNL     1      12.664  -8.100  -5.533  1.00  0.00    -0.644 OA
ENDBRANCH  22  25
ENDBRANCH  18  20
ENDBRANCH  15  18
ENDBRANCH   9  14
BRANCH  11  28
HETATM   28  N2  UNL     1      10.123 -10.093  -4.385  1.00  0.00    -0.073 N 
ATOM     29  H23 UNL     1      10.803 -10.276  -3.646  1.00  0.00     0.274 HD
ATOM     30  H22 UNL     1      10.219 -10.950  -4.931  1.00  0.00     0.274 HD
ATOM     31  H21 UNL     1      10.415  -9.289  -4.940  1.00  0.00     0.274 HD
ENDBRANCH  11  28
BRANCH  12  32
HETATM   32  N1  UNL     1       8.692 -12.451  -4.133  1.00  0.00    -0.351 N 
HETATM   33  C2  UNL     1       8.391 -13.499  -4.996  1.00  0.00     0.214 C 
HETATM   34  C1  UNL     1       9.212 -14.730  -5.070  1.00  0.00     0.117 C 
HETATM   35  O1  UNL     1       7.388 -13.418  -5.748  1.00  0.00    -0.274 OA
ATOM     36  H1  UNL     1       9.517 -12.568  -3.544  1.00  0.00     0.163 HD
ENDBRANCH  12  32
BRANCH  13  37
HETATM   37  O6  UNL     1       5.941 -12.285  -3.242  1.00  0.00    -0.382 OA
ATOM     38  H6  UNL     1       5.941 -13.082  -2.725  1.00  0.00     0.211 HD
ENDBRANCH  13  37
ENDBRANCH   6   8
ENDBRANCH   5   6
ENDBRANCH   4   5
ENDBRANCH   1   4
TORSDOF 11
ENDMDL
MODEL 4
REMARK VINA RESULT: -8.221233612      1.738      2.136
REMARK  11 active torsions:
REMARK  status: ('A' for Active; 'I' for Inactive)
REMARK       I    between atoms: C2_2  and  N1_4 
REMARK    1  A    between atoms: N1_4  and  C3_6 
REMARK    2  A    between atoms: C4_7  and  N2_8 
REMARK    3  A    between atoms: C6_13  and  N3_14 
REMARK    4  A    between atoms: C7_16  and  N4_18 
REMARK    5  A    between atoms: N4_18  and  C9_20 
REMARK    6  A    between atoms: C11_22  and  C12_23 
REMARK    7  A    between atoms: S2_28  and  N5_29 
REMARK    8  A    between atoms: N5_29  and  O4_31 
REMARK    9  A    between atoms: O4_31  and  C14_32 
REMARK   10  A    between atoms: C14_32  and  O5_33 
REMARK   11  A    between atoms: C16_36  and  O6_37 
ROOT
HETATM    1  O5  UNL     1       8.994 -12.084   4.690  1.00  0.00    -0.255 OA
HETATM    2  C15 UNL     1       8.936 -11.667   5.989  1.00  0.00     0.230 C 
HETATM    3  N6  UNL     1       8.881 -11.326   7.114  1.00  0.00    -0.164 NA
ENDROOT
BRANCH   1   4
HETATM    4  C14 UNL     1       9.041 -11.151   3.619  1.00  0.00     0.391 C 
BRANCH   4   5
HETATM    5  O4  UNL     1      10.095 -10.240   3.812  1.00  0.00    -0.248 OA
BRANCH   5   6
HETATM    6  N5  UNL     1      10.634  -9.598   2.722  1.00  0.00    -0.244 N 
ATOM      7  H5  UNL     1      10.379  -9.853   1.768  1.00  0.00     0.202 HD
BRANCH   6   8
HETATM    8  S2  UNL     1      11.688  -8.421   3.033  1.00  0.00    -0.050 SA
HETATM    9  C6  UNL     1      11.509  -6.708   2.351  1.00  0.00     0.161 C 
HETATM   10  C5  UNL     1      11.958  -5.873   3.560  1.00  0.00     0.072 C 
HETATM   11  C4  UNL     1      13.383  -6.283   3.902  1.00  0.00     0.212 C 
HETATM   12  C3  UNL     1      13.469  -7.426   4.835  1.00  0.00     0.154 C 
HETATM   13  C16 UNL     1      12.267  -8.352   4.790  1.00  0.00     0.217 C 
BRANCH   9  14
HETATM   14  N3  UNL     1      12.456  -6.515   1.303  1.00  0.00    -0.366 N 
HETATM   15  C7  UNL     1      12.200  -6.607   0.042  1.00  0.00     0.070 C 
HETATM   16  C8  UNL     1      13.253  -6.388  -0.958  1.00  0.00     0.088 C 
ATOM     17  H3  UNL     1      13.413  -6.287   1.571  1.00  0.00     0.162 HD
BRANCH  15  18
HETATM   18  N4  UNL     1      10.883  -6.923  -0.383  1.00  0.00    -0.372 N 
ATOM     19  H4  UNL     1      10.109  -6.423   0.053  1.00  0.00     0.161 HD
BRANCH  18  20
HETATM   20  C9  UNL     1      10.570  -7.906  -1.393  1.00  0.00     0.117 C 
HETATM   21  C10 UNL     1       9.218  -7.736  -1.879  1.00  0.00     0.024 C 
HETATM   22  C11 UNL     1       8.580  -8.789  -2.318  1.00  0.00     0.075 C 
HETATM   23  S1  UNL     1       9.702 -10.172  -2.118  1.00  0.00    -0.121 SA
HETATM   24  C13 UNL     1      10.794  -9.316  -0.896  1.00  0.00     0.108 C 
BRANCH  22  25
HETATM   25  C12 UNL     1       7.238  -8.888  -2.852  1.00  0.00     0.216 C 
HETATM   26  O2  UNL     1       6.261  -8.571  -2.131  1.00  0.00    -0.644 OA
HETATM   27  O3  UNL     1       7.007  -9.320  -4.128  1.00  0.00    -0.644 OA
ENDBRANCH  22  25
ENDBRANCH  18  20
ENDBRANCH  15  18
ENDBRANCH   9  14
BRANCH  11  28
HETATM   28  N2  UNL     1      14.056  -5.081   4.342  1.00  0.00    -0.073 N 
ATOM     29  H23 UNL     1      13.380  -4.330   4.480  1.00  0.00     0.274 HD
ATOM     30  H22 UNL     1      14.393  -5.197   5.299  1.00  0.00     0.274 HD
ATOM     31  H21 UNL     1      14.815  -4.766   3.739  1.00  0.00     0.274 HD
ENDBRANCH  11  28
BRANCH  12  32
HETATM   32  N1  UNL     1      13.689  -7.086   6.216  1.00  0.00    -0.351 N 
HETATM   33  C2  UNL     1      14.499  -7.759   7.124  1.00  0.00     0.214 C 
HETATM   34  C1  UNL     1      14.653  -7.320   8.531  1.00  0.00     0.117 C 
HETATM   35  O1  UNL     1      15.133  -8.779   6.757  1.00  0.00    -0.274 OA
ATOM     36  H1  UNL     1      13.197  -6.264   6.567  1.00  0.00     0.163 HD
ENDBRANCH  12  32
BRANCH  13  37
HETATM   37  O6  UNL     1      12.558  -9.598   5.320  1.00  0.00    -0.382 OA
ATOM     38  H6  UNL     1      11.812 -10.184   5.271  1.00  0.00     0.211 HD
ENDBRANCH  13  37
ENDBRANCH   6   8
ENDBRANCH   5   6
ENDBRANCH   4   5
ENDBRANCH   1   4
TORSDOF 11
ENDMDL
MODEL 5
REMARK VINA RESULT: -8.007085639      2.127      2.559
REMARK  11 active torsions:
REMARK  status: ('A' for Active; 'I' for Inactive)
REMARK       I    between atoms: C2_2  and  N1_4 
REMARK    1  A    between atoms: N1_4  and  C3_6 
REMARK    2  A    between atoms: C4_7  and  N2_8 
REMARK    3  A    between atoms: C6_13  and  N3_14 
REMARK    4  A    between atoms: C7_16  and  N4_18 
REMARK    5  A    between atoms: N4_18  and  C9_20 
REMARK    6  A    between atoms: C11_22  and  C12_23 
REMARK    7  A    between atoms: S2_28  and  N5_29 
REMARK    8  A    between atoms: N5_29  and  O4_31 
REMARK    9  A    between atoms: O4_31  and  C14_32 
REMARK   10  A    between atoms: C14_32  and  O5_33 
REMARK   11  A    between atoms: C16_36  and  O6_37 
ROOT
HETATM    1  O5  UNL     1       9.967 -10.395   5.081  1.00  0.00    -0.255 OA
HETATM    2  C15 UNL     1       9.383 -11.043   6.131  1.00  0.00     0.230 C 
HETATM    3  N6  UNL     1       8.893 -11.593   7.048  1.00  0.00    -0.164 NA
ENDROOT
BRANCH   1   4
HETATM    4  C14 UNL     1       9.667 -10.750   3.738  1.00  0.00     0.391 C 
BRANCH   4   5
HETATM    5  O4  UNL     1      10.071  -9.726   2.861  1.00  0.00    -0.248 OA
BRANCH   5   6
HETATM    6  N5  UNL     1      11.315  -9.794   2.280  1.00  0.00    -0.244 N 
ATOM      7  H5  UNL     1      11.645 -10.639   1.813  1.00  0.00     0.202 HD
BRANCH   6   8
HETATM    8  S2  UNL     1      12.222  -8.466   2.374  1.00  0.00    -0.050 SA
HETATM    9  C6  UNL     1      11.666  -6.824   1.723  1.00  0.00     0.161 C 
HETATM   10  C5  UNL     1      12.203  -5.888   2.817  1.00  0.00     0.072 C 
HETATM   11  C4  UNL     1      13.711  -6.075   2.885  1.00  0.00     0.212 C 
HETATM   12  C3  UNL     1      14.139  -7.158   3.795  1.00  0.00     0.154 C 
HETATM   13  C16 UNL     1      13.100  -8.249   3.988  1.00  0.00     0.217 C 
BRANCH   9  14
HETATM   14  N3  UNL     1      12.361  -6.536   0.512  1.00  0.00    -0.366 N 
HETATM   15  C7  UNL     1      11.854  -6.605  -0.672  1.00  0.00     0.070 C 
HETATM   16  C8  UNL     1      12.662  -6.285  -1.857  1.00  0.00     0.088 C 
ATOM     17  H3  UNL     1      13.338  -6.252   0.588  1.00  0.00     0.162 HD
BRANCH  15  18
HETATM   18  N4  UNL     1      10.499  -6.995  -0.831  1.00  0.00    -0.372 N 
ATOM     19  H4  UNL     1       9.796  -6.518  -0.267  1.00  0.00     0.161 HD
BRANCH  18  20
HETATM   20  C9  UNL     1      10.052  -8.024  -1.741  1.00  0.00     0.117 C 
HETATM   21  C10 UNL     1       8.608  -8.129  -1.733  1.00  0.00     0.024 C 
HETATM   22  C11 UNL     1       8.071  -9.290  -2.001  1.00  0.00     0.075 C 
HETATM   23  S1  UNL     1       9.434 -10.419  -2.280  1.00  0.00    -0.121 SA
HETATM   24  C13 UNL     1      10.695  -9.359  -1.442  1.00  0.00     0.108 C 
BRANCH  22  25
HETATM   25  C12 UNL     1       6.672  -9.657  -2.059  1.00  0.00     0.216 C 
HETATM   26  O2  UNL     1       5.794  -8.770  -1.930  1.00  0.00    -0.644 OA
HETATM   27  O3  UNL     1       6.280 -10.953  -2.250  1.00  0.00    -0.644 OA
ENDBRANCH  22  25
ENDBRANCH  18  20
ENDBRANCH  15  18
ENDBRANCH   9  14
BRANCH  11  28
HETATM   28  N2  UNL     1      14.269  -4.773   3.178  1.00  0.00    -0.073 N 
ATOM     29  H23 UNL     1      14.832  -4.446   2.393  1.00  0.00     0.274 HD
ATOM     30  H22 UNL     1      13.532  -4.066   3.176  1.00  0.00     0.274 HD
ATOM     31  H21 UNL     1      14.805  -4.719   4.044  1.00  0.00     0.274 HD
ENDBRANCH  11  28
BRANCH  12  32
HETATM   32  N1  UNL     1      14.560  -6.739   5.107  1.00  0.00    -0.351 N 
HETATM   33  C2  UNL     1      15.839  -6.355   5.492  1.00  0.00     0.214 C 
HETATM   34  C1  UNL     1      16.162  -5.939   6.877  1.00  0.00     0.117 C 
HETATM   35  O1  UNL     1      16.769  -6.352   4.648  1.00  0.00    -0.274 OA
ATOM     36  H1  UNL     1      13.842  -6.723   5.832  1.00  0.00     0.163 HD
ENDBRANCH  12  32
BRANCH  13  37
HETATM   37  O6  UNL     1      13.668  -9.420   4.465  1.00  0.00    -0.382 OA
ATOM     38  H6  UNL     1      13.370  -9.622   5.344  1.00  0.00     0.211 HD
ENDBRANCH  13  37
ENDBRANCH   6   8
ENDBRANCH   5   6
ENDBRANCH   4   5
ENDBRANCH   1   4
TORSDOF 11
ENDMDL
