MODEL 1
REMARK VINA RESULT: -6.599733752      0.000      0.000
REMARK  6 active torsions:
REMARK  status: ('A' for Active; 'I' for Inactive)
REMARK    1  A    between atoms: C2_2  and  C3_3 
REMARK    2  A    between atoms: C3_3  and  C4_4 
REMARK    3  A    between atoms: C4_4  and  C5_5 
REMARK    4  A    between atoms: C5_5  and  N1_6 
REMARK    5  A    between atoms: C5_5  and  C6_10 
REMARK       I    between atoms: C6_10  and  N2_12 
REMARK    6  A    between atoms: N2_12  and  C7_14 
ROOT
HETATM    1  C5  UNL     1       6.109   9.858   1.072  1.00  0.00     0.275 C 
ENDROOT
BRANCH   1   2
HETATM    2  C4  UNL     1       7.558  10.262   1.032  1.00  0.00     0.052 C 
BRANCH   2   3
HETATM    3  C3  UNL     1       7.926  11.490   1.777  1.00  0.00    -0.031 C 
HETATM    4  C12 UNL     1       8.580  12.495   0.862  1.00  0.00     0.015 C 
HETATM    5  C13 UNL     1       9.778  13.066   1.601  1.00  0.00    -0.013 C 
HETATM    6  C14 UNL     1      10.895  12.052   1.384  1.00  0.00     0.005 C 
HETATM    7  C18 UNL     1       9.433  12.724   3.039  1.00  0.00     0.014 C 
HETATM    8  C15 UNL     1      10.318  10.839   2.084  1.00  0.00     0.010 C 
HETATM    9  C16 UNL     1       9.048  11.277   2.763  1.00  0.00    -0.036 C 
HETATM   10  C17 UNL     1       8.751  10.588   4.017  1.00  0.00     0.016 C 
BRANCH   3  11
HETATM   11  C2  UNL     1       6.711  12.085   2.369  1.00  0.00     0.006 C 
HETATM   12  C1  UNL     1       6.134  13.294   1.735  1.00  0.00     0.006 C 
ENDBRANCH   3  11
ENDBRANCH   2   3
ENDBRANCH   1   2
BRANCH   1  13
HETATM   13  N1  UNL     1       5.409   9.962  -0.186  1.00  0.00    -0.066 N 
ATOM     14  H13 UNL     1       6.065   9.871  -0.962  1.00  0.00     0.275 HD
ATOM     15  H12 UNL     1       4.836   9.132  -0.338  1.00  0.00     0.275 HD
ATOM     16  H11 UNL     1       4.845  10.804  -0.300  1.00  0.00     0.275 HD
ENDBRANCH   1  13
BRANCH   1  17
HETATM   17  C6  UNL     1       5.949   8.467   1.558  1.00  0.00     0.248 C 
HETATM   18  O1  UNL     1       6.747   8.037   2.411  1.00  0.00    -0.271 OA
HETATM   19  N2  UNL     1       4.923   7.652   1.071  1.00  0.00    -0.355 N 
ATOM     20  H2  UNL     1       4.286   8.038   0.374  1.00  0.00     0.162 HD
BRANCH  19  21
HETATM   21  C7  UNL     1       4.716   6.276   1.510  1.00  0.00     0.087 C 
HETATM   22  C8  UNL     1       5.302   5.338   0.487  1.00  0.00     0.052 C 
HETATM   23  C9  UNL     1       5.083   3.909   0.903  1.00  0.00     0.234 C 
HETATM   24  N3  UNL     1       3.925   3.762   1.780  1.00  0.00    -0.075 N 
HETATM   25  C10 UNL     1       2.881   4.625   1.252  1.00  0.00     0.234 C 
ATOM     26  H32 UNL     1       3.626   2.794   1.890  1.00  0.00     0.277 HD
ATOM     27  H31 UNL     1       4.138   3.945   2.760  1.00  0.00     0.277 HD
HETATM   28  C11 UNL     1       3.238   6.039   1.650  1.00  0.00     0.052 C 
ENDBRANCH  19  21
ENDBRANCH   1  17
TORSDOF 6
ENDMDL
MODEL 2
REMARK VINA RESULT: -6.405793531      0.730      2.030
REMARK  6 active torsions:
REMARK  status: ('A' for Active; 'I' for Inactive)
REMARK    1  A    between atoms: C2_2  and  C3_3 
REMARK    2  A    between atoms: C3_3  and  C4_4 
REMARK    3  A    between atoms: C4_4  and  C5_5 
REMARK    4  A    between atoms: C5_5  and  N1_6 
REMARK    5  A    between atoms: C5_5  and  C6_10 
REMARK       I    between atoms: C6_10  and  N2_12 
REMARK    6  A    between atoms: N2_12  and  C7_14 
ROOT
HETATM    1  C5  UNL     1       6.570   9.802   1.266  1.00  0.00     0.275 C 
ENDROOT
BRANCH   1   2
HETATM    2  C4  UNL     1       8.056  10.032   1.210  1.00  0.00     0.052 C 
BRANCH   2   3
HETATM    3  C3  UNL     1       8.600  11.084   2.102  1.00  0.00    -0.031 C 
HETATM    4  C12 UNL     1       7.486  11.887   2.724  1.00  0.00     0.015 C 
HETATM    5  C13 UNL     1       7.887  13.350   2.652  1.00  0.00    -0.013 C 
HETATM    6  C14 UNL     1       7.503  13.794   1.245  1.00  0.00     0.005 C 
HETATM    7  C18 UNL     1       9.389  13.238   2.455  1.00  0.00     0.014 C 
HETATM    8  C15 UNL     1       8.407  12.912   0.410  1.00  0.00     0.010 C 
HETATM    9  C16 UNL     1       9.320  12.183   1.359  1.00  0.00    -0.036 C 
HETATM   10  C17 UNL     1      10.658  11.910   0.840  1.00  0.00     0.016 C 
BRANCH   3  11
HETATM   11  C2  UNL     1       9.404  10.453   3.167  1.00  0.00     0.006 C 
HETATM   12  C1  UNL     1       8.781  10.247   4.496  1.00  0.00     0.006 C 
ENDBRANCH   3  11
ENDBRANCH   2   3
ENDBRANCH   1   2
BRANCH   1  13
HETATM   13  N1  UNL     1       5.868  10.022   0.025  1.00  0.00    -0.066 N 
ATOM     14  H13 UNL     1       6.470   9.792  -0.765  1.00  0.00     0.275 HD
ATOM     15  H12 UNL     1       5.138   9.319  -0.096  1.00  0.00     0.275 HD
ATOM     16  H11 UNL     1       5.477  10.957  -0.093  1.00  0.00     0.275 HD
ENDBRANCH   1  13
BRANCH   1  17
HETATM   17  C6  UNL     1       6.253   8.426   1.719  1.00  0.00     0.248 C 
HETATM   18  O1  UNL     1       6.906   7.943   2.663  1.00  0.00    -0.271 OA
HETATM   19  N2  UNL     1       5.241   7.684   1.103  1.00  0.00    -0.355 N 
ATOM     20  H2  UNL     1       4.725   8.113   0.334  1.00  0.00     0.162 HD
BRANCH  19  21
HETATM   21  C7  UNL     1       4.885   6.327   1.504  1.00  0.00     0.087 C 
HETATM   22  C8  UNL     1       5.402   5.357   0.474  1.00  0.00     0.052 C 
HETATM   23  C9  UNL     1       5.029   3.949   0.851  1.00  0.00     0.234 C 
HETATM   24  N3  UNL     1       3.838   3.901   1.694  1.00  0.00    -0.075 N 
HETATM   25  C10 UNL     1       2.901   4.877   1.160  1.00  0.00     0.234 C 
ATOM     26  H32 UNL     1       3.440   2.966   1.774  1.00  0.00     0.277 HD
ATOM     27  H31 UNL     1       4.041   4.041   2.683  1.00  0.00     0.277 HD
HETATM   28  C11 UNL     1       3.387   6.238   1.600  1.00  0.00     0.052 C 
ENDBRANCH  19  21
ENDBRANCH   1  17
TORSDOF 6
ENDMDL
MODEL 3
REMARK VINA RESULT: -6.082886613      0.889      2.377
REMARK  6 active torsions:
REMARK  status: ('A' for Active; 'I' for Inactive)
REMARK    1  A    between atoms: C2_2  and  C3_3 
REMARK    2  A    between atoms: C3_3  and  C4_4 
REMARK    3  A    between atoms: C4_4  and  C5_5 
REMARK    4  A    between atoms: C5_5  and  N1_6 
REMARK    5  A    between atoms: C5_5  and  C6_10 
REMARK       I    between atoms: C6_10  and  N2_12 
REMARK    6  A    between atoms: N2_12  and  C7_14 
ROOT
HETATM    1  C5  UNL     1       5.967   9.986   1.308  1.00  0.00     0.275 C 
ENDROOT
BRANCH   1   2
HETATM    2  C4  UNL     1       7.298  10.310   0.687  1.00  0.00     0.052 C 
BRANCH   2   3
HETATM    3  C3  UNL     1       8.191  11.207   1.459  1.00  0.00    -0.031 C 
HETATM    4  C12 UNL     1       7.552  11.604   2.766  1.00  0.00     0.015 C 
HETATM    5  C13 UNL     1       7.792  13.092   2.952  1.00  0.00    -0.013 C 
HETATM    6  C14 UNL     1       6.695  13.772   2.141  1.00  0.00     0.005 C 
HETATM    7  C18 UNL     1       8.957  13.328   2.008  1.00  0.00     0.014 C 
HETATM    8  C15 UNL     1       7.047  13.309   0.742  1.00  0.00     0.010 C 
HETATM    9  C16 UNL     1       8.356  12.570   0.833  1.00  0.00    -0.036 C 
HETATM   10  C17 UNL     1       9.217  12.697  -0.341  1.00  0.00     0.016 C 
BRANCH   3  11
HETATM   11  C2  UNL     1       9.466  10.512   1.728  1.00  0.00     0.006 C 
HETATM   12  C1  UNL     1       9.798   9.307   0.931  1.00  0.00     0.006 C 
ENDBRANCH   3  11
ENDBRANCH   2   3
ENDBRANCH   1   2
BRANCH   1  13
HETATM   13  N1  UNL     1       4.818  10.287   0.487  1.00  0.00    -0.066 N 
ATOM     14  H13 UNL     1       5.083  10.913  -0.273  1.00  0.00     0.275 HD
ATOM     15  H12 UNL     1       4.543   9.462  -0.047  1.00  0.00     0.275 HD
ATOM     16  H11 UNL     1       4.014  10.665   0.989  1.00  0.00     0.275 HD
ENDBRANCH   1  13
BRANCH   1  17
HETATM   17  C6  UNL     1       5.881   8.555   1.687  1.00  0.00     0.248 C 
HETATM   18  O1  UNL     1       6.767   8.078   2.420  1.00  0.00    -0.271 OA
HETATM   19  N2  UNL     1       4.828   7.756   1.234  1.00  0.00    -0.355 N 
ATOM     20  H2  UNL     1       4.119   8.181   0.636  1.00  0.00     0.162 HD
BRANCH  19  21
HETATM   21  C7  UNL     1       4.691   6.343   1.572  1.00  0.00     0.087 C 
HETATM   22  C8  UNL     1       5.294   5.511   0.470  1.00  0.00     0.052 C 
HETATM   23  C9  UNL     1       5.146   4.047   0.783  1.00  0.00     0.234 C 
HETATM   24  N3  UNL     1       4.015   3.783   1.668  1.00  0.00    -0.075 N 
HETATM   25  C10 UNL     1       2.924   4.636   1.226  1.00  0.00     0.234 C 
ATOM     26  H32 UNL     1       3.761   2.797   1.711  1.00  0.00     0.277 HD
ATOM     27  H31 UNL     1       4.243   3.903   2.655  1.00  0.00     0.277 HD
HETATM   28  C11 UNL     1       3.228   6.030   1.722  1.00  0.00     0.052 C 
ENDBRANCH  19  21
ENDBRANCH   1  17
TORSDOF 6
ENDMDL
MODEL 4
REMARK VINA RESULT: -5.906971233      1.743      2.559
REMARK  6 active torsions:
REMARK  status: ('A' for Active; 'I' for Inactive)
REMARK    1  A    between atoms: C2_2  and  C3_3 
REMARK    2  A    between atoms: C3_3  and  C4_4 
REMARK    3  A    between atoms: C4_4  and  C5_5 
REMARK    4  A    between atoms: C5_5  and  N1_6 
REMARK    5  A    between atoms: C5_5  and  C6_10 
REMARK       I    between atoms: C6_10  and  N2_12 
REMARK    6  A    between atoms: N2_12  and  C7_14 
ROOT
HETATM    1  C5  UNL     1       8.560   9.974   1.160  1.00  0.00     0.275 C 
ENDROOT
BRANCH   1   2
HETATM    2  C4  UNL     1       8.854  11.171   2.024  1.00  0.00     0.052 C 
BRANCH   2   3
HETATM    3  C3  UNL     1       8.272  12.463   1.588  1.00  0.00    -0.031 C 
HETATM    4  C12 UNL     1       7.840  12.396   0.145  1.00  0.00     0.015 C 
HETATM    5  C13 UNL     1       8.290  13.684  -0.522  1.00  0.00    -0.013 C 
HETATM    6  C14 UNL     1       9.751  13.449  -0.885  1.00  0.00     0.005 C 
HETATM    7  C18 UNL     1       8.495  14.587   0.682  1.00  0.00     0.014 C 
HETATM    8  C15 UNL     1      10.363  13.274   0.489  1.00  0.00     0.010 C 
HETATM    9  C16 UNL     1       9.287  13.575   1.498  1.00  0.00    -0.036 C 
HETATM   10  C17 UNL     1       9.759  14.189   2.737  1.00  0.00     0.016 C 
BRANCH   3  11
HETATM   11  C2  UNL     1       7.105  12.782   2.435  1.00  0.00     0.006 C 
HETATM   12  C1  UNL     1       5.757  12.393   1.958  1.00  0.00     0.006 C 
ENDBRANCH   3  11
ENDBRANCH   2   3
ENDBRANCH   1   2
BRANCH   1  13
HETATM   13  N1  UNL     1       9.690   9.113   0.901  1.00  0.00    -0.066 N 
ATOM     14  H13 UNL     1      10.539   9.669   0.802  1.00  0.00     0.275 HD
ATOM     15  H12 UNL     1       9.923   8.577   1.737  1.00  0.00     0.275 HD
ATOM     16  H11 UNL     1       9.585   8.489   0.101  1.00  0.00     0.275 HD
ENDBRANCH   1  13
BRANCH   1  17
HETATM   17  C6  UNL     1       7.487   9.135   1.746  1.00  0.00     0.248 C 
HETATM   18  O1  UNL     1       7.700   8.567   2.833  1.00  0.00    -0.271 OA
HETATM   19  N2  UNL     1       6.260   8.984   1.095  1.00  0.00    -0.355 N 
ATOM     20  H2  UNL     1       6.120   9.466   0.206  1.00  0.00     0.162 HD
BRANCH  19  21
HETATM   21  C7  UNL     1       5.168   8.171   1.621  1.00  0.00     0.087 C 
HETATM   22  C8  UNL     1       4.968   6.975   0.728  1.00  0.00     0.052 C 
HETATM   23  C9  UNL     1       3.831   6.130   1.235  1.00  0.00     0.234 C 
HETATM   24  N3  UNL     1       2.875   6.907   2.020  1.00  0.00    -0.075 N 
HETATM   25  C10 UNL     1       2.702   8.179   1.339  1.00  0.00     0.234 C 
ATOM     26  H32 UNL     1       1.995   6.416   2.180  1.00  0.00     0.277 HD
ATOM     27  H31 UNL     1       3.147   7.009   2.997  1.00  0.00     0.277 HD
HETATM   28  C11 UNL     1       3.922   9.014   1.654  1.00  0.00     0.052 C 
ENDBRANCH  19  21
ENDBRANCH   1  17
TORSDOF 6
ENDMDL
MODEL 5
REMARK VINA RESULT: -5.881141493      1.218      1.925
REMARK  6 active torsions:
REMARK  status: ('A' for Active; 'I' for Inactive)
REMARK    1  A    between atoms: C2_2  and  C3_3 
REMARK    2  A    between atoms: C3_3  and  C4_4 
REMARK    3  A    between atoms: C4_4  and  C5_5 
REMARK    4  A    between atoms: C5_5  and  N1_6 
REMARK    5  A    between atoms: C5_5  and  C6_10 
REMARK       I    between atoms: C6_10  and  N2_12 
REMARK    6  A    between atoms: N2_12  and  C7_14 
ROOT
HETATM    1  C5  UNL     1       5.820   9.962   1.348  1.00  0.00     0.275 C 
ENDROOT
BRANCH   1   2
HETATM    2  C4  UNL     1       6.923  10.238   0.363  1.00  0.00     0.052 C 
BRANCH   2   3
HETATM    3  C3  UNL     1       7.919  11.265   0.751  1.00  0.00    -0.031 C 
HETATM    4  C12 UNL     1       7.447  12.643   0.359  1.00  0.00     0.015 C 
HETATM    5  C13 UNL     1       8.633  13.371  -0.249  1.00  0.00    -0.013 C 
HETATM    6  C14 UNL     1       8.677  12.908  -1.700  1.00  0.00     0.005 C 
HETATM    7  C18 UNL     1       9.794  12.552   0.288  1.00  0.00     0.014 C 
HETATM    8  C15 UNL     1       8.947  11.429  -1.520  1.00  0.00     0.010 C 
HETATM    9  C16 UNL     1       9.194  11.195  -0.053  1.00  0.00    -0.036 C 
HETATM   10  C17 UNL     1      10.150  10.133   0.249  1.00  0.00     0.016 C 
BRANCH   3  11
HETATM   11  C2  UNL     1       8.127  11.215   2.212  1.00  0.00     0.006 C 
HETATM   12  C1  UNL     1       7.870  12.440   3.006  1.00  0.00     0.006 C 
ENDBRANCH   3  11
ENDBRANCH   2   3
ENDBRANCH   1   2
BRANCH   1  13
HETATM   13  N1  UNL     1       4.499  10.351   0.913  1.00  0.00    -0.066 N 
ATOM     14  H13 UNL     1       3.844  10.304   1.693  1.00  0.00     0.275 HD
ATOM     15  H12 UNL     1       4.474  11.351   0.717  1.00  0.00     0.275 HD
ATOM     16  H11 UNL     1       4.133   9.827   0.117  1.00  0.00     0.275 HD
ENDBRANCH   1  13
BRANCH   1  17
HETATM   17  C6  UNL     1       5.764   8.525   1.710  1.00  0.00     0.248 C 
HETATM   18  O1  UNL     1       6.678   8.051   2.409  1.00  0.00    -0.271 OA
HETATM   19  N2  UNL     1       4.708   7.718   1.278  1.00  0.00    -0.355 N 
ATOM     20  H2  UNL     1       3.976   8.141   0.708  1.00  0.00     0.162 HD
BRANCH  19  21
HETATM   21  C7  UNL     1       4.601   6.299   1.601  1.00  0.00     0.087 C 
HETATM   22  C8  UNL     1       5.250   5.493   0.507  1.00  0.00     0.052 C 
HETATM   23  C9  UNL     1       5.133   4.022   0.803  1.00  0.00     0.234 C 
HETATM   24  N3  UNL     1       3.990   3.722   1.660  1.00  0.00    -0.075 N 
HETATM   25  C10 UNL     1       2.887   4.550   1.201  1.00  0.00     0.234 C 
ATOM     26  H32 UNL     1       3.760   2.729   1.689  1.00  0.00     0.277 HD
ATOM     27  H31 UNL     1       4.191   3.838   2.653  1.00  0.00     0.277 HD
HETATM   28  C11 UNL     1       3.143   5.947   1.715  1.00  0.00     0.052 C 
ENDBRANCH  19  21
ENDBRANCH   1  17
TORSDOF 6
ENDMDL
