MODEL 1
REMARK VINA RESULT: -7.043139855      0.000      0.000
REMARK  8 active torsions:
REMARK  status: ('A' for Active; 'I' for Inactive)
REMARK    1  A    between atoms: C1_2  and  N1_3 
REMARK    2  A    between atoms: C1_2  and  N6_14 
REMARK    3  A    between atoms: N1_3  and  C2_5 
REMARK    4  A    between atoms: N6_14  and  C3_16 
REMARK    5  A    between atoms: C3_16  and  C4_17 
REMARK    6  A    between atoms: C4_17  and  C5_18 
REMARK    7  A    between atoms: C5_18  and  C6_19 
REMARK    8  A    between atoms: C6_19  and  C7_20 
ROOT
HETATM    1  S1  UNL     1       3.542   7.577   1.583  1.00  0.00    -0.040 SA
HETATM    2  C1  UNL     1       5.017   6.947   1.349  1.00  0.00     0.186 C 
ENDROOT
BRANCH   2   3
HETATM    3  N1  UNL     1       5.232   5.594   1.658  1.00  0.00    -0.164 N 
ATOM      4  H1  UNL     1       5.456   5.368   2.627  1.00  0.00     0.186 HD
BRANCH   3   5
HETATM    5  C2  UNL     1       5.170   4.606   0.820  1.00  0.00     0.716 A 
HETATM    6  N2  UNL     1       5.172   3.285   1.167  1.00  0.00    -0.115 N 
HETATM    7  N3  UNL     1       5.092   2.615   0.042  1.00  0.00    -0.213 N 
ATOM      8  H2  UNL     1       5.225   2.898   2.109  1.00  0.00     0.207 HD
HETATM    9  N4  UNL     1       5.042   3.420  -0.992  1.00  0.00    -0.213 N 
ATOM     10  H3  UNL     1       5.072   1.598  -0.021  1.00  0.00     0.210 HD
HETATM   11  N5  UNL     1       5.090   4.666  -0.515  1.00  0.00    -0.115 N 
ATOM     12  H4  UNL     1       4.979   3.147  -1.973  1.00  0.00     0.210 HD
ATOM     13  H5  UNL     1       5.069   5.519  -1.074  1.00  0.00     0.207 HD
ENDBRANCH   3   5
ENDBRANCH   2   3
BRANCH   2  14
HETATM   14  N6  UNL     1       6.059   7.772   0.859  1.00  0.00    -0.367 N 
ATOM     15  H6  UNL     1       6.557   7.461   0.025  1.00  0.00     0.161 HD
BRANCH  14  16
HETATM   16  C3  UNL     1       6.462   9.011   1.450  1.00  0.00     0.122 C 
BRANCH  16  17
HETATM   17  C4  UNL     1       7.391   8.827   2.621  1.00  0.00     0.020 C 
BRANCH  17  18
HETATM   18  C5  UNL     1       8.659   9.574   2.317  1.00  0.00     0.002 C 
BRANCH  18  19
HETATM   19  C6  UNL     1       9.237   9.291   0.987  1.00  0.00     0.005 C 
BRANCH  19  20
HETATM   20  C7  UNL     1      10.107  10.349   0.388  1.00  0.00    -0.014 C 
HETATM   21  C8  UNL     1      10.626  11.179   1.557  1.00  0.00     0.004 C 
HETATM   22  C9  UNL     1      11.164  12.508   1.166  1.00  0.00     0.000 C 
HETATM   23  C10 UNL     1      10.134  13.614   1.318  1.00  0.00     0.000 C 
HETATM   24  C11 UNL     1       9.053  13.547   0.289  1.00  0.00     0.000 C 
HETATM   25  C12 UNL     1       8.418  12.196   0.154  1.00  0.00     0.000 C 
HETATM   26  C13 UNL     1       9.332  11.242  -0.554  1.00  0.00     0.004 C 
ENDBRANCH  19  20
ENDBRANCH  18  19
ENDBRANCH  17  18
ENDBRANCH  16  17
ENDBRANCH  14  16
ENDBRANCH   2  14
TORSDOF 8
ENDMDL
MODEL 2
REMARK VINA RESULT: -6.976096163      1.426      2.568
REMARK  8 active torsions:
REMARK  status: ('A' for Active; 'I' for Inactive)
REMARK    1  A    between atoms: C1_2  and  N1_3 
REMARK    2  A    between atoms: C1_2  and  N6_14 
REMARK    3  A    between atoms: N1_3  and  C2_5 
REMARK    4  A    between atoms: N6_14  and  C3_16 
REMARK    5  A    between atoms: C3_16  and  C4_17 
REMARK    6  A    between atoms: C4_17  and  C5_18 
REMARK    7  A    between atoms: C5_18  and  C6_19 
REMARK    8  A    between atoms: C6_19  and  C7_20 
ROOT
HETATM    1  S1  UNL     1       3.170   5.057   1.211  1.00  0.00    -0.040 SA
HETATM    2  C1  UNL     1       4.759   5.144   0.897  1.00  0.00     0.186 C 
ENDROOT
BRANCH   2   3
HETATM    3  N1  UNL     1       5.518   3.963   0.916  1.00  0.00    -0.164 N 
ATOM      4  H1  UNL     1       6.356   3.957   1.499  1.00  0.00     0.186 HD
BRANCH   3   5
HETATM    5  C2  UNL     1       5.249   2.878   0.258  1.00  0.00     0.716 A 
HETATM    6  N2  UNL     1       5.090   2.805  -1.096  1.00  0.00    -0.115 N 
HETATM    7  N3  UNL     1       4.837   1.546  -1.364  1.00  0.00    -0.213 N 
ATOM      8  H2  UNL     1       5.156   3.573  -1.765  1.00  0.00     0.207 HD
HETATM    9  N4  UNL     1       4.822   0.818  -0.273  1.00  0.00    -0.213 N 
ATOM     10  H3  UNL     1       4.672   1.179  -2.301  1.00  0.00     0.210 HD
HETATM   11  N5  UNL     1       5.079   1.643   0.745  1.00  0.00    -0.115 N 
ATOM     12  H4  UNL     1       4.647  -0.185  -0.213  1.00  0.00     0.210 HD
ATOM     13  H5  UNL     1       5.136   1.376   1.728  1.00  0.00     0.207 HD
ENDBRANCH   3   5
ENDBRANCH   2   3
BRANCH   2  14
HETATM   14  N6  UNL     1       5.350   6.403   0.629  1.00  0.00    -0.367 N 
ATOM     15  H6  UNL     1       5.894   6.498  -0.228  1.00  0.00     0.161 HD
BRANCH  14  16
HETATM   16  C3  UNL     1       5.237   7.551   1.476  1.00  0.00     0.122 C 
BRANCH  16  17
HETATM   17  C4  UNL     1       5.170   8.843   0.704  1.00  0.00     0.020 C 
BRANCH  17  18
HETATM   18  C5  UNL     1       6.211   9.767   1.272  1.00  0.00     0.002 C 
BRANCH  18  19
HETATM   19  C6  UNL     1       7.157   9.126   2.209  1.00  0.00     0.005 C 
BRANCH  19  20
HETATM   20  C7  UNL     1       8.009  10.033   3.037  1.00  0.00    -0.014 C 
HETATM   21  C8  UNL     1       7.640  11.453   2.621  1.00  0.00     0.004 C 
HETATM   22  C9  UNL     1       8.642  12.480   3.011  1.00  0.00     0.000 C 
HETATM   23  C10 UNL     1       9.611  12.798   1.886  1.00  0.00     0.000 C 
HETATM   24  C11 UNL     1      10.580  11.691   1.624  1.00  0.00     0.000 C 
HETATM   25  C12 UNL     1       9.943  10.344   1.460  1.00  0.00     0.000 C 
HETATM   26  C13 UNL     1       9.482   9.805   2.780  1.00  0.00     0.004 C 
ENDBRANCH  19  20
ENDBRANCH  18  19
ENDBRANCH  17  18
ENDBRANCH  16  17
ENDBRANCH  14  16
ENDBRANCH   2  14
TORSDOF 8
ENDMDL
MODEL 3
REMARK VINA RESULT: -6.948356941      1.692      3.129
REMARK  8 active torsions:
REMARK  status: ('A' for Active; 'I' for Inactive)
REMARK    1  A    between atoms: C1_2  and  N1_3 
REMARK    2  A    between atoms: C1_2  and  N6_14 
REMARK    3  A    between atoms: N1_3  and  C2_5 
REMARK    4  A    between atoms: N6_14  and  C3_16 
REMARK    5  A    between atoms: C3_16  and  C4_17 
REMARK    6  A    between atoms: C4_17  and  C5_18 
REMARK    7  A    between atoms: C5_18  and  C6_19 
REMARK    8  A    between atoms: C6_19  and  C7_20 
ROOT
HETATM    1  S1  UNL     1       3.160   4.570   1.408  1.00  0.00    -0.040 SA
HETATM    2  C1  UNL     1       4.529   5.276   0.902  1.00  0.00     0.186 C 
ENDROOT
BRANCH   2   3
HETATM    3  N1  UNL     1       5.201   4.734  -0.207  1.00  0.00    -0.164 N 
ATOM      4  H1  UNL     1       5.958   5.287  -0.608  1.00  0.00     0.186 HD
BRANCH   3   5
HETATM    5  C2  UNL     1       4.942   3.592  -0.765  1.00  0.00     0.716 A 
HETATM    6  N2  UNL     1       4.206   3.428  -1.903  1.00  0.00    -0.115 N 
HETATM    7  N3  UNL     1       4.184   2.137  -2.137  1.00  0.00    -0.213 N 
ATOM      8  H2  UNL     1       3.763   4.160  -2.459  1.00  0.00     0.207 HD
HETATM    9  N4  UNL     1       4.853   1.474  -1.225  1.00  0.00    -0.213 N 
ATOM     10  H3  UNL     1       3.707   1.704  -2.927  1.00  0.00     0.210 HD
HETATM   11  N5  UNL     1       5.330   2.375  -0.365  1.00  0.00    -0.115 N 
ATOM     12  H4  UNL     1       4.984   0.463  -1.182  1.00  0.00     0.210 HD
ATOM     13  H5  UNL     1       5.896   2.172   0.460  1.00  0.00     0.207 HD
ENDBRANCH   3   5
ENDBRANCH   2   3
BRANCH   2  14
HETATM   14  N6  UNL     1       5.028   6.407   1.592  1.00  0.00    -0.367 N 
ATOM     15  H6  UNL     1       5.159   6.327   2.600  1.00  0.00     0.161 HD
BRANCH  14  16
HETATM   16  C3  UNL     1       5.363   7.655   0.975  1.00  0.00     0.122 C 
BRANCH  16  17
HETATM   17  C4  UNL     1       4.465   8.783   1.411  1.00  0.00     0.020 C 
BRANCH  17  18
HETATM   18  C5  UNL     1       4.982  10.045   0.781  1.00  0.00     0.002 C 
BRANCH  18  19
HETATM   19  C6  UNL     1       5.390  11.091   1.742  1.00  0.00     0.005 C 
BRANCH  19  20
HETATM   20  C7  UNL     1       6.799  11.582   1.651  1.00  0.00    -0.014 C 
HETATM   21  C8  UNL     1       7.365  11.002   0.359  1.00  0.00     0.004 C 
HETATM   22  C9  UNL     1       8.849  11.022   0.284  1.00  0.00     0.000 C 
HETATM   23  C10 UNL     1       9.466   9.702   0.711  1.00  0.00     0.000 C 
HETATM   24  C11 UNL     1       9.364   9.462   2.182  1.00  0.00     0.000 C 
HETATM   25  C12 UNL     1       7.985   9.650   2.739  1.00  0.00     0.000 C 
HETATM   26  C13 UNL     1       7.633  11.106   2.819  1.00  0.00     0.004 C 
ENDBRANCH  19  20
ENDBRANCH  18  19
ENDBRANCH  17  18
ENDBRANCH  16  17
ENDBRANCH  14  16
ENDBRANCH   2  14
TORSDOF 8
ENDMDL
MODEL 4
REMARK VINA RESULT: -6.899259742      3.982      6.313
REMARK  8 active torsions:
REMARK  status: ('A' for Active; 'I' for Inactive)
REMARK    1  A    between atoms: C1_2  and  N1_3 
REMARK    2  A    between atoms: C1_2  and  N6_14 
REMARK    3  A    between atoms: N1_3  and  C2_5 
REMARK    4  A    between atoms: N6_14  and  C3_16 
REMARK    5  A    between atoms: C3_16  and  C4_17 
REMARK    6  A    between atoms: C4_17  and  C5_18 
REMARK    7  A    between atoms: C5_18  and  C6_19 
REMARK    8  A    between atoms: C6_19  and  C7_20 
ROOT
HETATM    1  S1  UNL     1       3.152   5.099   1.241  1.00  0.00    -0.040 SA
HETATM    2  C1  UNL     1       4.731   5.120   0.874  1.00  0.00     0.186 C 
ENDROOT
BRANCH   2   3
HETATM    3  N1  UNL     1       5.456   3.919   0.931  1.00  0.00    -0.164 N 
ATOM      4  H1  UNL     1       6.255   3.888   1.565  1.00  0.00     0.186 HD
BRANCH   3   5
HETATM    5  C2  UNL     1       5.200   2.845   0.250  1.00  0.00     0.716 A 
HETATM    6  N2  UNL     1       5.030   2.801  -1.104  1.00  0.00    -0.115 N 
HETATM    7  N3  UNL     1       4.796   1.544  -1.399  1.00  0.00    -0.213 N 
ATOM      8  H2  UNL     1       5.076   3.585  -1.755  1.00  0.00     0.207 HD
HETATM    9  N4  UNL     1       4.803   0.791  -0.325  1.00  0.00    -0.213 N 
ATOM     10  H3  UNL     1       4.629   1.197  -2.343  1.00  0.00     0.210 HD
HETATM   11  N5  UNL     1       5.055   1.596   0.709  1.00  0.00    -0.115 N 
ATOM     12  H4  UNL     1       4.647  -0.216  -0.288  1.00  0.00     0.210 HD
ATOM     13  H5  UNL     1       5.126   1.308   1.686  1.00  0.00     0.207 HD
ENDBRANCH   3   5
ENDBRANCH   2   3
BRANCH   2  14
HETATM   14  N6  UNL     1       5.349   6.345   0.522  1.00  0.00    -0.367 N 
ATOM     15  H6  UNL     1       5.772   6.413  -0.404  1.00  0.00     0.161 HD
BRANCH  14  16
HETATM   16  C3  UNL     1       5.422   7.493   1.372  1.00  0.00     0.122 C 
BRANCH  16  17
HETATM   17  C4  UNL     1       5.034   8.768   0.670  1.00  0.00     0.020 C 
BRANCH  17  18
HETATM   18  C5  UNL     1       4.039   9.482   1.543  1.00  0.00     0.002 C 
BRANCH  18  19
HETATM   19  C6  UNL     1       2.688   8.884   1.555  1.00  0.00     0.005 C 
BRANCH  19  20
HETATM   20  C7  UNL     1       1.555   9.780   1.938  1.00  0.00    -0.014 C 
HETATM   21  C8  UNL     1       2.109  10.733   2.992  1.00  0.00     0.004 C 
HETATM   22  C9  UNL     1       1.065  11.422   3.795  1.00  0.00     0.000 C 
HETATM   23  C10 UNL     1       0.792  10.716   5.112  1.00  0.00     0.000 C 
HETATM   24  C11 UNL     1       0.060   9.425   4.937  1.00  0.00     0.000 C 
HETATM   25  C12 UNL     1       0.669   8.509   3.918  1.00  0.00     0.000 C 
HETATM   26  C13 UNL     1       0.401   9.001   2.527  1.00  0.00     0.004 C 
ENDBRANCH  19  20
ENDBRANCH  18  19
ENDBRANCH  17  18
ENDBRANCH  16  17
ENDBRANCH  14  16
ENDBRANCH   2  14
TORSDOF 8
ENDMDL
MODEL 5
REMARK VINA RESULT: -6.865622059      1.372      2.381
REMARK  8 active torsions:
REMARK  status: ('A' for Active; 'I' for Inactive)
REMARK    1  A    between atoms: C1_2  and  N1_3 
REMARK    2  A    between atoms: C1_2  and  N6_14 
REMARK    3  A    between atoms: N1_3  and  C2_5 
REMARK    4  A    between atoms: N6_14  and  C3_16 
REMARK    5  A    between atoms: C3_16  and  C4_17 
REMARK    6  A    between atoms: C4_17  and  C5_18 
REMARK    7  A    between atoms: C5_18  and  C6_19 
REMARK    8  A    between atoms: C6_19  and  C7_20 
ROOT
HETATM    1  S1  UNL     1       3.135   5.180   1.290  1.00  0.00    -0.040 SA
HETATM    2  C1  UNL     1       4.710   5.168   0.905  1.00  0.00     0.186 C 
ENDROOT
BRANCH   2   3
HETATM    3  N1  UNL     1       5.420   3.958   0.993  1.00  0.00    -0.164 N 
ATOM      4  H1  UNL     1       6.188   3.918   1.664  1.00  0.00     0.186 HD
BRANCH   3   5
HETATM    5  C2  UNL     1       5.184   2.889   0.299  1.00  0.00     0.716 A 
HETATM    6  N2  UNL     1       5.035   2.856  -1.059  1.00  0.00    -0.115 N 
HETATM    7  N3  UNL     1       4.818   1.599  -1.368  1.00  0.00    -0.213 N 
ATOM      8  H2  UNL     1       5.083   3.647  -1.701  1.00  0.00     0.207 HD
HETATM    9  N4  UNL     1       4.817   0.837  -0.302  1.00  0.00    -0.213 N 
ATOM     10  H3  UNL     1       4.668   1.259  -2.318  1.00  0.00     0.210 HD
HETATM   11  N5  UNL     1       5.046   1.634   0.744  1.00  0.00    -0.115 N 
ATOM     12  H4  UNL     1       4.670  -0.172  -0.276  1.00  0.00     0.210 HD
ATOM     13  H5  UNL     1       5.105   1.337   1.718  1.00  0.00     0.207 HD
ENDBRANCH   3   5
ENDBRANCH   2   3
BRANCH   2  14
HETATM   14  N6  UNL     1       5.341   6.371   0.506  1.00  0.00    -0.367 N 
ATOM     15  H6  UNL     1       5.775   6.396  -0.416  1.00  0.00     0.161 HD
BRANCH  14  16
HETATM   16  C3  UNL     1       5.412   7.556   1.306  1.00  0.00     0.122 C 
BRANCH  16  17
HETATM   17  C4  UNL     1       4.999   8.795   0.556  1.00  0.00     0.020 C 
BRANCH  17  18
HETATM   18  C5  UNL     1       5.310   9.979   1.428  1.00  0.00     0.002 C 
BRANCH  18  19
HETATM   19  C6  UNL     1       6.715  10.063   1.876  1.00  0.00     0.005 C 
BRANCH  19  20
HETATM   20  C7  UNL     1       7.727  10.480   0.858  1.00  0.00    -0.014 C 
HETATM   21  C8  UNL     1       9.014   9.746   1.217  1.00  0.00     0.004 C 
HETATM   22  C9  UNL     1      10.235  10.323   0.597  1.00  0.00     0.000 C 
HETATM   23  C10 UNL     1      10.958  11.280   1.528  1.00  0.00     0.000 C 
HETATM   24  C11 UNL     1      10.227  12.569   1.718  1.00  0.00     0.000 C 
HETATM   25  C12 UNL     1       8.782  12.406   2.083  1.00  0.00     0.000 C 
HETATM   26  C13 UNL     1       7.975  11.971   0.896  1.00  0.00     0.004 C 
ENDBRANCH  19  20
ENDBRANCH  18  19
ENDBRANCH  17  18
ENDBRANCH  16  17
ENDBRANCH  14  16
ENDBRANCH   2  14
TORSDOF 8
ENDMDL
