MODEL 1
REMARK VINA RESULT: -6.472439265      0.000      0.000
REMARK  5 active torsions:
REMARK  status: ('A' for Active; 'I' for Inactive)
REMARK    1  A    between atoms: C2_7  and  S1_8 
REMARK    2  A    between atoms: S1_8  and  C3_9 
REMARK    3  A    between atoms: C9_15  and  C10_16 
REMARK    4  A    between atoms: C10_16  and  C11_17 
REMARK    5  A    between atoms: C11_17  and  C12_18 
ROOT
HETATM    1  O1  UNL     1       7.527   8.435   2.844  1.00  0.00    -0.266 OA
HETATM    2  C1  UNL     1       7.941   9.189   1.910  1.00  0.00     0.268 A 
HETATM    3  N1  UNL     1       9.086   9.001   1.254  1.00  0.00    -0.265 N 
ATOM      4  H1  UNL     1       9.737   8.238   1.442  1.00  0.00     0.190 HD
HETATM    5  N2  UNL     1       9.275   9.938   0.323  1.00  0.00    -0.291 N 
ATOM      6  H2  UNL     1      10.070  10.017  -0.311  1.00  0.00     0.187 HD
HETATM    7  C2  UNL     1       8.212  10.758   0.383  1.00  0.00     0.096 A 
HETATM    8  C9  UNL     1       7.347  10.313   1.376  1.00  0.00     0.046 A 
ENDROOT
BRANCH   8   9
HETATM    9  C10 UNL     1       6.047  10.883   1.811  1.00  0.00     0.048 C 
BRANCH   9  10
HETATM   10  C11 UNL     1       4.918  10.391   0.941  1.00  0.00     0.009 C 
BRANCH  10  11
HETATM   11  C12 UNL     1       4.066   9.365   1.615  1.00  0.00    -0.011 C 
HETATM   12  C13 UNL     1       4.250   8.005   0.990  1.00  0.00     0.032 C 
HETATM   13  C14 UNL     1       3.288   6.987   1.551  1.00  0.00     0.232 C 
HETATM   14  N3  UNL     1       2.278   7.599   2.389  1.00  0.00    -0.075 N 
HETATM   15  C15 UNL     1       1.650   8.709   1.711  1.00  0.00     0.232 C 
ATOM     16  H32 UNL     1       1.591   6.916   2.710  1.00  0.00     0.277 HD
ATOM     17  H31 UNL     1       2.656   7.876   3.295  1.00  0.00     0.277 HD
HETATM   18  C16 UNL     1       2.645   9.828   1.602  1.00  0.00     0.032 C 
ENDBRANCH  10  11
ENDBRANCH   9  10
ENDBRANCH   8   9
BRANCH   7  19
HETATM   19  S1  UNL     1       7.896  12.179  -0.598  1.00  0.00    -0.105 SA
BRANCH  19  20
HETATM   20  C3  UNL     1       7.982  11.922  -2.363  1.00  0.00     0.054 C 
HETATM   21  C4  UNL     1       8.337  13.154  -3.155  1.00  0.00     0.015 C 
HETATM   22  C5  UNL     1       7.438  13.344  -4.369  1.00  0.00     0.001 C 
HETATM   23  C6  UNL     1       7.439  12.117  -5.219  1.00  0.00     0.000 C 
HETATM   24  C7  UNL     1       7.181  10.879  -4.399  1.00  0.00     0.001 C 
HETATM   25  C8  UNL     1       6.777  11.261  -2.968  1.00  0.00     0.015 C 
ENDBRANCH  19  20
ENDBRANCH   7  19
TORSDOF 5
ENDMDL
MODEL 2
REMARK VINA RESULT: -6.456666394      3.714      5.171
REMARK  5 active torsions:
REMARK  status: ('A' for Active; 'I' for Inactive)
REMARK    1  A    between atoms: C2_7  and  S1_8 
REMARK    2  A    between atoms: S1_8  and  C3_9 
REMARK    3  A    between atoms: C9_15  and  C10_16 
REMARK    4  A    between atoms: C10_16  and  C11_17 
REMARK    5  A    between atoms: C11_17  and  C12_18 
ROOT
HETATM    1  O1  UNL     1       3.045   4.485   1.027  1.00  0.00    -0.266 OA
HETATM    2  C1  UNL     1       3.915   5.405   0.930  1.00  0.00     0.268 A 
HETATM    3  N1  UNL     1       5.081   5.264   0.300  1.00  0.00    -0.265 N 
ATOM      4  H1  UNL     1       5.384   4.406  -0.161  1.00  0.00     0.190 HD
HETATM    5  N2  UNL     1       5.802   6.386   0.350  1.00  0.00    -0.291 N 
ATOM      6  H2  UNL     1       6.726   6.536  -0.055  1.00  0.00     0.187 HD
HETATM    7  C2  UNL     1       5.072   7.281   1.037  1.00  0.00     0.096 A 
HETATM    8  C9  UNL     1       3.872   6.694   1.419  1.00  0.00     0.046 A 
ENDROOT
BRANCH   8   9
HETATM    9  C10 UNL     1       2.745   7.280   2.188  1.00  0.00     0.048 C 
BRANCH   9  10
HETATM   10  C11 UNL     1       2.166   8.478   1.477  1.00  0.00     0.009 C 
BRANCH  10  11
HETATM   11  C12 UNL     1       1.322   9.333   2.366  1.00  0.00    -0.011 C 
HETATM   12  C13 UNL     1       2.096  10.521   2.879  1.00  0.00     0.032 C 
HETATM   13  C14 UNL     1       1.313  11.312   3.898  1.00  0.00     0.232 C 
HETATM   14  N3  UNL     1       0.103  10.628   4.303  1.00  0.00    -0.075 N 
HETATM   15  C15 UNL     1       0.387   9.265   4.689  1.00  0.00     0.232 C 
ATOM     16  H32 UNL     1      -0.387  11.134   5.041  1.00  0.00     0.277 HD
ATOM     17  H31 UNL     1      -0.616  10.673   3.581  1.00  0.00     0.277 HD
HETATM   18  C16 UNL     1       0.756   8.487   3.460  1.00  0.00     0.032 C 
ENDBRANCH  10  11
ENDBRANCH   9  10
ENDBRANCH   8   9
BRANCH   7  19
HETATM   19  S1  UNL     1       5.498   8.938   1.430  1.00  0.00    -0.105 SA
BRANCH  19  20
HETATM   20  C3  UNL     1       7.247   9.298   1.424  1.00  0.00     0.054 C 
HETATM   21  C4  UNL     1       7.913   9.166   2.769  1.00  0.00     0.015 C 
HETATM   22  C5  UNL     1       8.825  10.344   3.083  1.00  0.00     0.001 C 
HETATM   23  C6  UNL     1       9.818  10.546   1.987  1.00  0.00     0.000 C 
HETATM   24  C7  UNL     1       9.150  10.577   0.638  1.00  0.00     0.001 C 
HETATM   25  C8  UNL     1       7.623  10.610   0.798  1.00  0.00     0.015 C 
ENDBRANCH  19  20
ENDBRANCH   7  19
TORSDOF 5
ENDMDL
MODEL 3
REMARK VINA RESULT: -6.416730146      3.537      5.094
REMARK  5 active torsions:
REMARK  status: ('A' for Active; 'I' for Inactive)
REMARK    1  A    between atoms: C2_7  and  S1_8 
REMARK    2  A    between atoms: S1_8  and  C3_9 
REMARK    3  A    between atoms: C9_15  and  C10_16 
REMARK    4  A    between atoms: C10_16  and  C11_17 
REMARK    5  A    between atoms: C11_17  and  C12_18 
ROOT
HETATM    1  O1  UNL     1       3.429   4.700   1.427  1.00  0.00    -0.266 OA
HETATM    2  C1  UNL     1       4.127   5.728   1.166  1.00  0.00     0.268 A 
HETATM    3  N1  UNL     1       5.263   5.699   0.468  1.00  0.00    -0.265 N 
ATOM      4  H1  UNL     1       5.677   4.851   0.081  1.00  0.00     0.190 HD
HETATM    5  N2  UNL     1       5.790   6.919   0.341  1.00  0.00    -0.291 N 
ATOM      6  H2  UNL     1       6.651   7.163  -0.146  1.00  0.00     0.187 HD
HETATM    7  C2  UNL     1       4.962   7.762   0.980  1.00  0.00     0.096 A 
HETATM    8  C9  UNL     1       3.899   7.042   1.514  1.00  0.00     0.046 A 
ENDROOT
BRANCH   8   9
HETATM    9  C10 UNL     1       2.736   7.531   2.297  1.00  0.00     0.048 C 
BRANCH   9  10
HETATM   10  C11 UNL     1       2.027   8.651   1.578  1.00  0.00     0.009 C 
BRANCH  10  11
HETATM   11  C12 UNL     1       1.127   9.441   2.471  1.00  0.00    -0.011 C 
HETATM   12  C13 UNL     1       1.862  10.597   3.104  1.00  0.00     0.032 C 
HETATM   13  C14 UNL     1       1.016  11.315   4.127  1.00  0.00     0.232 C 
HETATM   14  N3  UNL     1      -0.209  10.600   4.418  1.00  0.00    -0.075 N 
HETATM   15  C15 UNL     1       0.063   9.216   4.729  1.00  0.00     0.232 C 
ATOM     16  H32 UNL     1      -0.744  11.055   5.158  1.00  0.00     0.277 HD
ATOM     17  H31 UNL     1      -0.886  10.690   3.660  1.00  0.00     0.277 HD
HETATM   18  C16 UNL     1       0.507   8.522   3.474  1.00  0.00     0.032 C 
ENDBRANCH  10  11
ENDBRANCH   9  10
ENDBRANCH   8   9
BRANCH   7  19
HETATM   19  S1  UNL     1       5.129   9.501   1.158  1.00  0.00    -0.105 SA
BRANCH  19  20
HETATM   20  C3  UNL     1       6.712  10.056   1.769  1.00  0.00     0.054 C 
HETATM   21  C4  UNL     1       7.627  10.614   0.709  1.00  0.00     0.015 C 
HETATM   22  C5  UNL     1       9.046  10.073   0.825  1.00  0.00     0.001 C 
HETATM   23  C6  UNL     1       9.583  10.299   2.199  1.00  0.00     0.000 C 
HETATM   24  C7  UNL     1       8.615   9.828   3.253  1.00  0.00     0.001 C 
HETATM   25  C8  UNL     1       7.456   9.056   2.607  1.00  0.00     0.015 C 
ENDBRANCH  19  20
ENDBRANCH   7  19
TORSDOF 5
ENDMDL
MODEL 4
REMARK VINA RESULT: -6.384857577      3.567      5.184
REMARK  5 active torsions:
REMARK  status: ('A' for Active; 'I' for Inactive)
REMARK    1  A    between atoms: C2_7  and  S1_8 
REMARK    2  A    between atoms: S1_8  and  C3_9 
REMARK    3  A    between atoms: C9_15  and  C10_16 
REMARK    4  A    between atoms: C10_16  and  C11_17 
REMARK    5  A    between atoms: C11_17  and  C12_18 
ROOT
HETATM    1  O1  UNL     1       2.782   6.441   2.304  1.00  0.00    -0.266 OA
HETATM    2  C1  UNL     1       3.692   7.052   1.662  1.00  0.00     0.268 A 
HETATM    3  N1  UNL     1       4.662   6.440   0.984  1.00  0.00    -0.265 N 
ATOM      4  H1  UNL     1       4.765   5.427   0.917  1.00  0.00     0.190 HD
HETATM    5  N2  UNL     1       5.482   7.319   0.403  1.00  0.00    -0.291 N 
ATOM      6  H2  UNL     1       6.298   7.106  -0.169  1.00  0.00     0.187 HD
HETATM    7  C2  UNL     1       5.020   8.540   0.721  1.00  0.00     0.096 A 
HETATM    8  C9  UNL     1       3.888   8.408   1.516  1.00  0.00     0.046 A 
ENDROOT
BRANCH   8   9
HETATM    9  C10 UNL     1       3.032   9.467   2.109  1.00  0.00     0.048 C 
BRANCH   9  10
HETATM   10  C11 UNL     1       1.587   9.282   1.716  1.00  0.00     0.009 C 
BRANCH  10  11
HETATM   11  C12 UNL     1       0.634   9.626   2.814  1.00  0.00    -0.011 C 
HETATM   12  C13 UNL     1       1.300  10.470   3.872  1.00  0.00     0.032 C 
HETATM   13  C14 UNL     1       0.403  10.700   5.063  1.00  0.00     0.232 C 
HETATM   14  N3  UNL     1      -0.791   9.882   5.009  1.00  0.00    -0.075 N 
HETATM   15  C15 UNL     1      -0.457   8.498   4.766  1.00  0.00     0.232 C 
ATOM     16  H32 UNL     1      -1.360   9.991   5.848  1.00  0.00     0.277 HD
ATOM     17  H31 UNL     1      -1.458  10.235   4.322  1.00  0.00     0.277 HD
HETATM   18  C16 UNL     1       0.042   8.366   3.357  1.00  0.00     0.032 C 
ENDBRANCH  10  11
ENDBRANCH   9  10
ENDBRANCH   8   9
BRANCH   7  19
HETATM   19  S1  UNL     1       5.686  10.095   0.249  1.00  0.00    -0.105 SA
BRANCH  19  20
HETATM   20  C3  UNL     1       7.080  10.653   1.215  1.00  0.00     0.054 C 
HETATM   21  C4  UNL     1       7.978   9.548   1.707  1.00  0.00     0.015 C 
HETATM   22  C5  UNL     1       8.343   9.707   3.177  1.00  0.00     0.001 C 
HETATM   23  C6  UNL     1       8.930  11.056   3.429  1.00  0.00     0.000 C 
HETATM   24  C7  UNL     1       8.073  12.148   2.845  1.00  0.00     0.001 C 
HETATM   25  C8  UNL     1       6.737  11.573   2.352  1.00  0.00     0.015 C 
ENDBRANCH  19  20
ENDBRANCH   7  19
TORSDOF 5
ENDMDL
MODEL 5
REMARK VINA RESULT: -6.358513703      3.034      7.688
REMARK  5 active torsions:
REMARK  status: ('A' for Active; 'I' for Inactive)
REMARK    1  A    between atoms: C2_7  and  S1_8 
REMARK    2  A    between atoms: S1_8  and  C3_9 
REMARK    3  A    between atoms: C9_15  and  C10_16 
REMARK    4  A    between atoms: C10_16  and  C11_17 
REMARK    5  A    between atoms: C11_17  and  C12_18 
ROOT
HETATM    1  O1  UNL     1       5.596   5.482   0.859  1.00  0.00    -0.266 OA
HETATM    2  C1  UNL     1       4.584   6.170   1.199  1.00  0.00     0.268 A 
HETATM    3  N1  UNL     1       3.438   5.644   1.632  1.00  0.00    -0.265 N 
ATOM      4  H1  UNL     1       3.267   4.643   1.731  1.00  0.00     0.190 HD
HETATM    5  N2  UNL     1       2.544   6.592   1.921  1.00  0.00    -0.291 N 
ATOM      6  H2  UNL     1       1.596   6.451   2.269  1.00  0.00     0.187 HD
HETATM    7  C2  UNL     1       3.137   7.769   1.662  1.00  0.00     0.096 A 
HETATM    8  C9  UNL     1       4.429   7.540   1.204  1.00  0.00     0.046 A 
ENDROOT
BRANCH   8   9
HETATM    9  C10 UNL     1       5.466   8.520   0.795  1.00  0.00     0.048 C 
BRANCH   9  10
HETATM   10  C11 UNL     1       6.457   8.760   1.907  1.00  0.00     0.009 C 
BRANCH  10  11
HETATM   11  C12 UNL     1       7.427   9.853   1.599  1.00  0.00    -0.011 C 
HETATM   12  C13 UNL     1       6.879  10.793   0.554  1.00  0.00     0.032 C 
HETATM   13  C14 UNL     1       7.901  11.813   0.116  1.00  0.00     0.232 C 
HETATM   14  N3  UNL     1       9.221  11.516   0.632  1.00  0.00    -0.075 N 
HETATM   15  C15 UNL     1       9.585  10.146   0.359  1.00  0.00     0.232 C 
ATOM     16  H32 UNL     1       9.919  12.170   0.278  1.00  0.00     0.277 HD
ATOM     17  H31 UNL     1       9.294  11.735   1.626  1.00  0.00     0.277 HD
HETATM   18  C16 UNL     1       8.736   9.246   1.211  1.00  0.00     0.032 C 
ENDBRANCH  10  11
ENDBRANCH   9  10
ENDBRANCH   8   9
BRANCH   7  19
HETATM   19  S1  UNL     1       2.456   9.377   1.846  1.00  0.00    -0.105 SA
BRANCH  19  20
HETATM   20  C3  UNL     1       1.060   9.492   2.953  1.00  0.00     0.054 C 
HETATM   21  C4  UNL     1       0.938  10.813   3.667  1.00  0.00     0.015 C 
HETATM   22  C5  UNL     1       0.660  10.646   5.155  1.00  0.00     0.001 C 
HETATM   23  C6  UNL     1      -0.540   9.785   5.370  1.00  0.00     0.000 C 
HETATM   24  C7  UNL     1      -0.453   8.510   4.573  1.00  0.00     0.001 C 
HETATM   25  C8  UNL     1       0.940   8.368   3.943  1.00  0.00     0.015 C 
ENDBRANCH  19  20
ENDBRANCH   7  19
TORSDOF 5
ENDMDL
