MODEL 1
REMARK VINA RESULT: -5.032950081      0.000      0.000
REMARK  7 active torsions:
REMARK  status: ('A' for Active; 'I' for Inactive)
REMARK    1  A    between atoms: C2_2  and  C3_3 
REMARK    2  A    between atoms: C2_2  and  N1_6 
REMARK       I    between atoms: N1_6  and  C6_7 
REMARK    3  A    between atoms: N1_6  and  C14_24 
REMARK       I    between atoms: C6_7  and  N2_9 
REMARK    4  A    between atoms: N2_9  and  C7_11 
REMARK    5  A    between atoms: C12_16  and  C13_17 
REMARK    6  A    between atoms: C13_17  and  O2_18 
REMARK    7  A    between atoms: N3_20  and  O3_22 
ROOT
HETATM    1  C7  UNL     1       8.814  13.411  -2.551  1.00  0.00     0.098 C 
HETATM    2  C8  UNL     1       9.729  14.543  -2.911  1.00  0.00     0.026 C 
HETATM    3  C9  UNL     1       9.000  15.805  -3.331  1.00  0.00     0.002 C 
HETATM    4  C10 UNL     1       8.267  15.388  -4.619  1.00  0.00     0.001 C 
HETATM    5  C11 UNL     1       7.168  14.475  -4.148  1.00  0.00     0.015 C 
HETATM    6  C12 UNL     1       7.573  13.305  -3.376  1.00  0.00     0.085 C 
ENDROOT
BRANCH   1   7
HETATM    7  N2  UNL     1       8.569  13.514  -1.134  1.00  0.00    -0.338 N 
HETATM    8  C6  UNL     1       8.426  12.354  -0.369  1.00  0.00     0.319 C 
HETATM    9  N1  UNL     1       8.179  12.300   1.054  1.00  0.00    -0.325 N 
HETATM   10  O1  UNL     1       8.515  11.218  -0.960  1.00  0.00    -0.247 OA
ATOM     11  H2  UNL     1       8.500  14.431  -0.692  1.00  0.00     0.164 HD
BRANCH   9  12
HETATM   12  C2  UNL     1       8.052  10.971   1.611  1.00  0.00     0.089 C 
HETATM   13  C1  UNL     1       6.709  10.558   2.071  1.00  0.00     0.033 C 
BRANCH  12  14
HETATM   14  C3  UNL     1       9.076  10.779   2.711  1.00  0.00     0.008 A 
HETATM   15  C4  UNL     1       8.701  10.529   4.103  1.00  0.00     0.007 A 
HETATM   16  C5  UNL     1       9.152   9.346   3.236  1.00  0.00     0.007 A 
ENDBRANCH  12  14
ENDBRANCH   9  12
BRANCH   9  17
HETATM   17  C14 UNL     1       8.149  13.531   1.774  1.00  0.00     0.089 A 
HETATM   18  C15 UNL     1       7.437  13.794   3.014  1.00  0.00     0.027 A 
HETATM   19  C16 UNL     1       6.756  14.230   1.742  1.00  0.00     0.027 A 
ENDBRANCH   9  17
ENDBRANCH   1   7
BRANCH   6  20
HETATM   20  C13 UNL     1       7.543  12.055  -4.161  1.00  0.00     0.141 C 
HETATM   21  N3  UNL     1       6.985  10.962  -3.874  1.00  0.00    -0.251 N 
ATOM     22  H3  UNL     1       7.121  10.253  -4.594  1.00  0.00     0.196 HD
BRANCH  20  23
HETATM   23  O2  UNL     1       8.225  12.036  -5.422  1.00  0.00    -0.348 OA
ATOM     24  H2  UNL     1       7.922  11.425  -6.085  1.00  0.00     0.219 HD
ENDBRANCH  20  23
BRANCH  21  25
HETATM   25  O3  UNL     1       6.265  10.520  -2.856  1.00  0.00    -0.288 OA
ATOM     26  H3  UNL     1       5.841   9.697  -2.641  1.00  0.00     0.244 HD
ENDBRANCH  21  25
ENDBRANCH   6  20
TORSDOF 7
ENDMDL
MODEL 2
REMARK VINA RESULT: -4.992137896      2.103      3.634
REMARK  7 active torsions:
REMARK  status: ('A' for Active; 'I' for Inactive)
REMARK    1  A    between atoms: C2_2  and  C3_3 
REMARK    2  A    between atoms: C2_2  and  N1_6 
REMARK       I    between atoms: N1_6  and  C6_7 
REMARK    3  A    between atoms: N1_6  and  C14_24 
REMARK       I    between atoms: C6_7  and  N2_9 
REMARK    4  A    between atoms: N2_9  and  C7_11 
REMARK    5  A    between atoms: C12_16  and  C13_17 
REMARK    6  A    between atoms: C13_17  and  O2_18 
REMARK    7  A    between atoms: N3_20  and  O3_22 
ROOT
HETATM    1  C7  UNL     1       6.302  12.101  -2.604  1.00  0.00     0.098 C 
HETATM    2  C8  UNL     1       5.128  12.397  -3.491  1.00  0.00     0.026 C 
HETATM    3  C9  UNL     1       5.043  11.495  -4.707  1.00  0.00     0.002 C 
HETATM    4  C10 UNL     1       6.312  11.843  -5.506  1.00  0.00     0.001 C 
HETATM    5  C11 UNL     1       7.438  11.256  -4.698  1.00  0.00     0.015 C 
HETATM    6  C12 UNL     1       7.553  11.701  -3.313  1.00  0.00     0.085 C 
ENDROOT
BRANCH   1   7
HETATM    7  N2  UNL     1       5.848  11.142  -1.627  1.00  0.00    -0.338 N 
HETATM    8  C6  UNL     1       6.423  11.127  -0.354  1.00  0.00     0.319 C 
HETATM    9  N1  UNL     1       6.074  10.230   0.724  1.00  0.00    -0.325 N 
HETATM   10  O1  UNL     1       7.350  11.975  -0.091  1.00  0.00    -0.247 OA
ATOM     11  H2  UNL     1       5.112  10.478  -1.864  1.00  0.00     0.164 HD
BRANCH   9  12
HETATM   12  C2  UNL     1       6.830  10.404   1.945  1.00  0.00     0.089 C 
HETATM   13  C1  UNL     1       6.896  11.769   2.509  1.00  0.00     0.033 C 
BRANCH  12  14
HETATM   14  C3  UNL     1       8.222   9.832   1.768  1.00  0.00     0.008 A 
HETATM   15  C4  UNL     1       9.408  10.438   2.375  1.00  0.00     0.007 A 
HETATM   16  C5  UNL     1       8.791   9.198   3.037  1.00  0.00     0.007 A 
ENDBRANCH  12  14
ENDBRANCH   9  12
BRANCH   9  17
HETATM   17  C14 UNL     1       4.996   9.319   0.513  1.00  0.00     0.089 A 
HETATM   18  C15 UNL     1       4.242   8.614   1.537  1.00  0.00     0.027 A 
HETATM   19  C16 UNL     1       5.355   7.845   0.870  1.00  0.00     0.027 A 
ENDBRANCH   9  17
ENDBRANCH   1   7
BRANCH   6  20
HETATM   20  C13 UNL     1       8.636  12.685  -3.110  1.00  0.00     0.141 C 
HETATM   21  N3  UNL     1       9.520  12.703  -2.212  1.00  0.00    -0.251 N 
ATOM     22  H3  UNL     1      10.149  13.500  -2.300  1.00  0.00     0.196 HD
BRANCH  20  23
HETATM   23  O2  UNL     1       8.732  13.779  -4.031  1.00  0.00    -0.348 OA
ATOM     24  H2  UNL     1       9.595  14.023  -4.345  1.00  0.00     0.219 HD
ENDBRANCH  20  23
BRANCH  21  25
HETATM   25  O3  UNL     1       9.821  11.929  -1.181  1.00  0.00    -0.288 OA
ATOM     26  H3  UNL     1      10.343  12.034  -0.394  1.00  0.00     0.244 HD
ENDBRANCH  21  25
ENDBRANCH   6  20
TORSDOF 7
ENDMDL
MODEL 3
REMARK VINA RESULT: -4.968227303      2.257      3.255
REMARK  7 active torsions:
REMARK  status: ('A' for Active; 'I' for Inactive)
REMARK    1  A    between atoms: C2_2  and  C3_3 
REMARK    2  A    between atoms: C2_2  and  N1_6 
REMARK       I    between atoms: N1_6  and  C6_7 
REMARK    3  A    between atoms: N1_6  and  C14_24 
REMARK       I    between atoms: C6_7  and  N2_9 
REMARK    4  A    between atoms: N2_9  and  C7_11 
REMARK    5  A    between atoms: C12_16  and  C13_17 
REMARK    6  A    between atoms: C13_17  and  O2_18 
REMARK    7  A    between atoms: N3_20  and  O3_22 
ROOT
HETATM    1  C7  UNL     1       6.597  12.768  -3.157  1.00  0.00     0.098 C 
HETATM    2  C8  UNL     1       5.823  14.052  -3.115  1.00  0.00     0.026 C 
HETATM    3  C9  UNL     1       4.322  13.861  -3.217  1.00  0.00     0.002 C 
HETATM    4  C10 UNL     1       4.127  13.261  -4.621  1.00  0.00     0.001 C 
HETATM    5  C11 UNL     1       4.663  11.859  -4.509  1.00  0.00     0.015 C 
HETATM    6  C12 UNL     1       6.047  11.720  -4.069  1.00  0.00     0.085 C 
ENDROOT
BRANCH   1   7
HETATM    7  N2  UNL     1       6.750  12.334  -1.790  1.00  0.00    -0.338 N 
HETATM    8  C6  UNL     1       8.017  11.997  -1.309  1.00  0.00     0.319 C 
HETATM    9  N1  UNL     1       8.325  11.550   0.031  1.00  0.00    -0.325 N 
HETATM   10  O1  UNL     1       9.017  12.082  -2.109  1.00  0.00    -0.247 OA
ATOM     11  H2  UNL     1       5.937  12.274  -1.178  1.00  0.00     0.164 HD
BRANCH   9  12
HETATM   12  C2  UNL     1       9.717  11.244   0.277  1.00  0.00     0.089 C 
HETATM   13  C1  UNL     1      10.060   9.832   0.549  1.00  0.00     0.033 C 
BRANCH  12  14
HETATM   14  C3  UNL     1      10.250  12.143   1.373  1.00  0.00     0.008 A 
HETATM   15  C4  UNL     1      11.488  12.911   1.233  1.00  0.00     0.007 A 
HETATM   16  C5  UNL     1      10.148  13.633   1.049  1.00  0.00     0.007 A 
ENDBRANCH  12  14
ENDBRANCH   9  12
BRANCH   9  17
HETATM   17  C14 UNL     1       7.263  11.512   0.983  1.00  0.00     0.089 A 
HETATM   18  C15 UNL     1       7.231  10.744   2.217  1.00  0.00     0.027 A 
HETATM   19  C16 UNL     1       6.524  10.141   1.030  1.00  0.00     0.027 A 
ENDBRANCH   9  17
ENDBRANCH   1   7
BRANCH   6  20
HETATM   20  C13 UNL     1       6.978  11.414  -5.174  1.00  0.00     0.141 C 
HETATM   21  N3  UNL     1       7.700  12.209  -5.833  1.00  0.00    -0.251 N 
ATOM     22  H3  UNL     1       8.251  11.734  -6.547  1.00  0.00     0.196 HD
BRANCH  20  23
HETATM   23  O2  UNL     1       7.110  10.046  -5.583  1.00  0.00    -0.348 OA
ATOM     24  H2  UNL     1       6.321   9.572  -5.818  1.00  0.00     0.219 HD
ENDBRANCH  20  23
BRANCH  21  25
HETATM   25  O3  UNL     1       7.909  13.515  -5.816  1.00  0.00    -0.288 OA
ATOM     26  H3  UNL     1       8.642  14.074  -5.589  1.00  0.00     0.244 HD
ENDBRANCH  21  25
ENDBRANCH   6  20
TORSDOF 7
ENDMDL
MODEL 4
REMARK VINA RESULT: -4.942585317      3.478      6.345
REMARK  7 active torsions:
REMARK  status: ('A' for Active; 'I' for Inactive)
REMARK    1  A    between atoms: C2_2  and  C3_3 
REMARK    2  A    between atoms: C2_2  and  N1_6 
REMARK       I    between atoms: N1_6  and  C6_7 
REMARK    3  A    between atoms: N1_6  and  C14_24 
REMARK       I    between atoms: C6_7  and  N2_9 
REMARK    4  A    between atoms: N2_9  and  C7_11 
REMARK    5  A    between atoms: C12_16  and  C13_17 
REMARK    6  A    between atoms: C13_17  and  O2_18 
REMARK    7  A    between atoms: N3_20  and  O3_22 
ROOT
HETATM    1  C7  UNL     1       4.391   9.785   1.330  1.00  0.00     0.098 C 
HETATM    2  C8  UNL     1       3.502  10.972   1.103  1.00  0.00     0.026 C 
HETATM    3  C9  UNL     1       2.522  11.222   2.233  1.00  0.00     0.002 C 
HETATM    4  C10 UNL     1       1.623   9.974   2.216  1.00  0.00     0.001 C 
HETATM    5  C11 UNL     1       2.502   8.870   2.739  1.00  0.00     0.015 C 
HETATM    6  C12 UNL     1       3.747   8.627   2.018  1.00  0.00     0.085 C 
ENDROOT
BRANCH   1   7
HETATM    7  N2  UNL     1       5.574  10.278   1.994  1.00  0.00    -0.338 N 
HETATM    8  C6  UNL     1       6.680  10.668   1.236  1.00  0.00     0.319 C 
HETATM    9  N1  UNL     1       7.928  11.179   1.757  1.00  0.00    -0.325 N 
HETATM   10  O1  UNL     1       6.611  10.573  -0.042  1.00  0.00    -0.247 OA
ATOM     11  H2  UNL     1       5.601  10.340   3.011  1.00  0.00     0.164 HD
BRANCH   9  12
HETATM   12  C2  UNL     1       8.930  11.498   0.764  1.00  0.00     0.089 C 
HETATM   13  C1  UNL     1      10.037  10.533   0.589  1.00  0.00     0.033 C 
BRANCH  12  14
HETATM   14  C3  UNL     1       9.470  12.891   1.013  1.00  0.00     0.008 A 
HETATM   15  C4  UNL     1      10.900  13.202   0.969  1.00  0.00     0.007 A 
HETATM   16  C5  UNL     1      10.027  13.566  -0.240  1.00  0.00     0.007 A 
ENDBRANCH  12  14
ENDBRANCH   9  12
BRANCH   9  17
HETATM   17  C14 UNL     1       8.031  11.380   3.166  1.00  0.00     0.089 A 
HETATM   18  C15 UNL     1       9.258  11.498   3.938  1.00  0.00     0.027 A 
HETATM   19  C16 UNL     1       8.598  10.143   3.925  1.00  0.00     0.027 A 
ENDBRANCH   9  17
ENDBRANCH   1   7
BRANCH   6  20
HETATM   20  C13 UNL     1       3.688   7.437   1.145  1.00  0.00     0.141 C 
HETATM   21  N3  UNL     1       4.621   6.896   0.492  1.00  0.00    -0.251 N 
ATOM     22  H3  UNL     1       4.307   6.082  -0.035  1.00  0.00     0.196 HD
BRANCH  20  23
HETATM   23  O2  UNL     1       2.423   6.779   0.990  1.00  0.00    -0.348 OA
ATOM     24  H2  UNL     1       2.404   5.830   1.044  1.00  0.00     0.219 HD
ENDBRANCH  20  23
BRANCH  21  25
HETATM   25  O3  UNL     1       5.911   7.138   0.332  1.00  0.00    -0.288 OA
ATOM     26  H3  UNL     1       6.650   6.644  -0.005  1.00  0.00     0.244 HD
ENDBRANCH  21  25
ENDBRANCH   6  20
TORSDOF 7
ENDMDL
MODEL 5
REMARK VINA RESULT: -4.940876749      3.886      6.975
REMARK  7 active torsions:
REMARK  status: ('A' for Active; 'I' for Inactive)
REMARK    1  A    between atoms: C2_2  and  C3_3 
REMARK    2  A    between atoms: C2_2  and  N1_6 
REMARK       I    between atoms: N1_6  and  C6_7 
REMARK    3  A    between atoms: N1_6  and  C14_24 
REMARK       I    between atoms: C6_7  and  N2_9 
REMARK    4  A    between atoms: N2_9  and  C7_11 
REMARK    5  A    between atoms: C12_16  and  C13_17 
REMARK    6  A    between atoms: C13_17  and  O2_18 
REMARK    7  A    between atoms: N3_20  and  O3_22 
ROOT
HETATM    1  C7  UNL     1       3.641   9.100   1.247  1.00  0.00     0.098 C 
HETATM    2  C8  UNL     1       2.442  10.002   1.224  1.00  0.00     0.026 C 
HETATM    3  C9  UNL     1       1.673  10.022   2.531  1.00  0.00     0.002 C 
HETATM    4  C10 UNL     1       1.152   8.580   2.667  1.00  0.00     0.001 C 
HETATM    5  C11 UNL     1       2.377   7.765   2.982  1.00  0.00     0.015 C 
HETATM    6  C12 UNL     1       3.476   7.836   2.024  1.00  0.00     0.085 C 
ENDROOT
BRANCH   1   7
HETATM    7  N2  UNL     1       4.757   9.909   1.673  1.00  0.00    -0.338 N 
HETATM    8  C6  UNL     1       5.627  10.445   0.721  1.00  0.00     0.319 C 
HETATM    9  N1  UNL     1       6.781  11.270   0.995  1.00  0.00    -0.325 N 
HETATM   10  O1  UNL     1       5.405  10.196  -0.518  1.00  0.00    -0.247 OA
ATOM     11  H2  UNL     1       4.910  10.088   2.665  1.00  0.00     0.164 HD
BRANCH   9  12
HETATM   12  C2  UNL     1       7.535  11.687  -0.167  1.00  0.00     0.089 C 
HETATM   13  C1  UNL     1       8.883  11.106  -0.342  1.00  0.00     0.033 C 
BRANCH  12  14
HETATM   14  C3  UNL     1       7.594  13.200  -0.220  1.00  0.00     0.008 A 
HETATM   15  C4  UNL     1       8.853  13.937  -0.337  1.00  0.00     0.007 A 
HETATM   16  C5  UNL     1       7.988  13.752  -1.590  1.00  0.00     0.007 A 
ENDBRANCH  12  14
ENDBRANCH   9  12
BRANCH   9  17
HETATM   17  C14 UNL     1       7.029  11.643   2.349  1.00  0.00     0.089 A 
HETATM   18  C15 UNL     1       8.289  12.113   2.903  1.00  0.00     0.027 A 
HETATM   19  C16 UNL     1       7.970  10.653   3.099  1.00  0.00     0.027 A 
ENDBRANCH   9  17
ENDBRANCH   1   7
BRANCH   6  20
HETATM   20  C13 UNL     1       3.563   6.644   1.155  1.00  0.00     0.141 C 
HETATM   21  N3  UNL     1       4.544   6.242   0.474  1.00  0.00    -0.251 N 
ATOM     22  H3  UNL     1       4.337   5.387  -0.041  1.00  0.00     0.196 HD
BRANCH  20  23
HETATM   23  O2  UNL     1       2.405   5.807   1.043  1.00  0.00    -0.348 OA
ATOM     24  H2  UNL     1       1.869   5.889   0.263  1.00  0.00     0.219 HD
ENDBRANCH  20  23
BRANCH  21  25
HETATM   25  O3  UNL     1       5.780   6.669   0.272  1.00  0.00    -0.288 OA
ATOM     26  H3  UNL     1       6.642   6.387   0.554  1.00  0.00     0.244 HD
ENDBRANCH  21  25
ENDBRANCH   6  20
TORSDOF 7
ENDMDL
