MODEL 1
REMARK VINA RESULT: -8.023885081      0.000      0.000
REMARK  5 active torsions:
REMARK  status: ('A' for Active; 'I' for Inactive)
REMARK    1  A    between atoms: C3_3  and  C4_4 
REMARK    2  A    between atoms: C4_4  and  N1_5 
REMARK    3  A    between atoms: C15_25  and  C16_26 
REMARK    4  A    between atoms: C16_26  and  C17_27 
REMARK    5  A    between atoms: C17_27  and  N3_28 
ROOT
HETATM    1  C1  UNL     1       0.452 -10.190   4.499  1.00  0.00     0.049 C 
HETATM    2  C2  UNL     1       0.491  -8.729   4.455  1.00  0.00    -0.041 A 
HETATM    3  C3  UNL     1       1.183  -8.138   3.417  1.00  0.00    -0.037 A 
HETATM    4  C11 UNL     1       1.187  -6.760   3.359  1.00  0.00     0.011 A 
HETATM    5  C12 UNL     1       0.536  -5.981   4.281  1.00  0.00     0.031 A 
HETATM    6  C13 UNL     1      -0.148  -6.583   5.309  1.00  0.00     0.043 A 
HETATM    7  N2  UNL     1      -0.881  -6.088   6.339  1.00  0.00    -0.365 N 
ATOM      8  H2  UNL     1      -1.049  -5.102   6.537  1.00  0.00     0.165 HD
HETATM    9  C14 UNL     1      -1.341  -7.116   7.043  1.00  0.00     0.096 A 
HETATM   10  C15 UNL     1      -0.907  -8.334   6.475  1.00  0.00    -0.028 A 
HETATM   11  C22 UNL     1      -0.162  -7.977   5.386  1.00  0.00     0.005 A 
ENDROOT
BRANCH   3  12
HETATM   12  C4  UNL     1       1.892  -8.897   2.391  1.00  0.00     0.148 C 
BRANCH  12  13
HETATM   13  N1  UNL     1       2.950  -8.079   1.838  1.00  0.00    -0.178 NA
HETATM   14  C5  UNL     1       4.262  -8.562   2.238  1.00  0.00     0.179 C 
HETATM   15  C6  UNL     1       4.648  -9.626   1.255  1.00  0.00     0.196 C 
HETATM   16  C7  UNL     1       6.147  -9.884   1.460  1.00  0.00     0.077 C 
HETATM   17  O1  UNL     1       4.022 -10.853   1.522  1.00  0.00    -0.347 OA
HETATM   18  O2  UNL     1       4.428  -9.185  -0.021  1.00  0.00    -0.223 OA
HETATM   19  C8  UNL     1       6.572 -10.797   0.336  1.00  0.00     0.087 C 
HETATM   20  C9  UNL     1       5.707 -12.029   0.242  1.00  0.00     0.265 C 
HETATM   21  F1  UNL     1       6.207 -13.064   1.041  1.00  0.00    -0.204 F 
HETATM   22  F2  UNL     1       5.822 -12.490  -1.071  1.00  0.00    -0.204 F 
HETATM   23  C10 UNL     1       4.267 -11.764   0.529  1.00  0.00     0.250 C 
HETATM   24  S1  UNL     1       3.075  -8.202   0.132  1.00  0.00     0.343 S 
HETATM   25  O3  UNL     1       3.448  -6.863  -0.489  1.00  0.00    -0.180 OA
HETATM   26  O4  UNL     1       1.872  -8.748  -0.525  1.00  0.00    -0.180 OA
ENDBRANCH  12  13
ENDBRANCH   3  12
BRANCH  10  27
HETATM   27  C16 UNL     1      -1.203  -9.611   7.086  1.00  0.00     0.060 C 
BRANCH  27  28
HETATM   28  C17 UNL     1      -1.001  -9.650   8.605  1.00  0.00     0.121 C 
BRANCH  28  29
HETATM   29  N3  UNL     1      -2.202  -9.921   9.327  1.00  0.00    -0.409 N 
HETATM   30  C18 UNL     1      -2.797 -11.193   9.170  1.00  0.00     0.144 C 
HETATM   31  C19 UNL     1      -2.393 -12.190  10.238  1.00  0.00     0.251 C 
HETATM   32  N4  UNL     1      -2.595 -11.609  11.554  1.00  0.00    -0.072 N 
HETATM   33  C20 UNL     1      -1.669 -10.494  11.664  1.00  0.00     0.251 C 
ATOM     34  H42 UNL     1      -3.564 -11.347  11.734  1.00  0.00     0.277 HD
ATOM     35  H41 UNL     1      -2.502 -12.286  12.311  1.00  0.00     0.277 HD
HETATM   36  C21 UNL     1      -2.111  -9.443  10.667  1.00  0.00     0.144 C 
ENDBRANCH  28  29
ENDBRANCH  27  28
ENDBRANCH  10  27
TORSDOF 5
ENDMDL
MODEL 2
REMARK VINA RESULT: -7.981104015      5.010      9.462
REMARK  5 active torsions:
REMARK  status: ('A' for Active; 'I' for Inactive)
REMARK    1  A    between atoms: C3_3  and  C4_4 
REMARK    2  A    between atoms: C4_4  and  N1_5 
REMARK    3  A    between atoms: C15_25  and  C16_26 
REMARK    4  A    between atoms: C16_26  and  C17_27 
REMARK    5  A    between atoms: C17_27  and  N3_28 
ROOT
HETATM    1  C1  UNL     1       0.059  -9.648   5.304  1.00  0.00     0.049 C 
HETATM    2  C2  UNL     1      -0.268  -8.269   5.662  1.00  0.00    -0.041 A 
HETATM    3  C3  UNL     1      -1.005  -8.063   6.811  1.00  0.00    -0.037 A 
HETATM    4  C11 UNL     1      -1.281  -6.758   7.164  1.00  0.00     0.011 A 
HETATM    5  C12 UNL     1      -0.851  -5.687   6.423  1.00  0.00     0.031 A 
HETATM    6  C13 UNL     1      -0.119  -5.907   5.283  1.00  0.00     0.043 A 
HETATM    7  N2  UNL     1       0.442  -5.068   4.374  1.00  0.00    -0.365 N 
ATOM      8  H2  UNL     1       0.398  -4.050   4.391  1.00  0.00     0.165 HD
HETATM    9  C14 UNL     1       1.058  -5.809   3.460  1.00  0.00     0.096 A 
HETATM   10  C15 UNL     1       0.909  -7.181   3.758  1.00  0.00    -0.028 A 
HETATM   11  C22 UNL     1       0.169  -7.221   4.907  1.00  0.00     0.005 A 
ENDROOT
BRANCH   3  12
HETATM   12  C4  UNL     1      -1.490  -9.149   7.658  1.00  0.00     0.148 C 
BRANCH  12  13
HETATM   13  N1  UNL     1      -1.266  -8.808   9.046  1.00  0.00    -0.178 NA
HETATM   14  C5  UNL     1      -2.189  -9.512   9.923  1.00  0.00     0.179 C 
HETATM   15  C6  UNL     1      -1.574 -10.849  10.211  1.00  0.00     0.196 C 
HETATM   16  C7  UNL     1      -2.357 -11.441  11.391  1.00  0.00     0.077 C 
HETATM   17  O1  UNL     1      -1.751 -11.757   9.157  1.00  0.00    -0.347 OA
HETATM   18  O2  UNL     1      -0.262 -10.693  10.563  1.00  0.00    -0.223 OA
HETATM   19  C8  UNL     1      -1.607 -12.682  11.809  1.00  0.00     0.087 C 
HETATM   20  C9  UNL     1      -1.363 -13.620  10.654  1.00  0.00     0.265 C 
HETATM   21  F1  UNL     1      -2.423 -14.522  10.499  1.00  0.00    -0.204 F 
HETATM   22  F2  UNL     1      -0.263 -14.404  11.008  1.00  0.00    -0.204 F 
HETATM   23  C10 UNL     1      -1.054 -12.916   9.376  1.00  0.00     0.250 C 
HETATM   24  S1  UNL     1       0.236  -9.375   9.646  1.00  0.00     0.343 S 
HETATM   25  O3  UNL     1       0.847  -8.382  10.624  1.00  0.00    -0.180 OA
HETATM   26  O4  UNL     1       1.214  -9.722   8.598  1.00  0.00    -0.180 OA
ENDBRANCH  12  13
ENDBRANCH   3  12
BRANCH  10  27
HETATM   27  C16 UNL     1       1.418  -8.214   2.884  1.00  0.00     0.060 C 
BRANCH  27  28
HETATM   28  C17 UNL     1       2.939  -8.190   2.692  1.00  0.00     0.121 C 
BRANCH  28  29
HETATM   29  N3  UNL     1       3.368  -8.833   1.492  1.00  0.00    -0.409 N 
HETATM   30  C18 UNL     1       2.720  -8.485   0.287  1.00  0.00     0.144 C 
HETATM   31  C19 UNL     1       3.438  -7.406  -0.500  1.00  0.00     0.251 C 
HETATM   32  N4  UNL     1       4.833  -7.767  -0.671  1.00  0.00    -0.072 N 
HETATM   33  C20 UNL     1       5.428  -7.770   0.656  1.00  0.00     0.251 C 
ATOM     34  H42 UNL     1       4.964  -8.646  -1.172  1.00  0.00     0.277 HD
ATOM     35  H41 UNL     1       5.327  -7.168  -1.332  1.00  0.00     0.277 HD
HETATM   36  C21 UNL     1       4.790  -8.904   1.431  1.00  0.00     0.144 C 
ENDBRANCH  28  29
ENDBRANCH  27  28
ENDBRANCH  10  27
TORSDOF 5
ENDMDL
MODEL 3
REMARK VINA RESULT: -7.963015679      5.620      9.792
REMARK  5 active torsions:
REMARK  status: ('A' for Active; 'I' for Inactive)
REMARK    1  A    between atoms: C3_3  and  C4_4 
REMARK    2  A    between atoms: C4_4  and  N1_5 
REMARK    3  A    between atoms: C15_25  and  C16_26 
REMARK    4  A    between atoms: C16_26  and  C17_27 
REMARK    5  A    between atoms: C17_27  and  N3_28 
ROOT
HETATM    1  C1  UNL     1       0.360 -10.044   5.189  1.00  0.00     0.049 C 
HETATM    2  C2  UNL     1      -0.078  -8.757   5.728  1.00  0.00    -0.041 A 
HETATM    3  C3  UNL     1      -0.698  -8.757   6.961  1.00  0.00    -0.037 A 
HETATM    4  C11 UNL     1      -1.077  -7.537   7.482  1.00  0.00     0.011 A 
HETATM    5  C12 UNL     1      -0.858  -6.354   6.823  1.00  0.00     0.031 A 
HETATM    6  C13 UNL     1      -0.241  -6.370   5.596  1.00  0.00     0.043 A 
HETATM    7  N2  UNL     1       0.114  -5.384   4.733  1.00  0.00    -0.365 N 
ATOM      8  H2  UNL     1      -0.042  -4.385   4.866  1.00  0.00     0.165 HD
HETATM    9  C14 UNL     1       0.702  -5.950   3.686  1.00  0.00     0.096 A 
HETATM   10  C15 UNL     1       0.743  -7.352   3.845  1.00  0.00    -0.028 A 
HETATM   11  C22 UNL     1       0.148  -7.595   5.051  1.00  0.00     0.005 A 
ENDROOT
BRANCH   3  12
HETATM   12  C4  UNL     1      -0.957  -9.971   7.729  1.00  0.00     0.148 C 
BRANCH  12  13
HETATM   13  N1  UNL     1      -2.202  -9.822   8.452  1.00  0.00    -0.178 NA
HETATM   14  C5  UNL     1      -2.960 -11.064   8.470  1.00  0.00     0.179 C 
HETATM   15  C6  UNL     1      -2.447 -11.864   9.630  1.00  0.00     0.196 C 
HETATM   16  C7  UNL     1      -3.462 -12.993   9.860  1.00  0.00     0.077 C 
HETATM   17  O1  UNL     1      -1.236 -12.509   9.340  1.00  0.00    -0.347 OA
HETATM   18  O2  UNL     1      -2.375 -11.076  10.745  1.00  0.00    -0.223 OA
HETATM   19  C8  UNL     1      -3.054 -13.664  11.149  1.00  0.00     0.087 C 
HETATM   20  C9  UNL     1      -1.606 -14.083  11.143  1.00  0.00     0.265 C 
HETATM   21  F1  UNL     1      -1.452 -15.374  10.623  1.00  0.00    -0.204 F 
HETATM   22  F2  UNL     1      -1.218 -14.177  12.481  1.00  0.00    -0.204 F 
HETATM   23  C10 UNL     1      -0.711 -13.107  10.456  1.00  0.00     0.250 C 
HETATM   24  S1  UNL     1      -1.978  -9.563  10.132  1.00  0.00     0.343 S 
HETATM   25  O3  UNL     1      -3.016  -8.595  10.681  1.00  0.00    -0.180 OA
HETATM   26  O4  UNL     1      -0.622  -9.115  10.500  1.00  0.00    -0.180 OA
ENDBRANCH  12  13
ENDBRANCH   3  12
BRANCH  10  27
HETATM   27  C16 UNL     1       1.263  -8.224   2.815  1.00  0.00     0.060 C 
BRANCH  27  28
HETATM   28  C17 UNL     1       2.788  -8.188   2.662  1.00  0.00     0.121 C 
BRANCH  28  29
HETATM   29  N3  UNL     1       3.256  -8.869   1.499  1.00  0.00    -0.409 N 
HETATM   30  C18 UNL     1       2.628  -8.583   0.266  1.00  0.00     0.144 C 
HETATM   31  C19 UNL     1       3.341  -7.521  -0.548  1.00  0.00     0.251 C 
HETATM   32  N4  UNL     1       4.747  -7.860  -0.674  1.00  0.00    -0.072 N 
HETATM   33  C20 UNL     1       5.313  -7.797   0.665  1.00  0.00     0.251 C 
ATOM     34  H42 UNL     1       4.907  -8.754  -1.136  1.00  0.00     0.277 HD
ATOM     35  H41 UNL     1       5.244  -7.277  -1.348  1.00  0.00     0.277 HD
HETATM   36  C21 UNL     1       4.680  -8.913   1.471  1.00  0.00     0.144 C 
ENDBRANCH  28  29
ENDBRANCH  27  28
ENDBRANCH  10  27
TORSDOF 5
ENDMDL
MODEL 4
REMARK VINA RESULT: -7.776542718      1.195      1.424
REMARK  5 active torsions:
REMARK  status: ('A' for Active; 'I' for Inactive)
REMARK    1  A    between atoms: C3_3  and  C4_4 
REMARK    2  A    between atoms: C4_4  and  N1_5 
REMARK    3  A    between atoms: C15_25  and  C16_26 
REMARK    4  A    between atoms: C16_26  and  C17_27 
REMARK    5  A    between atoms: C17_27  and  N3_28 
ROOT
HETATM    1  C1  UNL     1       0.437 -10.199   4.839  1.00  0.00     0.049 C 
HETATM    2  C2  UNL     1       0.533  -8.757   4.617  1.00  0.00    -0.041 A 
HETATM    3  C3  UNL     1       1.325  -8.321   3.574  1.00  0.00    -0.037 A 
HETATM    4  C11 UNL     1       1.384  -6.962   3.345  1.00  0.00     0.011 A 
HETATM    5  C12 UNL     1       0.692  -6.056   4.107  1.00  0.00     0.031 A 
HETATM    6  C13 UNL     1      -0.092  -6.504   5.142  1.00  0.00     0.043 A 
HETATM    7  N2  UNL     1      -0.884  -5.863   6.039  1.00  0.00    -0.365 N 
ATOM      8  H2  UNL     1      -1.031  -4.856   6.098  1.00  0.00     0.165 HD
HETATM    9  C14 UNL     1      -1.435  -6.781   6.825  1.00  0.00     0.096 A 
HETATM   10  C15 UNL     1      -1.004  -8.072   6.450  1.00  0.00    -0.028 A 
HETATM   11  C22 UNL     1      -0.162  -7.877   5.391  1.00  0.00     0.005 A 
ENDROOT
BRANCH   3  12
HETATM   12  C4  UNL     1       2.084  -9.223   2.711  1.00  0.00     0.148 C 
BRANCH  12  13
HETATM   13  N1  UNL     1       2.277  -8.599   1.420  1.00  0.00    -0.178 NA
HETATM   14  C5  UNL     1       3.524  -7.850   1.372  1.00  0.00     0.179 C 
HETATM   15  C6  UNL     1       4.598  -8.828   0.997  1.00  0.00     0.196 C 
HETATM   16  C7  UNL     1       5.826  -7.993   0.607  1.00  0.00     0.077 C 
HETATM   17  O1  UNL     1       5.012  -9.609   2.086  1.00  0.00    -0.347 OA
HETATM   18  O2  UNL     1       4.194  -9.578  -0.073  1.00  0.00    -0.223 OA
HETATM   19  C8  UNL     1       6.828  -8.967   0.035  1.00  0.00     0.087 C 
HETATM   20  C9  UNL     1       7.096 -10.124   0.964  1.00  0.00     0.265 C 
HETATM   21  F1  UNL     1       8.141  -9.834   1.849  1.00  0.00    -0.204 F 
HETATM   22  F2  UNL     1       7.568 -11.167   0.166  1.00  0.00    -0.204 F 
HETATM   23  C10 UNL     1       5.880 -10.593   1.690  1.00  0.00     0.250 C 
HETATM   24  S1  UNL     1       2.537  -9.729   0.158  1.00  0.00     0.343 S 
HETATM   25  O3  UNL     1       1.883  -9.266  -1.136  1.00  0.00    -0.180 OA
HETATM   26  O4  UNL     1       2.109 -11.104   0.479  1.00  0.00    -0.180 OA
ENDBRANCH  12  13
ENDBRANCH   3  12
BRANCH  10  27
HETATM   27  C16 UNL     1      -1.392  -9.253   7.188  1.00  0.00     0.060 C 
BRANCH  27  28
HETATM   28  C17 UNL     1      -1.214  -9.140   8.707  1.00  0.00     0.121 C 
BRANCH  28  29
HETATM   29  N3  UNL     1      -2.357  -9.574   9.444  1.00  0.00    -0.409 N 
HETATM   30  C18 UNL     1      -2.933 -10.817   9.101  1.00  0.00     0.144 C 
HETATM   31  C19 UNL     1      -2.436 -11.972   9.948  1.00  0.00     0.251 C 
HETATM   32  N4  UNL     1      -2.560 -11.639  11.356  1.00  0.00    -0.072 N 
HETATM   33  C20 UNL     1      -1.653 -10.530  11.603  1.00  0.00     0.251 C 
ATOM     34  H42 UNL     1      -3.520 -11.446  11.641  1.00  0.00     0.277 HD
ATOM     35  H41 UNL     1      -2.401 -12.435  11.974  1.00  0.00     0.277 HD
HETATM   36  C21 UNL     1      -2.185  -9.336  10.839  1.00  0.00     0.144 C 
ENDBRANCH  28  29
ENDBRANCH  27  28
ENDBRANCH  10  27
TORSDOF 5
ENDMDL
MODEL 5
REMARK VINA RESULT: -7.775050759      0.784      1.033
REMARK  5 active torsions:
REMARK  status: ('A' for Active; 'I' for Inactive)
REMARK    1  A    between atoms: C3_3  and  C4_4 
REMARK    2  A    between atoms: C4_4  and  N1_5 
REMARK    3  A    between atoms: C15_25  and  C16_26 
REMARK    4  A    between atoms: C16_26  and  C17_27 
REMARK    5  A    between atoms: C17_27  and  N3_28 
ROOT
HETATM    1  C1  UNL     1       0.765 -10.453   4.097  1.00  0.00     0.049 C 
HETATM    2  C2  UNL     1       0.727  -8.992   4.128  1.00  0.00    -0.041 A 
HETATM    3  C3  UNL     1       1.413  -8.313   3.142  1.00  0.00    -0.037 A 
HETATM    4  C11 UNL     1       1.345  -6.935   3.153  1.00  0.00     0.011 A 
HETATM    5  C12 UNL     1       0.630  -6.240   4.095  1.00  0.00     0.031 A 
HETATM    6  C13 UNL     1      -0.047  -6.929   5.071  1.00  0.00     0.043 A 
HETATM    7  N2  UNL     1      -0.832  -6.528   6.103  1.00  0.00    -0.365 N 
ATOM      8  H2  UNL     1      -1.057  -5.563   6.347  1.00  0.00     0.165 HD
HETATM    9  C14 UNL     1      -1.254  -7.613   6.741  1.00  0.00     0.096 A 
HETATM   10  C15 UNL     1      -0.742  -8.775   6.125  1.00  0.00    -0.028 A 
HETATM   11  C22 UNL     1       0.012  -8.325   5.077  1.00  0.00     0.005 A 
ENDROOT
BRANCH   3  12
HETATM   12  C4  UNL     1       2.188  -8.979   2.099  1.00  0.00     0.148 C 
BRANCH  12  13
HETATM   13  N1  UNL     1       3.153  -8.050   1.553  1.00  0.00    -0.178 NA
HETATM   14  C5  UNL     1       4.515  -8.442   1.883  1.00  0.00     0.179 C 
HETATM   15  C6  UNL     1       4.948  -9.420   0.831  1.00  0.00     0.196 C 
HETATM   16  C7  UNL     1       6.470  -9.562   0.971  1.00  0.00     0.077 C 
HETATM   17  O1  UNL     1       4.434 -10.706   1.055  1.00  0.00    -0.347 OA
HETATM   18  O2  UNL     1       4.644  -8.935  -0.411  1.00  0.00    -0.223 OA
HETATM   19  C8  UNL     1       6.924 -10.379  -0.213  1.00  0.00     0.087 C 
HETATM   20  C9  UNL     1       6.159 -11.672  -0.343  1.00  0.00     0.265 C 
HETATM   21  F1  UNL     1       6.772 -12.701   0.382  1.00  0.00    -0.204 F 
HETATM   22  F2  UNL     1       6.260 -12.056  -1.682  1.00  0.00    -0.204 F 
HETATM   23  C10 UNL     1       4.715 -11.543   0.007  1.00  0.00     0.250 C 
HETATM   24  S1  UNL     1       3.222  -8.077  -0.159  1.00  0.00     0.343 S 
HETATM   25  O3  UNL     1       3.460  -6.682  -0.721  1.00  0.00    -0.180 OA
HETATM   26  O4  UNL     1       2.043  -8.688  -0.803  1.00  0.00    -0.180 OA
ENDBRANCH  12  13
ENDBRANCH   3  12
BRANCH  10  27
HETATM   27  C16 UNL     1      -0.985 -10.096   6.661  1.00  0.00     0.060 C 
BRANCH  27  28
HETATM   28  C17 UNL     1      -0.306 -10.369   8.009  1.00  0.00     0.121 C 
BRANCH  28  29
HETATM   29  N3  UNL     1      -1.123 -11.113   8.913  1.00  0.00    -0.409 N 
HETATM   30  C18 UNL     1      -0.566 -11.485  10.156  1.00  0.00     0.144 C 
HETATM   31  C19 UNL     1      -0.886 -10.518  11.280  1.00  0.00     0.251 C 
HETATM   32  N4  UNL     1      -2.317 -10.278  11.329  1.00  0.00    -0.072 N 
HETATM   33  C20 UNL     1      -2.669  -9.600  10.092  1.00  0.00     0.251 C 
ATOM     34  H42 UNL     1      -2.862 -11.125  11.493  1.00  0.00     0.277 HD
ATOM     35  H41 UNL     1      -2.612  -9.773  12.164  1.00  0.00     0.277 HD
HETATM   36  C21 UNL     1      -2.445 -10.582   8.962  1.00  0.00     0.144 C 
ENDBRANCH  28  29
ENDBRANCH  27  28
ENDBRANCH  10  27
TORSDOF 5
ENDMDL
