MODEL 1
REMARK VINA RESULT: -7.983663325      0.000      0.000
REMARK  3 active torsions:
REMARK  status: ('A' for Active; 'I' for Inactive)
REMARK    1  A    between atoms: N1_1  and  N2_4 
REMARK    2  A    between atoms: C3_10  and  C4_11 
REMARK    3  A    between atoms: C4_11  and  C5_12 
ROOT
HETATM    1  N2  UNL     1      -6.518  63.987   8.184  1.00  0.00    -0.138 N 
ATOM      2  H2  UNL     1      -6.293  63.142   8.710  1.00  0.00     0.205 HD
HETATM    3  C1  UNL     1      -5.992  65.102   8.561  1.00  0.00     0.699 C 
HETATM    4  N3  UNL     1      -5.191  64.966   9.642  1.00  0.00    -0.200 N 
ATOM      5  H3  UNL     1      -5.221  64.063  10.117  1.00  0.00     0.183 HD
HETATM    6  C2  UNL     1      -4.358  65.884  10.160  1.00  0.00     0.113 C 
HETATM    7  C3  UNL     1      -4.102  67.181   9.769  1.00  0.00    -0.031 C 
HETATM    8  C8  UNL     1      -4.688  67.808   8.690  1.00  0.00     0.083 C 
HETATM    9  C9  UNL     1      -5.645  67.350   7.791  1.00  0.00     0.260 C 
HETATM   10  O1  UNL     1      -5.941  68.079   6.809  1.00  0.00    -0.268 OA
HETATM   11  N6  UNL     1      -6.319  66.187   7.839  1.00  0.00    -0.155 N 
ATOM     12  H6  UNL     1      -7.163  66.122   7.269  1.00  0.00     0.187 HD
ENDROOT
BRANCH   7  13
HETATM   13  C4  UNL     1      -3.128  67.979  10.553  1.00  0.00     0.098 C 
BRANCH  13  14
HETATM   14  C5  UNL     1      -3.785  68.949  11.448  1.00  0.00     0.029 A 
HETATM   15  C6  UNL     1      -4.767  68.681  12.368  1.00  0.00     0.114 A 
HETATM   16  N4  UNL     1      -5.090  69.842  12.971  1.00  0.00    -0.360 N 
HETATM   17  C7  UNL     1      -4.335  70.799  12.446  1.00  0.00     0.180 A 
ATOM     18  H4  UNL     1      -5.791  69.964  13.702  1.00  0.00     0.166 HD
HETATM   19  N5  UNL     1      -3.525  70.262  11.504  1.00  0.00    -0.354 N 
ATOM     20  H5  UNL     1      -2.841  70.766  10.939  1.00  0.00     0.166 HD
ENDBRANCH  13  14
ENDBRANCH   7  13
BRANCH   1  21
HETATM   21  N1  UNL     1      -7.381  63.879   7.092  1.00  0.00    -0.331 N 
ATOM     22  H12 UNL     1      -6.993  64.073   6.168  1.00  0.00     0.177 HD
ATOM     23  H11 UNL     1      -8.363  63.620   7.180  1.00  0.00     0.177 HD
ENDBRANCH   1  21
TORSDOF 3
ENDMDL
MODEL 2
REMARK VINA RESULT: -7.346696359      0.844      1.081
REMARK  3 active torsions:
REMARK  status: ('A' for Active; 'I' for Inactive)
REMARK    1  A    between atoms: N1_1  and  N2_4 
REMARK    2  A    between atoms: C3_10  and  C4_11 
REMARK    3  A    between atoms: C4_11  and  C5_12 
ROOT
HETATM    1  N2  UNL     1      -6.639  64.098   8.136  1.00  0.00    -0.138 N 
ATOM      2  H2  UNL     1      -6.468  63.272   8.709  1.00  0.00     0.205 HD
HETATM    3  C1  UNL     1      -6.187  65.234   8.546  1.00  0.00     0.699 C 
HETATM    4  N3  UNL     1      -5.528  65.142   9.723  1.00  0.00    -0.200 N 
ATOM      5  H3  UNL     1      -5.602  64.252  10.215  1.00  0.00     0.183 HD
HETATM    6  C2  UNL     1      -4.786  66.092  10.317  1.00  0.00     0.113 C 
HETATM    7  C3  UNL     1      -4.506  67.383   9.926  1.00  0.00    -0.031 C 
HETATM    8  C8  UNL     1      -4.960  67.970   8.764  1.00  0.00     0.083 C 
HETATM    9  C9  UNL     1      -5.786  67.468   7.763  1.00  0.00     0.260 C 
HETATM   10  O1  UNL     1      -5.966  68.166   6.731  1.00  0.00    -0.268 OA
HETATM   11  N6  UNL     1      -6.439  66.292   7.757  1.00  0.00    -0.155 N 
ATOM     12  H6  UNL     1      -7.201  66.194   7.086  1.00  0.00     0.187 HD
ENDROOT
BRANCH   7  13
HETATM   13  C4  UNL     1      -3.655  68.223  10.805  1.00  0.00     0.098 C 
BRANCH  13  14
HETATM   14  C5  UNL     1      -4.408  68.800  11.934  1.00  0.00     0.029 A 
HETATM   15  C6  UNL     1      -3.942  69.704  12.854  1.00  0.00     0.114 A 
HETATM   16  N4  UNL     1      -4.947  69.967  13.713  1.00  0.00    -0.360 N 
HETATM   17  C7  UNL     1      -6.001  69.254  13.340  1.00  0.00     0.180 A 
ATOM     18  H4  UNL     1      -4.903  70.603  14.510  1.00  0.00     0.166 HD
HETATM   19  N5  UNL     1      -5.683  68.528  12.242  1.00  0.00    -0.354 N 
ATOM     20  H5  UNL     1      -6.302  67.889  11.742  1.00  0.00     0.166 HD
ENDBRANCH  13  14
ENDBRANCH   7  13
BRANCH   1  21
HETATM   21  N1  UNL     1      -7.352  63.943   6.946  1.00  0.00    -0.331 N 
ATOM     22  H12 UNL     1      -7.893  64.743   6.617  1.00  0.00     0.177 HD
ATOM     23  H11 UNL     1      -7.354  63.079   6.405  1.00  0.00     0.177 HD
ENDBRANCH   1  21
TORSDOF 3
ENDMDL
MODEL 3
REMARK VINA RESULT: -7.240909029      1.830      2.584
REMARK  3 active torsions:
REMARK  status: ('A' for Active; 'I' for Inactive)
REMARK    1  A    between atoms: N1_1  and  N2_4 
REMARK    2  A    between atoms: C3_10  and  C4_11 
REMARK    3  A    between atoms: C4_11  and  C5_12 
ROOT
HETATM    1  N2  UNL     1      -6.644  68.083   6.054  1.00  0.00    -0.138 N 
ATOM      2  H2  UNL     1      -6.389  69.054   5.879  1.00  0.00     0.205 HD
HETATM    3  C1  UNL     1      -6.279  67.542   7.166  1.00  0.00     0.699 C 
HETATM    4  N3  UNL     1      -5.584  68.390   7.958  1.00  0.00    -0.200 N 
ATOM      5  H3  UNL     1      -5.297  69.272   7.533  1.00  0.00     0.183 HD
HETATM    6  C2  UNL     1      -5.229  68.202   9.239  1.00  0.00     0.113 C 
HETATM    7  C3  UNL     1      -5.446  67.131  10.079  1.00  0.00    -0.031 C 
HETATM    8  C8  UNL     1      -6.126  65.983   9.732  1.00  0.00     0.083 C 
HETATM    9  C9  UNL     1      -6.707  65.609   8.525  1.00  0.00     0.260 C 
HETATM   10  O1  UNL     1      -7.380  64.547   8.489  1.00  0.00    -0.268 OA
HETATM   11  N6  UNL     1      -6.639  66.261   7.350  1.00  0.00    -0.155 N 
ATOM     12  H6  UNL     1      -6.885  65.729   6.516  1.00  0.00     0.187 HD
ENDROOT
BRANCH   7  13
HETATM   13  C4  UNL     1      -4.916  67.196  11.464  1.00  0.00     0.098 C 
BRANCH  13  14
HETATM   14  C5  UNL     1      -4.726  68.582  11.930  1.00  0.00     0.029 A 
HETATM   15  C6  UNL     1      -5.542  69.279  12.784  1.00  0.00     0.114 A 
HETATM   16  N4  UNL     1      -5.010  70.506  12.947  1.00  0.00    -0.360 N 
HETATM   17  C7  UNL     1      -3.900  70.570  12.222  1.00  0.00     0.180 A 
ATOM     18  H4  UNL     1      -5.392  71.254  13.526  1.00  0.00     0.166 HD
HETATM   19  N5  UNL     1      -3.713  69.389  11.588  1.00  0.00    -0.354 N 
ATOM     20  H5  UNL     1      -2.941  69.156  10.963  1.00  0.00     0.166 HD
ENDBRANCH  13  14
ENDBRANCH   7  13
BRANCH   1  21
HETATM   21  N1  UNL     1      -7.373  67.402   5.077  1.00  0.00    -0.331 N 
ATOM     22  H12 UNL     1      -8.170  67.888   4.663  1.00  0.00     0.177 HD
ATOM     23  H11 UNL     1      -7.145  66.458   4.767  1.00  0.00     0.177 HD
ENDBRANCH   1  21
TORSDOF 3
ENDMDL
MODEL 4
REMARK VINA RESULT: -6.849035206      2.015      5.971
REMARK  3 active torsions:
REMARK  status: ('A' for Active; 'I' for Inactive)
REMARK    1  A    between atoms: N1_1  and  N2_4 
REMARK    2  A    between atoms: C3_10  and  C4_11 
REMARK    3  A    between atoms: C4_11  and  C5_12 
ROOT
HETATM    1  N2  UNL     1      -3.589  70.842  11.856  1.00  0.00    -0.138 N 
ATOM      2  H2  UNL     1      -2.785  71.164  11.318  1.00  0.00     0.205 HD
HETATM    3  C1  UNL     1      -4.074  69.676  11.598  1.00  0.00     0.699 C 
HETATM    4  N3  UNL     1      -3.407  69.037  10.610  1.00  0.00    -0.200 N 
ATOM      5  H3  UNL     1      -2.728  69.594  10.090  1.00  0.00     0.183 HD
HETATM    6  C2  UNL     1      -3.538  67.754  10.236  1.00  0.00     0.113 C 
HETATM    7  C3  UNL     1      -4.364  66.762  10.718  1.00  0.00    -0.031 C 
HETATM    8  C8  UNL     1      -5.261  66.918  11.754  1.00  0.00     0.083 C 
HETATM    9  C9  UNL     1      -5.574  68.040  12.515  1.00  0.00     0.260 C 
HETATM   10  O1  UNL     1      -6.354  67.901  13.493  1.00  0.00    -0.268 OA
HETATM   11  N6  UNL     1      -5.134  69.298  12.333  1.00  0.00    -0.155 N 
ATOM     12  H6  UNL     1      -5.657  70.039  12.799  1.00  0.00     0.187 HD
ENDROOT
BRANCH   7  13
HETATM   13  C4  UNL     1      -4.302  65.418  10.091  1.00  0.00     0.098 C 
BRANCH  13  14
HETATM   14  C5  UNL     1      -5.368  65.212   9.094  1.00  0.00     0.029 A 
HETATM   15  C6  UNL     1      -5.978  66.179   8.335  1.00  0.00     0.114 A 
HETATM   16  N4  UNL     1      -6.893  65.569   7.555  1.00  0.00    -0.360 N 
HETATM   17  C7  UNL     1      -6.853  64.269   7.819  1.00  0.00     0.180 A 
ATOM     18  H4  UNL     1      -7.507  66.026   6.882  1.00  0.00     0.166 HD
HETATM   19  N5  UNL     1      -5.917  64.034   8.768  1.00  0.00    -0.354 N 
ATOM     20  H5  UNL     1      -5.673  63.126   9.163  1.00  0.00     0.166 HD
ENDBRANCH  13  14
ENDBRANCH   7  13
BRANCH   1  21
HETATM   21  N1  UNL     1      -4.112  71.687  12.837  1.00  0.00    -0.331 N 
ATOM     22  H12 UNL     1      -4.607  72.522  12.521  1.00  0.00     0.177 HD
ATOM     23  H11 UNL     1      -4.020  71.506  13.836  1.00  0.00     0.177 HD
ENDBRANCH   1  21
TORSDOF 3
ENDMDL
MODEL 5
REMARK VINA RESULT: -6.731626966      2.138      5.735
REMARK  3 active torsions:
REMARK  status: ('A' for Active; 'I' for Inactive)
REMARK    1  A    between atoms: N1_1  and  N2_4 
REMARK    2  A    between atoms: C3_10  and  C4_11 
REMARK    3  A    between atoms: C4_11  and  C5_12 
ROOT
HETATM    1  N2  UNL     1      -6.679  68.555  14.227  1.00  0.00    -0.138 N 
ATOM      2  H2  UNL     1      -7.441  67.905  14.417  1.00  0.00     0.205 HD
HETATM    3  C1  UNL     1      -5.830  68.253  13.304  1.00  0.00     0.699 C 
HETATM    4  N3  UNL     1      -6.100  67.068  12.711  1.00  0.00    -0.200 N 
ATOM      5  H3  UNL     1      -6.817  66.493  13.154  1.00  0.00     0.183 HD
HETATM    6  C2  UNL     1      -5.529  66.562  11.605  1.00  0.00     0.113 C 
HETATM    7  C3  UNL     1      -4.535  67.073  10.798  1.00  0.00    -0.031 C 
HETATM    8  C8  UNL     1      -3.914  68.289  10.988  1.00  0.00     0.083 C 
HETATM    9  C9  UNL     1      -4.084  69.243  11.986  1.00  0.00     0.260 C 
HETATM   10  O1  UNL     1      -3.474  70.338  11.877  1.00  0.00    -0.268 OA
HETATM   11  N6  UNL     1      -4.845  69.141  13.091  1.00  0.00    -0.155 N 
ATOM     12  H6  UNL     1      -4.654  69.804  13.842  1.00  0.00     0.187 HD
ENDROOT
BRANCH   7  13
HETATM   13  C4  UNL     1      -4.086  66.272   9.632  1.00  0.00     0.098 C 
BRANCH  13  14
HETATM   14  C5  UNL     1      -5.212  65.672   8.893  1.00  0.00     0.029 A 
HETATM   15  C6  UNL     1      -6.085  66.324   8.060  1.00  0.00     0.114 A 
HETATM   16  N4  UNL     1      -6.960  65.412   7.591  1.00  0.00    -0.360 N 
HETATM   17  C7  UNL     1      -6.641  64.234   8.113  1.00  0.00     0.180 A 
ATOM     18  H4  UNL     1      -7.731  65.595   6.949  1.00  0.00     0.166 HD
HETATM   19  N5  UNL     1      -5.563  64.380   8.919  1.00  0.00    -0.354 N 
ATOM     20  H5  UNL     1      -5.103  63.640   9.450  1.00  0.00     0.166 HD
ENDBRANCH  13  14
ENDBRANCH   7  13
BRANCH   1  21
HETATM   21  N1  UNL     1      -6.607  69.730  14.977  1.00  0.00    -0.331 N 
ATOM     22  H12 UNL     1      -7.170  70.521  14.665  1.00  0.00     0.177 HD
ATOM     23  H11 UNL     1      -6.024  69.825  15.809  1.00  0.00     0.177 HD
ENDBRANCH   1  21
TORSDOF 3
ENDMDL
