MODEL 1
REMARK VINA RESULT: -7.404717206      0.000      0.000
REMARK  2 active torsions:
REMARK  status: ('A' for Active; 'I' for Inactive)
REMARK    1  A    between atoms: C1_2  and  C2_4 
REMARK    2  A    between atoms: C3_7  and  C4_8 
ROOT
HETATM    1  C2  UNL     1      -3.878  68.884  11.233  1.00  0.00     0.188 A 
HETATM    2  N2  UNL     1      -4.901  68.095  10.826  1.00  0.00    -0.321 N 
ATOM      3  H2  UNL     1      -5.853  68.146  11.189  1.00  0.00     0.169 HD
HETATM    4  C3  UNL     1      -4.491  67.241   9.884  1.00  0.00     0.139 A 
HETATM    5  N5  UNL     1      -3.188  67.505   9.701  1.00  0.00    -0.283 N 
ATOM      6  H5  UNL     1      -2.576  67.023   9.044  1.00  0.00     0.188 HD
HETATM    7  N6  UNL     1      -2.820  68.491  10.510  1.00  0.00    -0.280 N 
ATOM      8  H6  UNL     1      -1.882  68.887  10.571  1.00  0.00     0.189 HD
ENDROOT
BRANCH   4   9
HETATM    9  C4  UNL     1      -5.269  66.219   9.177  1.00  0.00     0.093 A 
HETATM   10  C5  UNL     1      -5.129  64.877   9.460  1.00  0.00     0.113 A 
HETATM   11  N3  UNL     1      -5.848  63.950   8.806  1.00  0.00    -0.318 N 
HETATM   12  C6  UNL     1      -6.727  64.301   7.853  1.00  0.00     0.327 A 
ATOM     13  H3  UNL     1      -5.724  62.964   9.036  1.00  0.00     0.170 HD
HETATM   14  O2  UNL     1      -7.399  63.403   7.244  1.00  0.00    -0.247 OA
HETATM   15  N4  UNL     1      -6.894  65.597   7.545  1.00  0.00    -0.275 N 
HETATM   16  C7  UNL     1      -6.179  66.543   8.194  1.00  0.00     0.264 A 
ATOM     17  H4  UNL     1      -7.561  65.868   6.822  1.00  0.00     0.173 HD
HETATM   18  O3  UNL     1      -6.330  67.758   7.912  1.00  0.00    -0.267 OA
ENDBRANCH   4   9
BRANCH   1  19
HETATM   19  C1  UNL     1      -3.899  69.936  12.233  1.00  0.00     0.300 C 
HETATM   20  N1  UNL     1      -4.300  69.695  13.576  1.00  0.00    -0.054 NA
HETATM   21  O1  UNL     1      -3.552  71.098  11.906  1.00  0.00    -0.268 OA
ENDBRANCH   1  19
TORSDOF 2
ENDMDL
MODEL 2
REMARK VINA RESULT: -7.129222251      1.012      1.018
REMARK  2 active torsions:
REMARK  status: ('A' for Active; 'I' for Inactive)
REMARK    1  A    between atoms: C1_2  and  C2_4 
REMARK    2  A    between atoms: C3_7  and  C4_8 
ROOT
HETATM    1  C2  UNL     1      -4.885  69.074  11.865  1.00  0.00     0.188 A 
HETATM    2  N2  UNL     1      -5.506  67.927  11.497  1.00  0.00    -0.321 N 
ATOM      3  H2  UNL     1      -6.142  67.395  12.091  1.00  0.00     0.169 HD
HETATM    4  C3  UNL     1      -5.169  67.590  10.249  1.00  0.00     0.139 A 
HETATM    5  N5  UNL     1      -4.324  68.545   9.833  1.00  0.00    -0.283 N 
ATOM      6  H5  UNL     1      -3.881  68.581   8.915  1.00  0.00     0.188 HD
HETATM    7  N6  UNL     1      -4.154  69.436  10.802  1.00  0.00    -0.280 N 
ATOM      8  H6  UNL     1      -3.561  70.265  10.746  1.00  0.00     0.189 HD
ENDROOT
BRANCH   4   9
HETATM    9  C4  UNL     1      -5.609  66.430   9.466  1.00  0.00     0.093 A 
HETATM   10  C5  UNL     1      -5.278  65.142   9.830  1.00  0.00     0.113 A 
HETATM   11  N3  UNL     1      -5.687  64.088   9.106  1.00  0.00    -0.318 N 
HETATM   12  C6  UNL     1      -6.432  64.254   8.001  1.00  0.00     0.327 A 
ATOM     13  H3  UNL     1      -5.427  63.147   9.399  1.00  0.00     0.170 HD
HETATM   14  O2  UNL     1      -6.810  63.238   7.328  1.00  0.00    -0.247 OA
HETATM   15  N4  UNL     1      -6.778  65.492   7.610  1.00  0.00    -0.275 N 
HETATM   16  C7  UNL     1      -6.374  66.564   8.328  1.00  0.00     0.264 A 
ATOM     17  H4  UNL     1      -7.343  65.623   6.772  1.00  0.00     0.173 HD
HETATM   18  O3  UNL     1      -6.693  67.725   7.969  1.00  0.00    -0.267 OA
ENDBRANCH   4   9
BRANCH   1  19
HETATM   19  C1  UNL     1      -4.979  69.778  13.131  1.00  0.00     0.300 C 
HETATM   20  N1  UNL     1      -5.123  69.093  14.369  1.00  0.00    -0.054 NA
HETATM   21  O1  UNL     1      -4.930  71.032  13.138  1.00  0.00    -0.268 OA
ENDBRANCH   1  19
TORSDOF 2
ENDMDL
MODEL 3
REMARK VINA RESULT: -6.743173264      2.080      6.100
REMARK  2 active torsions:
REMARK  status: ('A' for Active; 'I' for Inactive)
REMARK    1  A    between atoms: C1_2  and  C2_4 
REMARK    2  A    between atoms: C3_7  and  C4_8 
ROOT
HETATM    1  C2  UNL     1      -5.224  67.837   8.809  1.00  0.00     0.188 A 
HETATM    2  N2  UNL     1      -5.718  68.027  10.056  1.00  0.00    -0.321 N 
ATOM      3  H2  UNL     1      -6.684  67.848  10.332  1.00  0.00     0.169 HD
HETATM    4  C3  UNL     1      -4.765  68.482  10.875  1.00  0.00     0.139 A 
HETATM    5  N5  UNL     1      -3.659  68.575  10.123  1.00  0.00    -0.283 N 
ATOM      6  H5  UNL     1      -2.748  68.894  10.452  1.00  0.00     0.188 HD
HETATM    7  N6  UNL     1      -3.933  68.188   8.883  1.00  0.00    -0.280 N 
ATOM      8  H6  UNL     1      -3.268  68.162   8.111  1.00  0.00     0.189 HD
ENDROOT
BRANCH   4   9
HETATM    9  C4  UNL     1      -4.869  68.818  12.299  1.00  0.00     0.093 A 
HETATM   10  C5  UNL     1      -5.588  68.036  13.178  1.00  0.00     0.113 A 
HETATM   11  N3  UNL     1      -5.675  68.354  14.479  1.00  0.00    -0.318 N 
HETATM   12  C6  UNL     1      -5.064  69.446  14.968  1.00  0.00     0.327 A 
ATOM     13  H3  UNL     1      -6.214  67.757  15.107  1.00  0.00     0.170 HD
HETATM   14  O2  UNL     1      -5.161  69.729  16.210  1.00  0.00    -0.247 OA
HETATM   15  N4  UNL     1      -4.353  70.236  14.147  1.00  0.00    -0.275 N 
HETATM   16  C7  UNL     1      -4.255  69.930  12.834  1.00  0.00     0.264 A 
ATOM     17  H4  UNL     1      -3.888  71.065  14.514  1.00  0.00     0.173 HD
HETATM   18  O3  UNL     1      -3.591  70.664  12.059  1.00  0.00    -0.267 OA
ENDBRANCH   4   9
BRANCH   1  19
HETATM   19  C1  UNL     1      -5.924  67.357   7.631  1.00  0.00     0.300 C 
HETATM   20  N1  UNL     1      -6.131  68.176   6.488  1.00  0.00    -0.054 NA
HETATM   21  O1  UNL     1      -6.361  66.180   7.617  1.00  0.00    -0.268 OA
ENDBRANCH   1  19
TORSDOF 2
ENDMDL
MODEL 4
REMARK VINA RESULT: -6.673455959      1.612      1.990
REMARK  2 active torsions:
REMARK  status: ('A' for Active; 'I' for Inactive)
REMARK    1  A    between atoms: C1_2  and  C2_4 
REMARK    2  A    between atoms: C3_7  and  C4_8 
ROOT
HETATM    1  C2  UNL     1      -4.731  69.146  11.936  1.00  0.00     0.188 A 
HETATM    2  N2  UNL     1      -5.497  68.127  11.480  1.00  0.00    -0.321 N 
ATOM      3  H2  UNL     1      -6.302  67.740  11.974  1.00  0.00     0.169 HD
HETATM    4  C3  UNL     1      -5.053  67.698  10.295  1.00  0.00     0.139 A 
HETATM    5  N5  UNL     1      -3.992  68.466  10.009  1.00  0.00    -0.283 N 
ATOM      6  H5  UNL     1      -3.422  68.393   9.167  1.00  0.00     0.188 HD
HETATM    7  N6  UNL     1      -3.798  69.336  10.993  1.00  0.00    -0.280 N 
ATOM      8  H6  UNL     1      -3.057  70.036  11.026  1.00  0.00     0.189 HD
ENDROOT
BRANCH   4   9
HETATM    9  C4  UNL     1      -5.587  66.620   9.456  1.00  0.00     0.093 A 
HETATM   10  C5  UNL     1      -6.350  66.882   8.337  1.00  0.00     0.113 A 
HETATM   11  N3  UNL     1      -6.832  65.887   7.577  1.00  0.00    -0.318 N 
HETATM   12  C6  UNL     1      -6.588  64.602   7.880  1.00  0.00     0.327 A 
ATOM     13  H3  UNL     1      -7.394  66.111   6.755  1.00  0.00     0.170 HD
HETATM   14  O2  UNL     1      -7.057  63.672   7.142  1.00  0.00    -0.247 OA
HETATM   15  N4  UNL     1      -5.849  64.301   8.961  1.00  0.00    -0.275 N 
HETATM   16  C7  UNL     1      -5.356  65.291   9.738  1.00  0.00     0.264 A 
ATOM     17  H4  UNL     1      -5.661  63.327   9.195  1.00  0.00     0.173 HD
HETATM   18  O3  UNL     1      -4.663  65.018  10.750  1.00  0.00    -0.267 OA
ENDBRANCH   4   9
BRANCH   1  19
HETATM   19  C1  UNL     1      -4.872  69.890  13.175  1.00  0.00     0.300 C 
HETATM   20  N1  UNL     1      -5.103  71.293  13.193  1.00  0.00    -0.054 NA
HETATM   21  O1  UNL     1      -4.788  69.278  14.268  1.00  0.00    -0.268 OA
ENDBRANCH   1  19
TORSDOF 2
ENDMDL
MODEL 5
REMARK VINA RESULT: -6.665010946      2.347      6.188
REMARK  2 active torsions:
REMARK  status: ('A' for Active; 'I' for Inactive)
REMARK    1  A    between atoms: C1_2  and  C2_4 
REMARK    2  A    between atoms: C3_7  and  C4_8 
ROOT
HETATM    1  C2  UNL     1      -5.050  67.838   8.817  1.00  0.00     0.188 A 
HETATM    2  N2  UNL     1      -5.503  68.161  10.052  1.00  0.00    -0.321 N 
ATOM      3  H2  UNL     1      -6.477  68.096  10.348  1.00  0.00     0.169 HD
HETATM    4  C3  UNL     1      -4.498  68.576  10.829  1.00  0.00     0.139 A 
HETATM    5  N5  UNL     1      -3.400  68.509  10.062  1.00  0.00    -0.283 N 
ATOM      6  H5  UNL     1      -2.457  68.760  10.360  1.00  0.00     0.188 HD
HETATM    7  N6  UNL     1      -3.730  68.066   8.855  1.00  0.00    -0.280 N 
ATOM      8  H6  UNL     1      -3.082  67.922   8.081  1.00  0.00     0.189 HD
ENDROOT
BRANCH   4   9
HETATM    9  C4  UNL     1      -4.546  69.018  12.226  1.00  0.00     0.093 A 
HETATM   10  C5  UNL     1      -3.879  70.146  12.654  1.00  0.00     0.113 A 
HETATM   11  N3  UNL     1      -3.931  70.541  13.936  1.00  0.00    -0.318 N 
HETATM   12  C6  UNL     1      -4.636  69.848  14.846  1.00  0.00     0.327 A 
ATOM     13  H3  UNL     1      -3.427  71.380  14.224  1.00  0.00     0.170 HD
HETATM   14  O2  UNL     1      -4.671  70.242  16.060  1.00  0.00    -0.247 OA
HETATM   15  N4  UNL     1      -5.301  68.743  14.473  1.00  0.00    -0.275 N 
HETATM   16  C7  UNL     1      -5.259  68.332  13.186  1.00  0.00     0.264 A 
ATOM     17  H4  UNL     1      -5.837  68.214  15.160  1.00  0.00     0.173 HD
HETATM   18  O3  UNL     1      -5.879  67.299  12.829  1.00  0.00    -0.267 OA
ENDBRANCH   4   9
BRANCH   1  19
HETATM   19  C1  UNL     1      -5.810  67.348   7.682  1.00  0.00     0.300 C 
HETATM   20  N1  UNL     1      -6.057  68.150   6.534  1.00  0.00    -0.054 NA
HETATM   21  O1  UNL     1      -6.267  66.179   7.711  1.00  0.00    -0.268 OA
ENDBRANCH   1  19
TORSDOF 2
ENDMDL
