MODEL 1
REMARK VINA RESULT: -7.260651531      0.000      0.000
REMARK  2 active torsions:
REMARK  status: ('A' for Active; 'I' for Inactive)
REMARK    1  A    between atoms: C2_5  and  C3_6 
REMARK    2  A    between atoms: N2_7  and  C4_9 
ROOT
HETATM    1  O1  UNL     1      -7.056  63.899   8.076  1.00  0.00    -0.245 OA
HETATM    2  C1  UNL     1      -6.700  65.093   8.201  1.00  0.00     0.339 A 
HETATM    3  N1  UNL     1      -6.318  65.580   9.384  1.00  0.00    -0.302 N 
ATOM      4  H1  UNL     1      -6.321  64.956  10.191  1.00  0.00     0.171 HD
HETATM    5  C2  UNL     1      -5.928  66.856   9.561  1.00  0.00     0.121 A 
HETATM    6  C9  UNL     1      -5.935  67.668   8.457  1.00  0.00     0.288 A 
HETATM    7  O3  UNL     1      -5.576  68.857   8.605  1.00  0.00    -0.264 OA
HETATM    8  N4  UNL     1      -6.320  67.182   7.263  1.00  0.00    -0.261 N 
ATOM      9  H4  UNL     1      -6.321  67.796   6.447  1.00  0.00     0.190 HD
HETATM   10  N5  UNL     1      -6.699  65.913   7.128  1.00  0.00    -0.248 N 
ATOM     11  H5  UNL     1      -6.987  65.560   6.215  1.00  0.00     0.192 HD
ENDROOT
BRANCH   5  12
HETATM   12  C3  UNL     1      -5.524  67.316  10.885  1.00  0.00     0.123 C 
HETATM   13  N2  UNL     1      -6.007  68.414  11.357  1.00  0.00    -0.359 N 
ATOM     14  H2  UNL     1      -6.670  68.975  10.823  1.00  0.00     0.165 HD
BRANCH  13  15
HETATM   15  C4  UNL     1      -5.579  68.810  12.646  1.00  0.00     0.101 A 
HETATM   16  C5  UNL     1      -6.111  68.197  13.751  1.00  0.00     0.036 A 
HETATM   17  C6  UNL     1      -5.665  68.615  15.009  1.00  0.00     0.020 A 
HETATM   18  C7  UNL     1      -4.720  69.614  15.083  1.00  0.00     0.091 A 
HETATM   19  N3  UNL     1      -4.219  70.195  13.968  1.00  0.00    -0.332 N 
HETATM   20  C8  UNL     1      -4.639  69.805  12.735  1.00  0.00     0.272 A 
ATOM     21  H3  UNL     1      -3.521  70.933  14.054  1.00  0.00     0.168 HD
HETATM   22  O2  UNL     1      -4.144  70.376  11.709  1.00  0.00    -0.266 OA
ENDBRANCH  13  15
ENDBRANCH   5  12
TORSDOF 2
ENDMDL
MODEL 2
REMARK VINA RESULT: -7.148515963      1.264      1.637
REMARK  2 active torsions:
REMARK  status: ('A' for Active; 'I' for Inactive)
REMARK    1  A    between atoms: C2_5  and  C3_6 
REMARK    2  A    between atoms: N2_7  and  C4_9 
ROOT
HETATM    1  O1  UNL     1      -6.394  63.681   8.441  1.00  0.00    -0.245 OA
HETATM    2  C1  UNL     1      -6.294  64.930   8.438  1.00  0.00     0.339 A 
HETATM    3  N1  UNL     1      -5.794  65.585   9.489  1.00  0.00    -0.302 N 
ATOM      4  H1  UNL     1      -5.493  65.046  10.300  1.00  0.00     0.171 HD
HETATM    5  C2  UNL     1      -5.670  66.925   9.527  1.00  0.00     0.121 A 
HETATM    6  C9  UNL     1      -6.084  67.620   8.420  1.00  0.00     0.288 A 
HETATM    7  O3  UNL     1      -5.975  68.866   8.440  1.00  0.00    -0.264 OA
HETATM    8  N4  UNL     1      -6.588  66.964   7.360  1.00  0.00    -0.261 N 
ATOM      9  H4  UNL     1      -6.893  67.492   6.541  1.00  0.00     0.190 HD
HETATM   10  N5  UNL     1      -6.695  65.637   7.360  1.00  0.00    -0.248 N 
ATOM     11  H5  UNL     1      -7.080  65.155   6.548  1.00  0.00     0.192 HD
ENDROOT
BRANCH   5  12
HETATM   12  C3  UNL     1      -5.114  67.570  10.711  1.00  0.00     0.123 C 
HETATM   13  N2  UNL     1      -5.877  68.274  11.474  1.00  0.00    -0.359 N 
ATOM     14  H2  UNL     1      -6.869  68.393  11.269  1.00  0.00     0.165 HD
BRANCH  13  15
HETATM   15  C4  UNL     1      -5.284  68.876  12.609  1.00  0.00     0.101 A 
HETATM   16  C5  UNL     1      -4.289  69.804  12.438  1.00  0.00     0.036 A 
HETATM   17  C6  UNL     1      -3.726  70.378  13.582  1.00  0.00     0.020 A 
HETATM   18  C7  UNL     1      -4.191  69.991  14.819  1.00  0.00     0.091 A 
HETATM   19  N3  UNL     1      -5.175  69.071  14.947  1.00  0.00    -0.332 N 
HETATM   20  C8  UNL     1      -5.737  68.500  13.848  1.00  0.00     0.272 A 
ATOM     21  H3  UNL     1      -5.498  68.803  15.876  1.00  0.00     0.168 HD
HETATM   22  O2  UNL     1      -6.661  67.637  14.008  1.00  0.00    -0.266 OA
ENDBRANCH  13  15
ENDBRANCH   5  12
TORSDOF 2
ENDMDL
MODEL 3
REMARK VINA RESULT: -7.036372558      1.814      2.533
REMARK  2 active torsions:
REMARK  status: ('A' for Active; 'I' for Inactive)
REMARK    1  A    between atoms: C2_5  and  C3_6 
REMARK    2  A    between atoms: N2_7  and  C4_9 
ROOT
HETATM    1  O1  UNL     1      -6.545  68.267   6.357  1.00  0.00    -0.245 OA
HETATM    2  C1  UNL     1      -6.339  67.616   7.407  1.00  0.00     0.339 A 
HETATM    3  N1  UNL     1      -5.930  68.221   8.525  1.00  0.00    -0.302 N 
ATOM      4  H1  UNL     1      -5.787  69.230   8.507  1.00  0.00     0.171 HD
HETATM    5  C2  UNL     1      -5.697  67.559   9.674  1.00  0.00     0.121 A 
HETATM    6  C9  UNL     1      -5.899  66.204   9.663  1.00  0.00     0.288 A 
HETATM    7  O3  UNL     1      -5.687  65.575  10.724  1.00  0.00    -0.264 OA
HETATM    8  N4  UNL     1      -6.311  65.590   8.539  1.00  0.00    -0.261 N 
ATOM      9  H4  UNL     1      -6.458  64.580   8.543  1.00  0.00     0.190 HD
HETATM   10  N5  UNL     1      -6.531  66.280   7.421  1.00  0.00    -0.248 N 
ATOM     11  H5  UNL     1      -6.842  65.799   6.578  1.00  0.00     0.192 HD
ENDROOT
BRANCH   5  12
HETATM   12  C3  UNL     1      -5.252  68.289  10.856  1.00  0.00     0.123 C 
HETATM   13  N2  UNL     1      -5.876  68.142  11.973  1.00  0.00    -0.359 N 
ATOM     14  H2  UNL     1      -6.683  67.522  12.053  1.00  0.00     0.165 HD
BRANCH  13  15
HETATM   15  C4  UNL     1      -5.400  68.874  13.085  1.00  0.00     0.101 A 
HETATM   16  C5  UNL     1      -4.677  70.021  12.879  1.00  0.00     0.036 A 
HETATM   17  C6  UNL     1      -4.221  70.718  14.002  1.00  0.00     0.020 A 
HETATM   18  C7  UNL     1      -4.516  70.229  15.255  1.00  0.00     0.091 A 
HETATM   19  N3  UNL     1      -5.233  69.093  15.418  1.00  0.00    -0.332 N 
HETATM   20  C8  UNL     1      -5.685  68.398  14.340  1.00  0.00     0.272 A 
ATOM     21  H3  UNL     1      -5.435  68.754  16.358  1.00  0.00     0.168 HD
HETATM   22  O2  UNL     1      -6.357  67.332  14.533  1.00  0.00    -0.266 OA
ENDBRANCH  13  15
ENDBRANCH   5  12
TORSDOF 2
ENDMDL
MODEL 4
REMARK VINA RESULT: -7.010421960      2.270      2.927
REMARK  2 active torsions:
REMARK  status: ('A' for Active; 'I' for Inactive)
REMARK    1  A    between atoms: C2_5  and  C3_6 
REMARK    2  A    between atoms: N2_7  and  C4_9 
ROOT
HETATM    1  O1  UNL     1      -6.377  68.313   7.467  1.00  0.00    -0.245 OA
HETATM    2  C1  UNL     1      -5.540  68.142   8.384  1.00  0.00     0.339 A 
HETATM    3  N1  UNL     1      -5.930  67.939   9.645  1.00  0.00    -0.302 N 
ATOM      4  H1  UNL     1      -6.929  67.924   9.849  1.00  0.00     0.171 HD
HETATM    5  C2  UNL     1      -5.064  67.751  10.659  1.00  0.00     0.121 A 
HETATM    6  C9  UNL     1      -3.729  67.777  10.350  1.00  0.00     0.288 A 
HETATM    7  O3  UNL     1      -2.912  67.605  11.282  1.00  0.00    -0.264 OA
HETATM    8  N4  UNL     1      -3.332  67.983   9.082  1.00  0.00    -0.261 N 
ATOM      9  H4  UNL     1      -2.336  68.000   8.863  1.00  0.00     0.190 HD
HETATM   10  N5  UNL     1      -4.220  68.164   8.105  1.00  0.00    -0.248 N 
ATOM     11  H5  UNL     1      -3.902  68.319   7.149  1.00  0.00     0.192 HD
ENDROOT
BRANCH   5  12
HETATM   12  C3  UNL     1      -5.565  67.534  12.012  1.00  0.00     0.123 C 
HETATM   13  N2  UNL     1      -5.299  68.389  12.938  1.00  0.00    -0.359 N 
ATOM     14  H2  UNL     1      -4.742  69.222  12.748  1.00  0.00     0.165 HD
BRANCH  13  15
HETATM   15  C4  UNL     1      -5.811  68.127  14.230  1.00  0.00     0.101 A 
HETATM   16  C5  UNL     1      -6.639  67.051  14.423  1.00  0.00     0.036 A 
HETATM   17  C6  UNL     1      -7.127  66.823  15.714  1.00  0.00     0.020 A 
HETATM   18  C7  UNL     1      -6.757  67.680  16.727  1.00  0.00     0.091 A 
HETATM   19  N3  UNL     1      -5.938  68.733  16.496  1.00  0.00    -0.332 N 
HETATM   20  C8  UNL     1      -5.453  68.973  15.249  1.00  0.00     0.272 A 
ATOM     21  H3  UNL     1      -5.682  69.351  17.266  1.00  0.00     0.168 HD
HETATM   22  O2  UNL     1      -4.684  69.974  15.072  1.00  0.00    -0.266 OA
ENDBRANCH  13  15
ENDBRANCH   5  12
TORSDOF 2
ENDMDL
MODEL 5
REMARK VINA RESULT: -6.869004655      1.918      2.767
REMARK  2 active torsions:
REMARK  status: ('A' for Active; 'I' for Inactive)
REMARK    1  A    between atoms: C2_5  and  C3_6 
REMARK    2  A    between atoms: N2_7  and  C4_9 
ROOT
HETATM    1  O1  UNL     1      -6.090  68.184   6.508  1.00  0.00    -0.245 OA
HETATM    2  C1  UNL     1      -6.018  67.738   7.676  1.00  0.00     0.339 A 
HETATM    3  N1  UNL     1      -5.370  68.407   8.632  1.00  0.00    -0.302 N 
ATOM      4  H1  UNL     1      -4.930  69.295   8.392  1.00  0.00     0.171 HD
HETATM    5  C2  UNL     1      -5.270  67.963   9.899  1.00  0.00     0.121 A 
HETATM    6  C9  UNL     1      -5.872  66.766  10.188  1.00  0.00     0.288 A 
HETATM    7  O3  UNL     1      -5.788  66.340  11.362  1.00  0.00    -0.264 OA
HETATM    8  N4  UNL     1      -6.526  66.089   9.228  1.00  0.00    -0.261 N 
ATOM      9  H4  UNL     1      -6.971  65.198   9.455  1.00  0.00     0.190 HD
HETATM   10  N5  UNL     1      -6.603  66.561   7.985  1.00  0.00    -0.248 N 
ATOM     11  H5  UNL     1      -7.103  66.035   7.269  1.00  0.00     0.192 HD
ENDROOT
BRANCH   5  12
HETATM   12  C3  UNL     1      -4.545  68.750  10.890  1.00  0.00     0.123 C 
HETATM   13  N2  UNL     1      -5.157  69.179  11.940  1.00  0.00    -0.359 N 
ATOM     14  H2  UNL     1      -6.145  68.981  12.097  1.00  0.00     0.165 HD
BRANCH  13  15
HETATM   15  C4  UNL     1      -4.403  69.937  12.867  1.00  0.00     0.101 A 
HETATM   16  C5  UNL     1      -3.577  70.932  12.412  1.00  0.00     0.036 A 
HETATM   17  C6  UNL     1      -2.847  71.660  13.357  1.00  0.00     0.020 A 
HETATM   18  C7  UNL     1      -2.989  71.350  14.691  1.00  0.00     0.091 A 
HETATM   19  N3  UNL     1      -3.815  70.359  15.101  1.00  0.00    -0.332 N 
HETATM   20  C8  UNL     1      -4.534  69.639  14.200  1.00  0.00     0.272 A 
ATOM     21  H3  UNL     1      -3.900  70.152  16.096  1.00  0.00     0.168 HD
HETATM   22  O2  UNL     1      -5.301  68.714  14.624  1.00  0.00    -0.266 OA
ENDBRANCH  13  15
ENDBRANCH   5  12
TORSDOF 2
ENDMDL
