MODEL 1
REMARK VINA RESULT: -6.442406746      0.000      0.000
REMARK  3 active torsions:
REMARK  status: ('A' for Active; 'I' for Inactive)
REMARK    1  A    between atoms: C4_11  and  C5_12 
REMARK    2  A    between atoms: C5_12  and  N4_13 
REMARK    3  A    between atoms: C5_12  and  C6_17 
ROOT
HETATM    1  C5  UNL     1      -3.508  66.068  10.333  1.00  0.00     0.292 C 
ENDROOT
BRANCH   1   2
HETATM    2  C4  UNL     1      -4.251  66.490   9.118  1.00  0.00     0.089 A 
HETATM    3  C1  UNL     1      -5.122  65.597   8.481  1.00  0.00     0.134 A 
HETATM    4  N1  UNL     1      -5.312  64.288   8.983  1.00  0.00    -0.082 NA
HETATM    5  N2  UNL     1      -5.796  65.963   7.380  1.00  0.00    -0.296 N 
HETATM    6  C2  UNL     1      -5.601  67.210   6.919  1.00  0.00     0.328 A 
ATOM      7  H2  UNL     1      -6.433  65.319   6.910  1.00  0.00     0.171 HD
HETATM    8  O1  UNL     1      -6.245  67.545   5.875  1.00  0.00    -0.247 OA
HETATM    9  N3  UNL     1      -4.771  68.099   7.506  1.00  0.00    -0.275 N 
HETATM   10  C3  UNL     1      -4.083  67.758   8.609  1.00  0.00     0.261 A 
ATOM     11  H3  UNL     1      -4.665  69.033   7.110  1.00  0.00     0.173 HD
HETATM   12  O2  UNL     1      -3.327  68.625   9.110  1.00  0.00    -0.267 OA
ENDBRANCH   1   2
BRANCH   1  13
HETATM   13  N4  UNL     1      -2.108  66.215  10.227  1.00  0.00    -0.064 N 
ATOM     14  H43 UNL     1      -1.641  65.319  10.369  1.00  0.00     0.275 HD
ATOM     15  H42 UNL     1      -1.838  66.398   9.261  1.00  0.00     0.275 HD
ATOM     16  H41 UNL     1      -1.718  66.924  10.849  1.00  0.00     0.275 HD
ENDBRANCH   1  13
BRANCH   1  17
HETATM   17  C6  UNL     1      -4.013  66.869  11.474  1.00  0.00     0.125 A 
HETATM   18  N5  UNL     1      -4.984  66.829  12.327  1.00  0.00    -0.296 N 
HETATM   19  C7  UNL     1      -4.652  68.008  13.027  1.00  0.00     0.327 A 
ATOM     20  H5  UNL     1      -5.745  66.161  12.452  1.00  0.00     0.172 HD
HETATM   21  O3  UNL     1      -5.113  68.636  13.982  1.00  0.00    -0.247 OA
HETATM   22  N6  UNL     1      -3.578  68.089  12.117  1.00  0.00    -0.296 N 
ATOM     23  H6  UNL     1      -2.808  68.743  11.972  1.00  0.00     0.172 HD
ENDBRANCH   1  17
TORSDOF 3
ENDMDL
MODEL 2
REMARK VINA RESULT: -6.311740542      1.300      2.074
REMARK  3 active torsions:
REMARK  status: ('A' for Active; 'I' for Inactive)
REMARK    1  A    between atoms: C4_11  and  C5_12 
REMARK    2  A    between atoms: C5_12  and  N4_13 
REMARK    3  A    between atoms: C5_12  and  C6_17 
ROOT
HETATM    1  C5  UNL     1      -3.410  66.135  10.259  1.00  0.00     0.292 C 
ENDROOT
BRANCH   1   2
HETATM    2  C4  UNL     1      -4.228  66.446   9.059  1.00  0.00     0.089 A 
HETATM    3  C1  UNL     1      -4.117  67.696   8.438  1.00  0.00     0.134 A 
HETATM    4  N1  UNL     1      -3.227  68.676   8.936  1.00  0.00    -0.082 NA
HETATM    5  N2  UNL     1      -4.853  67.993   7.356  1.00  0.00    -0.296 N 
HETATM    6  C2  UNL     1      -5.693  67.048   6.899  1.00  0.00     0.328 A 
ATOM      7  H2  UNL     1      -4.778  68.901   6.897  1.00  0.00     0.171 HD
HETATM    8  O1  UNL     1      -6.384  67.341   5.874  1.00  0.00    -0.247 OA
HETATM    9  N3  UNL     1      -5.826  65.832   7.470  1.00  0.00    -0.275 N 
HETATM   10  C3  UNL     1      -5.102  65.509   8.555  1.00  0.00     0.261 A 
ATOM     11  H3  UNL     1      -6.480  65.155   7.076  1.00  0.00     0.173 HD
HETATM   12  O2  UNL     1      -5.269  64.366   9.043  1.00  0.00    -0.267 OA
ENDBRANCH   1   2
BRANCH   1  13
HETATM   13  N4  UNL     1      -2.024  66.332  10.074  1.00  0.00    -0.064 N 
ATOM     14  H43 UNL     1      -1.851  66.929   9.266  1.00  0.00     0.275 HD
ATOM     15  H42 UNL     1      -1.645  66.926  10.811  1.00  0.00     0.275 HD
ATOM     16  H41 UNL     1      -1.489  65.467  10.002  1.00  0.00     0.275 HD
ENDBRANCH   1  13
BRANCH   1  17
HETATM   17  C6  UNL     1      -3.895  66.988  11.371  1.00  0.00     0.125 A 
HETATM   18  N5  UNL     1      -4.867  67.001  12.224  1.00  0.00    -0.296 N 
HETATM   19  C7  UNL     1      -4.506  68.195  12.883  1.00  0.00     0.327 A 
ATOM     20  H5  UNL     1      -5.643  66.356  12.372  1.00  0.00     0.172 HD
HETATM   21  O3  UNL     1      -4.951  68.868  13.815  1.00  0.00    -0.247 OA
HETATM   22  N6  UNL     1      -3.431  68.219  11.971  1.00  0.00    -0.296 N 
ATOM     23  H6  UNL     1      -2.645  68.848  11.804  1.00  0.00     0.172 HD
ENDBRANCH   1  17
TORSDOF 3
ENDMDL
MODEL 3
REMARK VINA RESULT: -6.294365390      1.848      2.527
REMARK  3 active torsions:
REMARK  status: ('A' for Active; 'I' for Inactive)
REMARK    1  A    between atoms: C4_11  and  C5_12 
REMARK    2  A    between atoms: C5_12  and  N4_13 
REMARK    3  A    between atoms: C5_12  and  C6_17 
ROOT
HETATM    1  C5  UNL     1      -3.420  67.596   9.634  1.00  0.00     0.292 C 
ENDROOT
BRANCH   1   2
HETATM    2  C4  UNL     1      -4.281  66.510   9.102  1.00  0.00     0.089 A 
HETATM    3  C1  UNL     1      -5.049  66.723   7.950  1.00  0.00     0.134 A 
HETATM    4  N1  UNL     1      -5.013  67.965   7.274  1.00  0.00    -0.082 NA
HETATM    5  N2  UNL     1      -5.836  65.752   7.460  1.00  0.00    -0.296 N 
HETATM    6  C2  UNL     1      -5.856  64.580   8.117  1.00  0.00     0.328 A 
ATOM      7  H2  UNL     1      -6.397  65.898   6.621  1.00  0.00     0.171 HD
HETATM    8  O1  UNL     1      -6.605  63.668   7.644  1.00  0.00    -0.247 OA
HETATM    9  N3  UNL     1      -5.130  64.337   9.230  1.00  0.00    -0.275 N 
HETATM   10  C3  UNL     1      -4.334  65.292   9.742  1.00  0.00     0.261 A 
ATOM     11  H3  UNL     1      -5.186  63.426   9.684  1.00  0.00     0.173 HD
HETATM   12  O2  UNL     1      -3.685  65.010  10.777  1.00  0.00    -0.267 OA
ENDBRANCH   1   2
BRANCH   1  13
HETATM   13  N4  UNL     1      -3.365  68.741   8.808  1.00  0.00    -0.064 N 
ATOM     14  H43 UNL     1      -3.676  68.516   7.863  1.00  0.00     0.275 HD
ATOM     15  H42 UNL     1      -4.089  69.409   9.073  1.00  0.00     0.275 HD
ATOM     16  H41 UNL     1      -2.451  69.193   8.787  1.00  0.00     0.275 HD
ENDBRANCH   1  13
BRANCH   1  17
HETATM   17  C6  UNL     1      -3.935  67.969  10.974  1.00  0.00     0.125 A 
HETATM   18  N5  UNL     1      -5.061  67.966  11.610  1.00  0.00    -0.296 N 
HETATM   19  C7  UNL     1      -4.578  68.497  12.825  1.00  0.00     0.327 A 
ATOM     20  H5  UNL     1      -5.996  67.675  11.325  1.00  0.00     0.172 HD
HETATM   21  O3  UNL     1      -5.057  68.790  13.922  1.00  0.00    -0.247 OA
HETATM   22  N6  UNL     1      -3.330  68.516  12.168  1.00  0.00    -0.296 N 
ATOM     23  H6  UNL     1      -2.386  68.801  12.429  1.00  0.00     0.172 HD
ENDBRANCH   1  17
TORSDOF 3
ENDMDL
MODEL 4
REMARK VINA RESULT: -6.208433431      1.551      2.276
REMARK  3 active torsions:
REMARK  status: ('A' for Active; 'I' for Inactive)
REMARK    1  A    between atoms: C4_11  and  C5_12 
REMARK    2  A    between atoms: C5_12  and  N4_13 
REMARK    3  A    between atoms: C5_12  and  C6_17 
ROOT
HETATM    1  C5  UNL     1      -3.456  67.759   9.535  1.00  0.00     0.292 C 
ENDROOT
BRANCH   1   2
HETATM    2  C4  UNL     1      -4.296  66.652   9.013  1.00  0.00     0.089 A 
HETATM    3  C1  UNL     1      -4.273  65.398   9.637  1.00  0.00     0.134 A 
HETATM    4  N1  UNL     1      -3.458  65.168  10.770  1.00  0.00    -0.082 NA
HETATM    5  N2  UNL     1      -5.023  64.387   9.173  1.00  0.00    -0.296 N 
HETATM    6  C2  UNL     1      -5.790  64.626   8.096  1.00  0.00     0.328 A 
ATOM      7  H2  UNL     1      -5.013  63.470   9.622  1.00  0.00     0.171 HD
HETATM    8  O1  UNL     1      -6.496  63.661   7.667  1.00  0.00    -0.247 OA
HETATM    9  N3  UNL     1      -5.840  65.821   7.469  1.00  0.00    -0.275 N 
HETATM   10  C3  UNL     1      -5.098  66.851   7.912  1.00  0.00     0.261 A 
ATOM     11  H3  UNL     1      -6.443  65.943   6.655  1.00  0.00     0.173 HD
HETATM   12  O2  UNL     1      -5.184  67.936   7.289  1.00  0.00    -0.267 OA
ENDBRANCH   1   2
BRANCH   1  13
HETATM   13  N4  UNL     1      -3.587  68.967   8.813  1.00  0.00    -0.064 N 
ATOM     14  H43 UNL     1      -4.430  68.953   8.241  1.00  0.00     0.275 HD
ATOM     15  H42 UNL     1      -3.817  69.736   9.441  1.00  0.00     0.275 HD
ATOM     16  H41 UNL     1      -2.772  69.200   8.245  1.00  0.00     0.275 HD
ENDBRANCH   1  13
BRANCH   1  17
HETATM   17  C6  UNL     1      -3.825  67.980  10.954  1.00  0.00     0.125 A 
HETATM   18  N5  UNL     1      -3.233  68.207  12.081  1.00  0.00    -0.296 N 
HETATM   19  C7  UNL     1      -4.395  68.275  12.879  1.00  0.00     0.327 A 
ATOM     20  H5  UNL     1      -2.246  68.304  12.317  1.00  0.00     0.172 HD
HETATM   21  O3  UNL     1      -4.647  68.464  14.070  1.00  0.00    -0.247 OA
HETATM   22  N6  UNL     1      -5.080  68.030  11.671  1.00  0.00    -0.296 N 
ATOM     23  H6  UNL     1      -6.061  67.930  11.410  1.00  0.00     0.172 HD
ENDBRANCH   1  17
TORSDOF 3
ENDMDL
MODEL 5
REMARK VINA RESULT: -6.094852982      1.867      5.380
REMARK  3 active torsions:
REMARK  status: ('A' for Active; 'I' for Inactive)
REMARK    1  A    between atoms: C4_11  and  C5_12 
REMARK    2  A    between atoms: C5_12  and  N4_13 
REMARK    3  A    between atoms: C5_12  and  C6_17 
ROOT
HETATM    1  C5  UNL     1      -2.806  68.074  10.433  1.00  0.00     0.292 C 
ENDROOT
BRANCH   1   2
HETATM    2  C4  UNL     1      -3.607  68.051  11.683  1.00  0.00     0.089 A 
HETATM    3  C1  UNL     1      -3.487  69.091  12.614  1.00  0.00     0.134 A 
HETATM    4  N1  UNL     1      -2.612  70.176  12.378  1.00  0.00    -0.082 NA
HETATM    5  N2  UNL     1      -4.201  69.080  13.750  1.00  0.00    -0.296 N 
HETATM    6  C2  UNL     1      -5.027  68.040  13.955  1.00  0.00     0.328 A 
ATOM      7  H2  UNL     1      -4.121  69.834  14.433  1.00  0.00     0.171 HD
HETATM    8  O1  UNL     1      -5.697  68.042  15.034  1.00  0.00    -0.247 OA
HETATM    9  N3  UNL     1      -5.169  67.020  13.081  1.00  0.00    -0.275 N 
HETATM   10  C3  UNL     1      -4.466  67.005  11.936  1.00  0.00     0.261 A 
ATOM     11  H3  UNL     1      -5.814  66.258  13.291  1.00  0.00     0.173 HD
HETATM   12  O2  UNL     1      -4.640  66.032  11.164  1.00  0.00    -0.267 OA
ENDBRANCH   1   2
BRANCH   1  13
HETATM   13  N4  UNL     1      -1.784  67.100  10.389  1.00  0.00    -0.064 N 
ATOM     14  H43 UNL     1      -1.400  66.942  11.320  1.00  0.00     0.275 HD
ATOM     15  H42 UNL     1      -2.176  66.177  10.206  1.00  0.00     0.275 HD
ATOM     16  H41 UNL     1      -1.039  67.311   9.725  1.00  0.00     0.275 HD
ENDBRANCH   1  13
BRANCH   1  17
HETATM   17  C6  UNL     1      -3.736  67.877   9.294  1.00  0.00     0.125 A 
HETATM   18  N5  UNL     1      -3.777  67.211   8.186  1.00  0.00    -0.296 N 
HETATM   19  C7  UNL     1      -5.051  67.648   7.766  1.00  0.00     0.327 A 
ATOM     20  H5  UNL     1      -3.105  66.576   7.755  1.00  0.00     0.172 HD
HETATM   21  O3  UNL     1      -5.786  67.450   6.797  1.00  0.00    -0.247 OA
HETATM   22  N6  UNL     1      -5.047  68.389   8.965  1.00  0.00    -0.296 N 
ATOM     23  H6  UNL     1      -5.703  69.028   9.417  1.00  0.00     0.172 HD
ENDBRANCH   1  17
TORSDOF 3
ENDMDL
