MODEL 1
REMARK VINA RESULT: -6.570111333      0.000      0.000
REMARK  4 active torsions:
REMARK  status: ('A' for Active; 'I' for Inactive)
REMARK    1  A    between atoms: C2_5  and  N3_6 
REMARK    2  A    between atoms: C6_17  and  N6_18 
REMARK    3  A    between atoms: N6_18  and  N7_20 
REMARK    4  A    between atoms: N7_20  and  C7_22 
ROOT
HETATM    1  C1  UNL     1      -2.926  67.670   8.841  1.00  0.00     0.179 C 
HETATM    2  N1  UNL     1      -3.272  68.013  10.220  1.00  0.00    -0.277 N 
HETATM    3  N2  UNL     1      -2.784  69.103  10.768  1.00  0.00    -0.281 N 
ATOM      4  H2  UNL     1      -2.166  69.692  10.209  1.00  0.00     0.189 HD
HETATM    5  C2  UNL     1      -3.063  69.488  12.052  1.00  0.00     0.132 A 
HETATM    6  C3  UNL     1      -3.888  68.731  12.845  1.00  0.00     0.110 A 
HETATM    7  C4  UNL     1      -4.365  68.822  14.139  1.00  0.00     0.276 A 
HETATM    8  O1  UNL     1      -4.107  69.734  14.962  1.00  0.00    -0.266 OA
HETATM    9  N4  UNL     1      -5.147  67.746  14.321  1.00  0.00    -0.265 N 
ATOM     10  H4  UNL     1      -5.648  67.524  15.181  1.00  0.00     0.190 HD
HETATM   11  N5  UNL     1      -5.170  67.013  13.216  1.00  0.00    -0.293 N 
ATOM     12  H5  UNL     1      -5.696  66.146  13.112  1.00  0.00     0.187 HD
HETATM   13  C5  UNL     1      -4.410  67.560  12.249  1.00  0.00     0.114 A 
HETATM   14  C6  UNL     1      -4.088  67.236  10.956  1.00  0.00     0.166 A 
ENDROOT
BRANCH  14  15
HETATM   15  N6  UNL     1      -4.534  66.200  10.394  1.00  0.00    -0.280 N 
ATOM     16  H6  UNL     1      -3.852  65.442  10.358  1.00  0.00     0.188 HD
BRANCH  15  17
HETATM   17  N7  UNL     1      -5.713  65.871   9.829  1.00  0.00    -0.276 N 
ATOM     18  H7  UNL     1      -6.581  66.155  10.284  1.00  0.00     0.189 HD
BRANCH  17  19
HETATM   19  C7  UNL     1      -5.772  65.141   8.618  1.00  0.00     0.368 C 
HETATM   20  O2  UNL     1      -5.416  63.937   8.632  1.00  0.00    -0.282 OA
ENDBRANCH  17  19
ENDBRANCH  15  17
ENDBRANCH  14  15
BRANCH   5  21
HETATM   21  N3  UNL     1      -2.547  70.566  12.516  1.00  0.00    -0.384 N 
ATOM     22  H32 UNL     1      -1.561  70.584  12.777  1.00  0.00     0.157 HD
ATOM     23  H31 UNL     1      -3.129  71.398  12.622  1.00  0.00     0.157 HD
ENDBRANCH   5  21
TORSDOF 4
ENDMDL
MODEL 2
REMARK VINA RESULT: -6.235130313      1.883      3.138
REMARK  4 active torsions:
REMARK  status: ('A' for Active; 'I' for Inactive)
REMARK    1  A    between atoms: C2_5  and  N3_6 
REMARK    2  A    between atoms: C6_17  and  N6_18 
REMARK    3  A    between atoms: N6_18  and  N7_20 
REMARK    4  A    between atoms: N7_20  and  C7_22 
ROOT
HETATM    1  C1  UNL     1      -4.523  66.139  11.134  1.00  0.00     0.179 C 
HETATM    2  N1  UNL     1      -4.207  67.396  11.812  1.00  0.00    -0.277 N 
HETATM    3  N2  UNL     1      -4.685  67.632  13.013  1.00  0.00    -0.281 N 
ATOM      4  H2  UNL     1      -5.273  66.922  13.450  1.00  0.00     0.189 HD
HETATM    5  C2  UNL     1      -4.433  68.786  13.708  1.00  0.00     0.132 A 
HETATM    6  C3  UNL     1      -3.648  69.771  13.165  1.00  0.00     0.110 A 
HETATM    7  C4  UNL     1      -3.205  71.015  13.575  1.00  0.00     0.276 A 
HETATM    8  O1  UNL     1      -3.465  71.570  14.671  1.00  0.00    -0.266 OA
HETATM    9  N4  UNL     1      -2.454  71.489  12.568  1.00  0.00    -0.265 N 
ATOM     10  H4  UNL     1      -1.982  72.393  12.565  1.00  0.00     0.190 HD
HETATM   11  N5  UNL     1      -2.418  70.608  11.578  1.00  0.00    -0.293 N 
ATOM     12  H5  UNL     1      -1.909  70.745  10.705  1.00  0.00     0.187 HD
HETATM   13  C5  UNL     1      -3.138  69.510  11.873  1.00  0.00     0.114 A 
HETATM   14  C6  UNL     1      -3.431  68.332  11.235  1.00  0.00     0.166 A 
ENDROOT
BRANCH  14  15
HETATM   15  N6  UNL     1      -2.994  68.066  10.084  1.00  0.00    -0.280 N 
ATOM     16  H6  UNL     1      -2.184  67.445  10.099  1.00  0.00     0.188 HD
BRANCH  15  17
HETATM   17  N7  UNL     1      -3.360  68.419   8.835  1.00  0.00    -0.276 N 
ATOM     18  H7  UNL     1      -3.081  69.331   8.472  1.00  0.00     0.189 HD
BRANCH  17  19
HETATM   19  C7  UNL     1      -4.123  67.552   8.018  1.00  0.00     0.368 C 
HETATM   20  O2  UNL     1      -4.858  68.059   7.137  1.00  0.00    -0.282 OA
ENDBRANCH  17  19
ENDBRANCH  15  17
ENDBRANCH  14  15
BRANCH   5  21
HETATM   21  N3  UNL     1      -4.936  68.943  14.877  1.00  0.00    -0.384 N 
ATOM     22  H32 UNL     1      -4.710  68.281  15.619  1.00  0.00     0.157 HD
ATOM     23  H31 UNL     1      -5.559  69.731  15.054  1.00  0.00     0.157 HD
ENDBRANCH   5  21
TORSDOF 4
ENDMDL
MODEL 3
REMARK VINA RESULT: -6.148153242      2.077      3.156
REMARK  4 active torsions:
REMARK  status: ('A' for Active; 'I' for Inactive)
REMARK    1  A    between atoms: C2_5  and  N3_6 
REMARK    2  A    between atoms: C6_17  and  N6_18 
REMARK    3  A    between atoms: N6_18  and  N7_20 
REMARK    4  A    between atoms: N7_20  and  C7_22 
ROOT
HETATM    1  C1  UNL     1      -2.072  71.221  12.125  1.00  0.00     0.179 C 
HETATM    2  N1  UNL     1      -2.918  70.232  12.794  1.00  0.00    -0.277 N 
HETATM    3  N2  UNL     1      -3.187  70.357  14.075  1.00  0.00    -0.281 N 
ATOM      4  H2  UNL     1      -2.794  71.153  14.578  1.00  0.00     0.189 HD
HETATM    5  C2  UNL     1      -3.971  69.472  14.766  1.00  0.00     0.132 A 
HETATM    6  C3  UNL     1      -4.523  68.386  14.137  1.00  0.00     0.110 A 
HETATM    7  C4  UNL     1      -5.333  67.333  14.518  1.00  0.00     0.276 A 
HETATM    8  O1  UNL     1      -5.788  67.128  15.669  1.00  0.00    -0.266 OA
HETATM    9  N4  UNL     1      -5.523  66.595  13.412  1.00  0.00    -0.265 N 
ATOM     10  H4  UNL     1      -6.081  65.742  13.366  1.00  0.00     0.190 HD
HETATM   11  N5  UNL     1      -4.877  67.138  12.389  1.00  0.00    -0.293 N 
ATOM     12  H5  UNL     1      -4.872  66.757  11.444  1.00  0.00     0.187 HD
HETATM   13  C5  UNL     1      -4.229  68.258  12.759  1.00  0.00     0.114 A 
HETATM   14  C6  UNL     1      -3.437  69.184  12.129  1.00  0.00     0.166 A 
ENDROOT
BRANCH  14  15
HETATM   15  N6  UNL     1      -3.154  69.101  10.904  1.00  0.00    -0.280 N 
ATOM     16  H6  UNL     1      -3.508  69.888  10.360  1.00  0.00     0.188 HD
BRANCH  15  17
HETATM   17  N7  UNL     1      -2.486  68.202  10.153  1.00  0.00    -0.276 N 
ATOM     18  H7  UNL     1      -1.511  67.998  10.367  1.00  0.00     0.189 HD
BRANCH  17  19
HETATM   19  C7  UNL     1      -3.112  67.536   9.072  1.00  0.00     0.368 C 
HETATM   20  O2  UNL     1      -3.505  68.222   8.098  1.00  0.00    -0.282 OA
ENDBRANCH  17  19
ENDBRANCH  15  17
ENDBRANCH  14  15
BRANCH   5  21
HETATM   21  N3  UNL     1      -4.188  69.662  16.016  1.00  0.00    -0.384 N 
ATOM     22  H32 UNL     1      -3.436  69.511  16.689  1.00  0.00     0.157 HD
ATOM     23  H31 UNL     1      -5.112  69.961  16.326  1.00  0.00     0.157 HD
ENDBRANCH   5  21
TORSDOF 4
ENDMDL
MODEL 4
REMARK VINA RESULT: -6.104560529      1.743      4.393
REMARK  4 active torsions:
REMARK  status: ('A' for Active; 'I' for Inactive)
REMARK    1  A    between atoms: C2_5  and  N3_6 
REMARK    2  A    between atoms: C6_17  and  N6_18 
REMARK    3  A    between atoms: N6_18  and  N7_20 
REMARK    4  A    between atoms: N7_20  and  C7_22 
ROOT
HETATM    1  C1  UNL     1      -2.576  70.627  13.264  1.00  0.00     0.179 C 
HETATM    2  N1  UNL     1      -2.851  69.462  12.423  1.00  0.00    -0.277 N 
HETATM    3  N2  UNL     1      -2.090  69.210  11.381  1.00  0.00    -0.281 N 
ATOM      4  H2  UNL     1      -1.315  69.843  11.181  1.00  0.00     0.189 HD
HETATM    5  C2  UNL     1      -2.287  68.140  10.549  1.00  0.00     0.132 A 
HETATM    6  C3  UNL     1      -3.314  67.259  10.774  1.00  0.00     0.110 A 
HETATM    7  C4  UNL     1      -3.783  66.114  10.157  1.00  0.00     0.276 A 
HETATM    8  O1  UNL     1      -3.302  65.576   9.130  1.00  0.00    -0.266 OA
HETATM    9  N4  UNL     1      -4.841  65.713  10.880  1.00  0.00    -0.265 N 
ATOM     10  H4  UNL     1      -5.410  64.890  10.679  1.00  0.00     0.190 HD
HETATM   11  N5  UNL     1      -5.038  66.546  11.893  1.00  0.00    -0.293 N 
ATOM     12  H5  UNL     1      -5.784  66.447  12.581  1.00  0.00     0.187 HD
HETATM   13  C5  UNL     1      -4.128  67.537  11.897  1.00  0.00     0.114 A 
HETATM   14  C6  UNL     1      -3.872  68.628  12.687  1.00  0.00     0.166 A 
ENDROOT
BRANCH  14  15
HETATM   15  N6  UNL     1      -4.577  68.905  13.695  1.00  0.00    -0.280 N 
ATOM     16  H6  UNL     1      -5.190  69.706  13.542  1.00  0.00     0.188 HD
BRANCH  15  17
HETATM   17  N7  UNL     1      -4.699  68.378  14.930  1.00  0.00    -0.276 N 
ATOM     18  H7  UNL     1      -3.976  68.560  15.625  1.00  0.00     0.189 HD
BRANCH  17  19
HETATM   19  C7  UNL     1      -5.811  67.576  15.281  1.00  0.00     0.368 C 
HETATM   20  O2  UNL     1      -5.949  66.467  14.710  1.00  0.00    -0.282 OA
ENDBRANCH  17  19
ENDBRANCH  15  17
ENDBRANCH  14  15
BRANCH   5  21
HETATM   21  N3  UNL     1      -1.502  67.961   9.551  1.00  0.00    -0.384 N 
ATOM     22  H32 UNL     1      -1.267  68.747   8.945  1.00  0.00     0.157 HD
ATOM     23  H31 UNL     1      -1.119  67.032   9.372  1.00  0.00     0.157 HD
ENDBRANCH   5  21
TORSDOF 4
ENDMDL
MODEL 5
REMARK VINA RESULT: -6.050460645      2.247      3.686
REMARK  4 active torsions:
REMARK  status: ('A' for Active; 'I' for Inactive)
REMARK    1  A    between atoms: C2_5  and  N3_6 
REMARK    2  A    between atoms: C6_17  and  N6_18 
REMARK    3  A    between atoms: N6_18  and  N7_20 
REMARK    4  A    between atoms: N7_20  and  C7_22 
ROOT
HETATM    1  C1  UNL     1      -5.504  66.940  14.075  1.00  0.00     0.179 C 
HETATM    2  N1  UNL     1      -4.648  68.109  13.873  1.00  0.00    -0.277 N 
HETATM    3  N2  UNL     1      -4.315  68.864  14.896  1.00  0.00    -0.281 N 
ATOM      4  H2  UNL     1      -4.667  68.613  15.820  1.00  0.00     0.189 HD
HETATM    5  C2  UNL     1      -3.518  69.973  14.783  1.00  0.00     0.132 A 
HETATM    6  C3  UNL     1      -3.019  70.354  13.564  1.00  0.00     0.110 A 
HETATM    7  C4  UNL     1      -2.213  71.380  13.107  1.00  0.00     0.276 A 
HETATM    8  O1  UNL     1      -1.708  72.293  13.805  1.00  0.00    -0.266 OA
HETATM    9  N4  UNL     1      -2.092  71.191  11.783  1.00  0.00    -0.265 N 
ATOM     10  H4  UNL     1      -1.554  71.787  11.153  1.00  0.00     0.190 HD
HETATM   11  N5  UNL     1      -2.774  70.115  11.415  1.00  0.00    -0.293 N 
ATOM     12  H5  UNL     1      -2.832  69.770  10.458  1.00  0.00     0.187 HD
HETATM   13  C5  UNL     1      -3.381  69.537  12.468  1.00  0.00     0.114 A 
HETATM   14  C6  UNL     1      -4.182  68.440  12.654  1.00  0.00     0.166 A 
ENDROOT
BRANCH  14  15
HETATM   15  N6  UNL     1      -4.525  67.690  11.701  1.00  0.00    -0.280 N 
ATOM     16  H6  UNL     1      -4.324  66.706  11.878  1.00  0.00     0.188 HD
BRANCH  15  17
HETATM   17  N7  UNL     1      -5.099  67.902  10.499  1.00  0.00    -0.276 N 
ATOM     18  H7  UNL     1      -6.076  68.190  10.456  1.00  0.00     0.189 HD
BRANCH  17  19
HETATM   19  C7  UNL     1      -4.372  67.731   9.297  1.00  0.00     0.368 C 
HETATM   20  O2  UNL     1      -3.953  68.755   8.705  1.00  0.00    -0.282 OA
ENDBRANCH  17  19
ENDBRANCH  15  17
ENDBRANCH  14  15
BRANCH   5  21
HETATM   21  N3  UNL     1      -3.238  70.660  15.829  1.00  0.00    -0.384 N 
ATOM     22  H32 UNL     1      -3.972  70.878  16.503  1.00  0.00     0.157 HD
ATOM     23  H31 UNL     1      -2.282  70.983  15.978  1.00  0.00     0.157 HD
ENDBRANCH   5  21
TORSDOF 4
ENDMDL
