MODEL 1
REMARK VINA RESULT: -7.622921816      0.000      0.000
REMARK  5 active torsions:
REMARK  status: ('A' for Active; 'I' for Inactive)
REMARK    1  A    between atoms: N1_1  and  C1_4 
REMARK    2  A    between atoms: C3_11  and  N4_12 
REMARK    3  A    between atoms: N4_12  and  N5_14 
REMARK    4  A    between atoms: N6_16  and  C4_18 
REMARK    5  A    between atoms: N10_24  and  O2_25 
ROOT
HETATM    1  N4  UNL     1      -2.124  67.729   9.360  1.00  0.00    -0.116 N 
ATOM      2  H4  UNL     1      -1.248  67.650   8.843  1.00  0.00     0.207 HD
ENDROOT
BRANCH   1   3
HETATM    3  C3  UNL     1      -3.216  67.262   8.866  1.00  0.00     0.716 A 
HETATM    4  N3  UNL     1      -3.954  67.970   7.985  1.00  0.00    -0.139 N 
HETATM    5  C2  UNL     1      -5.099  67.470   7.472  1.00  0.00     0.352 A 
ATOM      6  H3  UNL     1      -3.641  68.899   7.703  1.00  0.00     0.189 HD
HETATM    7  N2  UNL     1      -5.499  66.245   7.855  1.00  0.00    -0.141 N 
HETATM    8  O1  UNL     1      -5.803  68.117   6.647  1.00  0.00    -0.246 OA
HETATM    9  C1  UNL     1      -4.791  65.497   8.736  1.00  0.00     0.694 A 
ATOM     10  H2  UNL     1      -6.363  65.865   7.469  1.00  0.00     0.189 HD
HETATM   11  N11 UNL     1      -3.654  66.055   9.212  1.00  0.00    -0.021 N 
ATOM     12  H11 UNL     1      -3.097  65.516   9.877  1.00  0.00     0.203 HD
BRANCH   9  13
HETATM   13  N1  UNL     1      -5.151  64.327   9.115  1.00  0.00    -0.234 N 
ATOM     14  H12 UNL     1      -6.026  64.192   9.622  1.00  0.00     0.174 HD
ATOM     15  H11 UNL     1      -4.601  63.486   8.938  1.00  0.00     0.174 HD
ENDBRANCH   9  13
ENDBRANCH   1   3
BRANCH   1  16
HETATM   16  N5  UNL     1      -2.151  68.343  10.608  1.00  0.00    -0.214 N 
HETATM   17  N6  UNL     1      -3.002  69.221  10.937  1.00  0.00    -0.113 N 
ATOM     18  H6  UNL     1      -3.724  69.523  10.283  1.00  0.00     0.207 HD
ATOM     19  H5  UNL     1      -1.448  68.072  11.294  1.00  0.00     0.209 HD
BRANCH  17  20
HETATM   20  C4  UNL     1      -2.921  69.773  12.245  1.00  0.00     0.753 A 
HETATM   21  N7  UNL     1      -3.371  69.279  13.408  1.00  0.00    -0.110 N 
HETATM   22  N8  UNL     1      -3.080  70.135  14.401  1.00  0.00     0.011 NA
ATOM     23  H7  UNL     1      -3.859  68.391  13.521  1.00  0.00     0.203 HD
HETATM   24  N9  UNL     1      -2.442  71.178  13.859  1.00  0.00    -0.184 N 
HETATM   25  N10 UNL     1      -2.345  70.966  12.571  1.00  0.00     0.032 N 
ATOM     26  H9  UNL     1      -2.094  71.994  14.361  1.00  0.00     0.209 HD
BRANCH  25  27
HETATM   27  O2  UNL     1      -1.743  71.831  11.670  1.00  0.00    -0.253 OA
ATOM     28  H2  UNL     1      -1.248  72.606  11.906  1.00  0.00     0.247 HD
ENDBRANCH  25  27
ENDBRANCH  17  20
ENDBRANCH   1  16
TORSDOF 5
ENDMDL
MODEL 2
REMARK VINA RESULT: -7.515139887      1.130      1.423
REMARK  5 active torsions:
REMARK  status: ('A' for Active; 'I' for Inactive)
REMARK    1  A    between atoms: N1_1  and  C1_4 
REMARK    2  A    between atoms: C3_11  and  N4_12 
REMARK    3  A    between atoms: N4_12  and  N5_14 
REMARK    4  A    between atoms: N6_16  and  C4_18 
REMARK    5  A    between atoms: N10_24  and  O2_25 
ROOT
HETATM    1  N4  UNL     1      -2.208  67.708   9.486  1.00  0.00    -0.116 N 
ATOM      2  H4  UNL     1      -1.304  67.596   9.027  1.00  0.00     0.207 HD
ENDROOT
BRANCH   1   3
HETATM    3  C3  UNL     1      -3.276  67.240   8.944  1.00  0.00     0.716 A 
HETATM    4  N3  UNL     1      -3.989  67.958   8.051  1.00  0.00    -0.139 N 
HETATM    5  C2  UNL     1      -5.109  67.457   7.487  1.00  0.00     0.352 A 
ATOM      6  H3  UNL     1      -3.676  68.896   7.798  1.00  0.00     0.189 HD
HETATM    7  N2  UNL     1      -5.509  66.221   7.830  1.00  0.00    -0.141 N 
HETATM    8  O1  UNL     1      -5.790  68.113   6.650  1.00  0.00    -0.246 OA
HETATM    9  C1  UNL     1      -4.825  65.462   8.722  1.00  0.00     0.694 A 
ATOM     10  H2  UNL     1      -6.355  65.840   7.406  1.00  0.00     0.189 HD
HETATM   11  N11 UNL     1      -3.712  66.022   9.249  1.00  0.00    -0.021 N 
ATOM     12  H11 UNL     1      -3.175  65.476   9.923  1.00  0.00     0.203 HD
BRANCH   9  13
HETATM   13  N1  UNL     1      -5.186  64.281   9.064  1.00  0.00    -0.234 N 
ATOM     14  H12 UNL     1      -5.419  64.070  10.034  1.00  0.00     0.174 HD
ATOM     15  H11 UNL     1      -5.260  63.505   8.406  1.00  0.00     0.174 HD
ENDBRANCH   9  13
ENDBRANCH   1   3
BRANCH   1  16
HETATM   16  N5  UNL     1      -2.299  68.370  10.706  1.00  0.00    -0.214 N 
HETATM   17  N6  UNL     1      -2.914  69.465  10.863  1.00  0.00    -0.113 N 
ATOM     18  H6  UNL     1      -3.382  69.922  10.080  1.00  0.00     0.207 HD
ATOM     19  H5  UNL     1      -1.847  67.950  11.518  1.00  0.00     0.209 HD
BRANCH  17  20
HETATM   20  C4  UNL     1      -2.934  70.041  12.164  1.00  0.00     0.753 A 
HETATM   21  N7  UNL     1      -2.514  71.248  12.568  1.00  0.00    -0.110 N 
HETATM   22  N8  UNL     1      -2.722  71.377  13.888  1.00  0.00     0.011 NA
ATOM     23  H7  UNL     1      -2.099  71.959  11.966  1.00  0.00     0.203 HD
HETATM   24  N9  UNL     1      -3.279  70.240  14.320  1.00  0.00    -0.184 N 
HETATM   25  N10 UNL     1      -3.408  69.439  13.293  1.00  0.00     0.032 N 
ATOM     26  H9  UNL     1      -3.554  70.035  15.281  1.00  0.00     0.209 HD
BRANCH  25  27
HETATM   27  O2  UNL     1      -3.947  68.162  13.348  1.00  0.00    -0.253 OA
ATOM     28  H2  UNL     1      -4.836  67.935  13.102  1.00  0.00     0.247 HD
ENDBRANCH  25  27
ENDBRANCH  17  20
ENDBRANCH   1  16
TORSDOF 5
ENDMDL
MODEL 3
REMARK VINA RESULT: -7.436177314      1.283      1.938
REMARK  5 active torsions:
REMARK  status: ('A' for Active; 'I' for Inactive)
REMARK    1  A    between atoms: N1_1  and  C1_4 
REMARK    2  A    between atoms: C3_11  and  N4_12 
REMARK    3  A    between atoms: N4_12  and  N5_14 
REMARK    4  A    between atoms: N6_16  and  C4_18 
REMARK    5  A    between atoms: N10_24  and  O2_25 
ROOT
HETATM    1  N4  UNL     1      -2.190  67.879   9.242  1.00  0.00    -0.116 N 
ATOM      2  H4  UNL     1      -1.371  67.949   8.638  1.00  0.00     0.207 HD
ENDROOT
BRANCH   1   3
HETATM    3  C3  UNL     1      -3.235  67.237   8.852  1.00  0.00     0.716 A 
HETATM    4  N3  UNL     1      -3.559  66.033   9.368  1.00  0.00    -0.139 N 
HETATM    5  C2  UNL     1      -4.659  65.368   8.952  1.00  0.00     0.352 A 
ATOM      6  H3  UNL     1      -2.964  65.619  10.085  1.00  0.00     0.189 HD
HETATM    7  N2  UNL     1      -5.434  65.928   8.006  1.00  0.00    -0.141 N 
HETATM    8  O1  UNL     1      -4.979  64.242   9.422  1.00  0.00    -0.246 OA
HETATM    9  C1  UNL     1      -5.148  67.134   7.459  1.00  0.00     0.694 A 
ATOM     10  H2  UNL     1      -6.264  65.427   7.690  1.00  0.00     0.189 HD
HETATM   11  N11 UNL     1      -4.034  67.748   7.920  1.00  0.00    -0.021 N 
ATOM     12  H11 UNL     1      -3.792  68.659   7.529  1.00  0.00     0.203 HD
BRANCH   9  13
HETATM   13  N1  UNL     1      -5.872  67.687   6.557  1.00  0.00    -0.234 N 
ATOM     14  H12 UNL     1      -5.560  68.541   6.093  1.00  0.00     0.174 HD
ATOM     15  H11 UNL     1      -6.775  67.319   6.260  1.00  0.00     0.174 HD
ENDBRANCH   9  13
ENDBRANCH   1   3
BRANCH   1  16
HETATM   16  N5  UNL     1      -2.190  68.475  10.499  1.00  0.00    -0.214 N 
HETATM   17  N6  UNL     1      -3.182  69.099  10.977  1.00  0.00    -0.113 N 
ATOM     18  H6  UNL     1      -4.049  69.193  10.447  1.00  0.00     0.207 HD
ATOM     19  H5  UNL     1      -1.345  68.407  11.065  1.00  0.00     0.209 HD
BRANCH  17  20
HETATM   20  C4  UNL     1      -3.054  69.665  12.276  1.00  0.00     0.753 A 
HETATM   21  N7  UNL     1      -3.508  69.209  13.453  1.00  0.00    -0.110 N 
HETATM   22  N8  UNL     1      -3.161  70.063  14.428  1.00  0.00     0.011 NA
ATOM     23  H7  UNL     1      -4.036  68.347  13.586  1.00  0.00     0.203 HD
HETATM   24  N9  UNL     1      -2.482  71.067  13.862  1.00  0.00    -0.184 N 
HETATM   25  N10 UNL     1      -2.416  70.833  12.575  1.00  0.00     0.032 N 
ATOM     26  H9  UNL     1      -2.087  71.872  14.346  1.00  0.00     0.209 HD
BRANCH  25  27
HETATM   27  O2  UNL     1      -1.788  71.656  11.652  1.00  0.00    -0.253 OA
ATOM     28  H2  UNL     1      -1.131  72.308  11.862  1.00  0.00     0.247 HD
ENDBRANCH  25  27
ENDBRANCH  17  20
ENDBRANCH   1  16
TORSDOF 5
ENDMDL
MODEL 4
REMARK VINA RESULT: -7.301494195      1.709      2.405
REMARK  5 active torsions:
REMARK  status: ('A' for Active; 'I' for Inactive)
REMARK    1  A    between atoms: N1_1  and  C1_4 
REMARK    2  A    between atoms: C3_11  and  N4_12 
REMARK    3  A    between atoms: N4_12  and  N5_14 
REMARK    4  A    between atoms: N6_16  and  C4_18 
REMARK    5  A    between atoms: N10_24  and  O2_25 
ROOT
HETATM    1  N4  UNL     1      -2.243  67.825   9.438  1.00  0.00    -0.116 N 
ATOM      2  H4  UNL     1      -1.378  67.863   8.899  1.00  0.00     0.207 HD
ENDROOT
BRANCH   1   3
HETATM    3  C3  UNL     1      -3.269  67.198   8.979  1.00  0.00     0.716 A 
HETATM    4  N3  UNL     1      -3.613  65.976   9.435  1.00  0.00    -0.139 N 
HETATM    5  C2  UNL     1      -4.693  65.327   8.947  1.00  0.00     0.352 A 
ATOM      6  H3  UNL     1      -3.048  65.534  10.161  1.00  0.00     0.189 HD
HETATM    7  N2  UNL     1      -5.427  65.921   7.990  1.00  0.00    -0.141 N 
HETATM    8  O1  UNL     1      -5.031  64.183   9.360  1.00  0.00    -0.246 OA
HETATM    9  C1  UNL     1      -5.119  67.147   7.501  1.00  0.00     0.694 A 
ATOM     10  H2  UNL     1      -6.242  65.433   7.619  1.00  0.00     0.189 HD
HETATM   11  N11 UNL     1      -4.027  67.743   8.033  1.00  0.00    -0.021 N 
ATOM     12  H11 UNL     1      -3.770  68.668   7.687  1.00  0.00     0.203 HD
BRANCH   9  13
HETATM   13  N1  UNL     1      -5.804  67.734   6.590  1.00  0.00    -0.234 N 
ATOM     14  H12 UNL     1      -6.598  67.264   6.155  1.00  0.00     0.174 HD
ATOM     15  H11 UNL     1      -5.602  68.676   6.257  1.00  0.00     0.174 HD
ENDBRANCH   9  13
ENDBRANCH   1   3
BRANCH   1  16
HETATM   16  N5  UNL     1      -2.328  68.449  10.678  1.00  0.00    -0.214 N 
HETATM   17  N6  UNL     1      -2.958  69.530  10.875  1.00  0.00    -0.113 N 
ATOM     18  H6  UNL     1      -3.444  70.002  10.111  1.00  0.00     0.207 HD
ATOM     19  H5  UNL     1      -1.858  68.014  11.470  1.00  0.00     0.209 HD
BRANCH  17  20
HETATM   20  C4  UNL     1      -2.969  70.067  12.191  1.00  0.00     0.753 A 
HETATM   21  N7  UNL     1      -2.555  71.267  12.626  1.00  0.00    -0.110 N 
HETATM   22  N8  UNL     1      -2.750  71.355  13.951  1.00  0.00     0.011 NA
ATOM     23  H7  UNL     1      -2.155  71.999  12.040  1.00  0.00     0.203 HD
HETATM   24  N9  UNL     1      -3.291  70.201  14.357  1.00  0.00    -0.184 N 
HETATM   25  N10 UNL     1      -3.423  69.428  13.308  1.00  0.00     0.032 N 
ATOM     26  H9  UNL     1      -3.553  69.965  15.313  1.00  0.00     0.209 HD
BRANCH  25  27
HETATM   27  O2  UNL     1      -3.949  68.145  13.332  1.00  0.00    -0.253 OA
ATOM     28  H2  UNL     1      -3.476  67.367  13.601  1.00  0.00     0.247 HD
ENDBRANCH  25  27
ENDBRANCH  17  20
ENDBRANCH   1  16
TORSDOF 5
ENDMDL
MODEL 5
REMARK VINA RESULT: -7.242560829      1.682      1.836
REMARK  5 active torsions:
REMARK  status: ('A' for Active; 'I' for Inactive)
REMARK    1  A    between atoms: N1_1  and  C1_4 
REMARK    2  A    between atoms: C3_11  and  N4_12 
REMARK    3  A    between atoms: N4_12  and  N5_14 
REMARK    4  A    between atoms: N6_16  and  C4_18 
REMARK    5  A    between atoms: N10_24  and  O2_25 
ROOT
HETATM    1  N4  UNL     1      -4.683  66.494  11.213  1.00  0.00    -0.116 N 
ATOM      2  H4  UNL     1      -4.565  65.709  11.853  1.00  0.00     0.207 HD
ENDROOT
BRANCH   1   3
HETATM    3  C3  UNL     1      -5.033  66.291   9.992  1.00  0.00     0.716 A 
HETATM    4  N3  UNL     1      -5.067  67.295   9.090  1.00  0.00    -0.139 N 
HETATM    5  C2  UNL     1      -5.435  67.071   7.810  1.00  0.00     0.352 A 
ATOM      6  H3  UNL     1      -4.810  68.238   9.381  1.00  0.00     0.189 HD
HETATM    7  N2  UNL     1      -5.771  65.823   7.442  1.00  0.00    -0.141 N 
HETATM    8  O1  UNL     1      -5.473  67.996   6.952  1.00  0.00    -0.246 OA
HETATM    9  C1  UNL     1      -5.752  64.783   8.312  1.00  0.00     0.694 A 
ATOM     10  H2  UNL     1      -6.050  65.651   6.476  1.00  0.00     0.189 HD
HETATM   11  N11 UNL     1      -5.373  65.074   9.578  1.00  0.00    -0.021 N 
ATOM     12  H11 UNL     1      -5.347  64.313  10.257  1.00  0.00     0.203 HD
BRANCH   9  13
HETATM   13  N1  UNL     1      -6.067  63.585   7.984  1.00  0.00    -0.234 N 
ATOM     14  H12 UNL     1      -6.324  63.361   7.023  1.00  0.00     0.174 HD
ATOM     15  H11 UNL     1      -6.079  62.809   8.645  1.00  0.00     0.174 HD
ENDBRANCH   9  13
ENDBRANCH   1   3
BRANCH   1  16
HETATM   16  N5  UNL     1      -4.467  67.796  11.650  1.00  0.00    -0.214 N 
HETATM   17  N6  UNL     1      -4.259  68.103  12.860  1.00  0.00    -0.113 N 
ATOM     18  H6  UNL     1      -4.240  67.387  13.588  1.00  0.00     0.207 HD
ATOM     19  H5  UNL     1      -4.477  68.545  10.958  1.00  0.00     0.209 HD
BRANCH  17  20
HETATM   20  C4  UNL     1      -4.052  69.474  13.178  1.00  0.00     0.753 A 
HETATM   21  N7  UNL     1      -4.559  70.201  14.184  1.00  0.00    -0.110 N 
HETATM   22  N8  UNL     1      -4.097  71.459  14.104  1.00  0.00     0.011 NA
ATOM     23  H7  UNL     1      -5.197  69.853  14.899  1.00  0.00     0.203 HD
HETATM   24  N9  UNL     1      -3.293  71.526  13.038  1.00  0.00    -0.184 N 
HETATM   25  N10 UNL     1      -3.263  70.341  12.481  1.00  0.00     0.032 N 
ATOM     26  H9  UNL     1      -2.792  72.354  12.715  1.00  0.00     0.209 HD
BRANCH  25  27
HETATM   27  O2  UNL     1      -2.534  70.018  11.347  1.00  0.00    -0.253 OA
ATOM     28  H2  UNL     1      -2.213  69.150  11.134  1.00  0.00     0.247 HD
ENDBRANCH  25  27
ENDBRANCH  17  20
ENDBRANCH   1  16
TORSDOF 5
ENDMDL
