MODEL 1
REMARK VINA RESULT: -5.981680792      0.000      0.000
REMARK  2 active torsions:
REMARK  status: ('A' for Active; 'I' for Inactive)
REMARK    1  A    between atoms: N3_7  and  N4_8 
REMARK    2  A    between atoms: N4_8  and  C3_10 
ROOT
HETATM    1  C1  UNL     1      -5.795  68.268  16.545  1.00  0.00     0.165 C 
HETATM    2  N1  UNL     1      -5.214  68.343  15.217  1.00  0.00    -0.268 N 
HETATM    3  C2  UNL     1      -5.440  67.274  14.310  1.00  0.00     0.345 C 
HETATM    4  O1  UNL     1      -5.982  66.275  14.863  1.00  0.00    -0.245 OA
HETATM    5  N2  UNL     1      -5.158  67.153  12.913  1.00  0.00    -0.228 N 
ATOM      6  H2  UNL     1      -5.378  66.262  12.468  1.00  0.00     0.194 HD
HETATM    7  N3  UNL     1      -4.605  68.157  12.104  1.00  0.00    -0.171 N 
HETATM    8  C4  UNL     1      -3.813  69.279  12.490  1.00  0.00     0.193 A 
HETATM    9  N5  UNL     1      -2.992  69.931  11.646  1.00  0.00    -0.171 N 
ATOM     10  H5  UNL     1      -2.836  69.717  10.661  1.00  0.00     0.186 HD
HETATM   11  C5  UNL     1      -2.416  70.921  12.354  1.00  0.00     0.678 A 
HETATM   12  N6  UNL     1      -1.560  71.751  11.844  1.00  0.00    -0.234 N 
ATOM     13  H61 UNL     1      -1.124  72.501  12.380  1.00  0.00     0.174 HD
ATOM     14  H62 UNL     1      -1.230  71.756  10.879  1.00  0.00     0.174 HD
HETATM   15  N7  UNL     1      -2.852  70.914  13.628  1.00  0.00    -0.183 N 
ATOM     16  H7  UNL     1      -2.576  71.556  14.371  1.00  0.00     0.184 HD
HETATM   17  C6  UNL     1      -3.722  69.897  13.725  1.00  0.00     0.165 A 
HETATM   18  C7  UNL     1      -4.453  69.508  14.939  1.00  0.00     0.282 C 
HETATM   19  O3  UNL     1      -4.392  70.349  15.887  1.00  0.00    -0.265 OA
ENDROOT
BRANCH   7  20
HETATM   20  N4  UNL     1      -4.865  68.043  10.735  1.00  0.00    -0.254 N 
ATOM     21  H4  UNL     1      -5.266  68.823  10.215  1.00  0.00     0.191 HD
BRANCH  20  22
HETATM   22  C3  UNL     1      -4.560  66.817  10.083  1.00  0.00     0.370 C 
HETATM   23  O2  UNL     1      -5.369  65.857  10.088  1.00  0.00    -0.282 OA
ENDBRANCH  20  22
ENDBRANCH   7  20
TORSDOF 2
ENDMDL
MODEL 2
REMARK VINA RESULT: -5.962632270      1.880      4.105
REMARK  2 active torsions:
REMARK  status: ('A' for Active; 'I' for Inactive)
REMARK    1  A    between atoms: N3_7  and  N4_8 
REMARK    2  A    between atoms: N4_8  and  C3_10 
ROOT
HETATM    1  C1  UNL     1      -1.717  71.854  14.437  1.00  0.00     0.165 C 
HETATM    2  N1  UNL     1      -2.453  70.842  13.703  1.00  0.00    -0.268 N 
HETATM    3  C2  UNL     1      -2.375  70.832  12.285  1.00  0.00     0.345 C 
HETATM    4  O1  UNL     1      -1.800  71.858  11.825  1.00  0.00    -0.245 OA
HETATM    5  N2  UNL     1      -2.829  69.873  11.327  1.00  0.00    -0.228 N 
ATOM      6  H2  UNL     1      -2.694  70.098  10.341  1.00  0.00     0.194 HD
HETATM    7  N3  UNL     1      -3.446  68.649  11.630  1.00  0.00    -0.171 N 
HETATM    8  C4  UNL     1      -4.149  68.272  12.812  1.00  0.00     0.193 A 
HETATM    9  N5  UNL     1      -5.047  67.270  12.852  1.00  0.00    -0.171 N 
ATOM     10  H5  UNL     1      -5.329  66.674  12.073  1.00  0.00     0.186 HD
HETATM   11  C5  UNL     1      -5.500  67.206  14.118  1.00  0.00     0.678 A 
HETATM   12  N6  UNL     1      -6.386  66.344  14.511  1.00  0.00    -0.234 N 
ATOM     13  H61 UNL     1      -6.729  66.295  15.471  1.00  0.00     0.174 HD
ATOM     14  H62 UNL     1      -6.832  65.634  13.931  1.00  0.00     0.174 HD
HETATM   15  N7  UNL     1      -4.911  68.144  14.885  1.00  0.00    -0.183 N 
ATOM     16  H7  UNL     1      -5.073  68.311  15.878  1.00  0.00     0.184 HD
HETATM   17  C6  UNL     1      -4.068  68.813  14.083  1.00  0.00     0.165 A 
HETATM   18  C7  UNL     1      -3.207  69.931  14.490  1.00  0.00     0.282 C 
HETATM   19  O3  UNL     1      -3.124  70.109  15.744  1.00  0.00    -0.265 OA
ENDROOT
BRANCH   7  20
HETATM   20  N4  UNL     1      -3.360  67.667  10.638  1.00  0.00    -0.254 N 
ATOM     21  H4  UNL     1      -2.775  66.843  10.772  1.00  0.00     0.191 HD
BRANCH  20  22
HETATM   22  C3  UNL     1      -4.104  67.842   9.440  1.00  0.00     0.370 C 
HETATM   23  O2  UNL     1      -3.633  68.479   8.466  1.00  0.00    -0.282 OA
ENDBRANCH  20  22
ENDBRANCH   7  20
TORSDOF 2
ENDMDL
MODEL 3
REMARK VINA RESULT: -5.861770679      2.041      4.173
REMARK  2 active torsions:
REMARK  status: ('A' for Active; 'I' for Inactive)
REMARK    1  A    between atoms: N3_7  and  N4_8 
REMARK    2  A    between atoms: N4_8  and  C3_10 
ROOT
HETATM    1  C1  UNL     1      -1.791  71.859  14.583  1.00  0.00     0.165 C 
HETATM    2  N1  UNL     1      -2.486  70.832  13.829  1.00  0.00    -0.268 N 
HETATM    3  C2  UNL     1      -2.333  70.797  12.418  1.00  0.00     0.345 C 
HETATM    4  O1  UNL     1      -1.738  71.818  11.969  1.00  0.00    -0.245 OA
HETATM    5  N2  UNL     1      -2.734  69.820  11.454  1.00  0.00    -0.228 N 
ATOM      6  H2  UNL     1      -2.549  70.028  10.473  1.00  0.00     0.194 HD
HETATM    7  N3  UNL     1      -3.362  68.599  11.745  1.00  0.00    -0.171 N 
HETATM    8  C4  UNL     1      -4.125  68.240  12.896  1.00  0.00     0.193 A 
HETATM    9  N5  UNL     1      -5.020  67.235  12.906  1.00  0.00    -0.171 N 
ATOM     10  H5  UNL     1      -5.260  66.625  12.125  1.00  0.00     0.186 HD
HETATM   11  C5  UNL     1      -5.538  67.192  14.148  1.00  0.00     0.678 A 
HETATM   12  N6  UNL     1      -6.441  66.332  14.510  1.00  0.00    -0.234 N 
ATOM     13  H61 UNL     1      -6.833  66.299  15.451  1.00  0.00     0.174 HD
ATOM     14  H62 UNL     1      -6.854  65.611  13.919  1.00  0.00     0.174 HD
HETATM   15  N7  UNL     1      -4.993  68.144  14.928  1.00  0.00    -0.183 N 
ATOM     16  H7  UNL     1      -5.207  68.328  15.908  1.00  0.00     0.184 HD
HETATM   17  C6  UNL     1      -4.112  68.803  14.160  1.00  0.00     0.165 A 
HETATM   18  C7  UNL     1      -3.276  69.932  14.592  1.00  0.00     0.282 C 
HETATM   19  O3  UNL     1      -3.259  70.131  15.844  1.00  0.00    -0.265 OA
ENDROOT
BRANCH   7  20
HETATM   20  N4  UNL     1      -3.222  67.600  10.777  1.00  0.00    -0.254 N 
ATOM     21  H4  UNL     1      -4.042  67.174  10.347  1.00  0.00     0.191 HD
BRANCH  20  22
HETATM   22  C3  UNL     1      -1.912  67.191  10.406  1.00  0.00     0.370 C 
HETATM   23  O2  UNL     1      -1.292  66.316  11.059  1.00  0.00    -0.282 OA
ENDBRANCH  20  22
ENDBRANCH   7  20
TORSDOF 2
ENDMDL
MODEL 4
REMARK VINA RESULT: -5.717085183      2.151      4.305
REMARK  2 active torsions:
REMARK  status: ('A' for Active; 'I' for Inactive)
REMARK    1  A    between atoms: N3_7  and  N4_8 
REMARK    2  A    between atoms: N4_8  and  C3_10 
ROOT
HETATM    1  C1  UNL     1      -0.920  72.218  15.150  1.00  0.00     0.165 C 
HETATM    2  N1  UNL     1      -1.716  71.399  14.255  1.00  0.00    -0.268 N 
HETATM    3  C2  UNL     1      -1.612  71.614  12.855  1.00  0.00     0.345 C 
HETATM    4  O1  UNL     1      -0.954  72.655  12.573  1.00  0.00    -0.245 OA
HETATM    5  N2  UNL     1      -2.118  70.862  11.750  1.00  0.00    -0.228 N 
ATOM      6  H2  UNL     1      -1.948  71.234  10.815  1.00  0.00     0.194 HD
HETATM    7  N3  UNL     1      -2.830  69.656  11.843  1.00  0.00    -0.171 N 
HETATM    8  C4  UNL     1      -3.581  69.145  12.943  1.00  0.00     0.193 A 
HETATM    9  N5  UNL     1      -4.551  68.222  12.812  1.00  0.00    -0.171 N 
ATOM     10  H5  UNL     1      -4.862  67.784  11.944  1.00  0.00     0.186 HD
HETATM   11  C5  UNL     1      -5.031  67.987  14.047  1.00  0.00     0.678 A 
HETATM   12  N6  UNL     1      -5.985  67.142  14.288  1.00  0.00    -0.234 N 
ATOM     13  H61 UNL     1      -6.349  66.963  15.224  1.00  0.00     0.174 HD
ATOM     14  H62 UNL     1      -6.472  66.572  13.596  1.00  0.00     0.174 HD
HETATM   15  N7  UNL     1      -4.389  68.738  14.962  1.00  0.00    -0.183 N 
ATOM     16  H7  UNL     1      -4.556  68.753  15.967  1.00  0.00     0.184 HD
HETATM   17  C6  UNL     1      -3.484  69.464  14.286  1.00  0.00     0.165 A 
HETATM   18  C7  UNL     1      -2.549  70.431  14.877  1.00  0.00     0.282 C 
HETATM   19  O3  UNL     1      -2.477  70.395  16.143  1.00  0.00    -0.265 OA
ENDROOT
BRANCH   7  20
HETATM   20  N4  UNL     1      -2.798  68.845  10.704  1.00  0.00    -0.254 N 
ATOM     21  H4  UNL     1      -3.423  69.027   9.919  1.00  0.00     0.191 HD
BRANCH  20  22
HETATM   22  C3  UNL     1      -1.878  67.763  10.664  1.00  0.00     0.370 C 
HETATM   23  O2  UNL     1      -2.209  66.611  11.036  1.00  0.00    -0.282 OA
ENDBRANCH  20  22
ENDBRANCH   7  20
TORSDOF 2
ENDMDL
MODEL 5
REMARK VINA RESULT: -5.682961546      1.647      3.980
REMARK  2 active torsions:
REMARK  status: ('A' for Active; 'I' for Inactive)
REMARK    1  A    between atoms: N3_7  and  N4_8 
REMARK    2  A    between atoms: N4_8  and  C3_10 
ROOT
HETATM    1  C1  UNL     1      -2.788  66.101   9.582  1.00  0.00     0.165 C 
HETATM    2  N1  UNL     1      -3.268  66.954  10.653  1.00  0.00    -0.268 N 
HETATM    3  C2  UNL     1      -4.444  66.575  11.354  1.00  0.00     0.345 C 
HETATM    4  O1  UNL     1      -5.042  65.605  10.809  1.00  0.00    -0.245 OA
HETATM    5  N2  UNL     1      -5.038  67.103  12.543  1.00  0.00    -0.228 N 
ATOM      6  H2  UNL     1      -5.919  66.688  12.848  1.00  0.00     0.194 HD
HETATM    7  N3  UNL     1      -4.512  68.143  13.324  1.00  0.00    -0.171 N 
HETATM    8  C4  UNL     1      -3.600  69.172  12.944  1.00  0.00     0.193 A 
HETATM    9  N5  UNL     1      -3.482  70.338  13.605  1.00  0.00    -0.171 N 
ATOM     10  H5  UNL     1      -4.007  70.625  14.431  1.00  0.00     0.186 HD
HETATM   11  C5  UNL     1      -2.536  71.051  12.966  1.00  0.00     0.678 A 
HETATM   12  N6  UNL     1      -2.167  72.237  13.341  1.00  0.00    -0.234 N 
ATOM     13  H61 UNL     1      -1.451  72.777  12.857  1.00  0.00     0.174 HD
ATOM     14  H62 UNL     1      -2.536  72.756  14.138  1.00  0.00     0.174 HD
HETATM   15  N7  UNL     1      -2.049  70.366  11.914  1.00  0.00    -0.183 N 
ATOM     16  H7  UNL     1      -1.326  70.675  11.264  1.00  0.00     0.184 HD
HETATM   17  C6  UNL     1      -2.704  69.195  11.889  1.00  0.00     0.165 A 
HETATM   18  C7  UNL     1      -2.500  68.120  10.908  1.00  0.00     0.282 C 
HETATM   19  O3  UNL     1      -1.475  68.259  10.174  1.00  0.00    -0.265 OA
ENDROOT
BRANCH   7  20
HETATM   20  N4  UNL     1      -4.938  68.175  14.655  1.00  0.00    -0.254 N 
ATOM     21  H4  UNL     1      -4.408  68.689  15.359  1.00  0.00     0.191 HD
BRANCH  20  22
HETATM   22  C3  UNL     1      -6.125  67.476  15.008  1.00  0.00     0.370 C 
HETATM   23  O2  UNL     1      -6.189  66.224  14.942  1.00  0.00    -0.282 OA
ENDBRANCH  20  22
ENDBRANCH   7  20
TORSDOF 2
ENDMDL
