MODEL 1
REMARK VINA RESULT: -6.571002525      0.000      0.000
REMARK  4 active torsions:
REMARK  status: ('A' for Active; 'I' for Inactive)
REMARK    1  A    between atoms: C4_8  and  N4_9 
REMARK    2  A    between atoms: C5_14  and  N6_15 
REMARK    3  A    between atoms: N6_15  and  N7_17 
REMARK    4  A    between atoms: C6_19  and  C7_20 
ROOT
HETATM    1  N1  UNL     1      -5.810  66.942  15.052  1.00  0.00    -0.191 NA
HETATM    2  C1  UNL     1      -5.153  67.715  14.493  1.00  0.00     0.107 C 
HETATM    3  C2  UNL     1      -4.330  68.675  13.779  1.00  0.00     0.132 A 
HETATM    4  C3  UNL     1      -3.750  69.746  14.446  1.00  0.00     0.156 A 
HETATM    5  N2  UNL     1      -3.964  69.904  15.838  1.00  0.00    -0.080 NA
HETATM    6  N3  UNL     1      -2.976  70.658  13.800  1.00  0.00    -0.177 N 
ATOM      7  H3  UNL     1      -2.554  71.440  14.300  1.00  0.00     0.185 HD
HETATM    8  C4  UNL     1      -2.785  70.491  12.482  1.00  0.00     0.678 A 
HETATM    9  N5  UNL     1      -3.334  69.459  11.801  1.00  0.00    -0.174 N 
ATOM     10  H5  UNL     1      -3.164  69.370  10.799  1.00  0.00     0.186 HD
HETATM   11  C5  UNL     1      -4.101  68.552  12.425  1.00  0.00     0.159 A 
ENDROOT
BRANCH  11  12
HETATM   12  N6  UNL     1      -4.648  67.554  11.827  1.00  0.00    -0.284 N 
ATOM     13  H6  UNL     1      -4.851  66.728  12.389  1.00  0.00     0.188 HD
BRANCH  12  14
HETATM   14  N7  UNL     1      -4.982  67.506  10.492  1.00  0.00    -0.305 N 
HETATM   15  C6  UNL     1      -4.431  66.731   9.622  1.00  0.00     0.177 C 
ATOM     16  H7  UNL     1      -5.720  68.130  10.167  1.00  0.00     0.186 HD
BRANCH  15  17
HETATM   17  C7  UNL     1      -4.896  66.800   8.253  1.00  0.00     0.271 C 
HETATM   18  N8  UNL     1      -4.648  67.930   7.437  1.00  0.00    -0.057 NA
HETATM   19  O1  UNL     1      -5.536  65.835   7.777  1.00  0.00    -0.270 OA
ENDBRANCH  15  17
ENDBRANCH  12  14
ENDBRANCH  11  12
BRANCH   8  20
HETATM   20  N4  UNL     1      -2.051  71.341  11.833  1.00  0.00    -0.234 N 
ATOM     21  H42 UNL     1      -1.040  71.304  11.955  1.00  0.00     0.174 HD
ATOM     22  H41 UNL     1      -2.498  72.022  11.219  1.00  0.00     0.174 HD
ENDBRANCH   8  20
TORSDOF 4
ENDMDL
MODEL 2
REMARK VINA RESULT: -6.401478653      0.954      3.069
REMARK  4 active torsions:
REMARK  status: ('A' for Active; 'I' for Inactive)
REMARK    1  A    between atoms: C4_8  and  N4_9 
REMARK    2  A    between atoms: C5_14  and  N6_15 
REMARK    3  A    between atoms: N6_15  and  N7_17 
REMARK    4  A    between atoms: C6_19  and  C7_20 
ROOT
HETATM    1  N1  UNL     1      -2.167  71.139  12.249  1.00  0.00    -0.191 NA
HETATM    2  C1  UNL     1      -2.862  70.299  12.640  1.00  0.00     0.107 C 
HETATM    3  C2  UNL     1      -3.736  69.240  13.115  1.00  0.00     0.132 A 
HETATM    4  C3  UNL     1      -4.074  69.149  14.458  1.00  0.00     0.156 A 
HETATM    5  N2  UNL     1      -3.561  70.100  15.376  1.00  0.00    -0.080 NA
HETATM    6  N3  UNL     1      -4.890  68.169  14.928  1.00  0.00    -0.177 N 
ATOM      7  H3  UNL     1      -5.133  68.112  15.917  1.00  0.00     0.185 HD
HETATM    8  C4  UNL     1      -5.366  67.278  14.043  1.00  0.00     0.678 A 
HETATM    9  N5  UNL     1      -5.058  67.337  12.727  1.00  0.00    -0.174 N 
ATOM     10  H5  UNL     1      -5.441  66.640  12.089  1.00  0.00     0.186 HD
HETATM   11  C5  UNL     1      -4.253  68.299  12.250  1.00  0.00     0.159 A 
ENDROOT
BRANCH  11  12
HETATM   12  N6  UNL     1      -3.927  68.400  11.011  1.00  0.00    -0.284 N 
ATOM     13  H6  UNL     1      -3.077  68.920  10.794  1.00  0.00     0.188 HD
BRANCH  12  14
HETATM   14  N7  UNL     1      -4.628  67.867   9.952  1.00  0.00    -0.305 N 
HETATM   15  C6  UNL     1      -4.250  67.914   8.721  1.00  0.00     0.177 C 
ATOM     16  H7  UNL     1      -5.512  67.401  10.157  1.00  0.00     0.186 HD
BRANCH  15  17
HETATM   17  C7  UNL     1      -5.101  67.304   7.721  1.00  0.00     0.271 C 
HETATM   18  N8  UNL     1      -5.498  68.000   6.554  1.00  0.00    -0.057 NA
HETATM   19  O1  UNL     1      -5.498  66.129   7.893  1.00  0.00    -0.270 OA
ENDBRANCH  15  17
ENDBRANCH  12  14
ENDBRANCH  11  12
BRANCH   8  20
HETATM   20  N4  UNL     1      -6.148  66.329  14.454  1.00  0.00    -0.234 N 
ATOM     21  H42 UNL     1      -5.971  65.914  15.369  1.00  0.00     0.174 HD
ATOM     22  H41 UNL     1      -6.917  66.020  13.859  1.00  0.00     0.174 HD
ENDBRANCH   8  20
TORSDOF 4
ENDMDL
MODEL 3
REMARK VINA RESULT: -6.323777986      1.057      1.057
REMARK  4 active torsions:
REMARK  status: ('A' for Active; 'I' for Inactive)
REMARK    1  A    between atoms: C4_8  and  N4_9 
REMARK    2  A    between atoms: C5_14  and  N6_15 
REMARK    3  A    between atoms: N6_15  and  N7_17 
REMARK    4  A    between atoms: C6_19  and  C7_20 
ROOT
HETATM    1  N1  UNL     1      -5.514  67.174  14.501  1.00  0.00    -0.191 NA
HETATM    2  C1  UNL     1      -4.856  67.999  14.022  1.00  0.00     0.107 C 
HETATM    3  C2  UNL     1      -4.028  69.023  13.410  1.00  0.00     0.132 A 
HETATM    4  C3  UNL     1      -3.826  70.242  14.042  1.00  0.00     0.156 A 
HETATM    5  N2  UNL     1      -4.434  70.490  15.299  1.00  0.00    -0.080 NA
HETATM    6  N3  UNL     1      -3.055  71.216  13.491  1.00  0.00    -0.177 N 
ATOM      7  H3  UNL     1      -2.912  72.108  13.964  1.00  0.00     0.185 HD
HETATM    8  C4  UNL     1      -2.488  70.963  12.300  1.00  0.00     0.678 A 
HETATM    9  N5  UNL     1      -2.664  69.786  11.656  1.00  0.00    -0.174 N 
ATOM     10  H5  UNL     1      -2.214  69.634  10.753  1.00  0.00     0.186 HD
HETATM   11  C5  UNL     1      -3.422  68.816  12.189  1.00  0.00     0.159 A 
ENDROOT
BRANCH  11  12
HETATM   12  N6  UNL     1      -3.623  67.681  11.620  1.00  0.00    -0.284 N 
ATOM     13  H6  UNL     1      -3.231  66.856  12.074  1.00  0.00     0.188 HD
BRANCH  12  14
HETATM   14  N7  UNL     1      -4.323  67.484  10.450  1.00  0.00    -0.305 N 
HETATM   15  C6  UNL     1      -3.787  67.331   9.289  1.00  0.00     0.177 C 
ATOM     16  H7  UNL     1      -5.341  67.457  10.507  1.00  0.00     0.186 HD
BRANCH  15  17
HETATM   17  C7  UNL     1      -4.662  67.133   8.152  1.00  0.00     0.271 C 
HETATM   18  N8  UNL     1      -5.457  65.970   8.018  1.00  0.00    -0.057 NA
HETATM   19  O1  UNL     1      -4.717  68.014   7.265  1.00  0.00    -0.270 OA
ENDBRANCH  15  17
ENDBRANCH  12  14
ENDBRANCH  11  12
BRANCH   8  20
HETATM   20  N4  UNL     1      -1.745  71.869  11.743  1.00  0.00    -0.234 N 
ATOM     21  H42 UNL     1      -1.057  72.354  12.318  1.00  0.00     0.174 HD
ATOM     22  H41 UNL     1      -1.866  72.074  10.752  1.00  0.00     0.174 HD
ENDBRANCH   8  20
TORSDOF 4
ENDMDL
MODEL 4
REMARK VINA RESULT: -6.168163606      1.211      3.213
REMARK  4 active torsions:
REMARK  status: ('A' for Active; 'I' for Inactive)
REMARK    1  A    between atoms: C4_8  and  N4_9 
REMARK    2  A    between atoms: C5_14  and  N6_15 
REMARK    3  A    between atoms: N6_15  and  N7_17 
REMARK    4  A    between atoms: C6_19  and  C7_20 
ROOT
HETATM    1  N1  UNL     1      -2.367  70.992  13.077  1.00  0.00    -0.191 NA
HETATM    2  C1  UNL     1      -3.086  70.128  13.356  1.00  0.00     0.107 C 
HETATM    3  C2  UNL     1      -3.987  69.039  13.690  1.00  0.00     0.132 A 
HETATM    4  C3  UNL     1      -4.455  68.879  14.987  1.00  0.00     0.156 A 
HETATM    5  N2  UNL     1      -4.049  69.788  15.996  1.00  0.00    -0.080 NA
HETATM    6  N3  UNL     1      -5.300  67.869  15.325  1.00  0.00    -0.177 N 
ATOM      7  H3  UNL     1      -5.638  67.761  16.281  1.00  0.00     0.185 HD
HETATM    8  C4  UNL     1      -5.673  67.019  14.355  1.00  0.00     0.678 A 
HETATM    9  N5  UNL     1      -5.237  67.145  13.081  1.00  0.00    -0.174 N 
ATOM     10  H5  UNL     1      -5.546  66.477  12.374  1.00  0.00     0.186 HD
HETATM   11  C5  UNL     1      -4.403  68.137  12.733  1.00  0.00     0.159 A 
ENDROOT
BRANCH  11  12
HETATM   12  N6  UNL     1      -3.958  68.303  11.539  1.00  0.00    -0.284 N 
ATOM     13  H6  UNL     1      -3.116  68.868  11.430  1.00  0.00     0.188 HD
BRANCH  12  14
HETATM   14  N7  UNL     1      -4.519  67.781  10.395  1.00  0.00    -0.305 N 
HETATM   15  C6  UNL     1      -4.090  67.997   9.199  1.00  0.00     0.177 C 
ATOM     16  H7  UNL     1      -5.336  67.178  10.501  1.00  0.00     0.186 HD
BRANCH  15  17
HETATM   17  C7  UNL     1      -4.793  67.373   8.097  1.00  0.00     0.271 C 
HETATM   18  N8  UNL     1      -5.288  66.050   8.183  1.00  0.00    -0.057 NA
HETATM   19  O1  UNL     1      -4.966  68.021   7.041  1.00  0.00    -0.270 OA
ENDBRANCH  15  17
ENDBRANCH  12  14
ENDBRANCH  11  12
BRANCH   8  20
HETATM   20  N4  UNL     1      -6.479  66.043  14.640  1.00  0.00    -0.234 N 
ATOM     21  H42 UNL     1      -6.743  65.899  15.614  1.00  0.00     0.174 HD
ATOM     22  H41 UNL     1      -6.827  65.446  13.890  1.00  0.00     0.174 HD
ENDBRANCH   8  20
TORSDOF 4
ENDMDL
MODEL 5
REMARK VINA RESULT: -6.136334700      2.879      6.513
REMARK  4 active torsions:
REMARK  status: ('A' for Active; 'I' for Inactive)
REMARK    1  A    between atoms: C4_8  and  N4_9 
REMARK    2  A    between atoms: C5_14  and  N6_15 
REMARK    3  A    between atoms: N6_15  and  N7_17 
REMARK    4  A    between atoms: C6_19  and  C7_20 
ROOT
HETATM    1  N1  UNL     1      -3.696  69.467   9.433  1.00  0.00    -0.191 NA
HETATM    2  C1  UNL     1      -4.146  68.431   9.177  1.00  0.00     0.107 C 
HETATM    3  C2  UNL     1      -4.704  67.126   8.870  1.00  0.00     0.132 A 
HETATM    4  C3  UNL     1      -5.318  66.887   7.648  1.00  0.00     0.156 A 
HETATM    5  N2  UNL     1      -5.399  67.928   6.689  1.00  0.00    -0.080 NA
HETATM    6  N3  UNL     1      -5.847  65.675   7.337  1.00  0.00    -0.177 N 
ATOM      7  H3  UNL     1      -6.295  65.510   6.435  1.00  0.00     0.185 HD
HETATM    8  C4  UNL     1      -5.760  64.702   8.257  1.00  0.00     0.678 A 
HETATM    9  N5  UNL     1      -5.169  64.900   9.459  1.00  0.00    -0.174 N 
ATOM     10  H5  UNL     1      -5.124  64.133  10.129  1.00  0.00     0.186 HD
HETATM   11  C5  UNL     1      -4.642  66.091   9.779  1.00  0.00     0.159 A 
ENDROOT
BRANCH  11  12
HETATM   12  N6  UNL     1      -4.071  66.333  10.905  1.00  0.00    -0.284 N 
ATOM     13  H6  UNL     1      -3.053  66.273  10.934  1.00  0.00     0.188 HD
BRANCH  12  14
HETATM   14  N7  UNL     1      -4.717  66.667  12.075  1.00  0.00    -0.305 N 
HETATM   15  C6  UNL     1      -4.437  67.693  12.803  1.00  0.00     0.177 C 
ATOM     16  H7  UNL     1      -5.472  66.057  12.389  1.00  0.00     0.186 HD
BRANCH  15  17
HETATM   17  C7  UNL     1      -5.210  67.906  14.009  1.00  0.00     0.271 C 
HETATM   18  N8  UNL     1      -5.835  66.836  14.693  1.00  0.00    -0.057 NA
HETATM   19  O1  UNL     1      -5.330  69.068  14.457  1.00  0.00    -0.270 OA
ENDBRANCH  15  17
ENDBRANCH  12  14
ENDBRANCH  11  12
BRANCH   8  20
HETATM   20  N4  UNL     1      -6.254  63.532   7.995  1.00  0.00    -0.234 N 
ATOM     21  H42 UNL     1      -7.142  63.271   8.425  1.00  0.00     0.174 HD
ATOM     22  H41 UNL     1      -5.749  62.903   7.371  1.00  0.00     0.174 HD
ENDBRANCH   8  20
TORSDOF 4
ENDMDL
