MODEL 1
REMARK VINA RESULT: -7.545839662      0.000      0.000
REMARK  3 active torsions:
REMARK  status: ('A' for Active; 'I' for Inactive)
REMARK    1  A    between atoms: N1_1  and  C1_4 
REMARK    2  A    between atoms: C2_7  and  C3_8 
REMARK    3  A    between atoms: C3_8  and  N3_9 
ROOT
HETATM    1  C3  UNL     1      -3.445  67.961   9.198  1.00  0.00     0.217 C 
ENDROOT
BRANCH   1   2
HETATM    2  C2  UNL     1      -3.659  68.401  10.590  1.00  0.00     0.131 A 
HETATM    3  N2  UNL     1      -4.610  68.010  11.442  1.00  0.00    -0.177 N 
HETATM    4  C1  UNL     1      -4.444  68.666  12.628  1.00  0.00     0.691 A 
ATOM      5  H2  UNL     1      -5.343  67.331  11.239  1.00  0.00     0.185 HD
HETATM    6  N7  UNL     1      -3.380  69.453  12.467  1.00  0.00    -0.131 N 
HETATM    7  N6  UNL     1      -2.900  69.298  11.236  1.00  0.00    -0.273 N 
ATOM      8  H7  UNL     1      -2.995  70.075  13.176  1.00  0.00     0.205 HD
ATOM      9  H6  UNL     1      -2.089  69.781  10.849  1.00  0.00     0.189 HD
BRANCH   4  10
HETATM   10  N1  UNL     1      -5.212  68.496  13.647  1.00  0.00    -0.233 N 
ATOM     11  H12 UNL     1      -5.723  67.672  13.962  1.00  0.00     0.174 HD
ATOM     12  H11 UNL     1      -5.421  69.231  14.323  1.00  0.00     0.174 HD
ENDBRANCH   4  10
ENDBRANCH   1   2
BRANCH   1  13
HETATM   13  N3  UNL     1      -4.196  66.767   8.859  1.00  0.00    -0.244 N 
HETATM   14  C4  UNL     1      -3.972  65.567   9.424  1.00  0.00     0.334 A 
HETATM   15  O1  UNL     1      -3.058  65.517  10.288  1.00  0.00    -0.246 OA
HETATM   16  N4  UNL     1      -4.670  64.462   9.108  1.00  0.00    -0.260 N 
HETATM   17  C5  UNL     1      -5.634  64.543   8.188  1.00  0.00     0.332 A 
ATOM     18  H4  UNL     1      -4.465  63.573   9.564  1.00  0.00     0.175 HD
HETATM   19  O2  UNL     1      -6.286  63.501   7.896  1.00  0.00    -0.246 OA
HETATM   20  N5  UNL     1      -5.885  65.736   7.600  1.00  0.00    -0.260 N 
HETATM   21  C6  UNL     1      -5.169  66.838   7.934  1.00  0.00     0.334 A 
ATOM     22  H5  UNL     1      -6.621  65.807   6.897  1.00  0.00     0.175 HD
HETATM   23  O3  UNL     1      -5.477  67.899   7.331  1.00  0.00    -0.246 OA
ENDBRANCH   1  13
TORSDOF 3
ENDMDL
MODEL 2
REMARK VINA RESULT: -7.518675707      0.610      1.167
REMARK  3 active torsions:
REMARK  status: ('A' for Active; 'I' for Inactive)
REMARK    1  A    between atoms: N1_1  and  C1_4 
REMARK    2  A    between atoms: C2_7  and  C3_8 
REMARK    3  A    between atoms: C3_8  and  N3_9 
ROOT
HETATM    1  C3  UNL     1      -3.241  67.844   9.231  1.00  0.00     0.217 C 
ENDROOT
BRANCH   1   2
HETATM    2  C2  UNL     1      -3.480  68.366  10.589  1.00  0.00     0.131 A 
HETATM    3  N2  UNL     1      -2.693  69.159  11.320  1.00  0.00    -0.177 N 
HETATM    4  C1  UNL     1      -3.294  69.402  12.522  1.00  0.00     0.691 A 
ATOM      5  H2  UNL     1      -1.788  69.526  11.026  1.00  0.00     0.185 HD
HETATM    6  N7  UNL     1      -4.450  68.740  12.494  1.00  0.00    -0.131 N 
HETATM    7  N6  UNL     1      -4.570  68.110  11.329  1.00  0.00    -0.273 N 
ATOM      8  H7  UNL     1      -5.136  68.719  13.249  1.00  0.00     0.205 HD
ATOM      9  H6  UNL     1      -5.360  67.530  11.044  1.00  0.00     0.189 HD
BRANCH   4  10
HETATM   10  N1  UNL     1      -2.772  70.137  13.441  1.00  0.00    -0.233 N 
ATOM     11  H12 UNL     1      -2.391  71.082  13.397  1.00  0.00     0.174 HD
ATOM     12  H11 UNL     1      -2.669  69.837  14.410  1.00  0.00     0.174 HD
ENDBRANCH   4  10
ENDBRANCH   1   2
BRANCH   1  13
HETATM   13  N3  UNL     1      -4.103  66.728   8.893  1.00  0.00    -0.244 N 
HETATM   14  C4  UNL     1      -4.015  65.521   9.482  1.00  0.00     0.334 A 
HETATM   15  O1  UNL     1      -3.129  65.393  10.367  1.00  0.00    -0.246 OA
HETATM   16  N4  UNL     1      -4.816  64.487   9.167  1.00  0.00    -0.260 N 
HETATM   17  C5  UNL     1      -5.747  64.649   8.224  1.00  0.00     0.332 A 
ATOM     18  H4  UNL     1      -4.712  63.590   9.642  1.00  0.00     0.175 HD
HETATM   19  O2  UNL     1      -6.495  63.674   7.933  1.00  0.00    -0.246 OA
HETATM   20  N5  UNL     1      -5.862  65.852   7.611  1.00  0.00    -0.260 N 
HETATM   21  C6  UNL     1      -5.045  66.880   7.945  1.00  0.00     0.334 A 
ATOM     22  H5  UNL     1      -6.571  65.984   6.891  1.00  0.00     0.175 HD
HETATM   23  O3  UNL     1      -5.229  67.956   7.319  1.00  0.00    -0.246 OA
ENDBRANCH   1  13
TORSDOF 3
ENDMDL
MODEL 3
REMARK VINA RESULT: -7.473628942      0.618      2.285
REMARK  3 active torsions:
REMARK  status: ('A' for Active; 'I' for Inactive)
REMARK    1  A    between atoms: N1_1  and  C1_4 
REMARK    2  A    between atoms: C2_7  and  C3_8 
REMARK    3  A    between atoms: C3_8  and  N3_9 
ROOT
HETATM    1  C3  UNL     1      -3.241  67.847   9.182  1.00  0.00     0.217 C 
ENDROOT
BRANCH   1   2
HETATM    2  C2  UNL     1      -3.467  68.360  10.546  1.00  0.00     0.131 A 
HETATM    3  N2  UNL     1      -2.663  69.131  11.283  1.00  0.00    -0.177 N 
HETATM    4  C1  UNL     1      -3.257  69.373  12.489  1.00  0.00     0.691 A 
ATOM      5  H2  UNL     1      -1.752  69.483  10.991  1.00  0.00     0.185 HD
HETATM    6  N7  UNL     1      -4.425  68.733  12.457  1.00  0.00    -0.131 N 
HETATM    7  N6  UNL     1      -4.560  68.118  11.286  1.00  0.00    -0.273 N 
ATOM      8  H7  UNL     1      -5.109  68.718  13.213  1.00  0.00     0.205 HD
ATOM      9  H6  UNL     1      -5.361  67.555  10.998  1.00  0.00     0.189 HD
BRANCH   4  10
HETATM   10  N1  UNL     1      -2.719  70.090  13.413  1.00  0.00    -0.233 N 
ATOM     11  H12 UNL     1      -2.931  71.037  13.726  1.00  0.00     0.174 HD
ATOM     12  H11 UNL     1      -1.948  69.767  13.997  1.00  0.00     0.174 HD
ENDBRANCH   4  10
ENDBRANCH   1   2
BRANCH   1  13
HETATM   13  N3  UNL     1      -4.114  66.740   8.841  1.00  0.00    -0.244 N 
HETATM   14  C4  UNL     1      -5.071  66.817   7.899  1.00  0.00     0.334 A 
HETATM   15  O1  UNL     1      -5.184  67.920   7.303  1.00  0.00    -0.246 OA
HETATM   16  N4  UNL     1      -5.880  65.788   7.584  1.00  0.00    -0.260 N 
HETATM   17  C5  UNL     1      -5.739  64.630   8.231  1.00  0.00     0.332 A 
ATOM     18  H4  UNL     1      -6.591  65.894   6.861  1.00  0.00     0.175 HD
HETATM   19  O2  UNL     1      -6.501  63.668   7.931  1.00  0.00    -0.246 OA
HETATM   20  N5  UNL     1      -4.784  64.519   9.185  1.00  0.00    -0.260 N 
HETATM   21  C6  UNL     1      -3.981  65.568   9.486  1.00  0.00     0.334 A 
ATOM     22  H5  UNL     1      -4.670  63.636   9.683  1.00  0.00     0.175 HD
HETATM   23  O3  UNL     1      -3.125  65.366  10.388  1.00  0.00    -0.246 OA
ENDBRANCH   1  13
TORSDOF 3
ENDMDL
MODEL 4
REMARK VINA RESULT: -7.420610885      0.340      1.990
REMARK  3 active torsions:
REMARK  status: ('A' for Active; 'I' for Inactive)
REMARK    1  A    between atoms: N1_1  and  C1_4 
REMARK    2  A    between atoms: C2_7  and  C3_8 
REMARK    3  A    between atoms: C3_8  and  N3_9 
ROOT
HETATM    1  C3  UNL     1      -3.102  67.848   9.176  1.00  0.00     0.217 C 
ENDROOT
BRANCH   1   2
HETATM    2  C2  UNL     1      -3.278  68.362  10.547  1.00  0.00     0.131 A 
HETATM    3  N2  UNL     1      -4.271  68.109  11.403  1.00  0.00    -0.177 N 
HETATM    4  C1  UNL     1      -4.044  68.789  12.565  1.00  0.00     0.691 A 
ATOM      5  H2  UNL     1      -5.070  67.503  11.218  1.00  0.00     0.185 HD
HETATM    6  N7  UNL     1      -2.902  69.452  12.385  1.00  0.00    -0.131 N 
HETATM    7  N6  UNL     1      -2.432  69.199  11.167  1.00  0.00    -0.273 N 
ATOM      8  H7  UNL     1      -2.458  70.058  13.074  1.00  0.00     0.205 HD
ATOM      9  H6  UNL     1      -1.572  69.579  10.771  1.00  0.00     0.189 HD
BRANCH   4  10
HETATM   10  N1  UNL     1      -4.834  68.742  13.581  1.00  0.00    -0.233 N 
ATOM     11  H12 UNL     1      -5.730  69.200  13.746  1.00  0.00     0.174 HD
ATOM     12  H11 UNL     1      -4.642  68.189  14.416  1.00  0.00     0.174 HD
ENDBRANCH   4  10
ENDBRANCH   1   2
BRANCH   1  13
HETATM   13  N3  UNL     1      -4.025  66.779   8.848  1.00  0.00    -0.244 N 
HETATM   14  C4  UNL     1      -4.986  66.892   7.913  1.00  0.00     0.334 A 
HETATM   15  O1  UNL     1      -5.056  67.995   7.312  1.00  0.00    -0.246 OA
HETATM   16  N4  UNL     1      -5.841  65.898   7.612  1.00  0.00    -0.260 N 
HETATM   17  C5  UNL     1      -5.746  64.737   8.264  1.00  0.00     0.332 A 
ATOM     18  H4  UNL     1      -6.553  66.029   6.894  1.00  0.00     0.175 HD
HETATM   19  O2  UNL     1      -6.552  63.809   7.976  1.00  0.00    -0.246 OA
HETATM   20  N5  UNL     1      -4.789  64.591   9.212  1.00  0.00    -0.260 N 
HETATM   21  C6  UNL     1      -3.938  65.605   9.500  1.00  0.00     0.334 A 
ATOM     22  H5  UNL     1      -4.709  63.707   9.714  1.00  0.00     0.175 HD
HETATM   23  O3  UNL     1      -3.085  65.372  10.395  1.00  0.00    -0.246 OA
ENDBRANCH   1  13
TORSDOF 3
ENDMDL
MODEL 5
REMARK VINA RESULT: -7.282160782      2.303      5.333
REMARK  3 active torsions:
REMARK  status: ('A' for Active; 'I' for Inactive)
REMARK    1  A    between atoms: N1_1  and  C1_4 
REMARK    2  A    between atoms: C2_7  and  C3_8 
REMARK    3  A    between atoms: C3_8  and  N3_9 
ROOT
HETATM    1  C3  UNL     1      -3.329  65.763  10.648  1.00  0.00     0.217 C 
ENDROOT
BRANCH   1   2
HETATM    2  C2  UNL     1      -4.453  65.545   9.718  1.00  0.00     0.131 A 
HETATM    3  N2  UNL     1      -4.821  64.411   9.117  1.00  0.00    -0.177 N 
HETATM    4  C1  UNL     1      -5.916  64.652   8.338  1.00  0.00     0.691 A 
ATOM      5  H2  UNL     1      -4.357  63.509   9.224  1.00  0.00     0.185 HD
HETATM    6  N7  UNL     1      -6.193  65.947   8.485  1.00  0.00    -0.131 N 
HETATM    7  N6  UNL     1      -5.313  66.495   9.318  1.00  0.00    -0.273 N 
ATOM      8  H7  UNL     1      -6.960  66.440   8.030  1.00  0.00     0.205 HD
ATOM      9  H6  UNL     1      -5.295  67.474   9.605  1.00  0.00     0.189 HD
BRANCH   4  10
HETATM   10  N1  UNL     1      -6.499  63.745   7.634  1.00  0.00    -0.233 N 
ATOM     11  H12 UNL     1      -6.142  63.163   6.877  1.00  0.00     0.174 HD
ATOM     12  H11 UNL     1      -7.475  63.477   7.760  1.00  0.00     0.174 HD
ENDBRANCH   4  10
ENDBRANCH   1   2
BRANCH   1  13
HETATM   13  N3  UNL     1      -3.253  67.127  11.135  1.00  0.00    -0.244 N 
HETATM   14  C4  UNL     1      -4.075  67.623  12.078  1.00  0.00     0.334 A 
HETATM   15  O1  UNL     1      -4.941  66.833  12.538  1.00  0.00    -0.246 OA
HETATM   16  N4  UNL     1      -4.002  68.889  12.528  1.00  0.00    -0.260 N 
HETATM   17  C5  UNL     1      -3.075  69.705  12.023  1.00  0.00     0.332 A 
ATOM     18  H4  UNL     1      -4.647  69.220  13.245  1.00  0.00     0.175 HD
HETATM   19  O2  UNL     1      -3.012  70.892  12.450  1.00  0.00    -0.246 OA
HETATM   20  N5  UNL     1      -2.231  69.238  11.073  1.00  0.00    -0.260 N 
HETATM   21  C6  UNL     1      -2.322  67.959  10.634  1.00  0.00     0.334 A 
ATOM     22  H5  UNL     1      -1.519  69.855  10.683  1.00  0.00     0.175 HD
HETATM   23  O3  UNL     1      -1.494  67.619   9.748  1.00  0.00    -0.246 OA
ENDBRANCH   1  13
TORSDOF 3
ENDMDL
