MODEL 1
REMARK VINA RESULT: -6.726556495      0.000      0.000
REMARK  3 active torsions:
REMARK  status: ('A' for Active; 'I' for Inactive)
REMARK    1  A    between atoms: N1_1  and  C1_4 
REMARK    2  A    between atoms: N3_7  and  C2_8 
REMARK    3  A    between atoms: C2_8  and  C3_9 
ROOT
HETATM    1  C1  UNL     1      -2.448  70.929  12.254  1.00  0.00     0.183 A 
HETATM    2  N2  UNL     1      -2.610  69.797  11.552  1.00  0.00    -0.275 N 
ATOM      3  H2  UNL     1      -2.169  69.711  10.636  1.00  0.00     0.189 HD
HETATM    4  N3  UNL     1      -3.330  68.787  12.021  1.00  0.00    -0.239 N 
HETATM    5  C6  UNL     1      -3.901  68.918  13.222  1.00  0.00     0.344 A 
HETATM    6  O1  UNL     1      -4.583  67.981  13.686  1.00  0.00    -0.245 OA
HETATM    7  N7  UNL     1      -3.773  70.033  13.975  1.00  0.00    -0.271 N 
ATOM      8  H7  UNL     1      -4.225  70.094  14.887  1.00  0.00     0.174 HD
HETATM    9  C7  UNL     1      -3.052  71.050  13.511  1.00  0.00     0.294 A 
HETATM   10  O2  UNL     1      -2.904  72.099  14.165  1.00  0.00    -0.264 OA
ENDROOT
BRANCH   4  11
HETATM   11  C2  UNL     1      -3.496  67.599  11.247  1.00  0.00     0.180 C 
BRANCH  11  12
HETATM   12  C3  UNL     1      -4.659  67.623  10.286  1.00  0.00     0.121 C 
HETATM   13  C4  UNL     1      -4.165  67.880   8.894  1.00  0.00     0.149 C 
HETATM   14  N4  UNL     1      -4.217  66.568   8.304  1.00  0.00    -0.363 N 
HETATM   15  C5  UNL     1      -5.003  65.700   9.111  1.00  0.00     0.184 C 
ATOM     16  H4  UNL     1      -3.757  66.299   7.434  1.00  0.00     0.162 HD
HETATM   17  N5  UNL     1      -5.436  64.383   8.724  1.00  0.00    -0.064 NA
HETATM   18  N6  UNL     1      -5.235  66.314  10.211  1.00  0.00    -0.357 N 
ATOM     19  H6  UNL     1      -5.783  65.906  10.968  1.00  0.00     0.162 HD
ENDBRANCH  11  12
ENDBRANCH   4  11
BRANCH   1  20
HETATM   20  N1  UNL     1      -1.748  71.902  11.792  1.00  0.00    -0.380 N 
ATOM     21  H12 UNL     1      -0.862  71.707  11.326  1.00  0.00     0.158 HD
ATOM     22  H11 UNL     1      -2.063  72.867  11.882  1.00  0.00     0.158 HD
ENDBRANCH   1  20
TORSDOF 3
ENDMDL
MODEL 2
REMARK VINA RESULT: -6.648215011      1.073      1.526
REMARK  3 active torsions:
REMARK  status: ('A' for Active; 'I' for Inactive)
REMARK    1  A    between atoms: N1_1  and  C1_4 
REMARK    2  A    between atoms: N3_7  and  C2_8 
REMARK    3  A    between atoms: C2_8  and  C3_9 
ROOT
HETATM    1  C1  UNL     1      -2.338  71.070  12.374  1.00  0.00     0.183 A 
HETATM    2  N2  UNL     1      -2.713  70.002  11.652  1.00  0.00    -0.275 N 
ATOM      3  H2  UNL     1      -2.446  69.947  10.669  1.00  0.00     0.189 HD
HETATM    4  N3  UNL     1      -3.422  69.018  12.187  1.00  0.00    -0.239 N 
HETATM    5  C6  UNL     1      -3.763  69.108  13.475  1.00  0.00     0.344 A 
HETATM    6  O1  UNL     1      -4.430  68.194  14.002  1.00  0.00    -0.245 OA
HETATM    7  N7  UNL     1      -3.416  70.158  14.253  1.00  0.00    -0.271 N 
ATOM      8  H7  UNL     1      -3.696  70.189  15.232  1.00  0.00     0.174 HD
HETATM    9  C7  UNL     1      -2.704  71.149  13.723  1.00  0.00     0.294 A 
HETATM   10  O2  UNL     1      -2.358  72.139  14.396  1.00  0.00    -0.264 OA
ENDROOT
BRANCH   4  11
HETATM   11  C2  UNL     1      -3.816  67.900  11.392  1.00  0.00     0.180 C 
BRANCH  11  12
HETATM   12  C3  UNL     1      -3.026  67.713  10.120  1.00  0.00     0.121 C 
HETATM   13  C4  UNL     1      -3.030  66.266   9.726  1.00  0.00     0.149 C 
HETATM   14  N4  UNL     1      -3.997  66.243   8.659  1.00  0.00    -0.363 N 
HETATM   15  C5  UNL     1      -4.259  67.566   8.209  1.00  0.00     0.184 C 
ATOM     16  H4  UNL     1      -4.431  65.401   8.282  1.00  0.00     0.162 HD
HETATM   17  N5  UNL     1      -5.011  67.900   7.027  1.00  0.00    -0.064 NA
HETATM   18  N6  UNL     1      -3.705  68.365   9.042  1.00  0.00    -0.357 N 
ATOM     19  H6  UNL     1      -3.745  69.380   8.947  1.00  0.00     0.162 HD
ENDBRANCH  11  12
ENDBRANCH   4  11
BRANCH   1  20
HETATM   20  N1  UNL     1      -1.651  72.019  11.847  1.00  0.00    -0.380 N 
ATOM     21  H12 UNL     1      -0.857  72.407  12.356  1.00  0.00     0.158 HD
ATOM     22  H11 UNL     1      -1.886  72.391  10.927  1.00  0.00     0.158 HD
ENDBRANCH   1  20
TORSDOF 3
ENDMDL
MODEL 3
REMARK VINA RESULT: -6.180927326      2.402      5.787
REMARK  3 active torsions:
REMARK  status: ('A' for Active; 'I' for Inactive)
REMARK    1  A    between atoms: N1_1  and  C1_4 
REMARK    2  A    between atoms: N3_7  and  C2_8 
REMARK    3  A    between atoms: C2_8  and  C3_9 
ROOT
HETATM    1  C1  UNL     1      -5.127  66.967   9.240  1.00  0.00     0.183 A 
HETATM    2  N2  UNL     1      -5.095  66.876  10.579  1.00  0.00    -0.275 N 
ATOM      3  H2  UNL     1      -5.716  66.218  11.049  1.00  0.00     0.189 HD
HETATM    4  N3  UNL     1      -4.274  67.623  11.305  1.00  0.00    -0.239 N 
HETATM    5  C6  UNL     1      -3.469  68.481  10.673  1.00  0.00     0.344 A 
HETATM    6  O1  UNL     1      -2.686  69.193  11.334  1.00  0.00    -0.245 OA
HETATM    7  N7  UNL     1      -3.455  68.616   9.328  1.00  0.00    -0.271 N 
ATOM      8  H7  UNL     1      -2.825  69.283   8.883  1.00  0.00     0.174 HD
HETATM    9  C7  UNL     1      -4.275  67.870   8.593  1.00  0.00     0.294 A 
HETATM   10  O2  UNL     1      -4.303  67.958   7.351  1.00  0.00    -0.264 OA
ENDROOT
BRANCH   4  11
HETATM   11  C2  UNL     1      -4.270  67.514  12.728  1.00  0.00     0.180 C 
BRANCH  11  12
HETATM   12  C3  UNL     1      -5.035  68.595  13.451  1.00  0.00     0.121 C 
HETATM   13  C4  UNL     1      -5.710  68.020  14.660  1.00  0.00     0.149 C 
HETATM   14  N4  UNL     1      -4.853  68.463  15.729  1.00  0.00    -0.363 N 
HETATM   15  C5  UNL     1      -3.989  69.493  15.267  1.00  0.00     0.184 C 
ATOM     16  H4  UNL     1      -4.865  68.092  16.679  1.00  0.00     0.162 HD
HETATM   17  N5  UNL     1      -3.150  70.304  16.111  1.00  0.00    -0.064 NA
HETATM   18  N6  UNL     1      -4.111  69.545  13.993  1.00  0.00    -0.357 N 
ATOM     19  H6  UNL     1      -3.593  70.206  13.414  1.00  0.00     0.162 HD
ENDBRANCH  11  12
ENDBRANCH   4  11
BRANCH   1  20
HETATM   20  N1  UNL     1      -5.925  66.239   8.545  1.00  0.00    -0.380 N 
ATOM     21  H12 UNL     1      -6.784  65.891   8.968  1.00  0.00     0.158 HD
ATOM     22  H11 UNL     1      -5.713  66.004   7.575  1.00  0.00     0.158 HD
ENDBRANCH   1  20
TORSDOF 3
ENDMDL
MODEL 4
REMARK VINA RESULT: -6.091778018      1.878      2.659
REMARK  3 active torsions:
REMARK  status: ('A' for Active; 'I' for Inactive)
REMARK    1  A    between atoms: N1_1  and  C1_4 
REMARK    2  A    between atoms: N3_7  and  C2_8 
REMARK    3  A    between atoms: C2_8  and  C3_9 
ROOT
HETATM    1  C1  UNL     1      -3.850  68.701  12.746  1.00  0.00     0.183 A 
HETATM    2  N2  UNL     1      -4.180  67.643  11.990  1.00  0.00    -0.275 N 
ATOM      3  H2  UNL     1      -5.015  67.105  12.222  1.00  0.00     0.189 HD
HETATM    4  N3  UNL     1      -3.446  67.280  10.947  1.00  0.00    -0.239 N 
HETATM    5  C6  UNL     1      -2.355  67.996  10.658  1.00  0.00     0.344 A 
HETATM    6  O1  UNL     1      -1.649  67.675   9.680  1.00  0.00    -0.245 OA
HETATM    7  N7  UNL     1      -1.972  69.071  11.382  1.00  0.00    -0.271 N 
ATOM      8  H7  UNL     1      -1.133  69.591  11.129  1.00  0.00     0.174 HD
HETATM    9  C7  UNL     1      -2.704  69.441  12.429  1.00  0.00     0.294 A 
HETATM   10  O2  UNL     1      -2.395  70.423  13.130  1.00  0.00    -0.264 OA
ENDROOT
BRANCH   4  11
HETATM   11  C2  UNL     1      -3.814  66.143  10.167  1.00  0.00     0.180 C 
BRANCH  11  12
HETATM   12  C3  UNL     1      -5.272  66.082   9.780  1.00  0.00     0.121 C 
HETATM   13  C4  UNL     1      -5.489  66.822   8.494  1.00  0.00     0.149 C 
HETATM   14  N4  UNL     1      -5.601  65.750   7.540  1.00  0.00    -0.363 N 
HETATM   15  C5  UNL     1      -5.809  64.515   8.214  1.00  0.00     0.184 C 
ATOM     16  H4  UNL     1      -5.539  65.859   6.528  1.00  0.00     0.162 HD
HETATM   17  N5  UNL     1      -6.167  63.277   7.573  1.00  0.00    -0.064 NA
HETATM   18  N6  UNL     1      -5.619  64.730   9.463  1.00  0.00    -0.357 N 
ATOM     19  H6  UNL     1      -5.708  64.001  10.170  1.00  0.00     0.162 HD
ENDBRANCH  11  12
ENDBRANCH   4  11
BRANCH   1  20
HETATM   20  N1  UNL     1      -4.567  69.045  13.755  1.00  0.00    -0.380 N 
ATOM     21  H12 UNL     1      -4.136  69.544  14.532  1.00  0.00     0.158 HD
ATOM     22  H11 UNL     1      -5.563  68.828  13.791  1.00  0.00     0.158 HD
ENDBRANCH   1  20
TORSDOF 3
ENDMDL
MODEL 5
REMARK VINA RESULT: -6.084985805      2.490      6.022
REMARK  3 active torsions:
REMARK  status: ('A' for Active; 'I' for Inactive)
REMARK    1  A    between atoms: N1_1  and  C1_4 
REMARK    2  A    between atoms: N3_7  and  C2_8 
REMARK    3  A    between atoms: C2_8  and  C3_9 
ROOT
HETATM    1  C1  UNL     1      -4.726  67.042   9.030  1.00  0.00     0.183 A 
HETATM    2  N2  UNL     1      -4.050  67.996   9.689  1.00  0.00    -0.275 N 
ATOM      3  H2  UNL     1      -4.385  68.959   9.655  1.00  0.00     0.189 HD
HETATM    4  N3  UNL     1      -2.956  67.716  10.385  1.00  0.00    -0.239 N 
HETATM    5  C6  UNL     1      -2.531  66.450  10.417  1.00  0.00     0.344 A 
HETATM    6  O1  UNL     1      -1.504  66.161  11.066  1.00  0.00    -0.245 OA
HETATM    7  N7  UNL     1      -3.169  65.447   9.774  1.00  0.00    -0.271 N 
ATOM      8  H7  UNL     1      -2.812  64.493   9.824  1.00  0.00     0.174 HD
HETATM    9  C7  UNL     1      -4.267  65.720   9.075  1.00  0.00     0.294 A 
HETATM   10  O2  UNL     1      -4.891  64.832   8.464  1.00  0.00    -0.264 OA
ENDROOT
BRANCH   4  11
HETATM   11  C2  UNL     1      -2.251  68.753  11.066  1.00  0.00     0.180 C 
BRANCH  11  12
HETATM   12  C3  UNL     1      -3.126  69.789  11.729  1.00  0.00     0.121 C 
HETATM   13  C4  UNL     1      -3.369  69.411  13.159  1.00  0.00     0.149 C 
HETATM   14  N4  UNL     1      -2.475  70.292  13.864  1.00  0.00    -0.363 N 
HETATM   15  C5  UNL     1      -2.033  71.332  13.001  1.00  0.00     0.184 C 
ATOM     16  H4  UNL     1      -2.198  70.186  14.840  1.00  0.00     0.162 HD
HETATM   17  N5  UNL     1      -1.300  72.498  13.423  1.00  0.00    -0.064 NA
HETATM   18  N6  UNL     1      -2.410  71.025  11.816  1.00  0.00    -0.357 N 
ATOM     19  H6  UNL     1      -2.217  71.611  11.004  1.00  0.00     0.162 HD
ENDBRANCH  11  12
ENDBRANCH   4  11
BRANCH   1  20
HETATM   20  N1  UNL     1      -5.785  67.322   8.360  1.00  0.00    -0.380 N 
ATOM     21  H12 UNL     1      -6.630  67.610   8.852  1.00  0.00     0.158 HD
ATOM     22  H11 UNL     1      -5.795  67.262   7.341  1.00  0.00     0.158 HD
ENDBRANCH   1  20
TORSDOF 3
ENDMDL
