MODEL 1
REMARK VINA RESULT: -6.354393774      0.000      0.000
REMARK  3 active torsions:
REMARK  status: ('A' for Active; 'I' for Inactive)
REMARK    1  A    between atoms: C1_2  and  C2_4 
REMARK    2  A    between atoms: C7_12  and  C8_13 
REMARK    3  A    between atoms: C8_13  and  N2_14 
ROOT
HETATM    1  C2  UNL     1      -4.884   2.055  11.550  1.00  0.00     0.125 C 
HETATM    2  C3  UNL     1      -4.233   3.065  10.609  1.00  0.00     0.201 C 
HETATM    3  C4  UNL     1      -2.755   2.760  10.580  1.00  0.00     0.036 C 
HETATM    4  C5  UNL     1      -2.345   3.144  12.001  1.00  0.00     0.035 C 
HETATM    5  C6  UNL     1      -3.585   3.700  12.602  1.00  0.00     0.193 C 
HETATM    6  N1  UNL     1      -4.212   4.305  11.408  1.00  0.00    -0.065 N 
ATOM      7  H11 UNL     1      -5.096   4.799  11.537  1.00  0.00     0.278 HD
ATOM      8  H12 UNL     1      -3.759   5.122  10.999  1.00  0.00     0.278 HD
HETATM    9  C7  UNL     1      -4.662   2.650  12.874  1.00  0.00     0.061 C 
ENDROOT
BRANCH   9  10
HETATM   10  C8  UNL     1      -4.388   1.785  14.018  1.00  0.00     0.280 C 
BRANCH  10  11
HETATM   11  N2  UNL     1      -4.779   2.420  15.263  1.00  0.00     0.088 N 
HETATM   12  C9  UNL     1      -6.237   2.627  15.291  1.00  0.00     0.272 C 
HETATM   13  C10 UNL     1      -6.649   2.842  16.717  1.00  0.00     0.030 C 
HETATM   14  C11 UNL     1      -6.785   1.425  17.303  1.00  0.00     0.003 C 
HETATM   15  C12 UNL     1      -5.709   0.589  16.627  1.00  0.00     0.030 C 
HETATM   16  C13 UNL     1      -4.517   1.524  16.398  1.00  0.00     0.272 C 
ENDBRANCH  10  11
ENDBRANCH   9  10
BRANCH   1  17
HETATM   17  C1  UNL     1      -4.319   0.763  11.238  1.00  0.00     0.179 C 
HETATM   18  O1  UNL     1      -3.692  -0.030  11.982  1.00  0.00    -0.648 OA
HETATM   19  O2  UNL     1      -4.469   0.296   9.941  1.00  0.00    -0.648 OA
ENDBRANCH   1  17
TORSDOF 3
ENDMDL
MODEL 2
REMARK VINA RESULT: -6.336354370      2.198      2.689
REMARK  3 active torsions:
REMARK  status: ('A' for Active; 'I' for Inactive)
REMARK    1  A    between atoms: C1_2  and  C2_4 
REMARK    2  A    between atoms: C7_12  and  C8_13 
REMARK    3  A    between atoms: C8_13  and  N2_14 
ROOT
HETATM    1  C2  UNL     1      -3.564   3.683  12.834  1.00  0.00     0.125 C 
HETATM    2  C3  UNL     1      -2.917   2.985  11.641  1.00  0.00     0.201 C 
HETATM    3  C4  UNL     1      -3.984   2.823  10.585  1.00  0.00     0.036 C 
HETATM    4  C5  UNL     1      -4.908   1.805  11.251  1.00  0.00     0.035 C 
HETATM    5  C6  UNL     1      -4.212   1.451  12.515  1.00  0.00     0.193 C 
HETATM    6  N1  UNL     1      -2.803   1.584  12.091  1.00  0.00    -0.065 N 
ATOM      7  H11 UNL     1      -2.080   1.366  12.777  1.00  0.00     0.278 HD
ATOM      8  H12 UNL     1      -2.444   0.902  11.423  1.00  0.00     0.278 HD
HETATM    9  C7  UNL     1      -4.208   2.575  13.552  1.00  0.00     0.061 C 
ENDROOT
BRANCH   9  10
HETATM   10  C8  UNL     1      -5.491   2.792  14.213  1.00  0.00     0.280 C 
BRANCH  10  11
HETATM   11  N2  UNL     1      -5.346   2.791  15.657  1.00  0.00     0.088 N 
HETATM   12  C9  UNL     1      -6.614   2.403  16.295  1.00  0.00     0.272 C 
HETATM   13  C10 UNL     1      -6.316   1.972  17.701  1.00  0.00     0.030 C 
HETATM   14  C11 UNL     1      -5.870   0.505  17.574  1.00  0.00     0.003 C 
HETATM   15  C12 UNL     1      -5.117   0.410  16.256  1.00  0.00     0.030 C 
HETATM   16  C13 UNL     1      -4.396   1.749  16.075  1.00  0.00     0.272 C 
ENDBRANCH  10  11
ENDBRANCH   9  10
BRANCH   1  17
HETATM   17  C1  UNL     1      -4.367   4.761  12.308  1.00  0.00     0.179 C 
HETATM   18  O1  UNL     1      -5.614   4.903  12.322  1.00  0.00    -0.648 OA
HETATM   19  O2  UNL     1      -3.702   5.809  11.689  1.00  0.00    -0.648 OA
ENDBRANCH   1  17
TORSDOF 3
ENDMDL
MODEL 3
REMARK VINA RESULT: -6.164264118      2.711      4.878
REMARK  3 active torsions:
REMARK  status: ('A' for Active; 'I' for Inactive)
REMARK    1  A    between atoms: C1_2  and  C2_4 
REMARK    2  A    between atoms: C7_12  and  C8_13 
REMARK    3  A    between atoms: C8_13  and  N2_14 
ROOT
HETATM    1  C2  UNL     1      -4.250   3.069  14.112  1.00  0.00     0.125 C 
HETATM    2  C3  UNL     1      -3.473   4.141  14.871  1.00  0.00     0.201 C 
HETATM    3  C4  UNL     1      -4.090   5.473  14.520  1.00  0.00     0.036 C 
HETATM    4  C5  UNL     1      -3.702   5.600  13.047  1.00  0.00     0.035 C 
HETATM    5  C6  UNL     1      -2.852   4.410  12.789  1.00  0.00     0.193 C 
HETATM    6  N1  UNL     1      -2.213   4.245  14.112  1.00  0.00    -0.065 N 
ATOM      7  H11 UNL     1      -1.533   3.492  14.218  1.00  0.00     0.278 HD
ATOM      8  H12 UNL     1      -1.543   4.957  14.404  1.00  0.00     0.278 HD
HETATM    9  C7  UNL     1      -3.624   3.090  12.783  1.00  0.00     0.061 C 
ENDROOT
BRANCH   9  10
HETATM   10  C8  UNL     1      -4.444   2.874  11.595  1.00  0.00     0.280 C 
BRANCH  10  11
HETATM   11  N2  UNL     1      -3.815   1.932  10.686  1.00  0.00     0.088 N 
HETATM   12  C9  UNL     1      -2.522   1.487  11.231  1.00  0.00     0.272 C 
HETATM   13  C10 UNL     1      -2.135   0.217  10.532  1.00  0.00     0.030 C 
HETATM   14  C11 UNL     1      -2.894  -0.891  11.284  1.00  0.00     0.003 C 
HETATM   15  C12 UNL     1      -4.220  -0.276  11.704  1.00  0.00     0.030 C 
HETATM   16  C13 UNL     1      -4.614   0.702  10.593  1.00  0.00     0.272 C 
ENDBRANCH  10  11
ENDBRANCH   9  10
BRANCH   1  17
HETATM   17  C1  UNL     1      -5.652   3.385  14.250  1.00  0.00     0.179 C 
HETATM   18  O1  UNL     1      -6.464   3.790  13.384  1.00  0.00    -0.648 OA
HETATM   19  O2  UNL     1      -6.219   3.235  15.507  1.00  0.00    -0.648 OA
ENDBRANCH   1  17
TORSDOF 3
ENDMDL
MODEL 4
REMARK VINA RESULT: -6.122014711      2.432      5.438
REMARK  3 active torsions:
REMARK  status: ('A' for Active; 'I' for Inactive)
REMARK    1  A    between atoms: C1_2  and  C2_4 
REMARK    2  A    between atoms: C7_12  and  C8_13 
REMARK    3  A    between atoms: C8_13  and  N2_14 
ROOT
HETATM    1  C2  UNL     1      -4.764   1.723  16.328  1.00  0.00     0.125 C 
HETATM    2  C3  UNL     1      -5.419   1.161  17.587  1.00  0.00     0.201 C 
HETATM    3  C4  UNL     1      -6.569   0.290  17.141  1.00  0.00     0.036 C 
HETATM    4  C5  UNL     1      -7.526   1.334  16.568  1.00  0.00     0.035 C 
HETATM    5  C6  UNL     1      -6.862   2.633  16.849  1.00  0.00     0.193 C 
HETATM    6  N1  UNL     1      -6.174   2.312  18.117  1.00  0.00    -0.065 N 
ATOM      7  H11 UNL     1      -5.643   3.058  18.568  1.00  0.00     0.278 HD
ATOM      8  H12 UNL     1      -6.752   2.158  18.943  1.00  0.00     0.278 HD
HETATM    9  C7  UNL     1      -5.609   2.880  16.007  1.00  0.00     0.061 C 
ENDROOT
BRANCH   9  10
HETATM   10  C8  UNL     1      -5.875   3.215  14.611  1.00  0.00     0.280 C 
BRANCH  10  11
HETATM   11  N2  UNL     1      -5.144   4.401  14.207  1.00  0.00     0.088 N 
HETATM   12  C9  UNL     1      -4.963   4.412  12.746  1.00  0.00     0.272 C 
HETATM   13  C10 UNL     1      -4.635   5.816  12.328  1.00  0.00     0.030 C 
HETATM   14  C11 UNL     1      -5.998   6.521  12.218  1.00  0.00     0.003 C 
HETATM   15  C12 UNL     1      -6.868   5.918  13.311  1.00  0.00     0.030 C 
HETATM   16  C13 UNL     1      -5.934   5.609  14.485  1.00  0.00     0.272 C 
ENDBRANCH  10  11
ENDBRANCH   9  10
BRANCH   1  17
HETATM   17  C1  UNL     1      -4.650   0.632  15.389  1.00  0.00     0.179 C 
HETATM   18  O1  UNL     1      -4.708  -0.604  15.596  1.00  0.00    -0.648 OA
HETATM   19  O2  UNL     1      -4.445   0.956  14.056  1.00  0.00    -0.648 OA
ENDBRANCH   1  17
TORSDOF 3
ENDMDL
MODEL 5
REMARK VINA RESULT: -6.057869075      2.751      4.903
REMARK  3 active torsions:
REMARK  status: ('A' for Active; 'I' for Inactive)
REMARK    1  A    between atoms: C1_2  and  C2_4 
REMARK    2  A    between atoms: C7_12  and  C8_13 
REMARK    3  A    between atoms: C8_13  and  N2_14 
ROOT
HETATM    1  C2  UNL     1      -3.770   3.791  13.988  1.00  0.00     0.125 C 
HETATM    2  C3  UNL     1      -4.044   5.225  14.433  1.00  0.00     0.201 C 
HETATM    3  C4  UNL     1      -5.487   5.287  14.873  1.00  0.00     0.036 C 
HETATM    4  C5  UNL     1      -6.211   5.087  13.543  1.00  0.00     0.035 C 
HETATM    5  C6  UNL     1      -5.121   5.043  12.535  1.00  0.00     0.193 C 
HETATM    6  N1  UNL     1      -4.144   5.961  13.159  1.00  0.00    -0.065 N 
ATOM      7  H11 UNL     1      -3.278   6.146  12.651  1.00  0.00     0.278 HD
ATOM      8  H12 UNL     1      -4.387   6.950  13.203  1.00  0.00     0.278 HD
HETATM    9  C7  UNL     1      -4.267   3.776  12.606  1.00  0.00     0.061 C 
ENDROOT
BRANCH   9  10
HETATM   10  C8  UNL     1      -4.919   2.579  12.085  1.00  0.00     0.280 C 
BRANCH  10  11
HETATM   11  N2  UNL     1      -4.131   1.967  11.031  1.00  0.00     0.088 N 
HETATM   12  C9  UNL     1      -2.765   1.698  11.509  1.00  0.00     0.272 C 
HETATM   13  C10 UNL     1      -2.144   0.683  10.596  1.00  0.00     0.030 C 
HETATM   14  C11 UNL     1      -2.650  -0.674  11.115  1.00  0.00     0.003 C 
HETATM   15  C12 UNL     1      -4.065  -0.428  11.615  1.00  0.00     0.030 C 
HETATM   16  C13 UNL     1      -4.668   0.640  10.696  1.00  0.00     0.272 C 
ENDBRANCH  10  11
ENDBRANCH   9  10
BRANCH   1  17
HETATM   17  C1  UNL     1      -4.365   2.921  14.975  1.00  0.00     0.179 C 
HETATM   18  O1  UNL     1      -5.573   2.635  15.156  1.00  0.00    -0.648 OA
HETATM   19  O2  UNL     1      -3.512   2.294  15.870  1.00  0.00    -0.648 OA
ENDBRANCH   1  17
TORSDOF 3
ENDMDL
