MODEL 1
REMARK VINA RESULT: -7.350373036      0.000      0.000
REMARK  3 active torsions:
REMARK  status: ('A' for Active; 'I' for Inactive)
REMARK    1  A    between atoms: O1_2  and  C2_3 
REMARK    2  A    between atoms: C2_3  and  C3_5 
REMARK    3  A    between atoms: C3_5  and  C4_6 
ROOT
HETATM    1  C4  UNL     1      -4.695   2.396  14.598  1.00  0.00     0.201 C 
HETATM    2  N1  UNL     1      -3.801   1.735  13.686  1.00  0.00    -0.069 N 
ATOM      3  H11 UNL     1      -3.564   0.798  14.013  1.00  0.00     0.277 HD
ATOM      4  H12 UNL     1      -2.871   2.154  13.711  1.00  0.00     0.277 HD
HETATM    5  C5  UNL     1      -4.334   1.703  12.326  1.00  0.00     0.252 C 
HETATM    6  C6  UNL     1      -4.387   3.154  11.859  1.00  0.00     0.142 C 
HETATM    7  N2  UNL     1      -3.353   3.864  12.513  1.00  0.00    -0.411 N 
ATOM      8  H2  UNL     1      -2.415   3.899  12.114  1.00  0.00     0.154 HD
HETATM    9  C7  UNL     1      -3.643   4.520  13.724  1.00  0.00     0.030 C 
HETATM   10  C8  UNL     1      -4.094   5.939  13.358  1.00  0.00     0.031 C 
HETATM   11  C9  UNL     1      -2.841   6.755  13.202  1.00  0.00     0.002 C 
HETATM   12  C10 UNL     1      -1.704   5.764  13.345  1.00  0.00     0.002 C 
HETATM   13  C11 UNL     1      -2.288   4.833  14.385  1.00  0.00     0.031 C 
HETATM   14  C12 UNL     1      -4.529   3.867  14.700  1.00  0.00     0.040 C 
HETATM   15  C13 UNL     1      -5.913   4.493  14.719  1.00  0.00     0.014 C 
ENDROOT
BRANCH   1  16
HETATM   16  C3  UNL     1      -4.490   1.708  15.956  1.00  0.00     0.144 C 
BRANCH  16  17
HETATM   17  C2  UNL     1      -5.183   0.424  16.053  1.00  0.00     0.260 C 
HETATM   18  O2  UNL     1      -4.656  -0.615  15.541  1.00  0.00    -0.265 OA
BRANCH  17  19
HETATM   19  O1  UNL     1      -6.407   0.239  16.681  1.00  0.00    -0.326 OA
HETATM   20  C1  UNL     1      -7.236   1.320  16.982  1.00  0.00     0.213 C 
ENDBRANCH  17  19
ENDBRANCH  16  17
ENDBRANCH   1  16
TORSDOF 3
ENDMDL
MODEL 2
REMARK VINA RESULT: -6.662689563      2.345      4.613
REMARK  3 active torsions:
REMARK  status: ('A' for Active; 'I' for Inactive)
REMARK    1  A    between atoms: O1_2  and  C2_3 
REMARK    2  A    between atoms: C2_3  and  C3_5 
REMARK    3  A    between atoms: C3_5  and  C4_6 
ROOT
HETATM    1  C4  UNL     1      -3.976   3.362  12.253  1.00  0.00     0.201 C 
HETATM    2  N1  UNL     1      -2.615   3.256  12.707  1.00  0.00    -0.069 N 
ATOM      3  H11 UNL     1      -1.979   3.071  11.932  1.00  0.00     0.277 HD
ATOM      4  H12 UNL     1      -2.469   2.399  13.242  1.00  0.00     0.277 HD
HETATM    5  C5  UNL     1      -2.200   4.433  13.465  1.00  0.00     0.252 C 
HETATM    6  C6  UNL     1      -3.048   4.441  14.732  1.00  0.00     0.142 C 
HETATM    7  N2  UNL     1      -3.366   3.102  15.057  1.00  0.00    -0.411 N 
ATOM      8  H2  UNL     1      -2.735   2.544  15.632  1.00  0.00     0.154 HD
HETATM    9  C7  UNL     1      -4.568   2.553  14.572  1.00  0.00     0.030 C 
HETATM   10  C8  UNL     1      -5.640   2.839  15.630  1.00  0.00     0.031 C 
HETATM   11  C9  UNL     1      -5.534   1.737  16.648  1.00  0.00     0.002 C 
HETATM   12  C10 UNL     1      -4.325   0.927  16.229  1.00  0.00     0.002 C 
HETATM   13  C11 UNL     1      -4.442   1.026  14.723  1.00  0.00     0.031 C 
HETATM   14  C12 UNL     1      -5.006   2.880  13.206  1.00  0.00     0.040 C 
HETATM   15  C13 UNL     1      -6.152   3.876  13.199  1.00  0.00     0.014 C 
ENDROOT
BRANCH   1  16
HETATM   16  C3  UNL     1      -4.033   2.597  10.922  1.00  0.00     0.144 C 
BRANCH  16  17
HETATM   17  C2  UNL     1      -2.985   1.585  10.803  1.00  0.00     0.260 C 
HETATM   18  O2  UNL     1      -2.009   1.780  10.009  1.00  0.00    -0.265 OA
BRANCH  17  19
HETATM   19  O1  UNL     1      -2.966   0.389  11.508  1.00  0.00    -0.326 OA
HETATM   20  C1  UNL     1      -4.007  -0.532  11.397  1.00  0.00     0.213 C 
ENDBRANCH  17  19
ENDBRANCH  16  17
ENDBRANCH   1  16
TORSDOF 3
ENDMDL
MODEL 3
REMARK VINA RESULT: -6.628667727      1.346      1.461
REMARK  3 active torsions:
REMARK  status: ('A' for Active; 'I' for Inactive)
REMARK    1  A    between atoms: O1_2  and  C2_3 
REMARK    2  A    between atoms: C2_3  and  C3_5 
REMARK    3  A    between atoms: C3_5  and  C4_6 
ROOT
HETATM    1  C4  UNL     1      -4.826   2.688  14.006  1.00  0.00     0.201 C 
HETATM    2  N1  UNL     1      -3.925   1.617  13.676  1.00  0.00    -0.069 N 
ATOM      3  H11 UNL     1      -3.994   0.853  14.347  1.00  0.00     0.277 HD
ATOM      4  H12 UNL     1      -2.954   1.886  13.839  1.00  0.00     0.277 HD
HETATM    5  C5  UNL     1      -4.121   1.141  12.308  1.00  0.00     0.252 C 
HETATM    6  C6  UNL     1      -3.724   2.297  11.397  1.00  0.00     0.142 C 
HETATM    7  N2  UNL     1      -2.734   3.059  12.060  1.00  0.00    -0.411 N 
ATOM      8  H2  UNL     1      -1.748   2.816  11.973  1.00  0.00     0.154 HD
HETATM    9  C7  UNL     1      -3.135   4.159  12.841  1.00  0.00     0.030 C 
HETATM   10  C8  UNL     1      -3.146   5.378  11.911  1.00  0.00     0.031 C 
HETATM   11  C9  UNL     1      -1.736   5.899  11.879  1.00  0.00     0.002 C 
HETATM   12  C10 UNL     1      -0.926   4.897  12.675  1.00  0.00     0.002 C 
HETATM   13  C11 UNL     1      -1.935   4.518  13.737  1.00  0.00     0.031 C 
HETATM   14  C12 UNL     1      -4.350   4.051  13.663  1.00  0.00     0.040 C 
HETATM   15  C13 UNL     1      -5.515   4.815  13.058  1.00  0.00     0.014 C 
ENDROOT
BRANCH   1  16
HETATM   16  C3  UNL     1      -5.107   2.548  15.509  1.00  0.00     0.144 C 
BRANCH  16  17
HETATM   17  C2  UNL     1      -4.269   1.538  16.153  1.00  0.00     0.260 C 
HETATM   18  O2  UNL     1      -3.021   1.748  16.285  1.00  0.00    -0.265 OA
BRANCH  17  19
HETATM   19  O1  UNL     1      -4.739   0.330  16.649  1.00  0.00    -0.326 OA
HETATM   20  C1  UNL     1      -5.906   0.264  17.410  1.00  0.00     0.213 C 
ENDBRANCH  17  19
ENDBRANCH  16  17
ENDBRANCH   1  16
TORSDOF 3
ENDMDL
MODEL 4
REMARK VINA RESULT: -6.466716199      2.303      4.626
REMARK  3 active torsions:
REMARK  status: ('A' for Active; 'I' for Inactive)
REMARK    1  A    between atoms: O1_2  and  C2_3 
REMARK    2  A    between atoms: C2_3  and  C3_5 
REMARK    3  A    between atoms: C3_5  and  C4_6 
ROOT
HETATM    1  C4  UNL     1      -4.093   3.467  12.293  1.00  0.00     0.201 C 
HETATM    2  N1  UNL     1      -2.715   3.353  12.693  1.00  0.00    -0.069 N 
ATOM      3  H11 UNL     1      -2.107   3.203  11.889  1.00  0.00     0.277 HD
ATOM      4  H12 UNL     1      -2.545   2.477  13.189  1.00  0.00     0.277 HD
HETATM    5  C5  UNL     1      -2.279   4.503  13.481  1.00  0.00     0.252 C 
HETATM    6  C6  UNL     1      -3.081   4.455  14.778  1.00  0.00     0.142 C 
HETATM    7  N2  UNL     1      -3.379   3.102  15.061  1.00  0.00    -0.411 N 
ATOM      8  H2  UNL     1      -2.724   2.526  15.590  1.00  0.00     0.154 HD
HETATM    9  C7  UNL     1      -4.594   2.564  14.599  1.00  0.00     0.030 C 
HETATM   10  C8  UNL     1      -5.629   2.800  15.706  1.00  0.00     0.031 C 
HETATM   11  C9  UNL     1      -5.479   1.661  16.675  1.00  0.00     0.002 C 
HETATM   12  C10 UNL     1      -4.282   0.876  16.181  1.00  0.00     0.002 C 
HETATM   13  C11 UNL     1      -4.455   1.033  14.686  1.00  0.00     0.031 C 
HETATM   14  C12 UNL     1      -5.084   2.940  13.263  1.00  0.00     0.040 C 
HETATM   15  C13 UNL     1      -6.236   3.928  13.338  1.00  0.00     0.014 C 
ENDROOT
BRANCH   1  16
HETATM   16  C3  UNL     1      -4.194   2.754  10.937  1.00  0.00     0.144 C 
BRANCH  16  17
HETATM   17  C2  UNL     1      -4.024   1.306  11.041  1.00  0.00     0.260 C 
HETATM   18  O2  UNL     1      -4.986   0.535  10.723  1.00  0.00    -0.265 OA
BRANCH  17  19
HETATM   19  O1  UNL     1      -2.862   0.681  11.472  1.00  0.00    -0.326 OA
HETATM   20  C1  UNL     1      -1.680   0.768  10.739  1.00  0.00     0.213 C 
ENDBRANCH  17  19
ENDBRANCH  16  17
ENDBRANCH   1  16
TORSDOF 3
ENDMDL
MODEL 5
REMARK VINA RESULT: -6.337836142      2.079      2.541
REMARK  3 active torsions:
REMARK  status: ('A' for Active; 'I' for Inactive)
REMARK    1  A    between atoms: O1_2  and  C2_3 
REMARK    2  A    between atoms: C2_3  and  C3_5 
REMARK    3  A    between atoms: C3_5  and  C4_6 
ROOT
HETATM    1  C4  UNL     1      -4.215   2.724  13.329  1.00  0.00     0.201 C 
HETATM    2  N1  UNL     1      -3.695   1.395  13.140  1.00  0.00    -0.069 N 
ATOM      3  H11 UNL     1      -3.761   0.847  13.998  1.00  0.00     0.277 HD
ATOM      4  H12 UNL     1      -2.681   1.406  13.034  1.00  0.00     0.277 HD
HETATM    5  C5  UNL     1      -4.340   0.711  12.022  1.00  0.00     0.252 C 
HETATM    6  C6  UNL     1      -3.941   1.482  10.768  1.00  0.00     0.142 C 
HETATM    7  N2  UNL     1      -2.668   2.055  10.992  1.00  0.00    -0.411 N 
ATOM      8  H2  UNL     1      -1.818   1.528  10.788  1.00  0.00     0.154 HD
HETATM    9  C7  UNL     1      -2.593   3.365  11.500  1.00  0.00     0.030 C 
HETATM   10  C8  UNL     1      -2.568   4.306  10.291  1.00  0.00     0.031 C 
HETATM   11  C9  UNL     1      -1.133   4.385   9.846  1.00  0.00     0.002 C 
HETATM   12  C10 UNL     1      -0.394   3.390  10.717  1.00  0.00     0.002 C 
HETATM   13  C11 UNL     1      -1.154   3.552  12.016  1.00  0.00     0.031 C 
HETATM   14  C12 UNL     1      -3.548   3.787  12.538  1.00  0.00     0.040 C 
HETATM   15  C13 UNL     1      -4.625   4.701  11.981  1.00  0.00     0.014 C 
ENDROOT
BRANCH   1  16
HETATM   16  C3  UNL     1      -4.123   2.997  14.837  1.00  0.00     0.144 C 
BRANCH  16  17
HETATM   17  C2  UNL     1      -4.268   1.787  15.645  1.00  0.00     0.260 C 
HETATM   18  O2  UNL     1      -3.268   1.340  16.293  1.00  0.00    -0.265 OA
BRANCH  17  19
HETATM   19  O1  UNL     1      -5.446   1.064  15.768  1.00  0.00    -0.326 OA
HETATM   20  C1  UNL     1      -5.911   0.646  17.015  1.00  0.00     0.213 C 
ENDBRANCH  17  19
ENDBRANCH  16  17
ENDBRANCH   1  16
TORSDOF 3
ENDMDL
