MODEL 1
REMARK VINA RESULT: -6.401356299      0.000      0.000
REMARK  3 active torsions:
REMARK  status: ('A' for Active; 'I' for Inactive)
REMARK    1  A    between atoms: C6_6  and  N1_7 
REMARK    2  A    between atoms: C9_11  and  C10_12 
REMARK    3  A    between atoms: C14_16  and  O1_17 
ROOT
HETATM    1  N1  UNL     1      -5.547   5.091  12.950  1.00  0.00    -0.380 N 
HETATM    2  C7  UNL     1      -6.480   4.830  13.980  1.00  0.00     0.139 C 
HETATM    3  C8  UNL     1      -5.649   4.243  15.151  1.00  0.00     0.141 C 
HETATM    4  N2  UNL     1      -5.371   2.958  14.799  1.00  0.00    -0.387 N 
HETATM    5  C9  UNL     1      -5.090   1.844  15.516  1.00  0.00     0.063 C 
HETATM    6  C13 UNL     1      -4.386   3.022  13.691  1.00  0.00     0.175 C 
HETATM    7  C14 UNL     1      -4.537   4.155  12.769  1.00  0.00     0.234 C 
ENDROOT
BRANCH   1   8
HETATM    8  C6  UNL     1      -5.426   6.422  12.610  1.00  0.00     0.085 C 
HETATM    9  C2  UNL     1      -6.373   6.751  11.470  1.00  0.00     0.004 C 
HETATM   10  C1  UNL     1      -7.353   7.842  11.797  1.00  0.00     0.012 C 
HETATM   11  C3  UNL     1      -5.420   7.263  10.383  1.00  0.00     0.006 C 
HETATM   12  C4  UNL     1      -4.448   8.069  11.258  1.00  0.00     0.002 C 
HETATM   13  C5  UNL     1      -4.092   6.978  12.276  1.00  0.00     0.025 C 
ENDBRANCH   1   8
BRANCH   7  14
HETATM   14  O1  UNL     1      -4.718   3.606  11.466  1.00  0.00    -0.375 OA
ATOM     15  H1  UNL     1      -5.655   3.512  11.339  1.00  0.00     0.212 HD
ENDBRANCH   7  14
BRANCH   5  16
HETATM   16  C10 UNL     1      -5.926   1.060  16.399  1.00  0.00     0.024 A 
HETATM   17  C11 UNL     1      -6.093   1.647  17.814  1.00  0.00     0.010 A 
HETATM   18  C12 UNL     1      -7.242   1.240  16.937  1.00  0.00     0.010 A 
ENDBRANCH   5  16
TORSDOF 3
ENDMDL
MODEL 2
REMARK VINA RESULT: -6.358862731      2.792      3.763
REMARK  3 active torsions:
REMARK  status: ('A' for Active; 'I' for Inactive)
REMARK    1  A    between atoms: C6_6  and  N1_7 
REMARK    2  A    between atoms: C9_11  and  C10_12 
REMARK    3  A    between atoms: C14_16  and  O1_17 
ROOT
HETATM    1  N1  UNL     1      -4.233   2.274  11.798  1.00  0.00    -0.380 N 
HETATM    2  C7  UNL     1      -4.926   3.221  12.586  1.00  0.00     0.139 C 
HETATM    3  C8  UNL     1      -4.315   3.100  14.007  1.00  0.00     0.141 C 
HETATM    4  N2  UNL     1      -4.844   1.966  14.542  1.00  0.00    -0.387 N 
HETATM    5  C9  UNL     1      -5.060   1.558  15.815  1.00  0.00     0.063 C 
HETATM    6  C13 UNL     1      -4.230   0.826  13.818  1.00  0.00     0.175 C 
HETATM    7  C14 UNL     1      -3.940   1.055  12.397  1.00  0.00     0.234 C 
ENDROOT
BRANCH   1   8
HETATM    8  C6  UNL     1      -3.494   2.817  10.768  1.00  0.00     0.085 C 
HETATM    9  C2  UNL     1      -2.016   2.769  11.114  1.00  0.00     0.004 C 
HETATM   10  C1  UNL     1      -1.190   2.006  10.120  1.00  0.00     0.012 C 
HETATM   11  C3  UNL     1      -1.612   4.248  11.050  1.00  0.00     0.006 C 
HETATM   12  C4  UNL     1      -2.431   4.680   9.823  1.00  0.00     0.002 C 
HETATM   13  C5  UNL     1      -3.808   4.180  10.274  1.00  0.00     0.025 C 
ENDBRANCH   1   8
BRANCH   7  14
HETATM   14  O1  UNL     1      -4.650   0.060  11.664  1.00  0.00    -0.375 OA
ATOM     15  H1  UNL     1      -5.189  -0.406  12.292  1.00  0.00     0.212 HD
ENDBRANCH   7  14
BRANCH   5  16
HETATM   16  C10 UNL     1      -5.983   2.051  16.816  1.00  0.00     0.024 A 
HETATM   17  C11 UNL     1      -7.212   1.152  17.053  1.00  0.00     0.010 A 
HETATM   18  C12 UNL     1      -6.309   1.640  18.150  1.00  0.00     0.010 A 
ENDBRANCH   5  16
TORSDOF 3
ENDMDL
MODEL 3
REMARK VINA RESULT: -6.328914856      1.273      6.251
REMARK  3 active torsions:
REMARK  status: ('A' for Active; 'I' for Inactive)
REMARK    1  A    between atoms: C6_6  and  N1_7 
REMARK    2  A    between atoms: C9_11  and  C10_12 
REMARK    3  A    between atoms: C14_16  and  O1_17 
ROOT
HETATM    1  N1  UNL     1      -5.199   3.145  15.108  1.00  0.00    -0.380 N 
HETATM    2  C7  UNL     1      -6.228   4.109  15.017  1.00  0.00     0.139 C 
HETATM    3  C8  UNL     1      -6.448   4.335  13.498  1.00  0.00     0.141 C 
HETATM    4  N2  UNL     1      -5.407   5.110  13.085  1.00  0.00    -0.387 N 
HETATM    5  C9  UNL     1      -5.251   5.975  12.055  1.00  0.00     0.063 C 
HETATM    6  C13 UNL     1      -4.196   4.255  13.122  1.00  0.00     0.175 C 
HETATM    7  C14 UNL     1      -4.154   3.256  14.198  1.00  0.00     0.234 C 
ENDROOT
BRANCH   1   8
HETATM    8  C6  UNL     1      -5.577   1.956  15.695  1.00  0.00     0.085 C 
HETATM    9  C2  UNL     1      -6.636   2.217  16.751  1.00  0.00     0.004 C 
HETATM   10  C1  UNL     1      -7.921   1.479  16.510  1.00  0.00     0.012 C 
HETATM   11  C3  UNL     1      -5.984   1.656  18.022  1.00  0.00     0.006 C 
HETATM   12  C4  UNL     1      -5.319   0.402  17.432  1.00  0.00     0.002 C 
HETATM   13  C5  UNL     1      -4.547   1.066  16.286  1.00  0.00     0.025 C 
ENDBRANCH   1   8
BRANCH   7  14
HETATM   14  O1  UNL     1      -2.977   3.518  14.959  1.00  0.00    -0.375 OA
ATOM     15  H1  UNL     1      -2.422   4.069  14.420  1.00  0.00     0.212 HD
ENDBRANCH   7  14
BRANCH   5  16
HETATM   16  C10 UNL     1      -5.863   7.264  11.809  1.00  0.00     0.024 A 
HETATM   17  C11 UNL     1      -6.680   7.348  10.506  1.00  0.00     0.010 A 
HETATM   18  C12 UNL     1      -7.212   7.745  11.853  1.00  0.00     0.010 A 
ENDBRANCH   5  16
TORSDOF 3
ENDMDL
MODEL 4
REMARK VINA RESULT: -6.127955293      1.238      2.122
REMARK  3 active torsions:
REMARK  status: ('A' for Active; 'I' for Inactive)
REMARK    1  A    between atoms: C6_6  and  N1_7 
REMARK    2  A    between atoms: C9_11  and  C10_12 
REMARK    3  A    between atoms: C14_16  and  O1_17 
ROOT
HETATM    1  N1  UNL     1      -4.937   3.739  12.542  1.00  0.00    -0.380 N 
HETATM    2  C7  UNL     1      -5.903   3.861  13.567  1.00  0.00     0.139 C 
HETATM    3  C8  UNL     1      -5.175   3.440  14.870  1.00  0.00     0.141 C 
HETATM    4  N2  UNL     1      -5.097   2.081  14.827  1.00  0.00    -0.387 N 
HETATM    5  C9  UNL     1      -4.993   1.131  15.786  1.00  0.00     0.063 C 
HETATM    6  C13 UNL     1      -4.110   1.744  13.772  1.00  0.00     0.175 C 
HETATM    7  C14 UNL     1      -4.081   2.647  12.614  1.00  0.00     0.234 C 
ENDROOT
BRANCH   1   8
HETATM    8  C6  UNL     1      -4.611   4.925  11.916  1.00  0.00     0.085 C 
HETATM    9  C2  UNL     1      -3.206   5.344  12.308  1.00  0.00     0.004 C 
HETATM   10  C1  UNL     1      -2.277   5.502  11.138  1.00  0.00     0.012 C 
HETATM   11  C3  UNL     1      -3.434   6.724  12.939  1.00  0.00     0.006 C 
HETATM   12  C4  UNL     1      -4.505   7.265  11.979  1.00  0.00     0.002 C 
HETATM   13  C5  UNL     1      -5.501   6.103  12.062  1.00  0.00     0.025 C 
ENDBRANCH   1   8
BRANCH   7  14
HETATM   14  O1  UNL     1      -4.340   1.849  11.462  1.00  0.00    -0.375 OA
ATOM     15  H1  UNL     1      -3.503   1.706  11.037  1.00  0.00     0.212 HD
ENDBRANCH   7  14
BRANCH   5  16
HETATM   16  C10 UNL     1      -5.943   0.702  16.791  1.00  0.00     0.024 A 
HETATM   17  C11 UNL     1      -6.133   1.690  17.957  1.00  0.00     0.010 A 
HETATM   18  C12 UNL     1      -7.265   1.124  17.148  1.00  0.00     0.010 A 
ENDBRANCH   5  16
TORSDOF 3
ENDMDL
MODEL 5
REMARK VINA RESULT: -6.041232539      2.199      3.344
REMARK  3 active torsions:
REMARK  status: ('A' for Active; 'I' for Inactive)
REMARK    1  A    between atoms: C6_6  and  N1_7 
REMARK    2  A    between atoms: C9_11  and  C10_12 
REMARK    3  A    between atoms: C14_16  and  O1_17 
ROOT
HETATM    1  N1  UNL     1      -3.670   4.693  13.188  1.00  0.00    -0.380 N 
HETATM    2  C7  UNL     1      -3.317   4.008  14.373  1.00  0.00     0.139 C 
HETATM    3  C8  UNL     1      -4.318   2.828  14.482  1.00  0.00     0.141 C 
HETATM    4  N2  UNL     1      -5.490   3.376  14.907  1.00  0.00    -0.387 N 
HETATM    5  C9  UNL     1      -6.552   2.876  15.582  1.00  0.00     0.063 C 
HETATM    6  C13 UNL     1      -6.028   4.165  13.772  1.00  0.00     0.175 C 
HETATM    7  C14 UNL     1      -5.028   4.822  12.921  1.00  0.00     0.234 C 
ENDROOT
BRANCH   1   8
HETATM    8  C6  UNL     1      -2.696   4.690  12.212  1.00  0.00     0.085 C 
HETATM    9  C2  UNL     1      -3.038   3.664  11.147  1.00  0.00     0.004 C 
HETATM   10  C1  UNL     1      -3.164   4.246   9.768  1.00  0.00     0.012 C 
HETATM   11  C3  UNL     1      -1.817   2.737  11.173  1.00  0.00     0.006 C 
HETATM   12  C4  UNL     1      -0.709   3.785  11.360  1.00  0.00     0.002 C 
HETATM   13  C5  UNL     1      -1.274   4.505  12.590  1.00  0.00     0.025 C 
ENDBRANCH   1   8
BRANCH   7  14
HETATM   14  O1  UNL     1      -5.317   6.218  12.946  1.00  0.00    -0.375 OA
ATOM     15  H1  UNL     1      -5.805   6.380  13.744  1.00  0.00     0.212 HD
ENDBRANCH   7  14
BRANCH   5  16
HETATM   16  C10 UNL     1      -6.665   2.421  16.952  1.00  0.00     0.024 A 
HETATM   17  C11 UNL     1      -7.227   0.995  17.109  1.00  0.00     0.010 A 
HETATM   18  C12 UNL     1      -5.947   1.464  17.740  1.00  0.00     0.010 A 
ENDBRANCH   5  16
TORSDOF 3
ENDMDL
