MODEL 1
REMARK VINA RESULT: -6.586983209      0.000      0.000
REMARK  5 active torsions:
REMARK  status: ('A' for Active; 'I' for Inactive)
REMARK    1  A    between atoms: O1_1  and  C1_3 
REMARK    2  A    between atoms: C6_9  and  C7_10 
REMARK    3  A    between atoms: C7_10  and  O2_11 
REMARK    4  A    between atoms: C7_10  and  C8_13 
REMARK    5  A    between atoms: C8_13  and  C9_14 
ROOT
HETATM    1  C1  UNL     1      -4.527   2.617  10.897  1.00  0.00     0.151 C 
HETATM    2  C2  UNL     1      -4.902   1.168  10.738  1.00  0.00     0.304 C 
HETATM    3  N1  UNL     1      -4.059   0.334  11.605  1.00  0.00     0.091 N 
HETATM    4  C3  UNL     1      -2.707   0.442  11.140  1.00  0.00     0.273 C 
HETATM    5  C4  UNL     1      -2.220   1.877  11.040  1.00  0.00     0.038 C 
HETATM    6  C5  UNL     1      -3.275   2.726  11.764  1.00  0.00     0.026 C 
HETATM    7  C6  UNL     1      -3.452   2.127  13.120  1.00  0.00     0.049 C 
HETATM    8  C14 UNL     1      -4.153   0.811  12.986  1.00  0.00     0.280 C 
ENDROOT
BRANCH   7   9
HETATM    9  C7  UNL     1      -4.113   3.083  14.064  1.00  0.00     0.124 C 
BRANCH   9  10
HETATM   10  O2  UNL     1      -4.303   4.345  13.562  1.00  0.00    -0.395 OA
ATOM     11  H2  UNL     1      -4.842   4.911  14.103  1.00  0.00     0.210 HD
ENDBRANCH   9  10
BRANCH   9  12
HETATM   12  C8  UNL     1      -5.449   2.567  14.549  1.00  0.00     0.037 C 
BRANCH  12  13
HETATM   13  C9  UNL     1      -5.403   2.406  16.046  1.00  0.00    -0.012 C 
HETATM   14  C10 UNL     1      -6.776   2.614  16.648  1.00  0.00     0.005 C 
HETATM   15  C11 UNL     1      -7.268   1.187  16.790  1.00  0.00     0.000 C 
HETATM   16  C12 UNL     1      -6.028   0.541  17.423  1.00  0.00     0.000 C 
HETATM   17  C13 UNL     1      -4.956   1.020  16.459  1.00  0.00     0.005 C 
ENDBRANCH  12  13
ENDBRANCH   9  12
ENDBRANCH   7   9
BRANCH   1  18
HETATM   18  O1  UNL     1      -4.125   3.062   9.615  1.00  0.00    -0.393 OA
ATOM     19  H1  UNL     1      -3.954   3.993   9.701  1.00  0.00     0.210 HD
ENDBRANCH   1  18
TORSDOF 5
ENDMDL
MODEL 2
REMARK VINA RESULT: -6.551927448      1.950      2.913
REMARK  5 active torsions:
REMARK  status: ('A' for Active; 'I' for Inactive)
REMARK    1  A    between atoms: O1_1  and  C1_3 
REMARK    2  A    between atoms: C6_9  and  C7_10 
REMARK    3  A    between atoms: C7_10  and  O2_11 
REMARK    4  A    between atoms: C7_10  and  C8_13 
REMARK    5  A    between atoms: C8_13  and  C9_14 
ROOT
HETATM    1  C1  UNL     1      -4.816   2.134  11.032  1.00  0.00     0.151 C 
HETATM    2  C2  UNL     1      -4.835   0.703  10.564  1.00  0.00     0.304 C 
HETATM    3  N1  UNL     1      -3.858  -0.086  11.327  1.00  0.00     0.091 N 
HETATM    4  C3  UNL     1      -2.550   0.411  11.014  1.00  0.00     0.273 C 
HETATM    5  C4  UNL     1      -2.408   1.906  11.236  1.00  0.00     0.038 C 
HETATM    6  C5  UNL     1      -3.662   2.334  12.012  1.00  0.00     0.026 C 
HETATM    7  C6  UNL     1      -3.753   1.442  13.206  1.00  0.00     0.049 C 
HETATM    8  C14 UNL     1      -4.120   0.062  12.760  1.00  0.00     0.280 C 
ENDROOT
BRANCH   7   9
HETATM    9  C7  UNL     1      -4.659   2.013  14.253  1.00  0.00     0.124 C 
BRANCH   9  10
HETATM   10  O2  UNL     1      -5.021   1.132  15.240  1.00  0.00    -0.395 OA
ATOM     11  H2  UNL     1      -5.163   1.526  16.093  1.00  0.00     0.210 HD
ENDBRANCH   9  10
BRANCH   9  12
HETATM   12  C8  UNL     1      -4.062   3.235  14.913  1.00  0.00     0.037 C 
BRANCH  12  13
HETATM   13  C9  UNL     1      -5.091   4.336  14.938  1.00  0.00    -0.012 C 
HETATM   14  C10 UNL     1      -4.463   5.662  14.568  1.00  0.00     0.005 C 
HETATM   15  C11 UNL     1      -4.801   5.761  13.094  1.00  0.00     0.000 C 
HETATM   16  C12 UNL     1      -6.286   5.379  13.136  1.00  0.00     0.000 C 
HETATM   17  C13 UNL     1      -6.208   4.096  13.946  1.00  0.00     0.005 C 
ENDBRANCH  12  13
ENDBRANCH   9  12
ENDBRANCH   7   9
BRANCH   1  18
HETATM   18  O1  UNL     1      -4.474   2.913   9.901  1.00  0.00    -0.393 OA
ATOM     19  H1  UNL     1      -4.640   3.817  10.143  1.00  0.00     0.210 HD
ENDBRANCH   1  18
TORSDOF 5
ENDMDL
MODEL 3
REMARK VINA RESULT: -6.438012428      1.387      2.152
REMARK  5 active torsions:
REMARK  status: ('A' for Active; 'I' for Inactive)
REMARK    1  A    between atoms: O1_1  and  C1_3 
REMARK    2  A    between atoms: C6_9  and  C7_10 
REMARK    3  A    between atoms: C7_10  and  O2_11 
REMARK    4  A    between atoms: C7_10  and  C8_13 
REMARK    5  A    between atoms: C8_13  and  C9_14 
ROOT
HETATM    1  C1  UNL     1      -2.353   2.113  11.773  1.00  0.00     0.151 C 
HETATM    2  C2  UNL     1      -2.985   2.751  10.565  1.00  0.00     0.304 C 
HETATM    3  N1  UNL     1      -4.443   2.814  10.736  1.00  0.00     0.091 N 
HETATM    4  C3  UNL     1      -4.940   1.470  10.775  1.00  0.00     0.273 C 
HETATM    5  C4  UNL     1      -4.256   0.607  11.820  1.00  0.00     0.038 C 
HETATM    6  C5  UNL     1      -3.446   1.575  12.694  1.00  0.00     0.026 C 
HETATM    7  C6  UNL     1      -4.392   2.634  13.153  1.00  0.00     0.049 C 
HETATM    8  C14 UNL     1      -4.760   3.501  11.990  1.00  0.00     0.280 C 
ENDROOT
BRANCH   7   9
HETATM    9  C7  UNL     1      -3.853   3.384  14.333  1.00  0.00     0.124 C 
BRANCH   9  10
HETATM   10  O2  UNL     1      -4.363   4.646  14.492  1.00  0.00    -0.395 OA
ATOM     11  H2  UNL     1      -4.934   4.753  15.244  1.00  0.00     0.210 HD
ENDBRANCH   9  10
BRANCH   9  12
HETATM   12  C8  UNL     1      -4.061   2.628  15.626  1.00  0.00     0.037 C 
BRANCH  12  13
HETATM   13  C9  UNL     1      -5.326   1.815  15.525  1.00  0.00    -0.012 C 
HETATM   14  C10 UNL     1      -5.144   0.461  16.177  1.00  0.00     0.005 C 
HETATM   15  C11 UNL     1      -5.738   0.700  17.551  1.00  0.00     0.000 C 
HETATM   16  C12 UNL     1      -7.041   1.410  17.156  1.00  0.00     0.000 C 
HETATM   17  C13 UNL     1      -6.490   2.479  16.228  1.00  0.00     0.005 C 
ENDBRANCH  12  13
ENDBRANCH   9  12
ENDBRANCH   7   9
BRANCH   1  18
HETATM   18  O1  UNL     1      -1.674   0.965  11.301  1.00  0.00    -0.393 OA
ATOM     19  H1  UNL     1      -1.744   0.314  11.991  1.00  0.00     0.210 HD
ENDBRANCH   1  18
TORSDOF 5
ENDMDL
MODEL 4
REMARK VINA RESULT: -6.327027385      1.489      2.130
REMARK  5 active torsions:
REMARK  status: ('A' for Active; 'I' for Inactive)
REMARK    1  A    between atoms: O1_1  and  C1_3 
REMARK    2  A    between atoms: C6_9  and  C7_10 
REMARK    3  A    between atoms: C7_10  and  O2_11 
REMARK    4  A    between atoms: C7_10  and  C8_13 
REMARK    5  A    between atoms: C8_13  and  C9_14 
ROOT
HETATM    1  C1  UNL     1      -2.851   1.289  11.471  1.00  0.00     0.151 C 
HETATM    2  C2  UNL     1      -1.728   2.149  10.956  1.00  0.00     0.304 C 
HETATM    3  N1  UNL     1      -2.076   3.568  11.104  1.00  0.00     0.091 N 
HETATM    4  C3  UNL     1      -3.198   3.837  10.253  1.00  0.00     0.273 C 
HETATM    5  C4  UNL     1      -4.374   2.909  10.499  1.00  0.00     0.038 C 
HETATM    6  C5  UNL     1      -4.053   2.168  11.806  1.00  0.00     0.026 C 
HETATM    7  C6  UNL     1      -3.744   3.212  12.827  1.00  0.00     0.049 C 
HETATM    8  C14 UNL     1      -2.428   3.845  12.499  1.00  0.00     0.280 C 
ENDROOT
BRANCH   7   9
HETATM    9  C7  UNL     1      -3.834   2.667  14.219  1.00  0.00     0.124 C 
BRANCH   9  10
HETATM   10  O2  UNL     1      -3.132   3.376  15.159  1.00  0.00    -0.395 OA
ATOM     11  H2  UNL     1      -3.593   3.515  15.979  1.00  0.00     0.210 HD
ENDBRANCH   9  10
BRANCH   9  12
HETATM   12  C8  UNL     1      -5.267   2.556  14.691  1.00  0.00     0.037 C 
BRANCH  12  13
HETATM   13  C9  UNL     1      -5.280   2.284  16.173  1.00  0.00    -0.012 C 
HETATM   14  C10 UNL     1      -6.636   2.604  16.763  1.00  0.00     0.005 C 
HETATM   15  C11 UNL     1      -7.290   1.237  16.789  1.00  0.00     0.000 C 
HETATM   16  C12 UNL     1      -6.149   0.410  17.396  1.00  0.00     0.000 C 
HETATM   17  C13 UNL     1      -5.004   0.830  16.490  1.00  0.00     0.005 C 
ENDBRANCH  12  13
ENDBRANCH   9  12
ENDBRANCH   7   9
BRANCH   1  18
HETATM   18  O1  UNL     1      -3.270   0.494  10.379  1.00  0.00    -0.393 OA
ATOM     19  H1  UNL     1      -2.632   0.636   9.688  1.00  0.00     0.210 HD
ENDBRANCH   1  18
TORSDOF 5
ENDMDL
MODEL 5
REMARK VINA RESULT: -6.223575572      1.654      2.442
REMARK  5 active torsions:
REMARK  status: ('A' for Active; 'I' for Inactive)
REMARK    1  A    between atoms: O1_1  and  C1_3 
REMARK    2  A    between atoms: C6_9  and  C7_10 
REMARK    3  A    between atoms: C7_10  and  O2_11 
REMARK    4  A    between atoms: C7_10  and  C8_13 
REMARK    5  A    between atoms: C8_13  and  C9_14 
ROOT
HETATM    1  C1  UNL     1      -4.238   2.363  11.193  1.00  0.00     0.151 C 
HETATM    2  C2  UNL     1      -2.812   1.951  11.446  1.00  0.00     0.304 C 
HETATM    3  N1  UNL     1      -1.968   3.142  11.614  1.00  0.00     0.091 N 
HETATM    4  C3  UNL     1      -1.956   3.851  10.369  1.00  0.00     0.273 C 
HETATM    5  C4  UNL     1      -3.345   4.177   9.849  1.00  0.00     0.038 C 
HETATM    6  C5  UNL     1      -4.304   3.878  11.011  1.00  0.00     0.026 C 
HETATM    7  C6  UNL     1      -3.793   4.629  12.195  1.00  0.00     0.049 C 
HETATM    8  C14 UNL     1      -2.524   3.992  12.669  1.00  0.00     0.280 C 
ENDROOT
BRANCH   7   9
HETATM    9  C7  UNL     1      -4.843   4.773  13.254  1.00  0.00     0.124 C 
BRANCH   9  10
HETATM   10  O2  UNL     1      -6.096   4.365  12.877  1.00  0.00    -0.395 OA
ATOM     11  H2  UNL     1      -6.362   4.648  12.009  1.00  0.00     0.210 HD
ENDBRANCH   9  10
BRANCH   9  12
HETATM   12  C8  UNL     1      -4.472   4.036  14.521  1.00  0.00     0.037 C 
BRANCH  12  13
HETATM   13  C9  UNL     1      -5.351   2.820  14.661  1.00  0.00    -0.012 C 
HETATM   14  C10 UNL     1      -4.512   1.566  14.784  1.00  0.00     0.005 C 
HETATM   15  C11 UNL     1      -4.475   1.367  16.286  1.00  0.00     0.000 C 
HETATM   16  C12 UNL     1      -5.961   1.566  16.615  1.00  0.00     0.000 C 
HETATM   17  C13 UNL     1      -6.219   2.881  15.899  1.00  0.00     0.005 C 
ENDBRANCH  12  13
ENDBRANCH   9  12
ENDBRANCH   7   9
BRANCH   1  18
HETATM   18  O1  UNL     1      -4.584   1.826   9.931  1.00  0.00    -0.393 OA
ATOM     19  H1  UNL     1      -3.821   1.943   9.376  1.00  0.00     0.210 HD
ENDBRANCH   1  18
TORSDOF 5
ENDMDL
