MODEL 1
REMARK VINA RESULT: -6.224643168      0.000      0.000
REMARK  3 active torsions:
REMARK  status: ('A' for Active; 'I' for Inactive)
REMARK    1  A    between atoms: C4_4  and  N1_5 
REMARK    2  A    between atoms: C7_8  and  N2_9 
REMARK    3  A    between atoms: N2_9  and  C8_11 
ROOT
HETATM    1  N1  UNL     1      -3.932   2.682  14.658  1.00  0.00     0.093 N 
HETATM    2  C5  UNL     1      -4.424   2.242  13.369  1.00  0.00     0.275 C 
HETATM    3  C6  UNL     1      -4.349   3.441  12.404  1.00  0.00     0.055 C 
HETATM    4  C7  UNL     1      -2.824   3.760  12.393  1.00  0.00     0.080 C 
HETATM    5  C11 UNL     1      -2.601   4.496  13.663  1.00  0.00     0.055 C 
HETATM    6  C12 UNL     1      -3.574   4.043  14.759  1.00  0.00     0.275 C 
ENDROOT
BRANCH   4   7
HETATM    7  N2  UNL     1      -2.409   4.270  11.171  1.00  0.00    -0.410 N 
ATOM      8  H2  UNL     1      -3.047   4.897  10.680  1.00  0.00     0.154 HD
BRANCH   7   9
HETATM    9  C8  UNL     1      -1.187   3.990  10.564  1.00  0.00     0.128 C 
HETATM   10  C9  UNL     1      -0.091   4.956  10.845  1.00  0.00     0.258 C 
HETATM   11  N3  UNL     1       0.675   3.901  11.532  1.00  0.00    -0.071 N 
HETATM   12  C10 UNL     1      -0.289   2.938  11.132  1.00  0.00     0.258 C 
ATOM     13  H32 UNL     1       1.660   3.758  11.308  1.00  0.00     0.277 HD
ATOM     14  H31 UNL     1       0.912   4.004  12.519  1.00  0.00     0.277 HD
ENDBRANCH   7   9
ENDBRANCH   4   7
BRANCH   1  15
HETATM   15  C4  UNL     1      -4.825   2.279  15.728  1.00  0.00     0.223 C 
HETATM   16  C3  UNL     1      -6.191   2.852  15.606  1.00  0.00     0.036 C 
HETATM   17  C2  UNL     1      -6.967   2.550  16.864  1.00  0.00     0.002 C 
HETATM   18  C1  UNL     1      -6.963   1.079  17.158  1.00  0.00     0.000 C 
HETATM   19  C14 UNL     1      -5.604   0.464  17.120  1.00  0.00     0.002 C 
HETATM   20  C13 UNL     1      -4.909   0.781  15.793  1.00  0.00     0.036 C 
ENDBRANCH   1  15
TORSDOF 3
ENDMDL
MODEL 2
REMARK VINA RESULT: -6.114455881      2.237      3.036
REMARK  3 active torsions:
REMARK  status: ('A' for Active; 'I' for Inactive)
REMARK    1  A    between atoms: C4_4  and  N1_5 
REMARK    2  A    between atoms: C7_8  and  N2_9 
REMARK    3  A    between atoms: N2_9  and  C8_11 
ROOT
HETATM    1  N1  UNL     1      -5.406   3.883  14.853  1.00  0.00     0.093 N 
HETATM    2  C5  UNL     1      -4.030   3.949  14.407  1.00  0.00     0.275 C 
HETATM    3  C6  UNL     1      -4.027   4.516  12.975  1.00  0.00     0.055 C 
HETATM    4  C7  UNL     1      -4.666   5.922  13.175  1.00  0.00     0.080 C 
HETATM    5  C11 UNL     1      -6.120   5.643  13.290  1.00  0.00     0.055 C 
HETATM    6  C12 UNL     1      -6.386   4.267  13.913  1.00  0.00     0.275 C 
ENDROOT
BRANCH   4   7
HETATM    7  N2  UNL     1      -4.169   6.852  12.273  1.00  0.00    -0.410 N 
ATOM      8  H2  UNL     1      -4.661   6.957  11.385  1.00  0.00     0.154 HD
BRANCH   7   9
HETATM    9  C8  UNL     1      -3.050   7.653  12.488  1.00  0.00     0.128 C 
HETATM   10  C9  UNL     1      -2.438   7.556  13.840  1.00  0.00     0.258 C 
HETATM   11  N3  UNL     1      -1.203   7.006  13.251  1.00  0.00    -0.071 N 
HETATM   12  C10 UNL     1      -1.717   7.242  11.949  1.00  0.00     0.258 C 
ATOM     13  H32 UNL     1      -0.297   7.390  13.518  1.00  0.00     0.277 HD
ATOM     14  H31 UNL     1      -0.887   6.072  13.512  1.00  0.00     0.277 HD
ENDBRANCH   7   9
ENDBRANCH   4   7
BRANCH   1  15
HETATM   15  C4  UNL     1      -5.706   2.593  15.447  1.00  0.00     0.223 C 
HETATM   16  C3  UNL     1      -4.501   1.877  15.943  1.00  0.00     0.036 C 
HETATM   17  C2  UNL     1      -4.892   0.475  16.340  1.00  0.00     0.002 C 
HETATM   18  C1  UNL     1      -6.023   0.489  17.325  1.00  0.00     0.000 C 
HETATM   19  C14 UNL     1      -7.172   1.343  16.904  1.00  0.00     0.002 C 
HETATM   20  C13 UNL     1      -6.694   2.757  16.565  1.00  0.00     0.036 C 
ENDBRANCH   1  15
TORSDOF 3
ENDMDL
MODEL 3
REMARK VINA RESULT: -6.107628430      3.256      4.351
REMARK  3 active torsions:
REMARK  status: ('A' for Active; 'I' for Inactive)
REMARK    1  A    between atoms: C4_4  and  N1_5 
REMARK    2  A    between atoms: C7_8  and  N2_9 
REMARK    3  A    between atoms: N2_9  and  C8_11 
ROOT
HETATM    1  N1  UNL     1      -5.215   3.634  14.043  1.00  0.00     0.093 N 
HETATM    2  C5  UNL     1      -6.438   4.190  13.500  1.00  0.00     0.275 C 
HETATM    3  C6  UNL     1      -6.322   5.725  13.560  1.00  0.00     0.055 C 
HETATM    4  C7  UNL     1      -5.081   5.998  12.659  1.00  0.00     0.080 C 
HETATM    5  C11 UNL     1      -3.925   5.664  13.529  1.00  0.00     0.055 C 
HETATM    6  C12 UNL     1      -4.273   4.561  14.536  1.00  0.00     0.275 C 
ENDROOT
BRANCH   4   7
HETATM    7  N2  UNL     1      -5.173   7.217  12.002  1.00  0.00    -0.410 N 
ATOM      8  H2  UNL     1      -4.309   7.733  11.843  1.00  0.00     0.154 HD
BRANCH   7   9
HETATM    9  C8  UNL     1      -6.358   7.788  11.545  1.00  0.00     0.128 C 
HETATM   10  C9  UNL     1      -6.249   9.182  11.036  1.00  0.00     0.258 C 
HETATM   11  N3  UNL     1      -6.633   8.730   9.687  1.00  0.00    -0.071 N 
HETATM   12  C10 UNL     1      -6.893   7.430  10.194  1.00  0.00     0.258 C 
ATOM     13  H32 UNL     1      -7.356   9.229   9.169  1.00  0.00     0.277 HD
ATOM     14  H31 UNL     1      -5.987   8.852   8.906  1.00  0.00     0.277 HD
ENDBRANCH   7   9
ENDBRANCH   4   7
BRANCH   1  15
HETATM   15  C4  UNL     1      -5.496   2.586  15.007  1.00  0.00     0.223 C 
HETATM   16  C3  UNL     1      -4.282   2.074  15.694  1.00  0.00     0.036 C 
HETATM   17  C2  UNL     1      -4.652   0.857  16.506  1.00  0.00     0.002 C 
HETATM   18  C1  UNL     1      -5.783   1.160  17.444  1.00  0.00     0.000 C 
HETATM   19  C14 UNL     1      -6.944   1.827  16.786  1.00  0.00     0.002 C 
HETATM   20  C13 UNL     1      -6.486   3.075  16.025  1.00  0.00     0.036 C 
ENDBRANCH   1  15
TORSDOF 3
ENDMDL
MODEL 4
REMARK VINA RESULT: -6.095862135      3.146      6.690
REMARK  3 active torsions:
REMARK  status: ('A' for Active; 'I' for Inactive)
REMARK    1  A    between atoms: C4_4  and  N1_5 
REMARK    2  A    between atoms: C7_8  and  N2_9 
REMARK    3  A    between atoms: N2_9  and  C8_11 
ROOT
HETATM    1  N1  UNL     1      -5.250   5.587  13.525  1.00  0.00     0.093 N 
HETATM    2  C5  UNL     1      -6.342   4.654  13.710  1.00  0.00     0.275 C 
HETATM    3  C6  UNL     1      -5.747   3.233  13.728  1.00  0.00     0.055 C 
HETATM    4  C7  UNL     1      -4.787   3.292  14.953  1.00  0.00     0.080 C 
HETATM    5  C11 UNL     1      -3.595   4.015  14.441  1.00  0.00     0.055 C 
HETATM    6  C12 UNL     1      -3.969   5.022  13.347  1.00  0.00     0.275 C 
ENDROOT
BRANCH   4   7
HETATM    7  N2  UNL     1      -4.679   2.063  15.589  1.00  0.00    -0.410 N 
ATOM      8  H2  UNL     1      -4.130   1.339  15.126  1.00  0.00     0.154 HD
BRANCH   7   9
HETATM    9  C8  UNL     1      -5.263   1.745  16.812  1.00  0.00     0.128 C 
HETATM   10  C9  UNL     1      -6.627   2.294  17.039  1.00  0.00     0.258 C 
HETATM   11  N3  UNL     1      -7.179   0.928  17.085  1.00  0.00    -0.071 N 
HETATM   12  C10 UNL     1      -5.866   0.393  17.028  1.00  0.00     0.258 C 
ATOM     13  H32 UNL     1      -7.807   0.657  17.842  1.00  0.00     0.277 HD
ATOM     14  H31 UNL     1      -7.877   0.637  16.400  1.00  0.00     0.277 HD
ENDBRANCH   7   9
ENDBRANCH   4   7
BRANCH   1  15
HETATM   15  C4  UNL     1      -5.559   6.559  12.492  1.00  0.00     0.223 C 
HETATM   16  C3  UNL     1      -5.095   6.152  11.140  1.00  0.00     0.036 C 
HETATM   17  C2  UNL     1      -5.270   7.311  10.190  1.00  0.00     0.002 C 
HETATM   18  C1  UNL     1      -6.684   7.813  10.208  1.00  0.00     0.000 C 
HETATM   19  C14 UNL     1      -7.211   8.068  11.580  1.00  0.00     0.002 C 
HETATM   20  C13 UNL     1      -7.036   6.828  12.461  1.00  0.00     0.036 C 
ENDBRANCH   1  15
TORSDOF 3
ENDMDL
MODEL 5
REMARK VINA RESULT: -6.092757227      2.163      6.492
REMARK  3 active torsions:
REMARK  status: ('A' for Active; 'I' for Inactive)
REMARK    1  A    between atoms: C4_4  and  N1_5 
REMARK    2  A    between atoms: C7_8  and  N2_9 
REMARK    3  A    between atoms: N2_9  and  C8_11 
ROOT
HETATM    1  N1  UNL     1      -4.720   2.350  12.740  1.00  0.00     0.093 N 
HETATM    2  C5  UNL     1      -4.352   1.684  13.972  1.00  0.00     0.275 C 
HETATM    3  C6  UNL     1      -4.510   2.700  15.120  1.00  0.00     0.055 C 
HETATM    4  C7  UNL     1      -6.027   3.046  15.048  1.00  0.00     0.080 C 
HETATM    5  C11 UNL     1      -6.126   3.994  13.909  1.00  0.00     0.055 C 
HETATM    6  C12 UNL     1      -5.058   3.716  12.845  1.00  0.00     0.275 C 
ENDROOT
BRANCH   4   7
HETATM    7  N2  UNL     1      -6.552   3.346  16.297  1.00  0.00    -0.410 N 
ATOM      8  H2  UNL     1      -6.637   4.331  16.548  1.00  0.00     0.154 HD
BRANCH   7   9
HETATM    9  C8  UNL     1      -6.971   2.404  17.233  1.00  0.00     0.128 C 
HETATM   10  C9  UNL     1      -7.327   1.066  16.688  1.00  0.00     0.258 C 
HETATM   11  N3  UNL     1      -6.216   0.455  17.439  1.00  0.00    -0.071 N 
HETATM   12  C10 UNL     1      -5.968   1.693  18.085  1.00  0.00     0.258 C 
ATOM     13  H32 UNL     1      -6.377  -0.386  17.993  1.00  0.00     0.277 HD
ATOM     14  H31 UNL     1      -5.463  -0.019  16.939  1.00  0.00     0.277 HD
ENDBRANCH   7   9
ENDBRANCH   4   7
BRANCH   1  15
HETATM   15  C4  UNL     1      -3.732   2.118  11.701  1.00  0.00     0.223 C 
HETATM   16  C3  UNL     1      -2.624   3.109  11.707  1.00  0.00     0.036 C 
HETATM   17  C2  UNL     1      -1.779   2.910  10.474  1.00  0.00     0.002 C 
HETATM   18  C1  UNL     1      -1.307   1.490  10.368  1.00  0.00     0.000 C 
HETATM   19  C14 UNL     1      -2.397   0.483  10.526  1.00  0.00     0.002 C 
HETATM   20  C13 UNL     1      -3.171   0.731  11.824  1.00  0.00     0.036 C 
ENDBRANCH   1  15
TORSDOF 3
ENDMDL
