MODEL 1
REMARK VINA RESULT: -6.536969831      0.000      0.000
REMARK  4 active torsions:
REMARK  status: ('A' for Active; 'I' for Inactive)
REMARK    1  A    between atoms: C5_5  and  C6_6 
REMARK       I    between atoms: C6_6  and  N1_8 
REMARK    2  A    between atoms: N2_11  and  C9_12 
REMARK    3  A    between atoms: C9_12  and  C10_13 
REMARK    4  A    between atoms: C10_13  and  O2_14 
ROOT
HETATM    1  C6  UNL     1      -1.841   3.362  11.633  1.00  0.00     0.251 C 
HETATM    2  O1  UNL     1      -0.654   3.482  11.353  1.00  0.00    -0.271 OA
HETATM    3  N1  UNL     1      -2.465   2.078  11.524  1.00  0.00    -0.344 N 
HETATM    4  C7  UNL     1      -1.618   1.017  10.964  1.00  0.00     0.146 C 
HETATM    5  C8  UNL     1      -2.470  -0.107  10.506  1.00  0.00     0.141 C 
HETATM    6  N2  UNL     1      -3.281  -0.542  11.611  1.00  0.00    -0.388 N 
HETATM    7  C11 UNL     1      -4.212   0.411  12.032  1.00  0.00     0.078 C 
HETATM    8  C12 UNL     1      -3.795   1.839  11.928  1.00  0.00     0.170 C 
ENDROOT
BRANCH   1   9
HETATM    9  C5  UNL     1      -2.560   4.599  12.046  1.00  0.00     0.278 C 
HETATM   10  C4  UNL     1      -2.183   4.636  13.595  1.00  0.00     0.048 C 
HETATM   11  C3  UNL     1      -2.443   5.971  14.173  1.00  0.00    -0.005 C 
HETATM   12  C2  UNL     1      -1.415   6.960  13.636  1.00  0.00     0.016 C 
HETATM   13  C14 UNL     1      -3.462   6.740  13.338  1.00  0.00     0.038 C 
HETATM   14  C1  UNL     1      -1.548   8.287  14.329  1.00  0.00     0.012 C 
HETATM   15  C13 UNL     1      -2.284   6.972  12.394  1.00  0.00     0.191 C 
HETATM   16  N3  UNL     1      -1.991   5.832  11.573  1.00  0.00    -0.058 N 
ATOM     17  H32 UNL     1      -0.983   5.734  11.446  1.00  0.00     0.278 HD
ATOM     18  H31 UNL     1      -2.271   6.007  10.608  1.00  0.00     0.278 HD
ENDBRANCH   1   9
BRANCH   6  19
HETATM   19  C9  UNL     1      -3.743  -1.876  11.533  1.00  0.00     0.148 C 
BRANCH  19  20
HETATM   20  C10 UNL     1      -2.678  -2.841  11.154  1.00  0.00     0.183 C 
BRANCH  20  21
HETATM   21  O2  UNL     1      -2.986  -4.151  11.483  1.00  0.00    -0.399 OA
ATOM     22  H2  UNL     1      -2.796  -4.768  10.786  1.00  0.00     0.209 HD
ENDBRANCH  20  21
ENDBRANCH  19  20
ENDBRANCH   6  19
TORSDOF 4
ENDMDL
MODEL 2
REMARK VINA RESULT: -6.228843678      4.270      5.316
REMARK  4 active torsions:
REMARK  status: ('A' for Active; 'I' for Inactive)
REMARK    1  A    between atoms: C5_5  and  C6_6 
REMARK       I    between atoms: C6_6  and  N1_8 
REMARK    2  A    between atoms: N2_11  and  C9_12 
REMARK    3  A    between atoms: C9_12  and  C10_13 
REMARK    4  A    between atoms: C10_13  and  O2_14 
ROOT
HETATM    1  C6  UNL     1      -6.234   5.878  12.689  1.00  0.00     0.251 C 
HETATM    2  O1  UNL     1      -7.210   6.345  13.263  1.00  0.00    -0.271 OA
HETATM    3  N1  UNL     1      -5.603   4.704  13.212  1.00  0.00    -0.344 N 
HETATM    4  C7  UNL     1      -6.141   4.221  14.491  1.00  0.00     0.146 C 
HETATM    5  C8  UNL     1      -5.163   3.305  15.126  1.00  0.00     0.141 C 
HETATM    6  N2  UNL     1      -4.857   2.251  14.197  1.00  0.00    -0.388 N 
HETATM    7  C11 UNL     1      -4.185   2.689  13.053  1.00  0.00     0.078 C 
HETATM    8  C12 UNL     1      -4.544   4.047  12.551  1.00  0.00     0.170 C 
ENDROOT
BRANCH   1   9
HETATM    9  C5  UNL     1      -5.756   6.605  11.481  1.00  0.00     0.278 C 
HETATM   10  C4  UNL     1      -7.046   7.484  11.157  1.00  0.00     0.048 C 
HETATM   11  C3  UNL     1      -6.717   8.592  10.235  1.00  0.00    -0.005 C 
HETATM   12  C2  UNL     1      -5.880   9.628  10.974  1.00  0.00     0.016 C 
HETATM   13  C14 UNL     1      -5.448   8.287   9.445  1.00  0.00     0.038 C 
HETATM   14  C1  UNL     1      -5.667  10.844  10.116  1.00  0.00     0.012 C 
HETATM   15  C13 UNL     1      -4.735   8.664  10.741  1.00  0.00     0.191 C 
HETATM   16  N3  UNL     1      -4.761   7.616  11.721  1.00  0.00    -0.058 N 
ATOM     17  H32 UNL     1      -4.870   8.007  12.658  1.00  0.00     0.278 HD
ATOM     18  H31 UNL     1      -3.839   7.193  11.815  1.00  0.00     0.278 HD
ENDBRANCH   1   9
BRANCH   6  19
HETATM   19  C9  UNL     1      -4.387   1.051  14.778  1.00  0.00     0.148 C 
BRANCH  19  20
HETATM   20  C10 UNL     1      -4.725   0.929  16.220  1.00  0.00     0.183 C 
BRANCH  20  21
HETATM   21  O2  UNL     1      -5.521  -0.169  16.503  1.00  0.00    -0.399 OA
ATOM     22  H2  UNL     1      -6.449   0.038  16.523  1.00  0.00     0.209 HD
ENDBRANCH  20  21
ENDBRANCH  19  20
ENDBRANCH   6  19
TORSDOF 4
ENDMDL
MODEL 3
REMARK VINA RESULT: -6.145962019      3.346      4.772
REMARK  4 active torsions:
REMARK  status: ('A' for Active; 'I' for Inactive)
REMARK    1  A    between atoms: C5_5  and  C6_6 
REMARK       I    between atoms: C6_6  and  N1_8 
REMARK    2  A    between atoms: N2_11  and  C9_12 
REMARK    3  A    between atoms: C9_12  and  C10_13 
REMARK    4  A    between atoms: C10_13  and  O2_14 
ROOT
HETATM    1  C6  UNL     1      -1.854   2.495  10.735  1.00  0.00     0.251 C 
HETATM    2  O1  UNL     1      -1.739   1.422  10.155  1.00  0.00    -0.271 OA
HETATM    3  N1  UNL     1      -2.760   2.608  11.837  1.00  0.00    -0.344 N 
HETATM    4  C7  UNL     1      -3.571   1.413  12.105  1.00  0.00     0.146 C 
HETATM    5  C8  UNL     1      -4.735   1.783  12.947  1.00  0.00     0.141 C 
HETATM    6  N2  UNL     1      -4.248   2.426  14.138  1.00  0.00    -0.388 N 
HETATM    7  C11 UNL     1      -3.628   3.654  13.898  1.00  0.00     0.078 C 
HETATM    8  C12 UNL     1      -2.870   3.777  12.619  1.00  0.00     0.170 C 
ENDROOT
BRANCH   1   9
HETATM    9  C5  UNL     1      -1.042   3.629  10.212  1.00  0.00     0.278 C 
HETATM   10  C4  UNL     1       0.256   3.486  11.127  1.00  0.00     0.048 C 
HETATM   11  C3  UNL     1       1.392   4.244  10.561  1.00  0.00    -0.005 C 
HETATM   12  C2  UNL     1       1.887   3.540   9.303  1.00  0.00     0.016 C 
HETATM   13  C14 UNL     1       0.903   5.344   9.624  1.00  0.00     0.038 C 
HETATM   14  C1  UNL     1       3.144   4.190   8.795  1.00  0.00     0.012 C 
HETATM   15  C13 UNL     1       0.697   4.197   8.636  1.00  0.00     0.191 C 
HETATM   16  N3  UNL     1      -0.496   3.442   8.894  1.00  0.00    -0.058 N 
ATOM     17  H32 UNL     1      -0.337   2.452   8.711  1.00  0.00     0.278 HD
ATOM     18  H31 UNL     1      -1.202   3.639   8.186  1.00  0.00     0.278 HD
ENDBRANCH   1   9
BRANCH   6  19
HETATM   19  C9  UNL     1      -5.116   2.371  15.252  1.00  0.00     0.148 C 
BRANCH  19  20
HETATM   20  C10 UNL     1      -4.939   1.143  16.071  1.00  0.00     0.183 C 
BRANCH  20  21
HETATM   21  O2  UNL     1      -3.611   0.784  16.235  1.00  0.00    -0.399 OA
ATOM     22  H2  UNL     1      -3.443  -0.130  16.039  1.00  0.00     0.209 HD
ENDBRANCH  20  21
ENDBRANCH  19  20
ENDBRANCH   6  19
TORSDOF 4
ENDMDL
MODEL 4
REMARK VINA RESULT: -6.135580545      1.428      2.019
REMARK  4 active torsions:
REMARK  status: ('A' for Active; 'I' for Inactive)
REMARK    1  A    between atoms: C5_5  and  C6_6 
REMARK       I    between atoms: C6_6  and  N1_8 
REMARK    2  A    between atoms: N2_11  and  C9_12 
REMARK    3  A    between atoms: C9_12  and  C10_13 
REMARK    4  A    between atoms: C10_13  and  O2_14 
ROOT
HETATM    1  C6  UNL     1      -3.721   3.900  12.034  1.00  0.00     0.251 C 
HETATM    2  O1  UNL     1      -4.878   4.233  12.257  1.00  0.00    -0.271 OA
HETATM    3  N1  UNL     1      -3.430   2.539  11.700  1.00  0.00    -0.344 N 
HETATM    4  C7  UNL     1      -4.574   1.620  11.766  1.00  0.00     0.146 C 
HETATM    5  C8  UNL     1      -4.084   0.222  11.830  1.00  0.00     0.141 C 
HETATM    6  N2  UNL     1      -3.225  -0.011  10.702  1.00  0.00    -0.388 N 
HETATM    7  C11 UNL     1      -2.046   0.740  10.730  1.00  0.00     0.078 C 
HETATM    8  C12 UNL     1      -2.141   2.102  11.328  1.00  0.00     0.170 C 
ENDROOT
BRANCH   1   9
HETATM    9  C5  UNL     1      -2.683   4.961  12.161  1.00  0.00     0.278 C 
HETATM   10  C4  UNL     1      -3.614   6.239  12.362  1.00  0.00     0.048 C 
HETATM   11  C3  UNL     1      -2.843   7.379  12.902  1.00  0.00    -0.005 C 
HETATM   12  C2  UNL     1      -2.480   7.096  14.354  1.00  0.00     0.016 C 
HETATM   13  C14 UNL     1      -1.355   7.220  12.610  1.00  0.00     0.038 C 
HETATM   14  C1  UNL     1      -1.840   8.303  14.982  1.00  0.00     0.012 C 
HETATM   15  C13 UNL     1      -1.392   6.222  13.765  1.00  0.00     0.191 C 
HETATM   16  N3  UNL     1      -1.931   4.946  13.387  1.00  0.00    -0.058 N 
ATOM     17  H32 UNL     1      -2.493   4.559  14.145  1.00  0.00     0.278 HD
ATOM     18  H31 UNL     1      -1.191   4.246  13.343  1.00  0.00     0.278 HD
ENDBRANCH   1   9
BRANCH   6  19
HETATM   19  C9  UNL     1      -3.096  -1.363  10.309  1.00  0.00     0.148 C 
BRANCH  19  20
HETATM   20  C10 UNL     1      -2.933  -2.292  11.458  1.00  0.00     0.183 C 
BRANCH  20  21
HETATM   21  O2  UNL     1      -2.544  -3.566  11.078  1.00  0.00    -0.399 OA
ATOM     22  H2  UNL     1      -3.205  -4.227  11.254  1.00  0.00     0.209 HD
ENDBRANCH  20  21
ENDBRANCH  19  20
ENDBRANCH   6  19
TORSDOF 4
ENDMDL
MODEL 5
REMARK VINA RESULT: -6.121864560      1.396      2.145
REMARK  4 active torsions:
REMARK  status: ('A' for Active; 'I' for Inactive)
REMARK    1  A    between atoms: C5_5  and  C6_6 
REMARK       I    between atoms: C6_6  and  N1_8 
REMARK    2  A    between atoms: N2_11  and  C9_12 
REMARK    3  A    between atoms: C9_12  and  C10_13 
REMARK    4  A    between atoms: C10_13  and  O2_14 
ROOT
HETATM    1  C6  UNL     1      -1.799   3.138  11.661  1.00  0.00     0.251 C 
HETATM    2  O1  UNL     1      -0.717   3.304  11.111  1.00  0.00    -0.271 OA
HETATM    3  N1  UNL     1      -2.454   1.869  11.561  1.00  0.00    -0.344 N 
HETATM    4  C7  UNL     1      -1.792   0.890  10.688  1.00  0.00     0.146 C 
HETATM    5  C8  UNL     1      -2.751  -0.182  10.328  1.00  0.00     0.141 C 
HETATM    6  N2  UNL     1      -3.271  -0.753  11.541  1.00  0.00    -0.388 N 
HETATM    7  C11 UNL     1      -4.051   0.133  12.288  1.00  0.00     0.078 C 
HETATM    8  C12 UNL     1      -3.646   1.568  12.251  1.00  0.00     0.170 C 
ENDROOT
BRANCH   1   9
HETATM    9  C5  UNL     1      -2.371   4.309  12.381  1.00  0.00     0.278 C 
HETATM   10  C4  UNL     1      -3.581   4.670  11.407  1.00  0.00     0.048 C 
HETATM   11  C3  UNL     1      -4.557   5.555  12.078  1.00  0.00    -0.005 C 
HETATM   12  C2  UNL     1      -5.310   4.759  13.137  1.00  0.00     0.016 C 
HETATM   13  C14 UNL     1      -3.912   6.296  13.245  1.00  0.00     0.038 C 
HETATM   14  C1  UNL     1      -6.422   5.583  13.724  1.00  0.00     0.012 C 
HETATM   15  C13 UNL     1      -4.063   4.962  13.974  1.00  0.00     0.191 C 
HETATM   16  N3  UNL     1      -3.058   4.006  13.607  1.00  0.00    -0.058 N 
ATOM     17  H32 UNL     1      -3.456   3.067  13.569  1.00  0.00     0.278 HD
ATOM     18  H31 UNL     1      -2.390   3.881  14.368  1.00  0.00     0.278 HD
ENDBRANCH   1   9
BRANCH   6  19
HETATM   19  C9  UNL     1      -3.762  -2.073  11.425  1.00  0.00     0.148 C 
BRANCH  19  20
HETATM   20  C10 UNL     1      -2.700  -3.066  11.116  1.00  0.00     0.183 C 
BRANCH  20  21
HETATM   21  O2  UNL     1      -3.051  -4.363  11.453  1.00  0.00    -0.399 OA
ATOM     22  H2  UNL     1      -3.358  -4.447  12.349  1.00  0.00     0.209 HD
ENDBRANCH  20  21
ENDBRANCH  19  20
ENDBRANCH   6  19
TORSDOF 4
ENDMDL
