MODEL 1
REMARK VINA RESULT: -6.523443137      0.000      0.000
REMARK  8 active torsions:
REMARK  status: ('A' for Active; 'I' for Inactive)
REMARK    1  A    between atoms: C2_2  and  C3_3 
REMARK    2  A    between atoms: C4_4  and  N1_5 
REMARK    3  A    between atoms: C10_13  and  C11_14 
REMARK    4  A    between atoms: C13_16  and  N3_17 
REMARK    5  A    between atoms: N4_20  and  C16_21 
REMARK    6  A    between atoms: C16_21  and  C17_22 
REMARK    7  A    between atoms: C17_22  and  C18_23 
REMARK    8  A    between atoms: C18_23  and  O1_24 
ROOT
HETATM    1  C3  UNL     1       0.701   8.934  72.155  1.00  0.00     0.015 A 
HETATM    2  C4  UNL     1       0.234   7.764  71.619  1.00  0.00     0.112 A 
HETATM    3  N2  UNL     1      -0.556   7.159  72.576  1.00  0.00    -0.340 N 
ATOM      4  H2  UNL     1      -1.037   6.268  72.450  1.00  0.00     0.167 HD
HETATM    5  C9  UNL     1      -0.605   7.887  73.674  1.00  0.00     0.070 A 
HETATM    6  C10 UNL     1      -1.271   7.673  74.884  1.00  0.00    -0.002 A 
HETATM    7  C13 UNL     1      -1.126   8.628  75.853  1.00  0.00     0.054 A 
HETATM    8  C21 UNL     1      -0.333   9.758  75.602  1.00  0.00     0.118 A 
HETATM    9  N5  UNL     1       0.277   9.896  74.417  1.00  0.00    -0.361 N 
ATOM     10  H5  UNL     1       0.849  10.724  74.251  1.00  0.00     0.165 HD
HETATM   11  C22 UNL     1       0.162   8.992  73.448  1.00  0.00     0.069 A 
ENDROOT
BRANCH   7  12
HETATM   12  N3  UNL     1      -1.783   8.472  77.095  1.00  0.00    -0.373 N 
HETATM   13  C14 UNL     1      -1.217   7.772  78.207  1.00  0.00     0.143 C 
HETATM   14  C15 UNL     1      -2.197   6.695  78.638  1.00  0.00     0.146 C 
HETATM   15  N4  UNL     1      -3.534   7.149  78.809  1.00  0.00    -0.371 N 
HETATM   16  C19 UNL     1      -4.060   7.937  77.772  1.00  0.00     0.083 C 
HETATM   17  C20 UNL     1      -3.122   9.039  77.310  1.00  0.00     0.167 C 
BRANCH  15  18
HETATM   18  C16 UNL     1      -3.962   7.330  80.136  1.00  0.00     0.065 C 
BRANCH  18  19
HETATM   19  C17 UNL     1      -4.152   8.746  80.564  1.00  0.00     0.070 C 
BRANCH  19  20
HETATM   20  C18 UNL     1      -2.887   9.222  81.277  1.00  0.00     0.169 C 
BRANCH  20  21
HETATM   21  O1  UNL     1      -2.218  10.156  80.514  1.00  0.00    -0.401 OA
ATOM     22  H1  UNL     1      -2.397  11.035  80.825  1.00  0.00     0.209 HD
ENDBRANCH  20  21
ENDBRANCH  19  20
ENDBRANCH  18  19
ENDBRANCH  15  18
ENDBRANCH   7  12
BRANCH   6  23
HETATM   23  C11 UNL     1      -2.069   6.436  75.052  1.00  0.00     0.039 C 
HETATM   24  C12 UNL     1      -3.506   6.680  74.627  1.00  0.00     0.010 C 
ENDBRANCH   6  23
BRANCH   2  25
HETATM   25  N1  UNL     1       0.507   7.240  70.348  1.00  0.00    -0.367 N 
HETATM   26  C5  UNL     1      -0.268   6.092  69.804  1.00  0.00     0.124 C 
HETATM   27  C6  UNL     1      -0.419   6.404  68.327  1.00  0.00     0.021 C 
HETATM   28  C7  UNL     1       0.424   7.658  68.117  1.00  0.00     0.021 C 
HETATM   29  C8  UNL     1       1.425   7.488  69.282  1.00  0.00     0.124 C 
ENDBRANCH   2  25
BRANCH   1  30
HETATM   30  C2  UNL     1       1.558  10.000  71.619  1.00  0.00     0.040 C 
HETATM   31  C1  UNL     1       0.761  10.933  70.752  1.00  0.00     0.010 C 
ENDBRANCH   1  30
TORSDOF 8
ENDMDL
MODEL 2
REMARK VINA RESULT: -6.513127360      2.859      8.843
REMARK  8 active torsions:
REMARK  status: ('A' for Active; 'I' for Inactive)
REMARK    1  A    between atoms: C2_2  and  C3_3 
REMARK    2  A    between atoms: C4_4  and  N1_5 
REMARK    3  A    between atoms: C10_13  and  C11_14 
REMARK    4  A    between atoms: C13_16  and  N3_17 
REMARK    5  A    between atoms: N4_20  and  C16_21 
REMARK    6  A    between atoms: C16_21  and  C17_22 
REMARK    7  A    between atoms: C17_22  and  C18_23 
REMARK    8  A    between atoms: C18_23  and  O1_24 
ROOT
HETATM    1  C3  UNL     1      -2.615   8.988  79.455  1.00  0.00     0.015 A 
HETATM    2  C4  UNL     1      -3.849   8.440  79.231  1.00  0.00     0.112 A 
HETATM    3  N2  UNL     1      -3.978   8.258  77.869  1.00  0.00    -0.340 N 
ATOM      4  H2  UNL     1      -4.801   7.864  77.413  1.00  0.00     0.167 HD
HETATM    5  C9  UNL     1      -2.895   8.663  77.235  1.00  0.00     0.070 A 
HETATM    6  C10 UNL     1      -2.581   8.670  75.874  1.00  0.00    -0.002 A 
HETATM    7  C13 UNL     1      -1.354   9.161  75.520  1.00  0.00     0.054 A 
HETATM    8  C21 UNL     1      -0.479   9.628  76.513  1.00  0.00     0.118 A 
HETATM    9  N5  UNL     1      -0.848   9.590  77.801  1.00  0.00    -0.361 N 
ATOM     10  H5  UNL     1      -0.199   9.933  78.509  1.00  0.00     0.165 HD
HETATM   11  C22 UNL     1      -2.031   9.120  78.187  1.00  0.00     0.069 A 
ENDROOT
BRANCH   7  12
HETATM   12  N3  UNL     1      -0.975   9.187  74.159  1.00  0.00    -0.373 N 
HETATM   13  C14 UNL     1      -0.392   8.071  73.478  1.00  0.00     0.143 C 
HETATM   14  C15 UNL     1       0.921   8.523  72.863  1.00  0.00     0.146 C 
HETATM   15  N4  UNL     1       0.837   9.729  72.113  1.00  0.00    -0.371 N 
HETATM   16  C19 UNL     1       0.162  10.797  72.728  1.00  0.00     0.083 C 
HETATM   17  C20 UNL     1      -1.165  10.400  73.351  1.00  0.00     0.167 C 
BRANCH  15  18
HETATM   18  C16 UNL     1       0.836   9.589  70.714  1.00  0.00     0.065 C 
BRANCH  18  19
HETATM   19  C17 UNL     1       1.468   8.344  70.191  1.00  0.00     0.070 C 
BRANCH  19  20
HETATM   20  C18 UNL     1       0.520   7.691  69.186  1.00  0.00     0.169 C 
BRANCH  20  21
HETATM   21  O1  UNL     1       0.439   8.443  68.032  1.00  0.00    -0.401 OA
ATOM     22  H1  UNL     1      -0.244   8.109  67.462  1.00  0.00     0.209 HD
ENDBRANCH  20  21
ENDBRANCH  19  20
ENDBRANCH  18  19
ENDBRANCH  15  18
ENDBRANCH   7  12
BRANCH   6  23
HETATM   23  C11 UNL     1      -3.584   8.171  74.905  1.00  0.00     0.039 C 
HETATM   24  C12 UNL     1      -3.638   6.654  74.946  1.00  0.00     0.010 C 
ENDBRANCH   6  23
BRANCH   2  25
HETATM   25  N1  UNL     1      -4.830   8.131  80.183  1.00  0.00    -0.367 N 
HETATM   26  C5  UNL     1      -4.964   6.756  80.736  1.00  0.00     0.124 C 
HETATM   27  C6  UNL     1      -5.318   6.968  82.196  1.00  0.00     0.021 C 
HETATM   28  C7  UNL     1      -5.504   8.477  82.325  1.00  0.00     0.021 C 
HETATM   29  C8  UNL     1      -5.886   8.810  80.865  1.00  0.00     0.124 C 
ENDBRANCH   2  25
BRANCH   1  30
HETATM   30  C2  UNL     1      -1.911   9.383  80.682  1.00  0.00     0.040 C 
HETATM   31  C1  UNL     1      -1.597   8.177  81.522  1.00  0.00     0.010 C 
ENDBRANCH   1  30
TORSDOF 8
ENDMDL
MODEL 3
REMARK VINA RESULT: -6.384788679      2.830      8.615
REMARK  8 active torsions:
REMARK  status: ('A' for Active; 'I' for Inactive)
REMARK    1  A    between atoms: C2_2  and  C3_3 
REMARK    2  A    between atoms: C4_4  and  N1_5 
REMARK    3  A    between atoms: C10_13  and  C11_14 
REMARK    4  A    between atoms: C13_16  and  N3_17 
REMARK    5  A    between atoms: N4_20  and  C16_21 
REMARK    6  A    between atoms: C16_21  and  C17_22 
REMARK    7  A    between atoms: C17_22  and  C18_23 
REMARK    8  A    between atoms: C18_23  and  O1_24 
ROOT
HETATM    1  C3  UNL     1      -2.496   8.531  79.837  1.00  0.00     0.015 A 
HETATM    2  C4  UNL     1      -3.694   8.069  79.360  1.00  0.00     0.112 A 
HETATM    3  N2  UNL     1      -3.679   8.224  77.988  1.00  0.00    -0.340 N 
ATOM      4  H2  UNL     1      -4.446   7.962  77.369  1.00  0.00     0.167 HD
HETATM    5  C9  UNL     1      -2.542   8.757  77.587  1.00  0.00     0.070 A 
HETATM    6  C10 UNL     1      -2.089   9.091  76.308  1.00  0.00    -0.002 A 
HETATM    7  C13 UNL     1      -0.839   9.639  76.213  1.00  0.00     0.054 A 
HETATM    8  C21 UNL     1      -0.078   9.841  77.374  1.00  0.00     0.118 A 
HETATM    9  N5  UNL     1      -0.577   9.496  78.569  1.00  0.00    -0.361 N 
ATOM     10  H5  UNL     1      -0.010   9.649  79.403  1.00  0.00     0.165 HD
HETATM   11  C22 UNL     1      -1.787   8.961  78.705  1.00  0.00     0.069 A 
ENDROOT
BRANCH   7  12
HETATM   12  N3  UNL     1      -0.322   9.990  74.945  1.00  0.00    -0.373 N 
HETATM   13  C14 UNL     1      -0.561  11.251  74.314  1.00  0.00     0.143 C 
HETATM   14  C15 UNL     1      -1.152  10.991  72.939  1.00  0.00     0.146 C 
HETATM   15  N4  UNL     1      -0.437  10.036  72.162  1.00  0.00    -0.371 N 
HETATM   16  C19 UNL     1      -0.094   8.838  72.811  1.00  0.00     0.083 C 
HETATM   17  C20 UNL     1       0.511   9.044  74.188  1.00  0.00     0.167 C 
BRANCH  15  18
HETATM   18  C16 UNL     1       0.373  10.555  71.137  1.00  0.00     0.065 C 
BRANCH  18  19
HETATM   19  C17 UNL     1       1.470  11.464  71.580  1.00  0.00     0.070 C 
BRANCH  19  20
HETATM   20  C18 UNL     1       1.080  12.905  71.256  1.00  0.00     0.169 C 
BRANCH  20  21
HETATM   21  O1  UNL     1       1.380  13.742  72.311  1.00  0.00    -0.401 OA
ATOM     22  H1  UNL     1       0.663  13.769  72.934  1.00  0.00     0.209 HD
ENDBRANCH  20  21
ENDBRANCH  19  20
ENDBRANCH  18  19
ENDBRANCH  15  18
ENDBRANCH   7  12
BRANCH   6  23
HETATM   23  C11 UNL     1      -2.980   8.853  75.150  1.00  0.00     0.039 C 
HETATM   24  C12 UNL     1      -2.997   7.376  74.799  1.00  0.00     0.010 C 
ENDBRANCH   6  23
BRANCH   2  25
HETATM   25  N1  UNL     1      -4.764   7.550  80.102  1.00  0.00    -0.367 N 
HETATM   26  C5  UNL     1      -4.678   6.211  80.748  1.00  0.00     0.124 C 
HETATM   27  C6  UNL     1      -5.408   6.380  82.067  1.00  0.00     0.021 C 
HETATM   28  C7  UNL     1      -5.987   7.790  82.001  1.00  0.00     0.021 C 
HETATM   29  C8  UNL     1      -6.084   7.952  80.468  1.00  0.00     0.124 C 
ENDBRANCH   2  25
BRANCH   1  30
HETATM   30  C2  UNL     1      -1.929   8.609  81.189  1.00  0.00     0.040 C 
HETATM   31  C1  UNL     1      -2.753   9.518  82.056  1.00  0.00     0.010 C 
ENDBRANCH   1  30
TORSDOF 8
ENDMDL
MODEL 4
REMARK VINA RESULT: -6.306750433      3.723      7.000
REMARK  8 active torsions:
REMARK  status: ('A' for Active; 'I' for Inactive)
REMARK    1  A    between atoms: C2_2  and  C3_3 
REMARK    2  A    between atoms: C4_4  and  N1_5 
REMARK    3  A    between atoms: C10_13  and  C11_14 
REMARK    4  A    between atoms: C13_16  and  N3_17 
REMARK    5  A    between atoms: N4_20  and  C16_21 
REMARK    6  A    between atoms: C16_21  and  C17_22 
REMARK    7  A    between atoms: C17_22  and  C18_23 
REMARK    8  A    between atoms: C18_23  and  O1_24 
ROOT
HETATM    1  C3  UNL     1      -0.767   4.593  72.271  1.00  0.00     0.015 A 
HETATM    2  C4  UNL     1      -1.427   4.520  73.468  1.00  0.00     0.112 A 
HETATM    3  N2  UNL     1      -1.379   5.775  74.041  1.00  0.00    -0.340 N 
ATOM      4  H2  UNL     1      -1.794   6.015  74.942  1.00  0.00     0.167 HD
HETATM    5  C9  UNL     1      -0.727   6.621  73.269  1.00  0.00     0.070 A 
HETATM    6  C10 UNL     1      -0.436   7.977  73.440  1.00  0.00    -0.002 A 
HETATM    7  C13 UNL     1       0.271   8.593  72.443  1.00  0.00     0.054 A 
HETATM    8  C21 UNL     1       0.667   7.857  71.315  1.00  0.00     0.118 A 
HETATM    9  N5  UNL     1       0.352   6.559  71.219  1.00  0.00    -0.361 N 
ATOM     10  H5  UNL     1       0.647   6.040  70.392  1.00  0.00     0.165 HD
HETATM   11  C22 UNL     1      -0.334   5.923  72.165  1.00  0.00     0.069 A 
ENDROOT
BRANCH   7  12
HETATM   12  N3  UNL     1       0.589   9.966  72.554  1.00  0.00    -0.373 N 
HETATM   13  C14 UNL     1      -0.161  10.890  73.347  1.00  0.00     0.143 C 
HETATM   14  C15 UNL     1      -0.590  12.043  72.455  1.00  0.00     0.146 C 
HETATM   15  N4  UNL     1       0.458  12.606  71.675  1.00  0.00    -0.371 N 
HETATM   16  C19 UNL     1       1.275  11.696  70.984  1.00  0.00     0.083 C 
HETATM   17  C20 UNL     1       1.741  10.528  71.835  1.00  0.00     0.167 C 
BRANCH  15  18
HETATM   18  C16 UNL     1       0.972  13.835  72.124  1.00  0.00     0.065 C 
BRANCH  18  19
HETATM   19  C17 UNL     1       0.065  14.629  73.002  1.00  0.00     0.070 C 
BRANCH  19  20
HETATM   20  C18 UNL     1       0.882  15.711  73.708  1.00  0.00     0.169 C 
BRANCH  20  21
HETATM   21  O1  UNL     1       1.530  16.511  72.790  1.00  0.00    -0.401 OA
ATOM     22  H1  UNL     1       1.988  17.220  73.226  1.00  0.00     0.209 HD
ENDBRANCH  20  21
ENDBRANCH  19  20
ENDBRANCH  18  19
ENDBRANCH  15  18
ENDBRANCH   7  12
BRANCH   6  23
HETATM   23  C11 UNL     1      -0.885   8.655  74.677  1.00  0.00     0.039 C 
HETATM   24  C12 UNL     1      -2.400   8.747  74.701  1.00  0.00     0.010 C 
ENDBRANCH   6  23
BRANCH   2  25
HETATM   25  N1  UNL     1      -2.029   3.392  74.042  1.00  0.00    -0.367 N 
HETATM   26  C5  UNL     1      -3.341   2.886  73.556  1.00  0.00     0.124 C 
HETATM   27  C6  UNL     1      -3.216   1.376  73.633  1.00  0.00     0.021 C 
HETATM   28  C7  UNL     1      -1.868   1.142  74.307  1.00  0.00     0.021 C 
HETATM   29  C8  UNL     1      -1.744   2.467  75.093  1.00  0.00     0.124 C 
ENDBRANCH   2  25
BRANCH   1  30
HETATM   30  C2  UNL     1      -0.505   3.602  71.219  1.00  0.00     0.040 C 
HETATM   31  C1  UNL     1       0.421   2.531  71.722  1.00  0.00     0.010 C 
ENDBRANCH   1  30
TORSDOF 8
ENDMDL
MODEL 5
REMARK VINA RESULT: -6.259830510      3.712      6.317
REMARK  8 active torsions:
REMARK  status: ('A' for Active; 'I' for Inactive)
REMARK    1  A    between atoms: C2_2  and  C3_3 
REMARK    2  A    between atoms: C4_4  and  N1_5 
REMARK    3  A    between atoms: C10_13  and  C11_14 
REMARK    4  A    between atoms: C13_16  and  N3_17 
REMARK    5  A    between atoms: N4_20  and  C16_21 
REMARK    6  A    between atoms: C16_21  and  C17_22 
REMARK    7  A    between atoms: C17_22  and  C18_23 
REMARK    8  A    between atoms: C18_23  and  O1_24 
ROOT
HETATM    1  C3  UNL     1       0.119   6.508  70.527  1.00  0.00     0.015 A 
HETATM    2  C4  UNL     1      -0.232   5.894  71.699  1.00  0.00     0.112 A 
HETATM    3  N2  UNL     1      -0.313   6.873  72.669  1.00  0.00    -0.340 N 
ATOM      4  H2  UNL     1      -0.557   6.701  73.644  1.00  0.00     0.167 HD
HETATM    5  C9  UNL     1      -0.031   8.059  72.166  1.00  0.00     0.070 A 
HETATM    6  C10 UNL     1       0.012   9.320  72.766  1.00  0.00    -0.002 A 
HETATM    7  C13 UNL     1       0.343  10.380  71.966  1.00  0.00     0.054 A 
HETATM    8  C21 UNL     1       0.621  10.164  70.607  1.00  0.00     0.118 A 
HETATM    9  N5  UNL     1       0.560   8.926  70.100  1.00  0.00    -0.361 N 
ATOM     10  H5  UNL     1       0.763   8.788  69.110  1.00  0.00     0.165 HD
HETATM   11  C22 UNL     1       0.242   7.869  70.843  1.00  0.00     0.069 A 
ENDROOT
BRANCH   7  12
HETATM   12  N3  UNL     1       0.395  11.682  72.512  1.00  0.00    -0.373 N 
HETATM   13  C14 UNL     1      -0.672  12.267  73.264  1.00  0.00     0.143 C 
HETATM   14  C15 UNL     1      -1.042  13.589  72.614  1.00  0.00     0.146 C 
HETATM   15  N4  UNL     1       0.064  14.442  72.343  1.00  0.00    -0.371 N 
HETATM   16  C19 UNL     1       1.167  13.846  71.708  1.00  0.00     0.083 C 
HETATM   17  C20 UNL     1       1.585  12.525  72.328  1.00  0.00     0.167 C 
BRANCH  15  18
HETATM   18  C16 UNL     1       0.240  15.526  73.221  1.00  0.00     0.065 C 
BRANCH  18  19
HETATM   19  C17 UNL     1       1.305  15.354  74.250  1.00  0.00     0.070 C 
BRANCH  19  20
HETATM   20  C18 UNL     1       0.651  15.025  75.591  1.00  0.00     0.169 C 
BRANCH  20  21
HETATM   21  O1  UNL     1       0.395  16.177  76.306  1.00  0.00    -0.401 OA
ATOM     22  H1  UNL     1      -0.086  15.980  77.101  1.00  0.00     0.209 HD
ENDBRANCH  20  21
ENDBRANCH  19  20
ENDBRANCH  18  19
ENDBRANCH  15  18
ENDBRANCH   7  12
BRANCH   6  23
HETATM   23  C11 UNL     1      -0.280   9.434  74.213  1.00  0.00     0.039 C 
HETATM   24  C12 UNL     1      -1.770   9.278  74.458  1.00  0.00     0.010 C 
ENDBRANCH   6  23
BRANCH   2  25
HETATM   25  N1  UNL     1      -0.453   4.526  71.912  1.00  0.00    -0.367 N 
HETATM   26  C5  UNL     1      -1.242   4.044  73.078  1.00  0.00     0.124 C 
HETATM   27  C6  UNL     1      -2.031   2.866  72.541  1.00  0.00     0.021 C 
HETATM   28  C7  UNL     1      -1.509   2.678  71.119  1.00  0.00     0.021 C 
HETATM   29  C8  UNL     1      -0.101   3.293  71.283  1.00  0.00     0.124 C 
ENDBRANCH   2  25
BRANCH   1  30
HETATM   30  C2  UNL     1       0.337   6.001  69.166  1.00  0.00     0.040 C 
HETATM   31  C1  UNL     1      -0.975   5.814  68.457  1.00  0.00     0.010 C 
ENDBRANCH   1  30
TORSDOF 8
ENDMDL
