MODEL 1
REMARK VINA RESULT: -7.099777890      0.000      0.000
REMARK  9 active torsions:
REMARK  status: ('A' for Active; 'I' for Inactive)
REMARK    1  A    between atoms: C3_3  and  N1_4 
REMARK    2  A    between atoms: N1_4  and  C4_5 
REMARK    3  A    between atoms: N1_4  and  C15_25 
REMARK    4  A    between atoms: C4_5  and  O1_6 
REMARK    5  A    between atoms: C4_5  and  C5_8 
REMARK    6  A    between atoms: C7_10  and  N2_11 
REMARK    7  A    between atoms: N2_11  and  C8_12 
REMARK    8  A    between atoms: N2_11  and  C10_14 
REMARK    9  A    between atoms: N4_19  and  C13_21 
ROOT
HETATM    1  C1  UNL     1      -3.417   5.947  74.794  1.00  0.00     0.014 C 
HETATM    2  C2  UNL     1      -3.368   7.083  75.205  1.00  0.00    -0.097 C 
HETATM    3  C3  UNL     1      -3.339   8.483  75.738  1.00  0.00     0.224 C 
ENDROOT
BRANCH   3   4
HETATM    4  N1  UNL     1      -2.070   8.641  76.401  1.00  0.00    -0.314 N 
BRANCH   4   5
HETATM    5  C4  UNL     1      -1.021   9.321  75.844  1.00  0.00     0.185 C 
BRANCH   5   6
HETATM    6  O1  UNL     1       0.085   9.270  76.566  1.00  0.00    -0.343 OA
ATOM      7  H1  UNL     1       0.642  10.034  76.464  1.00  0.00     0.219 HD
ENDBRANCH   5   6
BRANCH   5   8
HETATM    8  C5  UNL     1      -0.843  10.122  74.629  1.00  0.00     0.165 A 
HETATM    9  C6  UNL     1      -0.336   8.689  73.802  1.00  0.00     0.097 A 
HETATM   10  C7  UNL     1      -0.019   8.816  72.538  1.00  0.00     0.110 A 
HETATM   11  N3  UNL     1      -0.022   9.908  71.780  1.00  0.00    -0.302 N 
HETATM   12  C12 UNL     1      -0.428  11.065  72.446  1.00  0.00     0.261 A 
ATOM     13  H3  UNL     1       0.249   9.900  70.796  1.00  0.00     0.171 HD
HETATM   14  N4  UNL     1      -0.447  12.126  71.800  1.00  0.00    -0.317 N 
HETATM   15  N6  UNL     1      -0.703  10.756  73.667  1.00  0.00    -0.366 NA
ATOM     16  H4  UNL     1      -0.150  11.997  70.833  1.00  0.00     0.170 HD
BRANCH  10  17
HETATM   17  N2  UNL     1       0.398   7.590  71.819  1.00  0.00    -0.368 N 
BRANCH  17  18
HETATM   18  C8  UNL     1      -0.085   6.323  72.284  1.00  0.00     0.120 C 
HETATM   19  C9  UNL     1      -0.519   5.390  71.192  1.00  0.00     0.026 C 
ENDBRANCH  17  18
BRANCH  17  20
HETATM   20  C10 UNL     1       1.280   7.726  70.716  1.00  0.00     0.120 C 
HETATM   21  C11 UNL     1       0.578   7.908  69.414  1.00  0.00     0.026 C 
ENDBRANCH  17  20
ENDBRANCH  10  17
BRANCH  14  22
HETATM   22  C13 UNL     1      -0.779  13.459  72.080  1.00  0.00     0.186 C 
HETATM   23  C14 UNL     1       0.380  14.246  72.465  1.00  0.00     0.105 C 
HETATM   24  N5  UNL     1       1.306  14.900  72.784  1.00  0.00    -0.191 NA
ENDBRANCH  14  22
ENDBRANCH   5   8
ENDBRANCH   4   5
BRANCH   4  25
HETATM   25  C15 UNL     1      -1.904   8.151  77.752  1.00  0.00     0.038 A 
HETATM   26  C16 UNL     1      -1.481   6.896  78.083  1.00  0.00     0.036 A 
HETATM   27  C17 UNL     1      -1.352   6.481  79.413  1.00  0.00    -0.059 A 
HETATM   28  C18 UNL     1      -0.892   5.101  79.692  1.00  0.00     0.048 C 
HETATM   29  C19 UNL     1      -1.663   7.371  80.426  1.00  0.00     0.013 A 
HETATM   30  C20 UNL     1      -2.095   8.651  80.135  1.00  0.00    -0.059 A 
HETATM   31  C21 UNL     1      -2.449   9.623  81.199  1.00  0.00     0.048 C 
HETATM   32  C22 UNL     1      -2.206   9.009  78.813  1.00  0.00     0.036 A 
ENDBRANCH   4  25
ENDBRANCH   3   4
TORSDOF 9
ENDMDL
MODEL 2
REMARK VINA RESULT: -6.952965502      2.394      5.406
REMARK  9 active torsions:
REMARK  status: ('A' for Active; 'I' for Inactive)
REMARK    1  A    between atoms: C3_3  and  N1_4 
REMARK    2  A    between atoms: N1_4  and  C4_5 
REMARK    3  A    between atoms: N1_4  and  C15_25 
REMARK    4  A    between atoms: C4_5  and  O1_6 
REMARK    5  A    between atoms: C4_5  and  C5_8 
REMARK    6  A    between atoms: C7_10  and  N2_11 
REMARK    7  A    between atoms: N2_11  and  C8_12 
REMARK    8  A    between atoms: N2_11  and  C10_14 
REMARK    9  A    between atoms: N4_19  and  C13_21 
ROOT
HETATM    1  C1  UNL     1       1.111  12.284  71.756  1.00  0.00     0.014 C 
HETATM    2  C2  UNL     1       0.152  11.652  72.134  1.00  0.00    -0.097 C 
HETATM    3  C3  UNL     1      -1.049  10.866  72.564  1.00  0.00     0.224 C 
ENDROOT
BRANCH   3   4
HETATM    4  N1  UNL     1      -0.551   9.645  73.144  1.00  0.00    -0.314 N 
BRANCH   4   5
HETATM    5  C4  UNL     1       0.388   8.860  72.530  1.00  0.00     0.185 C 
BRANCH   5   6
HETATM    6  O1  UNL     1       1.496   8.710  73.235  1.00  0.00    -0.343 OA
ATOM      7  H1  UNL     1       1.831   7.821  73.233  1.00  0.00     0.219 HD
ENDBRANCH   5   6
BRANCH   5   8
HETATM    8  C5  UNL     1       0.459   8.156  71.245  1.00  0.00     0.165 A 
HETATM    9  C6  UNL     1      -0.068   6.715  72.046  1.00  0.00     0.097 A 
HETATM   10  C7  UNL     1      -0.204   5.644  71.308  1.00  0.00     0.110 A 
HETATM   11  N3  UNL     1       0.014   5.492  70.005  1.00  0.00    -0.302 N 
HETATM   12  C12 UNL     1       0.442   6.652  69.358  1.00  0.00     0.261 A 
ATOM     13  H3  UNL     1      -0.121   4.604  69.521  1.00  0.00     0.171 HD
HETATM   14  N4  UNL     1       0.673   6.581  68.139  1.00  0.00    -0.317 N 
HETATM   15  N6  UNL     1       0.515   7.600  70.229  1.00  0.00    -0.366 NA
ATOM     16  H4  UNL     1       0.511   5.645  67.768  1.00  0.00     0.170 HD
BRANCH  10  17
HETATM   17  N2  UNL     1      -0.674   4.412  71.983  1.00  0.00    -0.368 N 
BRANCH  17  18
HETATM   18  C8  UNL     1      -1.190   4.513  73.316  1.00  0.00     0.120 C 
HETATM   19  C9  UNL     1      -2.617   4.073  73.460  1.00  0.00     0.026 C 
ENDBRANCH  17  18
BRANCH  17  20
HETATM   20  C10 UNL     1      -0.564   3.181  71.285  1.00  0.00     0.120 C 
HETATM   21  C11 UNL     1       0.433   2.248  71.880  1.00  0.00     0.026 C 
ENDBRANCH  17  20
ENDBRANCH  10  17
BRANCH  14  22
HETATM   22  C13 UNL     1       1.102   7.478  67.151  1.00  0.00     0.186 C 
HETATM   23  C14 UNL     1       2.354   7.067  66.540  1.00  0.00     0.105 C 
HETATM   24  N5  UNL     1       3.371   6.753  66.036  1.00  0.00    -0.191 NA
ENDBRANCH  14  22
ENDBRANCH   5   8
ENDBRANCH   4   5
BRANCH   4  25
HETATM   25  C15 UNL     1      -0.974   9.260  74.473  1.00  0.00     0.038 A 
HETATM   26  C16 UNL     1      -0.413   9.707  75.634  1.00  0.00     0.036 A 
HETATM   27  C17 UNL     1      -0.863   9.285  76.889  1.00  0.00    -0.059 A 
HETATM   28  C18 UNL     1      -0.197   9.811  78.104  1.00  0.00     0.048 C 
HETATM   29  C19 UNL     1      -1.913   8.386  76.958  1.00  0.00     0.013 A 
HETATM   30  C20 UNL     1      -2.510   7.908  75.807  1.00  0.00    -0.059 A 
HETATM   31  C21 UNL     1      -3.629   6.934  75.847  1.00  0.00     0.048 C 
HETATM   32  C22 UNL     1      -2.031   8.353  74.599  1.00  0.00     0.036 A 
ENDBRANCH   4  25
ENDBRANCH   3   4
TORSDOF 9
ENDMDL
MODEL 3
REMARK VINA RESULT: -6.949358759      2.474      8.373
REMARK  9 active torsions:
REMARK  status: ('A' for Active; 'I' for Inactive)
REMARK    1  A    between atoms: C3_3  and  N1_4 
REMARK    2  A    between atoms: N1_4  and  C4_5 
REMARK    3  A    between atoms: N1_4  and  C15_25 
REMARK    4  A    between atoms: C4_5  and  O1_6 
REMARK    5  A    between atoms: C4_5  and  C5_8 
REMARK    6  A    between atoms: C7_10  and  N2_11 
REMARK    7  A    between atoms: N2_11  and  C8_12 
REMARK    8  A    between atoms: N2_11  and  C10_14 
REMARK    9  A    between atoms: N4_19  and  C13_21 
ROOT
HETATM    1  C1  UNL     1      -3.938   5.935  75.115  1.00  0.00     0.014 C 
HETATM    2  C2  UNL     1      -3.796   7.133  75.193  1.00  0.00    -0.097 C 
HETATM    3  C3  UNL     1      -3.642   8.618  75.323  1.00  0.00     0.224 C 
ENDROOT
BRANCH   3   4
HETATM    4  N1  UNL     1      -2.232   8.869  75.481  1.00  0.00    -0.314 N 
BRANCH   4   5
HETATM    5  C4  UNL     1      -1.576   8.701  76.671  1.00  0.00     0.185 C 
BRANCH   5   6
HETATM    6  O1  UNL     1      -0.849   9.746  77.026  1.00  0.00    -0.343 OA
ATOM      7  H1  UNL     1       0.005   9.516  77.373  1.00  0.00     0.219 HD
ENDBRANCH   5   6
BRANCH   5   8
HETATM    8  C5  UNL     1      -1.473   7.609  77.644  1.00  0.00     0.165 A 
HETATM    9  C6  UNL     1      -2.528   8.492  78.693  1.00  0.00     0.097 A 
HETATM   10  C7  UNL     1      -2.826   7.934  79.838  1.00  0.00     0.110 A 
HETATM   11  N3  UNL     1      -2.424   6.766  80.331  1.00  0.00    -0.302 N 
HETATM   12  C12 UNL     1      -1.571   6.054  79.488  1.00  0.00     0.261 A 
ATOM     13  H3  UNL     1      -2.715   6.421  81.246  1.00  0.00     0.171 HD
HETATM   14  N4  UNL     1      -1.148   4.956  79.887  1.00  0.00    -0.317 N 
HETATM   15  N6  UNL     1      -1.391   6.744  78.413  1.00  0.00    -0.366 NA
ATOM     16  H4  UNL     1      -1.499   4.721  80.815  1.00  0.00     0.170 HD
BRANCH  10  17
HETATM   17  N2  UNL     1      -3.745   8.676  80.733  1.00  0.00    -0.368 N 
BRANCH  17  18
HETATM   18  C8  UNL     1      -5.156   8.474  80.588  1.00  0.00     0.120 C 
HETATM   19  C9  UNL     1      -5.999   9.563  81.186  1.00  0.00     0.026 C 
ENDBRANCH  17  18
BRANCH  17  20
HETATM   20  C10 UNL     1      -3.182   9.574  81.677  1.00  0.00     0.120 C 
HETATM   21  C11 UNL     1      -2.915   8.950  83.003  1.00  0.00     0.026 C 
ENDBRANCH  17  20
ENDBRANCH  10  17
BRANCH  14  22
HETATM   22  C13 UNL     1      -0.305   3.963  79.369  1.00  0.00     0.186 C 
HETATM   23  C14 UNL     1      -0.993   3.087  78.437  1.00  0.00     0.105 C 
HETATM   24  N5  UNL     1      -1.534   2.363  77.682  1.00  0.00    -0.191 NA
ENDBRANCH  14  22
ENDBRANCH   5   8
ENDBRANCH   4   5
BRANCH   4  25
HETATM   25  C15 UNL     1      -1.435   9.221  74.326  1.00  0.00     0.038 A 
HETATM   26  C16 UNL     1      -0.528   8.399  73.720  1.00  0.00     0.036 A 
HETATM   27  C17 UNL     1       0.221   8.807  72.612  1.00  0.00    -0.059 A 
HETATM   28  C18 UNL     1       1.191   7.860  72.014  1.00  0.00     0.048 C 
HETATM   29  C19 UNL     1       0.036  10.083  72.109  1.00  0.00     0.013 A 
HETATM   30  C20 UNL     1      -0.873  10.947  72.691  1.00  0.00    -0.059 A 
HETATM   31  C21 UNL     1      -1.084  12.326  72.185  1.00  0.00     0.048 C 
HETATM   32  C22 UNL     1      -1.582  10.499  73.779  1.00  0.00     0.036 A 
ENDBRANCH   4  25
ENDBRANCH   3   4
TORSDOF 9
ENDMDL
MODEL 4
REMARK VINA RESULT: -6.937250640      2.464      8.501
REMARK  9 active torsions:
REMARK  status: ('A' for Active; 'I' for Inactive)
REMARK    1  A    between atoms: C3_3  and  N1_4 
REMARK    2  A    between atoms: N1_4  and  C4_5 
REMARK    3  A    between atoms: N1_4  and  C15_25 
REMARK    4  A    between atoms: C4_5  and  O1_6 
REMARK    5  A    between atoms: C4_5  and  C5_8 
REMARK    6  A    between atoms: C7_10  and  N2_11 
REMARK    7  A    between atoms: N2_11  and  C8_12 
REMARK    8  A    between atoms: N2_11  and  C10_14 
REMARK    9  A    between atoms: N4_19  and  C13_21 
ROOT
HETATM    1  C1  UNL     1      -3.801   5.893  75.049  1.00  0.00     0.014 C 
HETATM    2  C2  UNL     1      -3.722   7.095  75.152  1.00  0.00    -0.097 C 
HETATM    3  C3  UNL     1      -3.647   8.583  75.314  1.00  0.00     0.224 C 
ENDROOT
BRANCH   3   4
HETATM    4  N1  UNL     1      -2.252   8.905  75.474  1.00  0.00    -0.314 N 
BRANCH   4   5
HETATM    5  C4  UNL     1      -1.579   8.728  76.653  1.00  0.00     0.185 C 
BRANCH   5   6
HETATM    6  O1  UNL     1      -0.845   9.768  77.005  1.00  0.00    -0.343 OA
ATOM      7  H1  UNL     1      -1.310  10.596  76.962  1.00  0.00     0.219 HD
ENDBRANCH   5   6
BRANCH   5   8
HETATM    8  C5  UNL     1      -1.465   7.628  77.617  1.00  0.00     0.165 A 
HETATM    9  C6  UNL     1      -2.513   8.502  78.682  1.00  0.00     0.097 A 
HETATM   10  C7  UNL     1      -2.800   7.935  79.826  1.00  0.00     0.110 A 
HETATM   11  N3  UNL     1      -2.391   6.764  80.306  1.00  0.00    -0.302 N 
HETATM   12  C12 UNL     1      -1.543   6.060  79.451  1.00  0.00     0.261 A 
ATOM     13  H3  UNL     1      -2.673   6.412  81.221  1.00  0.00     0.171 HD
HETATM   14  N4  UNL     1      -1.115   4.960  79.838  1.00  0.00    -0.317 N 
HETATM   15  N6  UNL     1      -1.375   6.759  78.379  1.00  0.00    -0.366 NA
ATOM     16  H4  UNL     1      -1.458   4.717  80.767  1.00  0.00     0.170 HD
BRANCH  10  17
HETATM   17  N2  UNL     1      -3.713   8.668  80.734  1.00  0.00    -0.368 N 
BRANCH  17  18
HETATM   18  C8  UNL     1      -3.148   9.573  81.691  1.00  0.00     0.120 C 
HETATM   19  C9  UNL     1      -2.951   8.984  83.057  1.00  0.00     0.026 C 
ENDBRANCH  17  18
BRANCH  17  20
HETATM   20  C10 UNL     1      -5.106   8.416  80.632  1.00  0.00     0.120 C 
HETATM   21  C11 UNL     1      -5.949   9.549  81.106  1.00  0.00     0.026 C 
ENDBRANCH  17  20
ENDBRANCH  10  17
BRANCH  14  22
HETATM   22  C13 UNL     1      -0.274   3.973  79.306  1.00  0.00     0.186 C 
HETATM   23  C14 UNL     1      -0.964   3.114  78.359  1.00  0.00     0.105 C 
HETATM   24  N5  UNL     1      -1.506   2.403  77.592  1.00  0.00    -0.191 NA
ENDBRANCH  14  22
ENDBRANCH   5   8
ENDBRANCH   4   5
BRANCH   4  25
HETATM   25  C15 UNL     1      -1.484   9.346  74.330  1.00  0.00     0.038 A 
HETATM   26  C16 UNL     1      -1.584  10.577  73.747  1.00  0.00     0.036 A 
HETATM   27  C17 UNL     1      -0.820  10.937  72.633  1.00  0.00    -0.059 A 
HETATM   28  C18 UNL     1      -0.990  12.289  72.053  1.00  0.00     0.048 C 
HETATM   29  C19 UNL     1       0.069  10.017  72.104  1.00  0.00     0.013 A 
HETATM   30  C20 UNL     1       0.202   8.761  72.663  1.00  0.00    -0.059 A 
HETATM   31  C21 UNL     1       1.137   7.748  72.111  1.00  0.00     0.048 C 
HETATM   32  C22 UNL     1      -0.572   8.456  73.756  1.00  0.00     0.036 A 
ENDBRANCH   4  25
ENDBRANCH   3   4
TORSDOF 9
ENDMDL
MODEL 5
REMARK VINA RESULT: -6.932672655      2.396      5.434
REMARK  9 active torsions:
REMARK  status: ('A' for Active; 'I' for Inactive)
REMARK    1  A    between atoms: C3_3  and  N1_4 
REMARK    2  A    between atoms: N1_4  and  C4_5 
REMARK    3  A    between atoms: N1_4  and  C15_25 
REMARK    4  A    between atoms: C4_5  and  O1_6 
REMARK    5  A    between atoms: C4_5  and  C5_8 
REMARK    6  A    between atoms: C7_10  and  N2_11 
REMARK    7  A    between atoms: N2_11  and  C8_12 
REMARK    8  A    between atoms: N2_11  and  C10_14 
REMARK    9  A    between atoms: N4_19  and  C13_21 
ROOT
HETATM    1  C1  UNL     1       1.112  12.277  71.759  1.00  0.00     0.014 C 
HETATM    2  C2  UNL     1       0.154  11.643  72.134  1.00  0.00    -0.097 C 
HETATM    3  C3  UNL     1      -1.047  10.854  72.561  1.00  0.00     0.224 C 
ENDROOT
BRANCH   3   4
HETATM    4  N1  UNL     1      -0.547   9.634  73.142  1.00  0.00    -0.314 N 
BRANCH   4   5
HETATM    5  C4  UNL     1       0.390   8.848  72.529  1.00  0.00     0.185 C 
BRANCH   5   6
HETATM    6  O1  UNL     1       1.502   8.704  73.229  1.00  0.00    -0.343 OA
ATOM      7  H1  UNL     1       1.886   7.838  73.160  1.00  0.00     0.219 HD
ENDBRANCH   5   6
BRANCH   5   8
HETATM    8  C5  UNL     1       0.457   8.138  71.247  1.00  0.00     0.165 A 
HETATM    9  C6  UNL     1      -0.066   6.701  72.057  1.00  0.00     0.097 A 
HETATM   10  C7  UNL     1      -0.205   5.626  71.325  1.00  0.00     0.110 A 
HETATM   11  N3  UNL     1       0.009   5.467  70.022  1.00  0.00    -0.302 N 
HETATM   12  C12 UNL     1       0.434   6.623  69.367  1.00  0.00     0.261 A 
ATOM     13  H3  UNL     1      -0.127   4.576  69.543  1.00  0.00     0.171 HD
HETATM   14  N4  UNL     1       0.661   6.547  68.148  1.00  0.00    -0.317 N 
HETATM   15  N6  UNL     1       0.510   7.576  70.233  1.00  0.00    -0.366 NA
ATOM     16  H4  UNL     1       0.498   5.609  67.783  1.00  0.00     0.170 HD
BRANCH  10  17
HETATM   17  N2  UNL     1      -0.672   4.397  72.008  1.00  0.00    -0.368 N 
BRANCH  17  18
HETATM   18  C8  UNL     1      -0.609   3.152  71.301  1.00  0.00     0.120 C 
HETATM   19  C9  UNL     1       0.464   2.221  71.785  1.00  0.00     0.026 C 
ENDBRANCH  17  18
BRANCH  17  20
HETATM   20  C10 UNL     1      -1.185   4.516  73.325  1.00  0.00     0.120 C 
HETATM   21  C11 UNL     1      -2.609   4.093  73.448  1.00  0.00     0.026 C 
ENDBRANCH  17  20
ENDBRANCH  10  17
BRANCH  14  22
HETATM   22  C13 UNL     1       1.087   7.439  67.154  1.00  0.00     0.186 C 
HETATM   23  C14 UNL     1       2.348   7.037  66.557  1.00  0.00     0.105 C 
HETATM   24  N5  UNL     1       3.373   6.731  66.063  1.00  0.00    -0.191 NA
ENDBRANCH  14  22
ENDBRANCH   5   8
ENDBRANCH   4   5
BRANCH   4  25
HETATM   25  C15 UNL     1      -0.968   9.253  74.473  1.00  0.00     0.038 A 
HETATM   26  C16 UNL     1      -0.408   9.709  75.632  1.00  0.00     0.036 A 
HETATM   27  C17 UNL     1      -0.855   9.290  76.889  1.00  0.00    -0.059 A 
HETATM   28  C18 UNL     1      -0.193   9.826  78.101  1.00  0.00     0.048 C 
HETATM   29  C19 UNL     1      -1.900   8.384  76.963  1.00  0.00     0.013 A 
HETATM   30  C20 UNL     1      -2.494   7.898  75.814  1.00  0.00    -0.059 A 
HETATM   31  C21 UNL     1      -3.607   6.916  75.859  1.00  0.00     0.048 C 
HETATM   32  C22 UNL     1      -2.018   8.340  74.603  1.00  0.00     0.036 A 
ENDBRANCH   4  25
ENDBRANCH   3   4
TORSDOF 9
ENDMDL
