MODEL 1
REMARK VINA RESULT: -7.179438704      0.000      0.000
REMARK  8 active torsions:
REMARK  status: ('A' for Active; 'I' for Inactive)
REMARK    1  A    between atoms: C2_2  and  O1_3 
REMARK    2  A    between atoms: O1_3  and  C3_4 
REMARK    3  A    between atoms: C3_4  and  C4_5 
REMARK    4  A    between atoms: C4_5  and  N1_6 
REMARK    5  A    between atoms: C7_10  and  S1_11 
REMARK    6  A    between atoms: S1_11  and  C8_12 
REMARK    7  A    between atoms: C8_12  and  C9_13 
REMARK    8  A    between atoms: C12_18  and  O3_19 
ROOT
HETATM    1  N1  UNL     1      -2.620   8.387  80.080  1.00  0.00    -0.282 N 
HETATM    2  C5  UNL     1      -2.055   9.506  79.390  1.00  0.00     0.231 A 
HETATM    3  O2  UNL     1      -1.878  10.565  80.108  1.00  0.00    -0.273 OA
HETATM    4  C6  UNL     1      -1.683   9.555  78.019  1.00  0.00     0.150 A 
HETATM    5  C7  UNL     1      -1.909   8.290  77.189  1.00  0.00    -0.002 A 
HETATM    6  C17 UNL     1      -2.450   7.262  77.908  1.00  0.00     0.019 A 
HETATM    7  C18 UNL     1      -2.660   6.026  77.051  1.00  0.00     0.055 C 
HETATM    8  C19 UNL     1      -2.810   7.238  79.278  1.00  0.00     0.257 A 
HETATM    9  O4  UNL     1      -3.316   6.200  79.847  1.00  0.00    -0.267 OA
ENDROOT
BRANCH   5  10
HETATM   10  S1  UNL     1      -1.535   8.195  75.594  1.00  0.00    -0.127 SA
BRANCH  10  11
HETATM   11  C8  UNL     1      -1.166   8.113  74.060  1.00  0.00     0.139 C 
BRANCH  11  12
HETATM   12  C9  UNL     1      -0.866   9.470  73.403  1.00  0.00     0.053 A 
HETATM   13  N2  UNL     1      -1.584  10.584  73.511  1.00  0.00    -0.359 N 
HETATM   14  C10 UNL     1      -0.971  11.564  72.770  1.00  0.00     0.018 A 
ATOM     15  H2  UNL     1      -2.442  10.692  74.052  1.00  0.00     0.165 HD
HETATM   16  C11 UNL     1       0.165  11.021  72.188  1.00  0.00    -0.000 A 
HETATM   17  C16 UNL     1      -1.378  12.975  72.567  1.00  0.00     0.057 C 
HETATM   18  C12 UNL     1       0.217   9.715  72.592  1.00  0.00     0.097 A 
HETATM   19  C13 UNL     1       1.016  11.905  71.324  1.00  0.00     0.043 C 
HETATM   20  C14 UNL     1       1.084  13.237  72.050  1.00  0.00     0.005 C 
HETATM   21  C15 UNL     1      -0.284  13.836  72.055  1.00  0.00     0.006 C 
BRANCH  18  22
HETATM   22  O3  UNL     1       1.183   8.784  72.254  1.00  0.00    -0.358 OA
ATOM     23  H3  UNL     1       1.875   8.922  71.618  1.00  0.00     0.217 HD
ENDBRANCH  18  22
ENDBRANCH  11  12
ENDBRANCH  10  11
ENDBRANCH   5  10
BRANCH   1  24
HETATM   24  C4  UNL     1      -2.960   8.462  81.496  1.00  0.00     0.161 C 
BRANCH  24  25
HETATM   25  C3  UNL     1      -4.291   9.112  81.642  1.00  0.00     0.188 C 
BRANCH  25  26
HETATM   26  O1  UNL     1      -5.310   8.218  81.494  1.00  0.00    -0.390 OA
BRANCH  26  27
HETATM   27  C2  UNL     1      -6.346   8.709  80.739  1.00  0.00     0.163 C 
HETATM   28  C1  UNL     1      -6.387   7.954  79.402  1.00  0.00     0.033 C 
ENDBRANCH  26  27
ENDBRANCH  25  26
ENDBRANCH  24  25
ENDBRANCH   1  24
TORSDOF 8
ENDMDL
MODEL 2
REMARK VINA RESULT: -7.161931940      1.201      2.479
REMARK  8 active torsions:
REMARK  status: ('A' for Active; 'I' for Inactive)
REMARK    1  A    between atoms: C2_2  and  O1_3 
REMARK    2  A    between atoms: O1_3  and  C3_4 
REMARK    3  A    between atoms: C3_4  and  C4_5 
REMARK    4  A    between atoms: C4_5  and  N1_6 
REMARK    5  A    between atoms: C7_10  and  S1_11 
REMARK    6  A    between atoms: S1_11  and  C8_12 
REMARK    7  A    between atoms: C8_12  and  C9_13 
REMARK    8  A    between atoms: C12_18  and  O3_19 
ROOT
HETATM    1  N1  UNL     1      -3.671   8.789  80.026  1.00  0.00    -0.282 N 
HETATM    2  C5  UNL     1      -4.291   7.942  79.054  1.00  0.00     0.231 A 
HETATM    3  O2  UNL     1      -5.377   7.359  79.441  1.00  0.00    -0.273 OA
HETATM    4  C6  UNL     1      -3.829   7.689  77.733  1.00  0.00     0.150 A 
HETATM    5  C7  UNL     1      -2.537   8.386  77.301  1.00  0.00    -0.002 A 
HETATM    6  C17 UNL     1      -1.999   9.178  78.275  1.00  0.00     0.019 A 
HETATM    7  C18 UNL     1      -0.719   9.851  77.809  1.00  0.00     0.055 C 
HETATM    8  C19 UNL     1      -2.482   9.415  79.585  1.00  0.00     0.257 A 
HETATM    9  O4  UNL     1      -1.881  10.190  80.420  1.00  0.00    -0.267 OA
ENDROOT
BRANCH   5  10
HETATM   10  S1  UNL     1      -1.877   8.189  75.812  1.00  0.00    -0.127 SA
BRANCH  10  11
HETATM   11  C8  UNL     1      -1.234   7.990  74.382  1.00  0.00     0.139 C 
BRANCH  11  12
HETATM   12  C9  UNL     1      -0.937   9.296  73.628  1.00  0.00     0.053 A 
HETATM   13  N2  UNL     1      -1.651  10.418  73.666  1.00  0.00    -0.359 N 
HETATM   14  C10 UNL     1      -1.044  11.341  72.851  1.00  0.00     0.018 A 
ATOM     15  H2  UNL     1      -2.503  10.566  74.206  1.00  0.00     0.165 HD
HETATM   16  C11 UNL     1       0.085  10.755  72.297  1.00  0.00    -0.000 A 
HETATM   17  C16 UNL     1      -1.449  12.735  72.554  1.00  0.00     0.057 C 
HETATM   18  C12 UNL     1       0.138   9.480  72.791  1.00  0.00     0.097 A 
HETATM   19  C13 UNL     1       0.929  11.573  71.365  1.00  0.00     0.043 C 
HETATM   20  C14 UNL     1       1.008  12.952  71.995  1.00  0.00     0.005 C 
HETATM   21  C15 UNL     1      -0.358  13.555  71.971  1.00  0.00     0.006 C 
BRANCH  18  22
HETATM   22  O3  UNL     1       1.098   8.525  72.510  1.00  0.00    -0.358 OA
ATOM     23  H3  UNL     1       1.922   8.693  72.069  1.00  0.00     0.217 HD
ENDBRANCH  18  22
ENDBRANCH  11  12
ENDBRANCH  10  11
ENDBRANCH   5  10
BRANCH   1  24
HETATM   24  C4  UNL     1      -4.247   8.968  81.353  1.00  0.00     0.161 C 
BRANCH  24  25
HETATM   25  C3  UNL     1      -3.862   7.811  82.209  1.00  0.00     0.188 C 
BRANCH  25  26
HETATM   26  O1  UNL     1      -2.632   7.985  82.770  1.00  0.00    -0.390 OA
BRANCH  26  27
HETATM   27  C2  UNL     1      -1.923   6.813  82.877  1.00  0.00     0.163 C 
HETATM   28  C1  UNL     1      -1.438   6.397  81.481  1.00  0.00     0.033 C 
ENDBRANCH  26  27
ENDBRANCH  25  26
ENDBRANCH  24  25
ENDBRANCH   1  24
TORSDOF 8
ENDMDL
MODEL 3
REMARK VINA RESULT: -7.147609382      0.936      2.055
REMARK  8 active torsions:
REMARK  status: ('A' for Active; 'I' for Inactive)
REMARK    1  A    between atoms: C2_2  and  O1_3 
REMARK    2  A    between atoms: O1_3  and  C3_4 
REMARK    3  A    between atoms: C3_4  and  C4_5 
REMARK    4  A    between atoms: C4_5  and  N1_6 
REMARK    5  A    between atoms: C7_10  and  S1_11 
REMARK    6  A    between atoms: S1_11  and  C8_12 
REMARK    7  A    between atoms: C8_12  and  C9_13 
REMARK    8  A    between atoms: C12_18  and  O3_19 
ROOT
HETATM    1  N1  UNL     1      -3.462   8.527  80.030  1.00  0.00    -0.282 N 
HETATM    2  C5  UNL     1      -3.991   7.576  79.102  1.00  0.00     0.231 A 
HETATM    3  O2  UNL     1      -4.963   6.852  79.548  1.00  0.00    -0.273 OA
HETATM    4  C6  UNL     1      -3.552   7.361  77.766  1.00  0.00     0.150 A 
HETATM    5  C7  UNL     1      -2.395   8.227  77.265  1.00  0.00    -0.002 A 
HETATM    6  C17 UNL     1      -1.938   9.112  78.199  1.00  0.00     0.019 A 
HETATM    7  C18 UNL     1      -0.791   9.952  77.665  1.00  0.00     0.055 C 
HETATM    8  C19 UNL     1      -2.396   9.308  79.525  1.00  0.00     0.257 A 
HETATM    9  O4  UNL     1      -1.880  10.182  80.318  1.00  0.00    -0.267 OA
ENDROOT
BRANCH   5  10
HETATM   10  S1  UNL     1      -1.776   8.092  75.751  1.00  0.00    -0.127 SA
BRANCH  10  11
HETATM   11  C8  UNL     1      -1.178   7.948  74.296  1.00  0.00     0.139 C 
BRANCH  11  12
HETATM   12  C9  UNL     1      -0.911   9.284  73.582  1.00  0.00     0.053 A 
HETATM   13  N2  UNL     1      -1.625  10.400  73.686  1.00  0.00    -0.359 N 
HETATM   14  C10 UNL     1      -1.048  11.355  72.886  1.00  0.00     0.018 A 
ATOM     15  H2  UNL     1      -2.458  10.525  74.262  1.00  0.00     0.165 HD
HETATM   16  C11 UNL     1       0.061  10.794  72.272  1.00  0.00    -0.000 A 
HETATM   17  C16 UNL     1      -1.467  12.759  72.657  1.00  0.00     0.057 C 
HETATM   18  C12 UNL     1       0.134   9.502  72.715  1.00  0.00     0.097 A 
HETATM   19  C13 UNL     1       0.871  11.650  71.342  1.00  0.00     0.043 C 
HETATM   20  C14 UNL     1       0.969  13.005  72.021  1.00  0.00     0.005 C 
HETATM   21  C15 UNL     1      -0.398  13.604  72.068  1.00  0.00     0.006 C 
BRANCH  18  22
HETATM   22  O3  UNL     1       1.086   8.561  72.364  1.00  0.00    -0.358 OA
ATOM     23  H3  UNL     1       1.121   7.671  72.694  1.00  0.00     0.217 HD
ENDBRANCH  18  22
ENDBRANCH  11  12
ENDBRANCH  10  11
ENDBRANCH   5  10
BRANCH   1  24
HETATM   24  C4  UNL     1      -4.001   8.653  81.378  1.00  0.00     0.161 C 
BRANCH  24  25
HETATM   25  C3  UNL     1      -5.250   9.463  81.328  1.00  0.00     0.188 C 
BRANCH  25  26
HETATM   26  O1  UNL     1      -6.274   8.857  81.993  1.00  0.00    -0.390 OA
BRANCH  26  27
HETATM   27  C2  UNL     1      -7.510   9.238  81.533  1.00  0.00     0.163 C 
HETATM   28  C1  UNL     1      -7.855  10.615  82.119  1.00  0.00     0.033 C 
ENDBRANCH  26  27
ENDBRANCH  25  26
ENDBRANCH  24  25
ENDBRANCH   1  24
TORSDOF 8
ENDMDL
MODEL 4
REMARK VINA RESULT: -7.137276301      0.922      1.100
REMARK  8 active torsions:
REMARK  status: ('A' for Active; 'I' for Inactive)
REMARK    1  A    between atoms: C2_2  and  O1_3 
REMARK    2  A    between atoms: O1_3  and  C3_4 
REMARK    3  A    between atoms: C3_4  and  C4_5 
REMARK    4  A    between atoms: C4_5  and  N1_6 
REMARK    5  A    between atoms: C7_10  and  S1_11 
REMARK    6  A    between atoms: S1_11  and  C8_12 
REMARK    7  A    between atoms: C8_12  and  C9_13 
REMARK    8  A    between atoms: C12_18  and  O3_19 
ROOT
HETATM    1  N1  UNL     1      -3.445   8.542  80.037  1.00  0.00    -0.282 N 
HETATM    2  C5  UNL     1      -2.380   9.375  79.571  1.00  0.00     0.231 A 
HETATM    3  O2  UNL     1      -1.932  10.230  80.429  1.00  0.00    -0.273 OA
HETATM    4  C6  UNL     1      -1.786   9.347  78.279  1.00  0.00     0.150 A 
HETATM    5  C7  UNL     1      -2.339   8.329  77.279  1.00  0.00    -0.002 A 
HETATM    6  C17 UNL     1      -3.353   7.569  77.788  1.00  0.00     0.019 A 
HETATM    7  C18 UNL     1      -3.875   6.573  76.767  1.00  0.00     0.055 C 
HETATM    8  C19 UNL     1      -3.925   7.614  79.083  1.00  0.00     0.257 A 
HETATM    9  O4  UNL     1      -4.886   6.838  79.448  1.00  0.00    -0.267 OA
ENDROOT
BRANCH   5  10
HETATM   10  S1  UNL     1      -1.761   8.183  75.751  1.00  0.00    -0.127 SA
BRANCH  10  11
HETATM   11  C8  UNL     1      -1.196   8.033  74.283  1.00  0.00     0.139 C 
BRANCH  11  12
HETATM   12  C9  UNL     1      -0.911   9.365  73.570  1.00  0.00     0.053 A 
HETATM   13  N2  UNL     1      -1.644  10.473  73.629  1.00  0.00    -0.359 N 
HETATM   14  C10 UNL     1      -1.040  11.428  72.849  1.00  0.00     0.018 A 
ATOM     15  H2  UNL     1      -2.506  10.592  74.161  1.00  0.00     0.165 HD
HETATM   16  C11 UNL     1       0.105  10.877  72.296  1.00  0.00    -0.000 A 
HETATM   17  C16 UNL     1      -1.465  12.824  72.585  1.00  0.00     0.057 C 
HETATM   18  C12 UNL     1       0.173   9.590  72.754  1.00  0.00     0.097 A 
HETATM   19  C13 UNL     1       0.949  11.736  71.399  1.00  0.00     0.043 C 
HETATM   20  C14 UNL     1       0.996  13.097  72.069  1.00  0.00     0.005 C 
HETATM   21  C15 UNL     1      -0.380  13.678  72.042  1.00  0.00     0.006 C 
BRANCH  18  22
HETATM   22  O3  UNL     1       1.153   8.659  72.460  1.00  0.00    -0.358 OA
ATOM     23  H3  UNL     1       1.095   8.004  71.775  1.00  0.00     0.217 HD
ENDBRANCH  18  22
ENDBRANCH  11  12
ENDBRANCH  10  11
ENDBRANCH   5  10
BRANCH   1  24
HETATM   24  C4  UNL     1      -3.969   8.667  81.391  1.00  0.00     0.161 C 
BRANCH  24  25
HETATM   25  C3  UNL     1      -5.210   9.490  81.358  1.00  0.00     0.188 C 
BRANCH  25  26
HETATM   26  O1  UNL     1      -6.218   8.913  82.073  1.00  0.00    -0.390 OA
BRANCH  26  27
HETATM   27  C2  UNL     1      -7.464   9.219  81.581  1.00  0.00     0.163 C 
HETATM   28  C1  UNL     1      -7.849  10.630  82.050  1.00  0.00     0.033 C 
ENDBRANCH  26  27
ENDBRANCH  25  26
ENDBRANCH  24  25
ENDBRANCH   1  24
TORSDOF 8
ENDMDL
MODEL 5
REMARK VINA RESULT: -7.113474101      2.358      8.566
REMARK  8 active torsions:
REMARK  status: ('A' for Active; 'I' for Inactive)
REMARK    1  A    between atoms: C2_2  and  O1_3 
REMARK    2  A    between atoms: O1_3  and  C3_4 
REMARK    3  A    between atoms: C3_4  and  C4_5 
REMARK    4  A    between atoms: C4_5  and  N1_6 
REMARK    5  A    between atoms: C7_10  and  S1_11 
REMARK    6  A    between atoms: S1_11  and  C8_12 
REMARK    7  A    between atoms: C8_12  and  C9_13 
REMARK    8  A    between atoms: C12_18  and  O3_19 
ROOT
HETATM    1  N1  UNL     1       0.082  12.127  71.996  1.00  0.00    -0.282 N 
HETATM    2  C5  UNL     1      -1.191  12.134  72.649  1.00  0.00     0.231 A 
HETATM    3  O2  UNL     1      -1.860  13.234  72.541  1.00  0.00    -0.273 OA
HETATM    4  C6  UNL     1      -1.770  11.067  73.389  1.00  0.00     0.150 A 
HETATM    5  C7  UNL     1      -0.954   9.778  73.506  1.00  0.00    -0.002 A 
HETATM    6  C17 UNL     1       0.248   9.838  72.862  1.00  0.00     0.019 A 
HETATM    7  C18 UNL     1       1.027   8.542  73.002  1.00  0.00     0.055 C 
HETATM    8  C19 UNL     1       0.801  10.915  72.127  1.00  0.00     0.257 A 
HETATM    9  O4  UNL     1       1.955  10.852  71.559  1.00  0.00    -0.267 OA
ENDROOT
BRANCH   5  10
HETATM   10  S1  UNL     1      -1.486   8.463  74.332  1.00  0.00    -0.127 SA
BRANCH  10  11
HETATM   11  C8  UNL     1      -2.004   7.205  75.135  1.00  0.00     0.139 C 
BRANCH  11  12
HETATM   12  C9  UNL     1      -2.120   7.421  76.653  1.00  0.00     0.053 A 
HETATM   13  N2  UNL     1      -1.138   7.749  77.489  1.00  0.00    -0.359 N 
HETATM   14  C10 UNL     1      -1.665   7.843  78.753  1.00  0.00     0.018 A 
ATOM     15  H2  UNL     1      -0.163   7.904  77.234  1.00  0.00     0.165 HD
HETATM   16  C11 UNL     1      -3.020   7.560  78.681  1.00  0.00    -0.000 A 
HETATM   17  C16 UNL     1      -0.983   8.177  80.026  1.00  0.00     0.057 C 
HETATM   18  C12 UNL     1      -3.290   7.299  77.365  1.00  0.00     0.097 A 
HETATM   19  C13 UNL     1      -3.827   7.604  79.946  1.00  0.00     0.043 C 
HETATM   20  C14 UNL     1      -3.333   8.826  80.699  1.00  0.00     0.005 C 
HETATM   21  C15 UNL     1      -1.917   8.584  81.106  1.00  0.00     0.006 C 
BRANCH  18  22
HETATM   22  O3  UNL     1      -4.519   6.968  76.824  1.00  0.00    -0.358 OA
ATOM     23  H3  UNL     1      -4.859   6.085  76.744  1.00  0.00     0.217 HD
ENDBRANCH  18  22
ENDBRANCH  11  12
ENDBRANCH  10  11
ENDBRANCH   5  10
BRANCH   1  24
HETATM   24  C4  UNL     1       0.566  13.290  71.264  1.00  0.00     0.161 C 
BRANCH  24  25
HETATM   25  C3  UNL     1       1.291  14.189  72.204  1.00  0.00     0.188 C 
BRANCH  25  26
HETATM   26  O1  UNL     1       0.532  15.263  72.564  1.00  0.00    -0.390 OA
BRANCH  26  27
HETATM   27  C2  UNL     1       0.877  15.774  73.791  1.00  0.00     0.163 C 
HETATM   28  C1  UNL     1       0.404  14.803  74.883  1.00  0.00     0.033 C 
ENDBRANCH  26  27
ENDBRANCH  25  26
ENDBRANCH  24  25
ENDBRANCH   1  24
TORSDOF 8
ENDMDL
