MODEL 1
REMARK VINA RESULT: -6.239829013      0.000      0.000
REMARK  3 active torsions:
REMARK  status: ('A' for Active; 'I' for Inactive)
REMARK    1  A    between atoms: C6_6  and  C7_7 
REMARK    2  A    between atoms: C7_7  and  C8_8 
REMARK    3  A    between atoms: C8_8  and  O1_11 
ROOT
HETATM    1  C1  UNL     1       0.770  15.063  34.324  1.00  0.00     0.043 C 
HETATM    2  C2  UNL     1       0.608  13.767  34.012  1.00  0.00     0.023 A 
HETATM    3  C3  UNL     1       1.262  13.104  33.006  1.00  0.00     0.037 A 
HETATM    4  C4  UNL     1       0.822  11.774  33.001  1.00  0.00    -0.033 A 
HETATM    5  C5  UNL     1       1.352  10.819  32.024  1.00  0.00     0.050 C 
HETATM    6  C6  UNL     1      -0.090  11.677  34.014  1.00  0.00     0.037 A 
HETATM    7  N1  UNL     1      -0.207  12.909  34.621  1.00  0.00    -0.357 N 
ATOM      8  H1  UNL     1      -0.817  13.127  35.409  1.00  0.00     0.166 HD
ENDROOT
BRANCH   6   9
HETATM    9  C7  UNL     1      -0.774  10.652  34.424  1.00  0.00     0.039 C 
BRANCH   9  10
HETATM   10  C8  UNL     1      -0.516   9.652  35.432  1.00  0.00     0.070 C 
HETATM   11  C9  UNL     1       0.179   8.434  34.862  1.00  0.00     0.050 C 
HETATM   12  C10 UNL     1      -1.891   9.049  35.930  1.00  0.00     0.050 C 
BRANCH  10  13
HETATM   13  O1  UNL     1       0.018  10.132  36.607  1.00  0.00    -0.387 OA
ATOM     14  H1  UNL     1      -0.574  10.129  37.350  1.00  0.00     0.211 HD
ENDBRANCH  10  13
ENDBRANCH   9  10
ENDBRANCH   6   9
TORSDOF 3
ENDMDL
MODEL 2
REMARK VINA RESULT: -6.056471440      0.781      1.041
REMARK  3 active torsions:
REMARK  status: ('A' for Active; 'I' for Inactive)
REMARK    1  A    between atoms: C6_6  and  C7_7 
REMARK    2  A    between atoms: C7_7  and  C8_8 
REMARK    3  A    between atoms: C8_8  and  O1_11 
ROOT
HETATM    1  C1  UNL     1       0.804  14.928  34.383  1.00  0.00     0.043 C 
HETATM    2  C2  UNL     1       0.561  13.642  34.079  1.00  0.00     0.023 A 
HETATM    3  C3  UNL     1       1.174  12.933  33.080  1.00  0.00     0.037 A 
HETATM    4  C4  UNL     1       0.651  11.634  33.081  1.00  0.00    -0.033 A 
HETATM    5  C5  UNL     1       1.123  10.641  32.111  1.00  0.00     0.050 C 
HETATM    6  C6  UNL     1      -0.270  11.602  34.090  1.00  0.00     0.037 A 
HETATM    7  N1  UNL     1      -0.310  12.842  34.689  1.00  0.00    -0.357 N 
ATOM      8  H1  UNL     1      -0.909  13.104  35.473  1.00  0.00     0.166 HD
ENDROOT
BRANCH   6   9
HETATM    9  C7  UNL     1      -1.020  10.626  34.503  1.00  0.00     0.039 C 
BRANCH   9  10
HETATM   10  C8  UNL     1      -0.809   9.584  35.480  1.00  0.00     0.070 C 
HETATM   11  C9  UNL     1       0.468   9.793  36.267  1.00  0.00     0.050 C 
HETATM   12  C10 UNL     1      -0.520   8.221  34.732  1.00  0.00     0.050 C 
BRANCH  10  13
HETATM   13  O1  UNL     1      -1.913   9.259  36.235  1.00  0.00    -0.387 OA
ATOM     14  H1  UNL     1      -1.860   8.426  36.689  1.00  0.00     0.211 HD
ENDBRANCH  10  13
ENDBRANCH   9  10
ENDBRANCH   6   9
TORSDOF 3
ENDMDL
MODEL 3
REMARK VINA RESULT: -6.013235856      2.031      3.056
REMARK  3 active torsions:
REMARK  status: ('A' for Active; 'I' for Inactive)
REMARK    1  A    between atoms: C6_6  and  C7_7 
REMARK    2  A    between atoms: C7_7  and  C8_8 
REMARK    3  A    between atoms: C8_8  and  O1_11 
ROOT
HETATM    1  C1  UNL     1      -1.149  12.341  33.786  1.00  0.00     0.043 C 
HETATM    2  C2  UNL     1      -0.608  11.216  34.282  1.00  0.00     0.023 A 
HETATM    3  C3  UNL     1      -0.325  10.085  33.560  1.00  0.00     0.037 A 
HETATM    4  C4  UNL     1       0.228   9.138  34.431  1.00  0.00    -0.033 A 
HETATM    5  C5  UNL     1       0.632   7.819  33.936  1.00  0.00     0.050 C 
HETATM    6  C6  UNL     1       0.261   9.734  35.661  1.00  0.00     0.037 A 
HETATM    7  N1  UNL     1      -0.256  11.006  35.548  1.00  0.00    -0.357 N 
ATOM      8  H1  UNL     1      -0.352  11.678  36.310  1.00  0.00     0.166 HD
ENDROOT
BRANCH   6   9
HETATM    9  C7  UNL     1       0.692   9.276  36.798  1.00  0.00     0.039 C 
BRANCH   9  10
HETATM   10  C8  UNL     1       0.270   9.505  38.159  1.00  0.00     0.070 C 
HETATM   11  C9  UNL     1       0.978   8.590  39.136  1.00  0.00     0.050 C 
HETATM   12  C10 UNL     1      -1.239   9.058  38.317  1.00  0.00     0.050 C 
BRANCH  10  13
HETATM   13  O1  UNL     1       0.209  10.827  38.537  1.00  0.00    -0.387 OA
ATOM     14  H1  UNL     1      -0.165  10.984  39.396  1.00  0.00     0.211 HD
ENDBRANCH  10  13
ENDBRANCH   9  10
ENDBRANCH   6   9
TORSDOF 3
ENDMDL
MODEL 4
REMARK VINA RESULT: -6.011612176      1.043      1.390
REMARK  3 active torsions:
REMARK  status: ('A' for Active; 'I' for Inactive)
REMARK    1  A    between atoms: C6_6  and  C7_7 
REMARK    2  A    between atoms: C7_7  and  C8_8 
REMARK    3  A    between atoms: C8_8  and  O1_11 
ROOT
HETATM    1  C1  UNL     1       0.753  14.754  34.325  1.00  0.00     0.043 C 
HETATM    2  C2  UNL     1       0.456  13.474  34.046  1.00  0.00     0.023 A 
HETATM    3  C3  UNL     1       0.980  12.745  33.009  1.00  0.00     0.037 A 
HETATM    4  C4  UNL     1       0.426  11.460  33.054  1.00  0.00    -0.033 A 
HETATM    5  C5  UNL     1       0.803  10.452  32.059  1.00  0.00     0.050 C 
HETATM    6  C6  UNL     1      -0.422  11.455  34.126  1.00  0.00     0.037 A 
HETATM    7  N1  UNL     1      -0.389  12.698  34.720  1.00  0.00    -0.357 N 
ATOM      8  H1  UNL     1      -0.924  12.977  35.542  1.00  0.00     0.166 HD
ENDROOT
BRANCH   6   9
HETATM    9  C7  UNL     1      -1.165  10.499  34.596  1.00  0.00     0.039 C 
BRANCH   9  10
HETATM   10  C8  UNL     1      -0.845   9.230  35.206  1.00  0.00     0.070 C 
HETATM   11  C9  UNL     1      -1.837   8.850  36.285  1.00  0.00     0.050 C 
HETATM   12  C10 UNL     1       0.500   9.373  36.025  1.00  0.00     0.050 C 
BRANCH  10  13
HETATM   13  O1  UNL     1      -0.528   8.222  34.324  1.00  0.00    -0.387 OA
ATOM     14  H1  UNL     1       0.182   7.654  34.599  1.00  0.00     0.211 HD
ENDBRANCH  10  13
ENDBRANCH   9  10
ENDBRANCH   6   9
TORSDOF 3
ENDMDL
MODEL 5
REMARK VINA RESULT: -5.999273406      1.987      2.824
REMARK  3 active torsions:
REMARK  status: ('A' for Active; 'I' for Inactive)
REMARK    1  A    between atoms: C6_6  and  C7_7 
REMARK    2  A    between atoms: C7_7  and  C8_8 
REMARK    3  A    between atoms: C8_8  and  O1_11 
ROOT
HETATM    1  C1  UNL     1       0.684  14.754  36.924  1.00  0.00     0.043 C 
HETATM    2  C2  UNL     1       0.651  14.206  35.699  1.00  0.00     0.023 A 
HETATM    3  C3  UNL     1       1.313  14.683  34.597  1.00  0.00     0.037 A 
HETATM    4  C4  UNL     1       1.027  13.839  33.516  1.00  0.00    -0.033 A 
HETATM    5  C5  UNL     1       1.601  14.104  32.194  1.00  0.00     0.050 C 
HETATM    6  C6  UNL     1       0.195  12.872  34.006  1.00  0.00     0.037 A 
HETATM    7  N1  UNL     1      -0.023  13.114  35.345  1.00  0.00    -0.357 N 
ATOM      8  H1  UNL     1      -0.606  12.550  35.963  1.00  0.00     0.166 HD
ENDROOT
BRANCH   6   9
HETATM    9  C7  UNL     1      -0.344  11.853  33.405  1.00  0.00     0.039 C 
BRANCH   9  10
HETATM   10  C8  UNL     1       0.213  10.625  32.888  1.00  0.00     0.070 C 
HETATM   11  C9  UNL     1      -0.181   9.426  33.724  1.00  0.00     0.050 C 
HETATM   12  C10 UNL     1       1.785  10.654  33.064  1.00  0.00     0.050 C 
BRANCH  10  13
HETATM   13  O1  UNL     1       0.089  10.455  31.528  1.00  0.00    -0.387 OA
ATOM     14  H1  UNL     1      -0.248   9.610  31.256  1.00  0.00     0.211 HD
ENDBRANCH  10  13
ENDBRANCH   9  10
ENDBRANCH   6   9
TORSDOF 3
ENDMDL
