MODEL 1
REMARK VINA RESULT: -5.710473023      0.000      0.000
REMARK  5 active torsions:
REMARK  status: ('A' for Active; 'I' for Inactive)
REMARK    1  A    between atoms: C2_2  and  C3_3 
REMARK    2  A    between atoms: C4_4  and  C5_5 
REMARK    3  A    between atoms: C5_5  and  N1_6 
REMARK    4  A    between atoms: C7_12  and  S1_14 
REMARK    5  A    between atoms: S1_14  and  N3_15 
ROOT
HETATM    1  C1  UNL     1       1.397  13.653  32.405  1.00  0.00     0.031 C 
HETATM    2  C2  UNL     1       0.484  13.089  33.473  1.00  0.00     0.040 A 
HETATM    3  C6  UNL     1      -0.947  12.691  32.997  1.00  0.00     0.047 A 
HETATM    4  C7  UNL     1       0.058  11.682  33.446  1.00  0.00     0.044 A 
HETATM    5  C8  UNL     1      -0.207  10.932  34.735  1.00  0.00     0.030 C 
ENDROOT
BRANCH   2   6
HETATM    6  C3  UNL     1       0.552  13.798  34.754  1.00  0.00    -0.093 C 
HETATM    7  C4  UNL     1       0.625  14.372  35.814  1.00  0.00    -0.085 C 
BRANCH   7   8
HETATM    8  C5  UNL     1       0.732  15.066  37.116  1.00  0.00     0.232 C 
BRANCH   8   9
HETATM    9  N1  UNL     1       1.134  14.150  38.138  1.00  0.00    -0.332 N 
HETATM   10  N2  UNL     1       0.672  13.003  38.130  1.00  0.00    -0.349 N 
ATOM     11  H22 UNL     1       0.015  12.731  37.398  1.00  0.00     0.176 HD
ATOM     12  H21 UNL     1       0.958  12.349  38.858  1.00  0.00     0.176 HD
ATOM     13  H1  UNL     1       1.792  14.438  38.862  1.00  0.00     0.180 HD
ENDBRANCH   8   9
ENDBRANCH   7   8
ENDBRANCH   2   6
BRANCH   4  14
HETATM   14  S1  UNL     1       0.583  10.720  32.247  1.00  0.00    -0.051 SA
BRANCH  14  15
HETATM   15  N3  UNL     1       1.793  10.036  32.485  1.00  0.00    -0.373 N 
ATOM     16  H32 UNL     1       1.796   9.084  32.851  1.00  0.00     0.164 HD
ATOM     17  H31 UNL     1       2.648  10.549  32.271  1.00  0.00     0.164 HD
ENDBRANCH  14  15
ENDBRANCH   4  14
TORSDOF 5
ENDMDL
MODEL 2
REMARK VINA RESULT: -5.622899414      2.492      2.888
REMARK  5 active torsions:
REMARK  status: ('A' for Active; 'I' for Inactive)
REMARK    1  A    between atoms: C2_2  and  C3_3 
REMARK    2  A    between atoms: C4_4  and  C5_5 
REMARK    3  A    between atoms: C5_5  and  N1_6 
REMARK    4  A    between atoms: C7_12  and  S1_14 
REMARK    5  A    between atoms: S1_14  and  N3_15 
ROOT
HETATM    1  C1  UNL     1       2.426  10.399  32.598  1.00  0.00     0.031 C 
HETATM    2  C2  UNL     1       1.082  10.983  32.975  1.00  0.00     0.040 A 
HETATM    3  C6  UNL     1      -0.134  10.478  32.138  1.00  0.00     0.047 A 
HETATM    4  C7  UNL     1       0.033  10.152  33.585  1.00  0.00     0.044 A 
HETATM    5  C8  UNL     1      -0.948  10.751  34.571  1.00  0.00     0.030 C 
ENDROOT
BRANCH   2   6
HETATM    6  C3  UNL     1       1.110  12.423  33.246  1.00  0.00    -0.093 C 
HETATM    7  C4  UNL     1       1.117  13.608  33.482  1.00  0.00    -0.085 C 
BRANCH   7   8
HETATM    8  C5  UNL     1       1.113  15.056  33.784  1.00  0.00     0.232 C 
BRANCH   8   9
HETATM    9  N1  UNL     1       1.889  15.322  34.956  1.00  0.00    -0.332 N 
HETATM   10  N2  UNL     1       1.934  16.477  35.394  1.00  0.00    -0.349 N 
ATOM     11  H22 UNL     1       1.420  17.218  34.916  1.00  0.00     0.176 HD
ATOM     12  H21 UNL     1       2.488  16.667  36.230  1.00  0.00     0.176 HD
ATOM     13  H1  UNL     1       2.397  14.571  35.422  1.00  0.00     0.180 HD
ENDBRANCH   8   9
ENDBRANCH   7   8
ENDBRANCH   2   6
BRANCH   4  14
HETATM   14  S1  UNL     1       0.331   8.579  33.860  1.00  0.00    -0.051 SA
BRANCH  14  15
HETATM   15  N3  UNL     1       0.714   8.241  35.175  1.00  0.00    -0.373 N 
ATOM     16  H32 UNL     1       0.623   8.912  35.938  1.00  0.00     0.164 HD
ATOM     17  H31 UNL     1       1.081   7.299  35.307  1.00  0.00     0.164 HD
ENDBRANCH  14  15
ENDBRANCH   4  14
TORSDOF 5
ENDMDL
MODEL 3
REMARK VINA RESULT: -5.444295660      1.550      1.727
REMARK  5 active torsions:
REMARK  status: ('A' for Active; 'I' for Inactive)
REMARK    1  A    between atoms: C2_2  and  C3_3 
REMARK    2  A    between atoms: C4_4  and  C5_5 
REMARK    3  A    between atoms: C5_5  and  N1_6 
REMARK    4  A    between atoms: C7_12  and  S1_14 
REMARK    5  A    between atoms: S1_14  and  N3_15 
ROOT
HETATM    1  C1  UNL     1       1.442  13.251  32.058  1.00  0.00     0.031 C 
HETATM    2  C2  UNL     1       0.536  12.832  33.196  1.00  0.00     0.040 A 
HETATM    3  C6  UNL     1      -0.913  12.421  32.790  1.00  0.00     0.047 A 
HETATM    4  C7  UNL     1       0.076  11.443  33.333  1.00  0.00     0.044 A 
HETATM    5  C8  UNL     1      -0.183  10.848  34.702  1.00  0.00     0.030 C 
ENDROOT
BRANCH   2   6
HETATM    6  C3  UNL     1       0.644  13.678  34.388  1.00  0.00    -0.093 C 
HETATM    7  C4  UNL     1       0.748  14.386  35.362  1.00  0.00    -0.085 C 
BRANCH   7   8
HETATM    8  C5  UNL     1       0.889  15.262  36.545  1.00  0.00     0.232 C 
BRANCH   8   9
HETATM    9  N1  UNL     1       1.181  16.602  36.140  1.00  0.00    -0.332 N 
HETATM   10  N2  UNL     1       2.145  16.806  35.393  1.00  0.00    -0.349 N 
ATOM     11  H22 UNL     1       2.714  16.019  35.080  1.00  0.00     0.176 HD
ATOM     12  H21 UNL     1       2.353  17.761  35.104  1.00  0.00     0.176 HD
ATOM     13  H1  UNL     1       0.603  17.378  36.462  1.00  0.00     0.180 HD
ENDBRANCH   8   9
ENDBRANCH   7   8
ENDBRANCH   2   6
BRANCH   4  14
HETATM   14  S1  UNL     1       0.556  10.340  32.242  1.00  0.00    -0.051 SA
BRANCH  14  15
HETATM   15  N3  UNL     1       1.780   9.692  32.512  1.00  0.00    -0.373 N 
ATOM     16  H32 UNL     1       1.888   8.690  32.360  1.00  0.00     0.164 HD
ATOM     17  H31 UNL     1       2.533  10.284  32.861  1.00  0.00     0.164 HD
ENDBRANCH  14  15
ENDBRANCH   4  14
TORSDOF 5
ENDMDL
MODEL 4
REMARK VINA RESULT: -5.364144069      2.809      5.633
REMARK  5 active torsions:
REMARK  status: ('A' for Active; 'I' for Inactive)
REMARK    1  A    between atoms: C2_2  and  C3_3 
REMARK    2  A    between atoms: C4_4  and  C5_5 
REMARK    3  A    between atoms: C5_5  and  N1_6 
REMARK    4  A    between atoms: C7_12  and  S1_14 
REMARK    5  A    between atoms: S1_14  and  N3_15 
ROOT
HETATM    1  C1  UNL     1      -0.318  11.118  34.891  1.00  0.00     0.031 C 
HETATM    2  C2  UNL     1       0.041  11.539  33.482  1.00  0.00     0.040 A 
HETATM    3  C6  UNL     1      -0.896  12.607  32.837  1.00  0.00     0.047 A 
HETATM    4  C7  UNL     1       0.525  12.896  33.191  1.00  0.00     0.044 A 
HETATM    5  C8  UNL     1       1.508  13.139  32.065  1.00  0.00     0.030 C 
ENDROOT
BRANCH   2   6
HETATM    6  C3  UNL     1       0.434  10.430  32.608  1.00  0.00    -0.093 C 
HETATM    7  C4  UNL     1       0.756   9.502  31.904  1.00  0.00    -0.085 C 
BRANCH   7   8
HETATM    8  C5  UNL     1       1.147   8.355  31.056  1.00  0.00     0.232 C 
BRANCH   8   9
HETATM    9  N1  UNL     1       1.402   7.203  31.864  1.00  0.00    -0.332 N 
HETATM   10  N2  UNL     1       0.453   6.486  32.201  1.00  0.00    -0.349 N 
ATOM     11  H22 UNL     1      -0.491   6.727  31.899  1.00  0.00     0.176 HD
ATOM     12  H21 UNL     1       0.635   5.665  32.778  1.00  0.00     0.176 HD
ATOM     13  H1  UNL     1       2.352   6.977  32.158  1.00  0.00     0.180 HD
ENDBRANCH   8   9
ENDBRANCH   7   8
ENDBRANCH   2   6
BRANCH   4  14
HETATM   14  S1  UNL     1       0.681  13.958  34.411  1.00  0.00    -0.051 SA
BRANCH  14  15
HETATM   15  N3  UNL     1       1.468  15.097  34.144  1.00  0.00    -0.373 N 
ATOM     16  H32 UNL     1       2.370  15.231  34.601  1.00  0.00     0.164 HD
ATOM     17  H31 UNL     1       1.081  15.764  33.478  1.00  0.00     0.164 HD
ENDBRANCH  14  15
ENDBRANCH   4  14
TORSDOF 5
ENDMDL
MODEL 5
REMARK VINA RESULT: -5.303027893      2.530      2.963
REMARK  5 active torsions:
REMARK  status: ('A' for Active; 'I' for Inactive)
REMARK    1  A    between atoms: C2_2  and  C3_3 
REMARK    2  A    between atoms: C4_4  and  C5_5 
REMARK    3  A    between atoms: C5_5  and  N1_6 
REMARK    4  A    between atoms: C7_12  and  S1_14 
REMARK    5  A    between atoms: S1_14  and  N3_15 
ROOT
HETATM    1  C1  UNL     1      -0.090  10.712  32.607  1.00  0.00     0.031 C 
HETATM    2  C2  UNL     1      -0.206  10.868  34.109  1.00  0.00     0.040 A 
HETATM    3  C6  UNL     1      -1.437  10.172  34.767  1.00  0.00     0.047 A 
HETATM    4  C7  UNL     1      -0.035   9.719  35.010  1.00  0.00     0.044 A 
HETATM    5  C8  UNL     1       0.548   9.906  36.395  1.00  0.00     0.030 C 
ENDROOT
BRANCH   2   6
HETATM    6  C3  UNL     1       0.094  12.218  34.595  1.00  0.00    -0.093 C 
HETATM    7  C4  UNL     1       0.358  13.323  35.006  1.00  0.00    -0.085 C 
BRANCH   7   8
HETATM    8  C5  UNL     1       0.698  14.669  35.516  1.00  0.00     0.232 C 
BRANCH   8   9
HETATM    9  N1  UNL     1       1.891  15.151  34.893  1.00  0.00    -0.332 N 
HETATM   10  N2  UNL     1       2.588  15.978  35.492  1.00  0.00    -0.349 N 
ATOM     11  H22 UNL     1       2.302  16.301  36.417  1.00  0.00     0.176 HD
ATOM     12  H21 UNL     1       3.439  16.322  35.048  1.00  0.00     0.176 HD
ATOM     13  H1  UNL     1       2.163  14.819  33.968  1.00  0.00     0.180 HD
ENDBRANCH   8   9
ENDBRANCH   7   8
ENDBRANCH   2   6
BRANCH   4  14
HETATM   14  S1  UNL     1       0.288   8.259  34.376  1.00  0.00    -0.051 SA
BRANCH  14  15
HETATM   15  N3  UNL     1      -0.601   7.221  34.726  1.00  0.00    -0.373 N 
ATOM     16  H32 UNL     1      -1.589   7.409  34.893  1.00  0.00     0.164 HD
ATOM     17  H31 UNL     1      -0.195   6.288  34.797  1.00  0.00     0.164 HD
ENDBRANCH  14  15
ENDBRANCH   4  14
TORSDOF 5
ENDMDL
