MODEL 1
REMARK VINA RESULT: -7.191349970      0.000      0.000
REMARK  2 active torsions:
REMARK  status: ('A' for Active; 'I' for Inactive)
REMARK    1  A    between atoms: C2_3  and  C3_4 
REMARK    2  A    between atoms: C2_3  and  C9_10 
ROOT
HETATM    1  N1  UNL     1     -12.001  41.014  21.693  1.00  0.00    -0.196 NA
HETATM    2  C1  UNL     1     -10.892  40.699  21.797  1.00  0.00     0.076 C 
HETATM    3  C2  UNL     1      -9.474  40.286  21.909  1.00  0.00     0.195 C 
ENDROOT
BRANCH   3   4
HETATM    4  C3  UNL     1      -9.407  38.958  22.537  1.00  0.00    -0.033 A 
HETATM    5  C4  UNL     1      -9.274  37.767  21.854  1.00  0.00     0.009 A 
HETATM    6  C5  UNL     1      -9.217  36.552  22.504  1.00  0.00     0.001 A 
HETATM    7  C6  UNL     1      -9.296  36.513  23.885  1.00  0.00     0.000 A 
HETATM    8  C7  UNL     1      -9.430  37.685  24.594  1.00  0.00     0.001 A 
HETATM    9  C8  UNL     1      -9.485  38.898  23.913  1.00  0.00     0.009 A 
ENDBRANCH   3   4
BRANCH   3  10
HETATM   10  C9  UNL     1      -8.900  40.300  20.533  1.00  0.00     0.132 A 
HETATM   11  N2  UNL     1      -7.587  40.254  20.239  1.00  0.00    -0.274 N 
HETATM   12  N3  UNL     1      -7.436  40.283  18.939  1.00  0.00    -0.225 N 
ATOM     13  H2  UNL     1      -6.829  40.204  20.921  1.00  0.00     0.189 HD
HETATM   14  N4  UNL     1      -8.624  40.348  18.365  1.00  0.00    -0.005 NA
ATOM     15  H3  UNL     1      -6.543  40.260  18.447  1.00  0.00     0.205 HD
HETATM   16  N5  UNL     1      -9.524  40.357  19.352  1.00  0.00    -0.269 N 
ATOM     17  H5  UNL     1     -10.535  40.401  19.224  1.00  0.00     0.185 HD
ENDBRANCH   3  10
TORSDOF 2
ENDMDL
MODEL 2
REMARK VINA RESULT: -7.094347704      3.563      4.811
REMARK  2 active torsions:
REMARK  status: ('A' for Active; 'I' for Inactive)
REMARK    1  A    between atoms: C2_3  and  C3_4 
REMARK    2  A    between atoms: C2_3  and  C9_10 
ROOT
HETATM    1  N1  UNL     1      -9.818  38.580  26.424  1.00  0.00    -0.196 NA
HETATM    2  C1  UNL     1      -9.575  37.989  25.459  1.00  0.00     0.076 C 
HETATM    3  C2  UNL     1      -9.241  37.244  24.223  1.00  0.00     0.195 C 
ENDROOT
BRANCH   3   4
HETATM    4  C3  UNL     1      -9.572  38.073  23.055  1.00  0.00    -0.033 A 
HETATM    5  C4  UNL     1      -9.765  37.595  21.776  1.00  0.00     0.009 A 
HETATM    6  C5  UNL     1     -10.075  38.428  20.721  1.00  0.00     0.001 A 
HETATM    7  C6  UNL     1     -10.197  39.789  20.940  1.00  0.00     0.000 A 
HETATM    8  C7  UNL     1     -10.009  40.296  22.205  1.00  0.00     0.001 A 
HETATM    9  C8  UNL     1      -9.698  39.433  23.253  1.00  0.00     0.009 A 
ENDBRANCH   3   4
BRANCH   3  10
HETATM   10  C9  UNL     1      -7.791  36.902  24.292  1.00  0.00     0.132 A 
HETATM   11  N2  UNL     1      -7.061  36.840  25.422  1.00  0.00    -0.274 N 
HETATM   12  N3  UNL     1      -5.829  36.513  25.121  1.00  0.00    -0.225 N 
ATOM     13  H2  UNL     1      -7.412  37.019  26.363  1.00  0.00     0.189 HD
HETATM   14  N4  UNL     1      -5.729  36.358  23.814  1.00  0.00    -0.005 NA
ATOM     15  H3  UNL     1      -5.069  36.397  25.790  1.00  0.00     0.205 HD
HETATM   16  N5  UNL     1      -6.941  36.598  23.306  1.00  0.00    -0.269 N 
ATOM     17  H5  UNL     1      -7.182  36.555  22.316  1.00  0.00     0.185 HD
ENDBRANCH   3  10
TORSDOF 2
ENDMDL
MODEL 3
REMARK VINA RESULT: -7.092893949      0.120      1.271
REMARK  2 active torsions:
REMARK  status: ('A' for Active; 'I' for Inactive)
REMARK    1  A    between atoms: C2_3  and  C3_4 
REMARK    2  A    between atoms: C2_3  and  C9_10 
ROOT
HETATM    1  N1  UNL     1     -12.025  41.030  21.748  1.00  0.00    -0.196 NA
HETATM    2  C1  UNL     1     -10.913  40.732  21.869  1.00  0.00     0.076 C 
HETATM    3  C2  UNL     1      -9.491  40.339  22.003  1.00  0.00     0.195 C 
ENDROOT
BRANCH   3   4
HETATM    4  C3  UNL     1      -9.413  39.029  22.664  1.00  0.00    -0.033 A 
HETATM    5  C4  UNL     1      -9.427  38.830  24.029  1.00  0.00     0.009 A 
HETATM    6  C5  UNL     1      -9.351  37.571  24.587  1.00  0.00     0.001 A 
HETATM    7  C6  UNL     1      -9.255  36.464  23.762  1.00  0.00     0.000 A 
HETATM    8  C7  UNL     1      -9.238  36.630  22.396  1.00  0.00     0.001 A 
HETATM    9  C8  UNL     1      -9.317  37.912  21.858  1.00  0.00     0.009 A 
ENDBRANCH   3   4
BRANCH   3  10
HETATM   10  C9  UNL     1      -8.907  40.326  20.631  1.00  0.00     0.132 A 
HETATM   11  N2  UNL     1      -7.594  40.226  20.348  1.00  0.00    -0.274 N 
HETATM   12  N3  UNL     1      -7.432  40.245  19.048  1.00  0.00    -0.225 N 
ATOM     13  H2  UNL     1      -6.844  40.148  21.036  1.00  0.00     0.189 HD
HETATM   14  N4  UNL     1      -8.611  40.356  18.466  1.00  0.00    -0.005 NA
ATOM     15  H3  UNL     1      -6.537  40.183  18.564  1.00  0.00     0.205 HD
HETATM   16  N5  UNL     1      -9.518  40.404  19.445  1.00  0.00    -0.269 N 
ATOM     17  H5  UNL     1     -10.525  40.489  19.309  1.00  0.00     0.185 HD
ENDBRANCH   3  10
TORSDOF 2
ENDMDL
MODEL 4
REMARK VINA RESULT: -7.088243940      3.540      4.941
REMARK  2 active torsions:
REMARK  status: ('A' for Active; 'I' for Inactive)
REMARK    1  A    between atoms: C2_3  and  C3_4 
REMARK    2  A    between atoms: C2_3  and  C9_10 
ROOT
HETATM    1  N1  UNL     1      -9.885  38.543  26.364  1.00  0.00    -0.196 NA
HETATM    2  C1  UNL     1      -9.605  37.988  25.388  1.00  0.00     0.076 C 
HETATM    3  C2  UNL     1      -9.223  37.287  24.140  1.00  0.00     0.195 C 
ENDROOT
BRANCH   3   4
HETATM    4  C3  UNL     1      -9.512  38.158  22.991  1.00  0.00    -0.033 A 
HETATM    5  C4  UNL     1      -9.536  39.536  23.030  1.00  0.00     0.009 A 
HETATM    6  C5  UNL     1      -9.815  40.296  21.913  1.00  0.00     0.001 A 
HETATM    7  C6  UNL     1     -10.081  39.667  20.710  1.00  0.00     0.000 A 
HETATM    8  C7  UNL     1     -10.065  38.293  20.639  1.00  0.00     0.001 A 
HETATM    9  C8  UNL     1      -9.780  37.549  21.782  1.00  0.00     0.009 A 
ENDBRANCH   3   4
BRANCH   3  10
HETATM   10  C9  UNL     1      -7.776  36.944  24.251  1.00  0.00     0.132 A 
HETATM   11  N2  UNL     1      -7.079  36.882  25.402  1.00  0.00    -0.274 N 
HETATM   12  N3  UNL     1      -5.840  36.554  25.137  1.00  0.00    -0.225 N 
ATOM     13  H2  UNL     1      -7.457  37.062  26.333  1.00  0.00     0.189 HD
HETATM   14  N4  UNL     1      -5.702  36.397  23.833  1.00  0.00    -0.005 NA
ATOM     15  H3  UNL     1      -5.099  36.438  25.827  1.00  0.00     0.205 HD
HETATM   16  N5  UNL     1      -6.898  36.638  23.291  1.00  0.00    -0.269 N 
ATOM     17  H5  UNL     1      -7.110  36.595  22.294  1.00  0.00     0.185 HD
ENDBRANCH   3  10
TORSDOF 2
ENDMDL
MODEL 5
REMARK VINA RESULT: -7.054225821      1.813      3.108
REMARK  2 active torsions:
REMARK  status: ('A' for Active; 'I' for Inactive)
REMARK    1  A    between atoms: C2_3  and  C3_4 
REMARK    2  A    between atoms: C2_3  and  C9_10 
ROOT
HETATM    1  N1  UNL     1      -6.981  36.700  23.039  1.00  0.00    -0.196 NA
HETATM    2  C1  UNL     1      -7.954  37.258  22.758  1.00  0.00     0.076 C 
HETATM    3  C2  UNL     1      -9.187  37.994  22.393  1.00  0.00     0.195 C 
ENDROOT
BRANCH   3   4
HETATM    4  C3  UNL     1      -9.721  38.664  23.588  1.00  0.00    -0.033 A 
HETATM    5  C4  UNL     1     -10.531  39.779  23.572  1.00  0.00     0.009 A 
HETATM    6  C5  UNL     1     -10.998  40.362  24.732  1.00  0.00     0.001 A 
HETATM    7  C6  UNL     1     -10.650  39.818  25.956  1.00  0.00     0.000 A 
HETATM    8  C7  UNL     1      -9.843  38.705  26.004  1.00  0.00     0.001 A 
HETATM    9  C8  UNL     1      -9.384  38.137  24.818  1.00  0.00     0.009 A 
ENDBRANCH   3   4
BRANCH   3  10
HETATM   10  C9  UNL     1      -8.825  38.952  21.310  1.00  0.00     0.132 A 
HETATM   11  N2  UNL     1      -7.604  39.490  21.126  1.00  0.00    -0.274 N 
HETATM   12  N3  UNL     1      -7.637  40.286  20.087  1.00  0.00    -0.225 N 
ATOM     13  H2  UNL     1      -6.783  39.306  21.704  1.00  0.00     0.189 HD
HETATM   14  N4  UNL     1      -8.856  40.287  19.579  1.00  0.00    -0.005 NA
ATOM     15  H3  UNL     1      -6.847  40.821  19.727  1.00  0.00     0.205 HD
HETATM   16  N5  UNL     1      -9.585  39.463  20.336  1.00  0.00    -0.269 N 
ATOM     17  H5  UNL     1     -10.573  39.254  20.192  1.00  0.00     0.185 HD
ENDBRANCH   3  10
TORSDOF 2
ENDMDL
