MODEL 1
REMARK VINA RESULT: -7.306986894      0.000      0.000
REMARK  3 active torsions:
REMARK  status: ('A' for Active; 'I' for Inactive)
REMARK    1  A    between atoms: O1_1  and  C1_3 
REMARK    2  A    between atoms: C1_3  and  N1_4 
REMARK    3  A    between atoms: C1_3  and  C6_12 
ROOT
HETATM    1  C6  UNL     1      -9.765  19.259  78.529  1.00  0.00     0.031 C 
HETATM    2  C7  UNL     1     -11.062  18.674  78.034  1.00  0.00     0.018 C 
HETATM    3  C8  UNL     1     -10.827  18.079  76.675  1.00  0.00     0.002 C 
HETATM    4  C9  UNL     1      -9.670  18.900  76.175  1.00  0.00     0.006 C 
HETATM    5  C10 UNL     1      -8.796  18.906  77.452  1.00  0.00     0.008 C 
HETATM    6  C11 UNL     1      -7.634  19.821  77.286  1.00  0.00     0.017 C 
HETATM    7  C12 UNL     1      -7.931  20.919  76.245  1.00  0.00     0.173 C 
HETATM    8  O2  UNL     1      -8.786  21.779  76.869  1.00  0.00    -0.385 OA
HETATM    9  C13 UNL     1      -8.750  21.551  78.256  1.00  0.00     0.123 C 
HETATM   10  C14 UNL     1      -7.461  20.817  78.443  1.00  0.00     0.039 C 
HETATM   11  C15 UNL     1      -9.968  20.772  78.606  1.00  0.00     0.050 C 
ENDROOT
BRANCH   1  12
HETATM   12  C1  UNL     1      -9.523  18.695  79.862  1.00  0.00     0.122 C 
BRANCH  12  13
HETATM   13  O1  UNL     1      -9.807  19.519  80.843  1.00  0.00    -0.349 OA
ATOM     14  H1  UNL     1     -10.739  19.659  80.966  1.00  0.00     0.219 HD
ENDBRANCH  12  13
BRANCH  12  15
HETATM   15  N1  UNL     1      -9.059  17.473  80.284  1.00  0.00    -0.362 N 
HETATM   16  C2  UNL     1      -9.691  16.185  80.183  1.00  0.00     0.152 C 
HETATM   17  C3  UNL     1      -8.924  15.228  81.111  1.00  0.00     0.252 C 
HETATM   18  N2  UNL     1      -8.678  15.786  82.402  1.00  0.00    -0.072 N 
HETATM   19  C4  UNL     1      -7.981  17.045  82.369  1.00  0.00     0.252 C 
ATOM     20  H22 UNL     1      -9.548  15.870  82.928  1.00  0.00     0.277 HD
ATOM     21  H21 UNL     1      -8.184  15.118  82.994  1.00  0.00     0.277 HD
HETATM   22  C5  UNL     1      -7.728  17.416  80.938  1.00  0.00     0.152 C 
ENDBRANCH  12  15
ENDBRANCH   1  12
TORSDOF 3
ENDMDL
MODEL 2
REMARK VINA RESULT: -6.775314274      1.370      1.946
REMARK  3 active torsions:
REMARK  status: ('A' for Active; 'I' for Inactive)
REMARK    1  A    between atoms: O1_1  and  C1_3 
REMARK    2  A    between atoms: C1_3  and  N1_4 
REMARK    3  A    between atoms: C1_3  and  C6_12 
ROOT
HETATM    1  C6  UNL     1     -10.138  18.309  79.114  1.00  0.00     0.031 C 
HETATM    2  C7  UNL     1     -11.329  17.842  79.910  1.00  0.00     0.018 C 
HETATM    3  C8  UNL     1     -12.148  16.927  79.044  1.00  0.00     0.002 C 
HETATM    4  C9  UNL     1     -11.807  17.420  77.665  1.00  0.00     0.006 C 
HETATM    5  C10 UNL     1     -10.276  17.573  77.825  1.00  0.00     0.008 C 
HETATM    6  C11 UNL     1      -9.688  18.231  76.626  1.00  0.00     0.017 C 
HETATM    7  C12 UNL     1     -10.732  19.100  75.896  1.00  0.00     0.173 C 
HETATM    8  O2  UNL     1     -10.889  20.202  76.682  1.00  0.00    -0.385 OA
HETATM    9  C13 UNL     1      -9.816  20.290  77.587  1.00  0.00     0.123 C 
HETATM   10  C14 UNL     1      -8.774  19.421  76.958  1.00  0.00     0.039 C 
HETATM   11  C15 UNL     1     -10.312  19.812  78.906  1.00  0.00     0.050 C 
ENDROOT
BRANCH   1  12
HETATM   12  C1  UNL     1      -8.946  18.028  79.925  1.00  0.00     0.122 C 
BRANCH  12  13
HETATM   13  O1  UNL     1      -8.073  19.007  79.937  1.00  0.00    -0.349 OA
ATOM     14  H1  UNL     1      -7.634  19.117  80.772  1.00  0.00     0.219 HD
ENDBRANCH  12  13
BRANCH  12  15
HETATM   15  N1  UNL     1      -8.568  16.941  80.675  1.00  0.00    -0.362 N 
HETATM   16  C2  UNL     1      -9.120  15.613  80.679  1.00  0.00     0.152 C 
HETATM   17  C3  UNL     1      -8.581  14.900  81.931  1.00  0.00     0.252 C 
HETATM   18  N2  UNL     1      -8.679  15.700  83.109  1.00  0.00    -0.072 N 
HETATM   19  C4  UNL     1      -8.030  16.981  82.998  1.00  0.00     0.252 C 
ATOM     20  H22 UNL     1      -9.654  15.814  83.386  1.00  0.00     0.277 HD
ATOM     21  H21 UNL     1      -8.329  15.190  83.920  1.00  0.00     0.277 HD
HETATM   22  C5  UNL     1      -7.440  17.104  81.625  1.00  0.00     0.152 C 
ENDBRANCH  12  15
ENDBRANCH   1  12
TORSDOF 3
ENDMDL
MODEL 3
REMARK VINA RESULT: -6.600544672      1.708      2.564
REMARK  3 active torsions:
REMARK  status: ('A' for Active; 'I' for Inactive)
REMARK    1  A    between atoms: O1_1  and  C1_3 
REMARK    2  A    between atoms: C1_3  and  N1_4 
REMARK    3  A    between atoms: C1_3  and  C6_12 
ROOT
HETATM    1  C6  UNL     1     -10.838  17.472  78.742  1.00  0.00     0.031 C 
HETATM    2  C7  UNL     1     -12.231  17.119  79.195  1.00  0.00     0.018 C 
HETATM    3  C8  UNL     1     -13.062  16.815  77.980  1.00  0.00     0.002 C 
HETATM    4  C9  UNL     1     -12.366  17.625  76.920  1.00  0.00     0.006 C 
HETATM    5  C10 UNL     1     -10.898  17.280  77.264  1.00  0.00     0.008 C 
HETATM    6  C11 UNL     1      -9.963  18.107  76.455  1.00  0.00     0.017 C 
HETATM    7  C12 UNL     1     -10.626  19.426  76.009  1.00  0.00     0.173 C 
HETATM    8  O2  UNL     1     -10.671  20.199  77.130  1.00  0.00    -0.385 OA
HETATM    9  C13 UNL     1      -9.794  19.675  78.096  1.00  0.00     0.123 C 
HETATM   10  C14 UNL     1      -8.880  18.811  77.287  1.00  0.00     0.039 C 
HETATM   11  C15 UNL     1     -10.622  18.943  79.092  1.00  0.00     0.050 C 
ENDROOT
BRANCH   1  12
HETATM   12  C1  UNL     1      -9.914  16.614  79.494  1.00  0.00     0.122 C 
BRANCH  12  13
HETATM   13  O1  UNL     1      -9.777  15.412  78.986  1.00  0.00    -0.349 OA
ATOM     14  H1  UNL     1      -9.528  15.411  78.070  1.00  0.00     0.219 HD
ENDBRANCH  12  13
BRANCH  12  15
HETATM   15  N1  UNL     1      -9.163  16.825  80.625  1.00  0.00    -0.362 N 
HETATM   16  C2  UNL     1      -7.927  17.545  80.765  1.00  0.00     0.152 C 
HETATM   17  C3  UNL     1      -7.339  17.179  82.139  1.00  0.00     0.252 C 
HETATM   18  N2  UNL     1      -7.362  15.774  82.395  1.00  0.00    -0.072 N 
HETATM   19  C4  UNL     1      -8.670  15.184  82.285  1.00  0.00     0.252 C 
ATOM     20  H22 UNL     1      -6.697  15.289  81.792  1.00  0.00     0.277 HD
ATOM     21  H21 UNL     1      -6.950  15.568  83.305  1.00  0.00     0.277 HD
HETATM   22  C5  UNL     1      -9.650  16.254  81.905  1.00  0.00     0.152 C 
ENDBRANCH  12  15
ENDBRANCH   1  12
TORSDOF 3
ENDMDL
MODEL 4
REMARK VINA RESULT: -6.554776142      2.561      4.356
REMARK  3 active torsions:
REMARK  status: ('A' for Active; 'I' for Inactive)
REMARK    1  A    between atoms: O1_1  and  C1_3 
REMARK    2  A    between atoms: C1_3  and  N1_4 
REMARK    3  A    between atoms: C1_3  and  C6_12 
ROOT
HETATM    1  C6  UNL     1      -9.456  19.215  79.078  1.00  0.00     0.031 C 
HETATM    2  C7  UNL     1     -10.043  19.365  80.458  1.00  0.00     0.018 C 
HETATM    3  C8  UNL     1     -10.852  18.137  80.765  1.00  0.00     0.002 C 
HETATM    4  C9  UNL     1     -11.250  17.677  79.390  1.00  0.00     0.006 C 
HETATM    5  C10 UNL     1      -9.894  17.850  78.665  1.00  0.00     0.008 C 
HETATM    6  C11 UNL     1     -10.049  17.624  77.203  1.00  0.00     0.017 C 
HETATM    7  C12 UNL     1     -11.496  17.900  76.745  1.00  0.00     0.173 C 
HETATM    8  O2  UNL     1     -11.621  19.257  76.760  1.00  0.00    -0.385 OA
HETATM    9  C13 UNL     1     -10.345  19.845  76.804  1.00  0.00     0.123 C 
HETATM   10  C14 UNL     1      -9.450  18.742  76.336  1.00  0.00     0.039 C 
HETATM   11  C15 UNL     1     -10.111  20.285  78.206  1.00  0.00     0.050 C 
ENDROOT
BRANCH   1  12
HETATM   12  C1  UNL     1      -8.012  19.451  79.200  1.00  0.00     0.122 C 
BRANCH  12  13
HETATM   13  O1  UNL     1      -7.407  18.612  80.007  1.00  0.00    -0.349 OA
ATOM     14  H1  UNL     1      -7.795  18.567  80.872  1.00  0.00     0.219 HD
ENDBRANCH  12  13
BRANCH  12  15
HETATM   15  N1  UNL     1      -7.171  20.377  78.632  1.00  0.00    -0.362 N 
HETATM   16  C2  UNL     1      -7.370  21.169  77.449  1.00  0.00     0.152 C 
HETATM   17  C3  UNL     1      -6.004  21.763  77.064  1.00  0.00     0.252 C 
HETATM   18  N2  UNL     1      -4.953  20.798  77.089  1.00  0.00    -0.072 N 
HETATM   19  C4  UNL     1      -4.816  20.119  78.351  1.00  0.00     0.252 C 
ATOM     20  H22 UNL     1      -5.064  20.126  76.330  1.00  0.00     0.277 HD
ATOM     21  H21 UNL     1      -4.068  21.223  76.813  1.00  0.00     0.277 HD
HETATM   22  C5  UNL     1      -5.867  20.634  79.290  1.00  0.00     0.152 C 
ENDBRANCH  12  15
ENDBRANCH   1  12
TORSDOF 3
ENDMDL
MODEL 5
REMARK VINA RESULT: -6.521450428      1.506      1.797
REMARK  3 active torsions:
REMARK  status: ('A' for Active; 'I' for Inactive)
REMARK    1  A    between atoms: O1_1  and  C1_3 
REMARK    2  A    between atoms: C1_3  and  N1_4 
REMARK    3  A    between atoms: C1_3  and  C6_12 
ROOT
HETATM    1  C6  UNL     1      -9.577  19.130  78.931  1.00  0.00     0.031 C 
HETATM    2  C7  UNL     1     -10.852  18.385  78.627  1.00  0.00     0.018 C 
HETATM    3  C8  UNL     1     -10.757  17.832  77.233  1.00  0.00     0.002 C 
HETATM    4  C9  UNL     1      -9.805  18.798  76.582  1.00  0.00     0.006 C 
HETATM    5  C10 UNL     1      -8.751  18.909  77.709  1.00  0.00     0.008 C 
HETATM    6  C11 UNL     1      -7.754  19.966  77.390  1.00  0.00     0.017 C 
HETATM    7  C12 UNL     1      -8.345  21.022  76.434  1.00  0.00     0.173 C 
HETATM    8  O2  UNL     1      -9.193  21.762  77.203  1.00  0.00    -0.385 OA
HETATM    9  C13 UNL     1      -8.914  21.534  78.562  1.00  0.00     0.123 C 
HETATM   10  C14 UNL     1      -7.529  20.970  78.531  1.00  0.00     0.039 C 
HETATM   11  C15 UNL     1      -9.954  20.603  79.075  1.00  0.00     0.050 C 
ENDROOT
BRANCH   1  12
HETATM   12  C1  UNL     1      -9.062  18.595  80.197  1.00  0.00     0.122 C 
BRANCH  12  13
HETATM   13  O1  UNL     1      -7.786  18.290  80.161  1.00  0.00    -0.349 OA
ATOM     14  H1  UNL     1      -7.618  17.372  79.982  1.00  0.00     0.219 HD
ENDBRANCH  12  13
BRANCH  12  15
HETATM   15  N1  UNL     1      -9.654  18.353  81.413  1.00  0.00    -0.362 N 
HETATM   16  C2  UNL     1     -10.664  19.118  82.092  1.00  0.00     0.152 C 
HETATM   17  C3  UNL     1     -10.712  18.620  83.546  1.00  0.00     0.252 C 
HETATM   18  N2  UNL     1      -9.417  18.499  84.134  1.00  0.00    -0.072 N 
HETATM   19  C4  UNL     1      -8.518  17.654  83.391  1.00  0.00     0.252 C 
ATOM     20  H22 UNL     1      -9.003  19.420  84.283  1.00  0.00     0.277 HD
ATOM     21  H21 UNL     1      -9.489  18.184  85.101  1.00  0.00     0.277 HD
HETATM   22  C5  UNL     1      -9.231  17.150  82.171  1.00  0.00     0.152 C 
ENDBRANCH  12  15
ENDBRANCH   1  12
TORSDOF 3
ENDMDL
