MODEL 1
REMARK VINA RESULT: -7.038756485      0.000      0.000
REMARK  2 active torsions:
REMARK  status: ('A' for Active; 'I' for Inactive)
REMARK    1  A    between atoms: C1_2  and  C2_4 
REMARK    2  A    between atoms: C2_4  and  C3_5 
ROOT
HETATM    1  C3  UNL     1      -9.876  18.933  80.071  1.00  0.00    -0.032 C 
HETATM    2  C4  UNL     1     -10.781  18.073  79.256  1.00  0.00     0.014 C 
HETATM    3  C5  UNL     1     -10.884  16.750  79.978  1.00  0.00    -0.013 C 
HETATM    4  C6  UNL     1     -11.555  16.929  81.290  1.00  0.00     0.010 C 
HETATM    5  C7  UNL     1     -11.096  18.058  82.120  1.00  0.00     0.001 C 
HETATM    6  C8  UNL     1     -10.323  19.151  81.470  1.00  0.00     0.015 C 
HETATM    7  C9  UNL     1     -10.428  17.586  83.397  1.00  0.00     0.145 C 
HETATM    8  S1  UNL     1      -9.070  16.545  83.211  1.00  0.00     0.145 S 
HETATM    9  O2  UNL     1      -8.231  16.755  84.486  1.00  0.00    -0.228 OA
HETATM   10  O3  UNL     1      -9.484  15.084  83.366  1.00  0.00    -0.228 OA
HETATM   11  C10 UNL     1      -7.967  16.821  81.924  1.00  0.00     0.145 C 
HETATM   12  C11 UNL     1      -8.430  16.887  80.513  1.00  0.00     0.001 C 
HETATM   13  C12 UNL     1      -9.596  16.035  80.151  1.00  0.00     0.010 C 
HETATM   14  C13 UNL     1      -8.499  18.301  80.010  1.00  0.00     0.015 C 
ENDROOT
BRANCH   1  15
HETATM   15  C2  UNL     1      -9.710  20.256  79.349  1.00  0.00     0.109 C 
BRANCH  15  16
HETATM   16  C1  UNL     1      -9.540  20.130  77.908  1.00  0.00     0.231 C 
HETATM   17  N1  UNL     1     -10.648  20.212  77.030  1.00  0.00    -0.062 NA
HETATM   18  O1  UNL     1      -8.389  19.945  77.410  1.00  0.00    -0.277 OA
ENDBRANCH  15  16
ENDBRANCH   1  15
TORSDOF 2
ENDMDL
MODEL 2
REMARK VINA RESULT: -6.629674405      1.918      3.382
REMARK  2 active torsions:
REMARK  status: ('A' for Active; 'I' for Inactive)
REMARK    1  A    between atoms: C1_2  and  C2_4 
REMARK    2  A    between atoms: C2_4  and  C3_5 
ROOT
HETATM    1  C3  UNL     1     -10.931  16.844  79.761  1.00  0.00    -0.032 C 
HETATM    2  C4  UNL     1     -10.726  18.261  79.342  1.00  0.00     0.014 C 
HETATM    3  C5  UNL     1      -9.909  18.918  80.429  1.00  0.00    -0.013 C 
HETATM    4  C6  UNL     1      -8.558  18.308  80.500  1.00  0.00     0.010 C 
HETATM    5  C7  UNL     1      -8.493  16.836  80.477  1.00  0.00     0.001 C 
HETATM    6  C8  UNL     1      -9.679  16.079  79.990  1.00  0.00     0.015 C 
HETATM    7  C9  UNL     1      -7.971  16.272  81.785  1.00  0.00     0.145 C 
HETATM    8  S1  UNL     1      -8.848  16.691  83.204  1.00  0.00     0.145 S 
HETATM    9  O2  UNL     1      -8.567  15.547  84.197  1.00  0.00    -0.228 OA
HETATM   10  O3  UNL     1      -8.191  17.870  83.917  1.00  0.00    -0.228 OA
HETATM   11  C10 UNL     1     -10.561  16.788  83.138  1.00  0.00     0.145 C 
HETATM   12  C11 UNL     1     -11.247  17.662  82.150  1.00  0.00     0.001 C 
HETATM   13  C12 UNL     1     -10.545  18.919  81.769  1.00  0.00     0.010 C 
HETATM   14  C13 UNL     1     -11.807  16.876  80.999  1.00  0.00     0.015 C 
ENDROOT
BRANCH   1  15
HETATM   15  C2  UNL     1     -11.790  16.164  78.714  1.00  0.00     0.109 C 
BRANCH  15  16
HETATM   16  C1  UNL     1     -12.836  17.014  78.159  1.00  0.00     0.231 C 
HETATM   17  N1  UNL     1     -12.644  17.707  76.940  1.00  0.00    -0.062 NA
HETATM   18  O1  UNL     1     -13.943  17.148  78.761  1.00  0.00    -0.277 OA
ENDBRANCH  15  16
ENDBRANCH   1  15
TORSDOF 2
ENDMDL
MODEL 3
REMARK VINA RESULT: -6.484653899      1.078      1.078
REMARK  2 active torsions:
REMARK  status: ('A' for Active; 'I' for Inactive)
REMARK    1  A    between atoms: C1_2  and  C2_4 
REMARK    2  A    between atoms: C2_4  and  C3_5 
ROOT
HETATM    1  C3  UNL     1      -9.327  18.512  79.808  1.00  0.00    -0.032 C 
HETATM    2  C4  UNL     1      -9.987  17.420  79.035  1.00  0.00     0.014 C 
HETATM    3  C5  UNL     1     -10.326  16.333  80.028  1.00  0.00    -0.013 C 
HETATM    4  C6  UNL     1     -11.336  16.820  81.000  1.00  0.00     0.010 C 
HETATM    5  C7  UNL     1     -11.102  18.150  81.590  1.00  0.00     0.001 C 
HETATM    6  C8  UNL     1     -10.147  19.071  80.913  1.00  0.00     0.015 C 
HETATM    7  C9  UNL     1     -10.836  18.070  83.081  1.00  0.00     0.145 C 
HETATM    8  S1  UNL     1      -9.510  17.089  83.570  1.00  0.00     0.145 S 
HETATM    9  O2  UNL     1      -9.061  17.673  84.924  1.00  0.00    -0.228 OA
HETATM   10  O3  UNL     1      -9.990  15.702  83.991  1.00  0.00    -0.228 OA
HETATM   11  C10 UNL     1      -8.080  17.070  82.619  1.00  0.00     0.145 C 
HETATM   12  C11 UNL     1      -8.122  16.734  81.171  1.00  0.00     0.001 C 
HETATM   13  C12 UNL     1      -9.160  15.758  80.740  1.00  0.00     0.010 C 
HETATM   14  C13 UNL     1      -8.007  17.958  80.308  1.00  0.00     0.015 C 
ENDROOT
BRANCH   1  15
HETATM   15  C2  UNL     1      -8.928  19.602  78.833  1.00  0.00     0.109 C 
BRANCH  15  16
HETATM   16  C1  UNL     1      -9.685  19.592  77.587  1.00  0.00     0.231 C 
HETATM   17  N1  UNL     1      -9.096  19.150  76.378  1.00  0.00    -0.062 NA
HETATM   18  O1  UNL     1     -10.891  19.979  77.564  1.00  0.00    -0.277 OA
ENDBRANCH  15  16
ENDBRANCH   1  15
TORSDOF 2
ENDMDL
MODEL 4
REMARK VINA RESULT: -6.368668429      2.954      5.162
REMARK  2 active torsions:
REMARK  status: ('A' for Active; 'I' for Inactive)
REMARK    1  A    between atoms: C1_2  and  C2_4 
REMARK    2  A    between atoms: C2_4  and  C3_5 
ROOT
HETATM    1  C3  UNL     1      -9.081  16.507  81.045  1.00  0.00    -0.032 C 
HETATM    2  C4  UNL     1     -10.109  17.014  81.999  1.00  0.00     0.014 C 
HETATM    3  C5  UNL     1     -11.093  17.820  81.184  1.00  0.00    -0.013 C 
HETATM    4  C6  UNL     1     -11.813  16.942  80.229  1.00  0.00     0.010 C 
HETATM    5  C7  UNL     1     -10.994  15.993  79.454  1.00  0.00     0.001 C 
HETATM    6  C8  UNL     1      -9.620  15.680  79.936  1.00  0.00     0.015 C 
HETATM    7  C9  UNL     1     -11.005  16.314  77.972  1.00  0.00     0.145 C 
HETATM    8  S1  UNL     1     -10.468  17.886  77.526  1.00  0.00     0.145 S 
HETATM    9  O2  UNL     1      -9.958  17.736  76.078  1.00  0.00    -0.228 OA
HETATM   10  O3  UNL     1     -11.654  18.826  77.326  1.00  0.00    -0.228 OA
HETATM   11  C10 UNL     1      -9.152  18.598  78.369  1.00  0.00     0.145 C 
HETATM   12  C11 UNL     1      -9.176  18.750  79.847  1.00  0.00     0.001 C 
HETATM   13  C12 UNL     1     -10.506  18.983  80.475  1.00  0.00     0.010 C 
HETATM   14  C13 UNL     1      -8.326  17.718  80.532  1.00  0.00     0.015 C 
ENDROOT
BRANCH   1  15
HETATM   15  C2  UNL     1      -8.047  15.732  81.838  1.00  0.00     0.109 C 
BRANCH  15  16
HETATM   16  C1  UNL     1      -7.962  16.116  83.241  1.00  0.00     0.231 C 
HETATM   17  N1  UNL     1      -8.572  15.335  84.251  1.00  0.00    -0.062 NA
HETATM   18  O1  UNL     1      -7.336  17.163  83.584  1.00  0.00    -0.277 OA
ENDBRANCH  15  16
ENDBRANCH   1  15
TORSDOF 2
ENDMDL
MODEL 5
REMARK VINA RESULT: -6.333872238      2.945      5.161
REMARK  2 active torsions:
REMARK  status: ('A' for Active; 'I' for Inactive)
REMARK    1  A    between atoms: C1_2  and  C2_4 
REMARK    2  A    between atoms: C2_4  and  C3_5 
ROOT
HETATM    1  C3  UNL     1     -11.024  17.437  81.558  1.00  0.00    -0.032 C 
HETATM    2  C4  UNL     1      -9.913  16.456  81.723  1.00  0.00     0.014 C 
HETATM    3  C5  UNL     1      -9.272  16.299  80.364  1.00  0.00    -0.013 C 
HETATM    4  C6  UNL     1      -8.639  17.572  79.942  1.00  0.00     0.010 C 
HETATM    5  C7  UNL     1      -9.437  18.799  80.115  1.00  0.00     0.001 C 
HETATM    6  C8  UNL     1     -10.606  18.763  81.037  1.00  0.00     0.015 C 
HETATM    7  C9  UNL     1      -9.797  19.433  78.784  1.00  0.00     0.145 C 
HETATM    8  S1  UNL     1     -10.668  18.446  77.677  1.00  0.00     0.145 S 
HETATM    9  O2  UNL     1     -11.443  19.437  76.786  1.00  0.00    -0.228 OA
HETATM   10  O3  UNL     1      -9.723  17.811  76.660  1.00  0.00    -0.228 OA
HETATM   11  C10 UNL     1     -11.871  17.374  78.269  1.00  0.00     0.145 C 
HETATM   12  C11 UNL     1     -11.557  16.364  79.314  1.00  0.00     0.001 C 
HETATM   13  C12 UNL     1     -10.180  15.797  79.303  1.00  0.00     0.010 C 
HETATM   14  C13 UNL     1     -12.060  16.781  80.667  1.00  0.00     0.015 C 
ENDROOT
BRANCH   1  15
HETATM   15  C2  UNL     1     -11.723  17.584  82.896  1.00  0.00     0.109 C 
BRANCH  15  16
HETATM   16  C1  UNL     1     -10.816  17.723  84.028  1.00  0.00     0.231 C 
HETATM   17  N1  UNL     1     -10.634  16.667  84.953  1.00  0.00    -0.062 NA
HETATM   18  O1  UNL     1     -10.169  18.798  84.206  1.00  0.00    -0.277 OA
ENDBRANCH  15  16
ENDBRANCH   1  15
TORSDOF 2
ENDMDL
