MODEL 1
REMARK VINA RESULT: -7.755850258      0.000      0.000
REMARK  3 active torsions:
REMARK  status: ('A' for Active; 'I' for Inactive)
REMARK    1  A    between atoms: C1_2  and  C2_3 
REMARK       I    between atoms: C1_2  and  N1_9 
REMARK    2  A    between atoms: C4_5  and  C5_6 
REMARK    3  A    between atoms: C5_6  and  O2_7 
ROOT
HETATM    1  O1  UNL     1      -6.853  17.396  81.251  1.00  0.00    -0.273 OA
HETATM    2  C1  UNL     1      -7.973  16.839  81.373  1.00  0.00     0.224 C 
HETATM    3  N1  UNL     1      -8.945  17.079  80.366  1.00  0.00    -0.351 N 
HETATM    4  C6  UNL     1     -10.271  16.517  80.363  1.00  0.00     0.127 C 
HETATM    5  C7  UNL     1     -11.094  17.704  79.843  1.00  0.00     0.033 C 
HETATM    6  C8  UNL     1     -10.218  18.185  78.702  1.00  0.00     0.004 C 
HETATM    7  C9  UNL     1     -10.477  19.647  78.524  1.00  0.00     0.014 C 
HETATM    8  C10 UNL     1     -10.337  20.148  77.135  1.00  0.00     0.007 C 
HETATM    9  C11 UNL     1     -10.864  19.183  76.104  1.00  0.00     0.012 C 
HETATM   10  C12 UNL     1     -12.190  18.584  76.508  1.00  0.00     0.172 C 
HETATM   11  O3  UNL     1     -11.945  17.480  77.280  1.00  0.00    -0.385 OA
HETATM   12  C13 UNL     1     -10.596  17.358  77.494  1.00  0.00     0.132 C 
HETATM   13  C14 UNL     1      -9.970  17.939  76.220  1.00  0.00     0.039 C 
HETATM   14  C15 UNL     1      -8.830  17.898  79.178  1.00  0.00     0.137 C 
ENDROOT
BRANCH   2  15
HETATM   15  C2  UNL     1      -8.208  15.972  82.551  1.00  0.00     0.084 A 
HETATM   16  C3  UNL     1      -9.451  16.121  83.354  1.00  0.00     0.022 A 
HETATM   17  C4  UNL     1      -8.102  16.520  83.925  1.00  0.00     0.023 A 
BRANCH  17  18
HETATM   18  C5  UNL     1      -7.939  17.980  84.196  1.00  0.00     0.169 C 
BRANCH  18  19
HETATM   19  O2  UNL     1      -6.590  18.322  84.096  1.00  0.00    -0.400 OA
ATOM     20  H2  UNL     1      -6.200  18.322  84.962  1.00  0.00     0.209 HD
ENDBRANCH  18  19
ENDBRANCH  17  18
ENDBRANCH   2  15
TORSDOF 3
ENDMDL
MODEL 2
REMARK VINA RESULT: -7.346351086      1.948      2.773
REMARK  3 active torsions:
REMARK  status: ('A' for Active; 'I' for Inactive)
REMARK    1  A    between atoms: C1_2  and  C2_3 
REMARK       I    between atoms: C1_2  and  N1_9 
REMARK    2  A    between atoms: C4_5  and  C5_6 
REMARK    3  A    between atoms: C5_6  and  O2_7 
ROOT
HETATM    1  O1  UNL     1     -11.237  17.861  83.031  1.00  0.00    -0.273 OA
HETATM    2  C1  UNL     1     -10.115  17.451  82.637  1.00  0.00     0.224 C 
HETATM    3  N1  UNL     1      -9.561  18.052  81.476  1.00  0.00    -0.351 N 
HETATM    4  C6  UNL     1      -8.291  17.693  80.900  1.00  0.00     0.127 C 
HETATM    5  C7  UNL     1      -8.613  17.770  79.402  1.00  0.00     0.033 C 
HETATM    6  C8  UNL     1      -9.399  19.066  79.340  1.00  0.00     0.004 C 
HETATM    7  C9  UNL     1     -10.330  18.970  78.174  1.00  0.00     0.014 C 
HETATM    8  C10 UNL     1     -10.634  20.258  77.503  1.00  0.00     0.007 C 
HETATM    9  C11 UNL     1      -9.439  21.172  77.411  1.00  0.00     0.012 C 
HETATM   10  C12 UNL     1      -8.189  20.436  76.991  1.00  0.00     0.172 C 
HETATM   11  O3  UNL     1      -7.594  19.926  78.114  1.00  0.00    -0.385 OA
HETATM   12  C13 UNL     1      -8.382  20.178  79.208  1.00  0.00     0.132 C 
HETATM   13  C14 UNL     1      -9.071  21.505  78.865  1.00  0.00     0.039 C 
HETATM   14  C15 UNL     1     -10.117  19.104  80.651  1.00  0.00     0.137 C 
ENDROOT
BRANCH   2  15
HETATM   15  C2  UNL     1      -9.446  16.376  83.404  1.00  0.00     0.084 A 
HETATM   16  C3  UNL     1      -9.635  16.278  84.876  1.00  0.00     0.022 A 
HETATM   17  C4  UNL     1      -8.295  16.681  84.288  1.00  0.00     0.023 A 
BRANCH  17  18
HETATM   18  C5  UNL     1      -7.868  18.080  84.593  1.00  0.00     0.169 C 
BRANCH  18  19
HETATM   19  O2  UNL     1      -6.625  18.323  84.006  1.00  0.00    -0.400 OA
ATOM     20  H2  UNL     1      -6.714  19.006  83.352  1.00  0.00     0.209 HD
ENDBRANCH  18  19
ENDBRANCH  17  18
ENDBRANCH   2  15
TORSDOF 3
ENDMDL
MODEL 3
REMARK VINA RESULT: -7.218058608      1.543      2.108
REMARK  3 active torsions:
REMARK  status: ('A' for Active; 'I' for Inactive)
REMARK    1  A    between atoms: C1_2  and  C2_3 
REMARK       I    between atoms: C1_2  and  N1_9 
REMARK    2  A    between atoms: C4_5  and  C5_6 
REMARK    3  A    between atoms: C5_6  and  O2_7 
ROOT
HETATM    1  O1  UNL     1     -11.244  17.395  83.153  1.00  0.00    -0.273 OA
HETATM    2  C1  UNL     1     -10.290  16.834  82.556  1.00  0.00     0.224 C 
HETATM    3  N1  UNL     1     -10.142  17.079  81.165  1.00  0.00    -0.351 N 
HETATM    4  C6  UNL     1      -9.105  16.512  80.344  1.00  0.00     0.127 C 
HETATM    5  C7  UNL     1      -9.879  16.214  79.053  1.00  0.00     0.033 C 
HETATM    6  C8  UNL     1     -10.681  17.492  78.895  1.00  0.00     0.004 C 
HETATM    7  C9  UNL     1     -11.926  17.149  78.142  1.00  0.00     0.014 C 
HETATM    8  C10 UNL     1     -12.460  18.233  77.281  1.00  0.00     0.007 C 
HETATM    9  C11 UNL     1     -11.379  19.022  76.586  1.00  0.00     0.012 C 
HETATM   10  C12 UNL     1     -10.302  18.132  76.013  1.00  0.00     0.172 C 
HETATM   11  O3  UNL     1      -9.373  17.898  76.992  1.00  0.00    -0.385 OA
HETATM   12  C13 UNL     1      -9.788  18.471  78.167  1.00  0.00     0.132 C 
HETATM   13  C14 UNL     1     -10.586  19.700  77.714  1.00  0.00     0.039 C 
HETATM   14  C15 UNL     1     -10.956  17.910  80.304  1.00  0.00     0.137 C 
ENDROOT
BRANCH   2  15
HETATM   15  C2  UNL     1      -9.385  15.959  83.337  1.00  0.00     0.084 A 
HETATM   16  C3  UNL     1      -9.410  15.993  84.824  1.00  0.00     0.022 A 
HETATM   17  C4  UNL     1      -8.217  16.526  84.052  1.00  0.00     0.023 A 
BRANCH  17  18
HETATM   18  C5  UNL     1      -7.991  17.997  84.178  1.00  0.00     0.169 C 
BRANCH  18  19
HETATM   19  O2  UNL     1      -6.674  18.296  83.823  1.00  0.00    -0.400 OA
ATOM     20  H2  UNL     1      -6.104  17.590  84.104  1.00  0.00     0.209 HD
ENDBRANCH  18  19
ENDBRANCH  17  18
ENDBRANCH   2  15
TORSDOF 3
ENDMDL
MODEL 4
REMARK VINA RESULT: -7.121736782      3.595      5.076
REMARK  3 active torsions:
REMARK  status: ('A' for Active; 'I' for Inactive)
REMARK    1  A    between atoms: C1_2  and  C2_3 
REMARK       I    between atoms: C1_2  and  N1_9 
REMARK    2  A    between atoms: C4_5  and  C5_6 
REMARK    3  A    between atoms: C5_6  and  O2_7 
ROOT
HETATM    1  O1  UNL     1      -6.809  21.138  75.476  1.00  0.00    -0.273 OA
HETATM    2  C1  UNL     1      -6.942  21.093  76.726  1.00  0.00     0.224 C 
HETATM    3  N1  UNL     1      -7.997  20.301  77.251  1.00  0.00    -0.351 N 
HETATM    4  C6  UNL     1      -8.280  20.150  78.655  1.00  0.00     0.127 C 
HETATM    5  C7  UNL     1      -9.814  20.160  78.650  1.00  0.00     0.033 C 
HETATM    6  C8  UNL     1     -10.107  19.246  77.475  1.00  0.00     0.004 C 
HETATM    7  C9  UNL     1     -11.431  19.650  76.911  1.00  0.00     0.014 C 
HETATM    8  C10 UNL     1     -12.220  18.550  76.304  1.00  0.00     0.007 C 
HETATM    9  C11 UNL     1     -12.117  17.257  77.071  1.00  0.00     0.012 C 
HETATM   10  C12 UNL     1     -12.231  17.467  78.562  1.00  0.00     0.172 C 
HETATM   11  O3  UNL     1     -10.984  17.749  79.053  1.00  0.00    -0.385 OA
HETATM   12  C13 UNL     1     -10.090  17.834  78.016  1.00  0.00     0.132 C 
HETATM   13  C14 UNL     1     -10.639  16.848  76.977  1.00  0.00     0.039 C 
HETATM   14  C15 UNL     1      -8.974  19.510  76.535  1.00  0.00     0.137 C 
ENDROOT
BRANCH   2  15
HETATM   15  C2  UNL     1      -5.996  21.864  77.565  1.00  0.00     0.084 A 
HETATM   16  C3  UNL     1      -4.596  22.077  77.112  1.00  0.00     0.022 A 
HETATM   17  C4  UNL     1      -4.903  21.178  78.295  1.00  0.00     0.023 A 
BRANCH  17  18
HETATM   18  C5  UNL     1      -4.584  19.733  78.089  1.00  0.00     0.169 C 
BRANCH  18  19
HETATM   19  O2  UNL     1      -3.881  19.252  79.195  1.00  0.00    -0.400 OA
ATOM     20  H2  UNL     1      -2.981  19.080  78.946  1.00  0.00     0.209 HD
ENDBRANCH  18  19
ENDBRANCH  17  18
ENDBRANCH   2  15
TORSDOF 3
ENDMDL
MODEL 5
REMARK VINA RESULT: -6.869659117      2.490      6.276
REMARK  3 active torsions:
REMARK  status: ('A' for Active; 'I' for Inactive)
REMARK    1  A    between atoms: C1_2  and  C2_3 
REMARK       I    between atoms: C1_2  and  N1_9 
REMARK    2  A    between atoms: C4_5  and  C5_6 
REMARK    3  A    between atoms: C5_6  and  O2_7 
ROOT
HETATM    1  O1  UNL     1      -9.665  20.647  78.902  1.00  0.00    -0.273 OA
HETATM    2  C1  UNL     1     -10.259  19.545  78.781  1.00  0.00     0.224 C 
HETATM    3  N1  UNL     1     -10.440  18.758  79.949  1.00  0.00    -0.351 N 
HETATM    4  C6  UNL     1     -11.096  17.477  79.975  1.00  0.00     0.127 C 
HETATM    5  C7  UNL     1     -10.216  16.713  80.973  1.00  0.00     0.033 C 
HETATM    6  C8  UNL     1     -10.036  17.757  82.059  1.00  0.00     0.004 C 
HETATM    7  C9  UNL     1      -8.735  17.477  82.739  1.00  0.00     0.014 C 
HETATM    8  C10 UNL     1      -8.684  17.841  84.177  1.00  0.00     0.007 C 
HETATM    9  C11 UNL     1      -9.969  17.543  84.906  1.00  0.00     0.012 C 
HETATM   10  C12 UNL     1     -10.532  16.191  84.540  1.00  0.00     0.172 C 
HETATM   11  O3  UNL     1     -11.310  16.339  83.423  1.00  0.00    -0.385 OA
HETATM   12  C13 UNL     1     -11.232  17.633  82.975  1.00  0.00     0.132 C 
HETATM   13  C14 UNL     1     -11.023  18.451  84.256  1.00  0.00     0.039 C 
HETATM   14  C15 UNL     1     -10.027  19.049  81.305  1.00  0.00     0.137 C 
ENDROOT
BRANCH   2  15
HETATM   15  C2  UNL     1     -10.730  19.140  77.437  1.00  0.00     0.084 A 
HETATM   16  C3  UNL     1     -10.074  18.013  76.721  1.00  0.00     0.022 A 
HETATM   17  C4  UNL     1      -9.923  19.441  76.230  1.00  0.00     0.023 A 
BRANCH  17  18
HETATM   18  C5  UNL     1      -8.537  19.991  76.310  1.00  0.00     0.169 C 
BRANCH  18  19
HETATM   19  O2  UNL     1      -8.586  21.384  76.235  1.00  0.00    -0.400 OA
ATOM     20  H2  UNL     1      -7.731  21.718  75.992  1.00  0.00     0.209 HD
ENDBRANCH  18  19
ENDBRANCH  17  18
ENDBRANCH   2  15
TORSDOF 3
ENDMDL
