MODEL 1
REMARK VINA RESULT: -7.529212022      0.000      0.000
REMARK  5 active torsions:
REMARK  status: ('A' for Active; 'I' for Inactive)
REMARK    1  A    between atoms: O1_1  and  C1_3 
REMARK    2  A    between atoms: C1_3  and  N1_4 
REMARK    3  A    between atoms: C1_3  and  C8_13 
REMARK    4  A    between atoms: C5_8  and  O2_9 
REMARK    5  A    between atoms: C8_13  and  N2_14 
ROOT
HETATM    1  C1  UNL     1      -9.257  19.230  79.393  1.00  0.00     0.142 C 
ENDROOT
BRANCH   1   2
HETATM    2  O1  UNL     1      -9.661  20.232  80.162  1.00  0.00    -0.348 OA
ATOM      3  H1  UNL     1      -9.616  21.071  79.721  1.00  0.00     0.219 HD
ENDBRANCH   1   2
BRANCH   1   4
HETATM    4  N1  UNL     1      -9.163  18.029  80.088  1.00  0.00    -0.363 N 
HETATM    5  C2  UNL     1     -10.433  17.264  80.101  1.00  0.00     0.124 C 
HETATM    6  C3  UNL     1     -10.159  15.891  79.523  1.00  0.00     0.022 C 
HETATM    7  C4  UNL     1      -9.445  14.985  80.461  1.00  0.00     0.033 C 
HETATM    8  C5  UNL     1      -9.071  15.641  81.761  1.00  0.00     0.119 C 
HETATM    9  C6  UNL     1      -7.915  16.560  81.688  1.00  0.00     0.051 C 
HETATM   10  C7  UNL     1      -7.945  17.693  80.727  1.00  0.00     0.127 C 
BRANCH   8  11
HETATM   11  O2  UNL     1      -8.629  14.556  82.574  1.00  0.00    -0.396 OA
ATOM     12  H2  UNL     1      -7.716  14.758  82.743  1.00  0.00     0.210 HD
ENDBRANCH   8  11
ENDBRANCH   1   4
BRANCH   1  13
HETATM   13  C8  UNL     1      -9.014  19.642  78.020  1.00  0.00     0.093 C 
HETATM   14  C13 UNL     1     -10.192  20.570  77.508  1.00  0.00     0.040 C 
HETATM   15  C14 UNL     1     -10.745  19.358  76.853  1.00  0.00     0.006 C 
HETATM   16  C15 UNL     1      -9.312  18.843  76.825  1.00  0.00     0.040 C 
BRANCH  13  17
HETATM   17  N2  UNL     1      -7.868  20.451  77.892  1.00  0.00    -0.397 N 
HETATM   18  C9  UNL     1      -7.702  21.359  76.864  1.00  0.00     0.118 C 
HETATM   19  C10 UNL     1      -6.171  21.405  76.720  1.00  0.00     0.021 C 
HETATM   20  C11 UNL     1      -5.628  20.829  78.013  1.00  0.00     0.021 C 
HETATM   21  C12 UNL     1      -6.885  20.553  78.855  1.00  0.00     0.118 C 
ENDBRANCH  13  17
ENDBRANCH   1  13
TORSDOF 5
ENDMDL
MODEL 2
REMARK VINA RESULT: -7.047392415      2.439      5.245
REMARK  5 active torsions:
REMARK  status: ('A' for Active; 'I' for Inactive)
REMARK    1  A    between atoms: O1_1  and  C1_3 
REMARK    2  A    between atoms: C1_3  and  N1_4 
REMARK    3  A    between atoms: C1_3  and  C8_13 
REMARK    4  A    between atoms: C5_8  and  O2_9 
REMARK    5  A    between atoms: C8_13  and  N2_14 
ROOT
HETATM    1  C1  UNL     1      -9.156  20.552  77.654  1.00  0.00     0.142 C 
ENDROOT
BRANCH   1   2
HETATM    2  O1  UNL     1      -9.868  21.670  77.599  1.00  0.00    -0.348 OA
ATOM      3  H1  UNL     1      -9.328  22.449  77.661  1.00  0.00     0.219 HD
ENDBRANCH   1   2
BRANCH   1   4
HETATM    4  N1  UNL     1      -7.788  20.793  77.707  1.00  0.00    -0.363 N 
HETATM    5  C2  UNL     1      -7.268  20.895  79.092  1.00  0.00     0.124 C 
HETATM    6  C3  UNL     1      -6.163  19.871  79.254  1.00  0.00     0.022 C 
HETATM    7  C4  UNL     1      -4.888  20.268  78.600  1.00  0.00     0.033 C 
HETATM    8  C5  UNL     1      -4.978  21.565  77.846  1.00  0.00     0.119 C 
HETATM    9  C6  UNL     1      -5.678  21.485  76.546  1.00  0.00     0.051 C 
HETATM   10  C7  UNL     1      -7.068  20.963  76.499  1.00  0.00     0.127 C 
BRANCH   8  11
HETATM   11  O2  UNL     1      -3.622  21.862  77.517  1.00  0.00    -0.396 OA
ATOM     12  H2  UNL     1      -3.460  22.690  77.953  1.00  0.00     0.210 HD
ENDBRANCH   8  11
ENDBRANCH   1   4
BRANCH   1  13
HETATM   13  C8  UNL     1      -9.988  19.359  77.644  1.00  0.00     0.093 C 
HETATM   14  C13 UNL     1      -9.468  18.336  76.553  1.00  0.00     0.040 C 
HETATM   15  C14 UNL     1     -10.538  18.867  75.671  1.00  0.00     0.006 C 
HETATM   16  C15 UNL     1     -11.277  19.224  76.954  1.00  0.00     0.040 C 
BRANCH  13  17
HETATM   17  N2  UNL     1      -9.911  18.635  78.849  1.00  0.00    -0.397 N 
HETATM   18  C9  UNL     1     -10.140  19.207  80.086  1.00  0.00     0.118 C 
HETATM   19  C10 UNL     1      -9.270  18.337  81.009  1.00  0.00     0.021 C 
HETATM   20  C11 UNL     1      -8.988  17.072  80.222  1.00  0.00     0.021 C 
HETATM   21  C12 UNL     1      -9.777  17.263  78.916  1.00  0.00     0.118 C 
ENDBRANCH  13  17
ENDBRANCH   1  13
TORSDOF 5
ENDMDL
MODEL 3
REMARK VINA RESULT: -6.815131172      2.316      5.682
REMARK  5 active torsions:
REMARK  status: ('A' for Active; 'I' for Inactive)
REMARK    1  A    between atoms: O1_1  and  C1_3 
REMARK    2  A    between atoms: C1_3  and  N1_4 
REMARK    3  A    between atoms: C1_3  and  C8_13 
REMARK    4  A    between atoms: C5_8  and  O2_9 
REMARK    5  A    between atoms: C8_13  and  N2_14 
ROOT
HETATM    1  C1  UNL     1     -10.866  17.969  80.225  1.00  0.00     0.142 C 
ENDROOT
BRANCH   1   2
HETATM    2  O1  UNL     1     -12.015  17.351  79.987  1.00  0.00    -0.348 OA
ATOM      3  H1  UNL     1     -12.643  17.466  80.690  1.00  0.00     0.219 HD
ENDBRANCH   1   2
BRANCH   1   4
HETATM    4  N1  UNL     1     -10.359  18.606  79.098  1.00  0.00    -0.363 N 
HETATM    5  C2  UNL     1     -10.249  17.709  77.923  1.00  0.00     0.124 C 
HETATM    6  C3  UNL     1     -11.038  18.327  76.787  1.00  0.00     0.022 C 
HETATM    7  C4  UNL     1     -10.350  19.477  76.145  1.00  0.00     0.033 C 
HETATM    8  C5  UNL     1      -9.049  19.842  76.803  1.00  0.00     0.119 C 
HETATM    9  C6  UNL     1      -9.180  20.571  78.084  1.00  0.00     0.051 C 
HETATM   10  C7  UNL     1      -9.967  19.964  79.189  1.00  0.00     0.127 C 
BRANCH   8  11
HETATM   11  O2  UNL     1      -8.465  20.782  75.903  1.00  0.00    -0.396 OA
ATOM     12  H2  UNL     1      -8.081  21.435  76.477  1.00  0.00     0.210 HD
ENDBRANCH   8  11
ENDBRANCH   1   4
BRANCH   1  13
HETATM   13  C8  UNL     1     -10.428  17.822  81.604  1.00  0.00     0.093 C 
HETATM   14  C13 UNL     1     -11.571  17.157  82.476  1.00  0.00     0.040 C 
HETATM   15  C14 UNL     1     -11.909  18.532  82.923  1.00  0.00     0.006 C 
HETATM   16  C15 UNL     1     -10.457  18.877  82.625  1.00  0.00     0.040 C 
BRANCH  13  17
HETATM   17  N2  UNL     1      -9.343  16.933  81.736  1.00  0.00    -0.397 N 
HETATM   18  C9  UNL     1      -9.231  15.770  80.999  1.00  0.00     0.118 C 
HETATM   19  C10 UNL     1      -8.415  14.869  81.942  1.00  0.00     0.021 C 
HETATM   20  C11 UNL     1      -7.776  15.810  82.945  1.00  0.00     0.021 C 
HETATM   21  C12 UNL     1      -8.208  17.209  82.471  1.00  0.00     0.118 C 
ENDBRANCH  13  17
ENDBRANCH   1  13
TORSDOF 5
ENDMDL
MODEL 4
REMARK VINA RESULT: -6.729982740      1.441      1.816
REMARK  5 active torsions:
REMARK  status: ('A' for Active; 'I' for Inactive)
REMARK    1  A    between atoms: O1_1  and  C1_3 
REMARK    2  A    between atoms: C1_3  and  N1_4 
REMARK    3  A    between atoms: C1_3  and  C8_13 
REMARK    4  A    between atoms: C5_8  and  O2_9 
REMARK    5  A    between atoms: C8_13  and  N2_14 
ROOT
HETATM    1  C1  UNL     1     -10.418  18.093  78.744  1.00  0.00     0.142 C 
ENDROOT
BRANCH   1   2
HETATM    2  O1  UNL     1     -11.713  18.101  79.030  1.00  0.00    -0.348 OA
ATOM      3  H1  UNL     1     -11.907  18.573  79.830  1.00  0.00     0.219 HD
ENDBRANCH   1   2
BRANCH   1   4
HETATM    4  N1  UNL     1      -9.654  17.505  79.746  1.00  0.00    -0.363 N 
HETATM    5  C2  UNL     1     -10.419  16.534  80.566  1.00  0.00     0.124 C 
HETATM    6  C3  UNL     1      -9.700  15.202  80.507  1.00  0.00     0.022 C 
HETATM    7  C4  UNL     1      -8.474  15.153  81.346  1.00  0.00     0.033 C 
HETATM    8  C5  UNL     1      -8.155  16.459  82.019  1.00  0.00     0.119 C 
HETATM    9  C6  UNL     1      -7.570  17.491  81.136  1.00  0.00     0.051 C 
HETATM   10  C7  UNL     1      -8.307  17.905  79.914  1.00  0.00     0.127 C 
BRANCH   8  11
HETATM   11  O2  UNL     1      -7.113  16.124  82.934  1.00  0.00    -0.396 OA
ATOM     12  H2  UNL     1      -7.448  16.416  83.774  1.00  0.00     0.210 HD
ENDBRANCH   8  11
ENDBRANCH   1   4
BRANCH   1  13
HETATM   13  C8  UNL     1     -10.126  18.703  77.457  1.00  0.00     0.093 C 
HETATM   14  C13 UNL     1     -11.469  19.140  76.738  1.00  0.00     0.040 C 
HETATM   15  C14 UNL     1     -11.359  17.880  75.960  1.00  0.00     0.006 C 
HETATM   16  C15 UNL     1      -9.860  17.976  76.210  1.00  0.00     0.040 C 
BRANCH  13  17
HETATM   17  N2  UNL     1      -9.403  19.906  77.579  1.00  0.00    -0.397 N 
HETATM   18  C9  UNL     1      -8.353  20.238  76.744  1.00  0.00     0.118 C 
HETATM   19  C10 UNL     1      -7.493  21.134  77.652  1.00  0.00     0.021 C 
HETATM   20  C11 UNL     1      -8.411  21.565  78.779  1.00  0.00     0.021 C 
HETATM   21  C12 UNL     1      -9.769  20.944  78.411  1.00  0.00     0.118 C 
ENDBRANCH  13  17
ENDBRANCH   1  13
TORSDOF 5
ENDMDL
MODEL 5
REMARK VINA RESULT: -6.721146124      2.365      6.036
REMARK  5 active torsions:
REMARK  status: ('A' for Active; 'I' for Inactive)
REMARK    1  A    between atoms: O1_1  and  C1_3 
REMARK    2  A    between atoms: C1_3  and  N1_4 
REMARK    3  A    between atoms: C1_3  and  C8_13 
REMARK    4  A    between atoms: C5_8  and  O2_9 
REMARK    5  A    between atoms: C8_13  and  N2_14 
ROOT
HETATM    1  C1  UNL     1      -8.755  17.870  80.678  1.00  0.00     0.142 C 
ENDROOT
BRANCH   1   2
HETATM    2  O1  UNL     1      -7.474  18.191  80.786  1.00  0.00    -0.348 OA
ATOM      3  H1  UNL     1      -7.195  18.282  81.689  1.00  0.00     0.219 HD
ENDBRANCH   1   2
BRANCH   1   4
HETATM    4  N1  UNL     1      -9.340  18.388  79.527  1.00  0.00    -0.363 N 
HETATM    5  C2  UNL     1      -9.455  19.866  79.547  1.00  0.00     0.124 C 
HETATM    6  C3  UNL     1      -8.746  20.408  78.323  1.00  0.00     0.022 C 
HETATM    7  C4  UNL     1      -9.517  20.229  77.065  1.00  0.00     0.033 C 
HETATM    8  C5  UNL     1     -10.805  19.477  77.252  1.00  0.00     0.119 C 
HETATM    9  C6  UNL     1     -10.657  18.017  77.428  1.00  0.00     0.051 C 
HETATM   10  C7  UNL     1      -9.795  17.499  78.523  1.00  0.00     0.127 C 
BRANCH   8  11
HETATM   11  O2  UNL     1     -11.473  19.632  76.001  1.00  0.00    -0.396 OA
ATOM     12  H2  UNL     1     -12.331  19.962  76.242  1.00  0.00     0.210 HD
ENDBRANCH   8  11
ENDBRANCH   1   4
BRANCH   1  13
HETATM   13  C8  UNL     1      -9.224  17.060  81.791  1.00  0.00     0.093 C 
HETATM   14  C13 UNL     1      -8.002  16.354  82.510  1.00  0.00     0.040 C 
HETATM   15  C14 UNL     1      -8.348  15.145  81.722  1.00  0.00     0.006 C 
HETATM   16  C15 UNL     1      -9.766  15.699  81.685  1.00  0.00     0.040 C 
BRANCH  13  17
HETATM   17  N2  UNL     1      -9.816  17.830  82.810  1.00  0.00    -0.397 N 
HETATM   18  C9  UNL     1      -9.154  18.172  83.974  1.00  0.00     0.118 C 
HETATM   19  C10 UNL     1     -10.313  18.302  84.977  1.00  0.00     0.021 C 
HETATM   20  C11 UNL     1     -11.563  18.449  84.131  1.00  0.00     0.021 C 
HETATM   21  C12 UNL     1     -11.035  18.466  82.686  1.00  0.00     0.118 C 
ENDBRANCH  13  17
ENDBRANCH   1  13
TORSDOF 5
ENDMDL
