MODEL 1
REMARK VINA RESULT: -5.706567531      0.000      0.000
REMARK  5 active torsions:
REMARK  status: ('A' for Active; 'I' for Inactive)
REMARK    1  A    between atoms: C2_2  and  C3_3 
REMARK    2  A    between atoms: C2_2  and  C4_5 
REMARK    3  A    between atoms: C4_5  and  C5_6 
REMARK    4  A    between atoms: C12_13  and  O1_14 
REMARK    5  A    between atoms: O1_14  and  O2_15 
ROOT
HETATM    1  C5  UNL     1       1.371  28.200   8.335  1.00  0.00    -0.036 C 
HETATM    2  C6  UNL     1       0.382  29.175   7.773  1.00  0.00     0.014 C 
HETATM    3  C7  UNL     1      -0.822  29.382   8.698  1.00  0.00    -0.010 C 
HETATM    4  C8  UNL     1      -0.243  30.084   9.932  1.00  0.00     0.009 C 
HETATM    5  C9  UNL     1       0.776  29.157  10.518  1.00  0.00    -0.010 C 
HETATM    6  C10 UNL     1       1.921  28.824   9.597  1.00  0.00     0.014 C 
HETATM    7  C11 UNL     1       0.048  27.919  10.989  1.00  0.00     0.046 C 
HETATM    8  C12 UNL     1      -0.476  27.232   9.774  1.00  0.00     0.097 C 
HETATM    9  C13 UNL     1      -1.498  28.117   9.093  1.00  0.00     0.046 C 
HETATM   10  C14 UNL     1       0.597  26.947   8.803  1.00  0.00     0.050 C 
ENDROOT
BRANCH   1  11
HETATM   11  C4  UNL     1       2.376  27.691   7.405  1.00  0.00     0.014 C 
BRANCH  11  12
HETATM   12  C2  UNL     1       3.249  26.557   7.674  1.00  0.00    -0.008 C 
HETATM   13  C1  UNL     1       3.133  25.560   6.456  1.00  0.00     0.011 C 
BRANCH  12  14
HETATM   14  C3  UNL     1       4.744  26.879   7.605  1.00  0.00     0.089 C 
HETATM   15 BR1  UNL     1       5.446  26.249   5.900  1.00  0.00    -0.096 Br
ENDBRANCH  12  14
ENDBRANCH  11  12
ENDBRANCH   1  11
BRANCH   8  16
HETATM   16  O1  UNL     1      -1.092  26.036  10.102  1.00  0.00    -0.232 OA
BRANCH  16  17
HETATM   17  O2  UNL     1      -0.864  25.083   9.240  1.00  0.00    -0.250 OA
ATOM     18  H2  UNL     1       0.008  24.714   9.310  1.00  0.00     0.253 HD
ENDBRANCH  16  17
ENDBRANCH   8  16
TORSDOF 5
ENDMDL
MODEL 2
REMARK VINA RESULT: -5.664477363      1.932      2.605
REMARK  5 active torsions:
REMARK  status: ('A' for Active; 'I' for Inactive)
REMARK    1  A    between atoms: C2_2  and  C3_3 
REMARK    2  A    between atoms: C2_2  and  C4_5 
REMARK    3  A    between atoms: C4_5  and  C5_6 
REMARK    4  A    between atoms: C12_13  and  O1_14 
REMARK    5  A    between atoms: O1_14  and  O2_15 
ROOT
HETATM    1  C5  UNL     1       1.693  28.577   8.611  1.00  0.00    -0.036 C 
HETATM    2  C6  UNL     1       0.583  27.638   8.246  1.00  0.00     0.014 C 
HETATM    3  C7  UNL     1      -0.668  27.852   9.104  1.00  0.00    -0.010 C 
HETATM    4  C8  UNL     1      -1.181  29.238   8.693  1.00  0.00     0.009 C 
HETATM    5  C9  UNL     1      -0.093  30.215   9.014  1.00  0.00    -0.010 C 
HETATM    6  C10 UNL     1       1.202  29.969   8.285  1.00  0.00     0.014 C 
HETATM    7  C11 UNL     1       0.090  30.216  10.514  1.00  0.00     0.046 C 
HETATM    8  C12 UNL     1       0.625  28.875  10.889  1.00  0.00     0.097 C 
HETATM    9  C13 UNL     1      -0.405  27.812  10.568  1.00  0.00     0.046 C 
HETATM   10  C14 UNL     1       1.857  28.551  10.147  1.00  0.00     0.050 C 
ENDROOT
BRANCH   1  11
HETATM   11  C4  UNL     1       3.016  28.247   8.089  1.00  0.00     0.014 C 
BRANCH  11  12
HETATM   12  C2  UNL     1       3.280  27.200   7.112  1.00  0.00    -0.008 C 
HETATM   13  C1  UNL     1       4.843  27.117   6.905  1.00  0.00     0.011 C 
BRANCH  12  14
HETATM   14  C3  UNL     1       3.010  25.781   7.616  1.00  0.00     0.089 C 
HETATM   15 BR1  UNL     1       2.572  24.643   6.096  1.00  0.00    -0.096 Br
ENDBRANCH  12  14
ENDBRANCH  11  12
ENDBRANCH   1  11
BRANCH   8  16
HETATM   16  O1  UNL     1       0.904  28.808  12.243  1.00  0.00    -0.232 OA
BRANCH  16  17
HETATM   17  O2  UNL     1       0.989  29.980  12.812  1.00  0.00    -0.250 OA
ATOM     18  H2  UNL     1       0.169  30.460  12.808  1.00  0.00     0.253 HD
ENDBRANCH  16  17
ENDBRANCH   8  16
TORSDOF 5
ENDMDL
MODEL 3
REMARK VINA RESULT: -5.607368027      1.693      2.491
REMARK  5 active torsions:
REMARK  status: ('A' for Active; 'I' for Inactive)
REMARK    1  A    between atoms: C2_2  and  C3_3 
REMARK    2  A    between atoms: C2_2  and  C4_5 
REMARK    3  A    between atoms: C4_5  and  C5_6 
REMARK    4  A    between atoms: C12_13  and  O1_14 
REMARK    5  A    between atoms: O1_14  and  O2_15 
ROOT
HETATM    1  C5  UNL     1       0.975  28.067   8.370  1.00  0.00    -0.036 C 
HETATM    2  C6  UNL     1       0.018  26.934   8.584  1.00  0.00     0.014 C 
HETATM    3  C7  UNL     1      -0.945  27.196   9.747  1.00  0.00    -0.010 C 
HETATM    4  C8  UNL     1      -1.822  28.357   9.264  1.00  0.00     0.009 C 
HETATM    5  C9  UNL     1      -0.906  29.514   9.008  1.00  0.00    -0.010 C 
HETATM    6  C10 UNL     1       0.141  29.260   7.956  1.00  0.00     0.014 C 
HETATM    7  C11 UNL     1      -0.297  29.913  10.333  1.00  0.00     0.046 C 
HETATM    8  C12 UNL     1       0.581  28.788  10.766  1.00  0.00     0.097 C 
HETATM    9  C13 UNL     1      -0.264  27.557  11.019  1.00  0.00     0.046 C 
HETATM   10  C14 UNL     1       1.582  28.449   9.738  1.00  0.00     0.050 C 
ENDROOT
BRANCH   1  11
HETATM   11  C4  UNL     1       2.126  27.789   7.516  1.00  0.00     0.014 C 
BRANCH  11  12
HETATM   12  C2  UNL     1       3.132  26.772   7.794  1.00  0.00    -0.008 C 
HETATM   13  C1  UNL     1       2.945  25.609   6.742  1.00  0.00     0.011 C 
BRANCH  12  14
HETATM   14  C3  UNL     1       4.565  27.194   7.462  1.00  0.00     0.089 C 
HETATM   15 BR1  UNL     1       5.207  26.124   5.965  1.00  0.00    -0.096 Br
ENDBRANCH  12  14
ENDBRANCH  11  12
ENDBRANCH   1  11
BRANCH   8  16
HETATM   16  O1  UNL     1       1.250  29.098  11.938  1.00  0.00    -0.232 OA
BRANCH  16  17
HETATM   17  O2  UNL     1       0.734  30.114  12.575  1.00  0.00    -0.250 OA
ATOM     18  H2  UNL     1       0.837  30.059  13.517  1.00  0.00     0.253 HD
ENDBRANCH  16  17
ENDBRANCH   8  16
TORSDOF 5
ENDMDL
MODEL 4
REMARK VINA RESULT: -5.584166031      1.892      2.674
REMARK  5 active torsions:
REMARK  status: ('A' for Active; 'I' for Inactive)
REMARK    1  A    between atoms: C2_2  and  C3_3 
REMARK    2  A    between atoms: C2_2  and  C4_5 
REMARK    3  A    between atoms: C4_5  and  C5_6 
REMARK    4  A    between atoms: C12_13  and  O1_14 
REMARK    5  A    between atoms: O1_14  and  O2_15 
ROOT
HETATM    1  C5  UNL     1       0.529  27.284   8.800  1.00  0.00    -0.036 C 
HETATM    2  C6  UNL     1      -0.942  27.031   8.927  1.00  0.00     0.014 C 
HETATM    3  C7  UNL     1      -1.650  28.111   9.750  1.00  0.00    -0.010 C 
HETATM    4  C8  UNL     1      -1.548  29.377   8.892  1.00  0.00     0.009 C 
HETATM    5  C9  UNL     1      -0.089  29.660   8.711  1.00  0.00    -0.010 C 
HETATM    6  C10 UNL     1       0.678  28.568   8.013  1.00  0.00     0.014 C 
HETATM    7  C11 UNL     1       0.486  29.977  10.073  1.00  0.00     0.046 C 
HETATM    8  C12 UNL     1       0.411  28.725  10.879  1.00  0.00     0.097 C 
HETATM    9  C13 UNL     1      -1.039  28.343  11.087  1.00  0.00     0.046 C 
HETATM   10  C14 UNL     1       1.086  27.600  10.206  1.00  0.00     0.050 C 
ENDROOT
BRANCH   1  11
HETATM   11  C4  UNL     1       1.338  26.166   8.321  1.00  0.00     0.014 C 
BRANCH  11  12
HETATM   12  C2  UNL     1       2.165  26.200   7.122  1.00  0.00    -0.008 C 
HETATM   13  C1  UNL     1       3.673  26.292   7.579  1.00  0.00     0.011 C 
BRANCH  12  14
HETATM   14  C3  UNL     1       2.209  24.881   6.347  1.00  0.00     0.089 C 
HETATM   15 BR1  UNL     1       4.018  24.601   5.681  1.00  0.00    -0.096 Br
ENDBRANCH  12  14
ENDBRANCH  11  12
ENDBRANCH   1  11
BRANCH   8  16
HETATM   16  O1  UNL     1       0.993  28.897  12.124  1.00  0.00    -0.232 OA
BRANCH  16  17
HETATM   17  O2  UNL     1       0.797  30.085  12.627  1.00  0.00    -0.250 OA
ATOM     18  H2  UNL     1       0.331  30.071  13.455  1.00  0.00     0.253 HD
ENDBRANCH  16  17
ENDBRANCH   8  16
TORSDOF 5
ENDMDL
MODEL 5
REMARK VINA RESULT: -5.371721657      1.818      2.441
REMARK  5 active torsions:
REMARK  status: ('A' for Active; 'I' for Inactive)
REMARK    1  A    between atoms: C2_2  and  C3_3 
REMARK    2  A    between atoms: C2_2  and  C4_5 
REMARK    3  A    between atoms: C4_5  and  C5_6 
REMARK    4  A    between atoms: C12_13  and  O1_14 
REMARK    5  A    between atoms: O1_14  and  O2_15 
ROOT
HETATM    1  C5  UNL     1       0.762  27.820   8.861  1.00  0.00    -0.036 C 
HETATM    2  C6  UNL     1       1.628  28.946   9.336  1.00  0.00     0.014 C 
HETATM    3  C7  UNL     1       0.906  29.857  10.334  1.00  0.00    -0.010 C 
HETATM    4  C8  UNL     1       0.698  28.978  11.574  1.00  0.00     0.009 C 
HETATM    5  C9  UNL     1      -0.144  27.817  11.145  1.00  0.00    -0.010 C 
HETATM    6  C10 UNL     1       0.474  26.960  10.072  1.00  0.00     0.014 C 
HETATM    7  C11 UNL     1      -1.492  28.361  10.733  1.00  0.00     0.046 C 
HETATM    8  C12 UNL     1      -1.275  29.180   9.506  1.00  0.00     0.097 C 
HETATM    9  C13 UNL     1      -0.400  30.370   9.840  1.00  0.00     0.046 C 
HETATM   10  C14 UNL     1      -0.605  28.408   8.444  1.00  0.00     0.050 C 
ENDROOT
BRANCH   1  11
HETATM   11  C4  UNL     1       1.231  27.095   7.683  1.00  0.00     0.014 C 
BRANCH  11  12
HETATM   12  C2  UNL     1       2.383  26.204   7.668  1.00  0.00    -0.008 C 
HETATM   13  C1  UNL     1       2.131  25.110   6.557  1.00  0.00     0.011 C 
BRANCH  12  14
HETATM   14  C3  UNL     1       3.665  26.836   7.122  1.00  0.00     0.089 C 
HETATM   15 BR1  UNL     1       4.543  25.562   5.938  1.00  0.00    -0.096 Br
ENDBRANCH  12  14
ENDBRANCH  11  12
ENDBRANCH   1  11
BRANCH   8  16
HETATM   16  O1  UNL     1      -2.474  29.657   9.004  1.00  0.00    -0.232 OA
BRANCH  16  17
HETATM   17  O2  UNL     1      -2.857  30.777   9.554  1.00  0.00    -0.250 OA
ATOM     18  H2  UNL     1      -3.707  31.074   9.251  1.00  0.00     0.253 HD
ENDBRANCH  16  17
ENDBRANCH   8  16
TORSDOF 5
ENDMDL
