MODEL 1
REMARK VINA RESULT: -6.656036116      0.000      0.000
REMARK  4 active torsions:
REMARK  status: ('A' for Active; 'I' for Inactive)
REMARK    1  A    between atoms: C10_10  and  C11_11 
REMARK    2  A    between atoms: C11_11  and  C12_12 
REMARK    3  A    between atoms: C12_12  and  C13_13 
REMARK    4  A    between atoms: C13_13  and  C14_14 
ROOT
HETATM    1  C12 UNL     1       1.781  29.656   8.252  1.00  0.00    -0.030 C 
ENDROOT
BRANCH   1   2
HETATM    2  C11 UNL     1       1.013  29.956   9.455  1.00  0.00    -0.026 C 
BRANCH   2   3
HETATM    3  C10 UNL     1       0.191  28.917  10.161  1.00  0.00     0.011 C 
HETATM    4  C2  UNL     1      -1.010  28.738   9.261  1.00  0.00    -0.011 C 
HETATM    5  C1  UNL     1      -1.828  30.000   9.293  1.00  0.00     0.010 C 
HETATM    6  C3  UNL     1      -1.846  27.563   9.391  1.00  0.00     0.005 C 
HETATM    7  C4  UNL     1      -1.304  26.319   9.986  1.00  0.00     0.000 C 
HETATM    8  C5  UNL     1      -2.222  25.722  11.035  1.00  0.00     0.000 C 
HETATM    9  C6  UNL     1      -2.562  26.703  12.129  1.00  0.00     0.000 C 
HETATM   10  C7  UNL     1      -1.348  27.435  12.642  1.00  0.00     0.000 C 
HETATM   11  C8  UNL     1      -1.348  28.852  12.211  1.00  0.00     0.001 C 
HETATM   12  C9  UNL     1      -0.100  29.324  11.532  1.00  0.00     0.009 C 
ENDBRANCH   2   3
ENDBRANCH   1   2
BRANCH   1  13
HETATM   13  C13 UNL     1       2.919  28.721   8.244  1.00  0.00     0.035 C 
BRANCH  13  14
HETATM   14  C14 UNL     1       2.654  27.630   7.186  1.00  0.00     0.052 C 
HETATM   15  C15 UNL     1       1.551  26.683   7.520  1.00  0.00     0.280 C 
HETATM   16  N1  UNL     1       2.479  25.601   7.440  1.00  0.00     0.097 N 
HETATM   17  C16 UNL     1       2.310  24.612   6.456  1.00  0.00     0.300 C 
HETATM   18  C19 UNL     1       3.602  26.448   7.392  1.00  0.00     0.254 C 
HETATM   19  C17 UNL     1       3.198  24.658   5.267  1.00  0.00     0.262 C 
HETATM   20  N2  UNL     1       4.551  25.070   5.580  1.00  0.00    -0.071 N 
HETATM   21  C18 UNL     1       4.520  26.332   6.236  1.00  0.00     0.268 C 
ATOM     22  H22 UNL     1       5.053  24.366   6.121  1.00  0.00     0.277 HD
ATOM     23  H21 UNL     1       5.153  25.076   4.757  1.00  0.00     0.277 HD
ENDBRANCH  13  14
ENDBRANCH   1  13
TORSDOF 4
ENDMDL
MODEL 2
REMARK VINA RESULT: -6.597655456      1.690      3.103
REMARK  4 active torsions:
REMARK  status: ('A' for Active; 'I' for Inactive)
REMARK    1  A    between atoms: C10_10  and  C11_11 
REMARK    2  A    between atoms: C11_11  and  C12_12 
REMARK    3  A    between atoms: C12_12  and  C13_13 
REMARK    4  A    between atoms: C13_13  and  C14_14 
ROOT
HETATM    1  C12 UNL     1       0.507  26.493   8.709  1.00  0.00    -0.030 C 
ENDROOT
BRANCH   1   2
HETATM    2  C11 UNL     1      -0.319  27.696   8.711  1.00  0.00    -0.026 C 
BRANCH   2   3
HETATM    3  C10 UNL     1      -0.472  28.560   9.929  1.00  0.00     0.011 C 
HETATM    4  C2  UNL     1      -0.149  29.948   9.425  1.00  0.00    -0.011 C 
HETATM    5  C1  UNL     1       1.310  30.003   9.065  1.00  0.00     0.010 C 
HETATM    6  C3  UNL     1      -0.547  31.110  10.193  1.00  0.00     0.005 C 
HETATM    7  C4  UNL     1      -1.674  31.025  11.153  1.00  0.00     0.000 C 
HETATM    8  C5  UNL     1      -1.341  31.629  12.503  1.00  0.00     0.000 C 
HETATM    9  C6  UNL     1      -0.105  31.021  13.117  1.00  0.00     0.000 C 
HETATM   10  C7  UNL     1      -0.104  29.516  13.038  1.00  0.00     0.000 C 
HETATM   11  C8  UNL     1       0.887  29.025  12.054  1.00  0.00     0.001 C 
HETATM   12  C9  UNL     1       0.361  28.073  11.023  1.00  0.00     0.009 C 
ENDBRANCH   2   3
ENDBRANCH   1   2
BRANCH   1  13
HETATM   13  C13 UNL     1       0.466  25.499   7.624  1.00  0.00     0.035 C 
BRANCH  13  14
HETATM   14  C14 UNL     1       1.676  25.731   6.696  1.00  0.00     0.052 C 
HETATM   15  C15 UNL     1       2.273  24.493   6.116  1.00  0.00     0.280 C 
HETATM   16  N1  UNL     1       3.519  24.828   6.726  1.00  0.00     0.097 N 
HETATM   17  C16 UNL     1       4.636  25.103   5.920  1.00  0.00     0.300 C 
HETATM   18  C19 UNL     1       2.961  25.850   7.517  1.00  0.00     0.254 C 
HETATM   19  C17 UNL     1       5.036  26.523   5.748  1.00  0.00     0.262 C 
HETATM   20  N2  UNL     1       4.865  27.313   6.951  1.00  0.00    -0.071 N 
HETATM   21  C18 UNL     1       3.514  27.218   7.389  1.00  0.00     0.268 C 
ATOM     22  H22 UNL     1       5.527  27.052   7.681  1.00  0.00     0.277 HD
ATOM     23  H21 UNL     1       5.163  28.279   6.823  1.00  0.00     0.277 HD
ENDBRANCH  13  14
ENDBRANCH   1  13
TORSDOF 4
ENDMDL
MODEL 3
REMARK VINA RESULT: -6.588814358      2.656      6.092
REMARK  4 active torsions:
REMARK  status: ('A' for Active; 'I' for Inactive)
REMARK    1  A    between atoms: C10_10  and  C11_11 
REMARK    2  A    between atoms: C11_11  and  C12_12 
REMARK    3  A    between atoms: C12_12  and  C13_13 
REMARK    4  A    between atoms: C13_13  and  C14_14 
ROOT
HETATM    1  C12 UNL     1      -0.975  27.051  10.395  1.00  0.00    -0.030 C 
ENDROOT
BRANCH   1   2
HETATM    2  C11 UNL     1       0.199  27.846  10.048  1.00  0.00    -0.026 C 
BRANCH   2   3
HETATM    3  C10 UNL     1       1.300  27.311   9.179  1.00  0.00     0.011 C 
HETATM    4  C2  UNL     1       1.746  28.517   8.385  1.00  0.00    -0.011 C 
HETATM    5  C1  UNL     1       0.639  28.912   7.447  1.00  0.00     0.010 C 
HETATM    6  C3  UNL     1       3.029  28.511   7.713  1.00  0.00     0.005 C 
HETATM    7  C4  UNL     1       4.115  27.617   8.180  1.00  0.00     0.000 C 
HETATM    8  C5  UNL     1       4.771  26.849   7.049  1.00  0.00     0.000 C 
HETATM    9  C6  UNL     1       3.776  26.058   6.237  1.00  0.00     0.000 C 
HETATM   10  C7  UNL     1       2.814  25.284   7.103  1.00  0.00     0.000 C 
HETATM   11  C8  UNL     1       1.456  25.871   7.063  1.00  0.00     0.001 C 
HETATM   12  C9  UNL     1       0.839  26.170   8.394  1.00  0.00     0.009 C 
ENDBRANCH   2   3
ENDBRANCH   1   2
BRANCH   1  13
HETATM   13  C13 UNL     1      -2.267  27.193   9.703  1.00  0.00     0.035 C 
BRANCH  13  14
HETATM   14  C14 UNL     1      -2.928  25.802   9.603  1.00  0.00     0.052 C 
HETATM   15  C15 UNL     1      -2.179  24.699  10.272  1.00  0.00     0.280 C 
HETATM   16  N1  UNL     1      -2.099  24.018   9.020  1.00  0.00     0.097 N 
HETATM   17  C16 UNL     1      -2.732  22.773   8.864  1.00  0.00     0.300 C 
HETATM   18  C19 UNL     1      -2.551  25.128   8.283  1.00  0.00     0.254 C 
HETATM   19  C17 UNL     1      -4.010  22.735   8.108  1.00  0.00     0.262 C 
HETATM   20  N2  UNL     1      -4.034  23.648   6.983  1.00  0.00    -0.071 N 
HETATM   21  C18 UNL     1      -3.757  24.967   7.439  1.00  0.00     0.268 C 
ATOM     22  H22 UNL     1      -3.403  23.356   6.236  1.00  0.00     0.277 HD
ATOM     23  H21 UNL     1      -4.909  23.595   6.462  1.00  0.00     0.277 HD
ENDBRANCH  13  14
ENDBRANCH   1  13
TORSDOF 4
ENDMDL
MODEL 4
REMARK VINA RESULT: -6.534715906      1.530      2.945
REMARK  4 active torsions:
REMARK  status: ('A' for Active; 'I' for Inactive)
REMARK    1  A    between atoms: C10_10  and  C11_11 
REMARK    2  A    between atoms: C11_11  and  C12_12 
REMARK    3  A    between atoms: C12_12  and  C13_13 
REMARK    4  A    between atoms: C13_13  and  C14_14 
ROOT
HETATM    1  C12 UNL     1       1.832  29.608   8.256  1.00  0.00    -0.030 C 
ENDROOT
BRANCH   1   2
HETATM    2  C11 UNL     1       1.195  29.987   9.513  1.00  0.00    -0.026 C 
BRANCH   2   3
HETATM    3  C10 UNL     1      -0.256  30.365   9.594  1.00  0.00     0.011 C 
HETATM    4  C2  UNL     1      -0.485  30.588  11.071  1.00  0.00    -0.011 C 
HETATM    5  C1  UNL     1      -0.364  29.269  11.782  1.00  0.00     0.010 C 
HETATM    6  C3  UNL     1      -1.646  31.327  11.522  1.00  0.00     0.005 C 
HETATM    7  C4  UNL     1      -2.320  32.290  10.618  1.00  0.00     0.000 C 
HETATM    8  C5  UNL     1      -3.826  32.114  10.591  1.00  0.00     0.000 C 
HETATM    9  C6  UNL     1      -4.235  30.707  10.230  1.00  0.00     0.000 C 
HETATM   10  C7  UNL     1      -3.477  30.175   9.041  1.00  0.00     0.000 C 
HETATM   11  C8  UNL     1      -2.501  29.135   9.441  1.00  0.00     0.001 C 
HETATM   12  C9  UNL     1      -1.096  29.348   8.969  1.00  0.00     0.009 C 
ENDBRANCH   2   3
ENDBRANCH   1   2
BRANCH   1  13
HETATM   13  C13 UNL     1       2.971  28.677   8.187  1.00  0.00     0.035 C 
BRANCH  13  14
HETATM   14  C14 UNL     1       2.645  27.574   7.159  1.00  0.00     0.052 C 
HETATM   15  C15 UNL     1       1.589  26.610   7.582  1.00  0.00     0.280 C 
HETATM   16  N1  UNL     1       2.528  25.544   7.436  1.00  0.00     0.097 N 
HETATM   17  C16 UNL     1       2.303  24.546   6.474  1.00  0.00     0.300 C 
HETATM   18  C19 UNL     1       3.628  26.411   7.298  1.00  0.00     0.254 C 
HETATM   19  C17 UNL     1       3.095  24.599   5.219  1.00  0.00     0.262 C 
HETATM   20  N2  UNL     1       4.461  25.037   5.426  1.00  0.00    -0.071 N 
HETATM   21  C18 UNL     1       4.457  26.304   6.075  1.00  0.00     0.268 C 
ATOM     22  H22 UNL     1       5.016  24.346   5.930  1.00  0.00     0.277 HD
ATOM     23  H21 UNL     1       4.998  25.050   4.559  1.00  0.00     0.277 HD
ENDBRANCH  13  14
ENDBRANCH   1  13
TORSDOF 4
ENDMDL
MODEL 5
REMARK VINA RESULT: -6.506659838      1.274      2.089
REMARK  4 active torsions:
REMARK  status: ('A' for Active; 'I' for Inactive)
REMARK    1  A    between atoms: C10_10  and  C11_11 
REMARK    2  A    between atoms: C11_11  and  C12_12 
REMARK    3  A    between atoms: C12_12  and  C13_13 
REMARK    4  A    between atoms: C13_13  and  C14_14 
ROOT
HETATM    1  C12 UNL     1       1.967  29.757   8.144  1.00  0.00    -0.030 C 
ENDROOT
BRANCH   1   2
HETATM    2  C11 UNL     1       0.650  29.966   8.737  1.00  0.00    -0.026 C 
BRANCH   2   3
HETATM    3  C10 UNL     1       0.421  29.908  10.219  1.00  0.00     0.011 C 
HETATM    4  C2  UNL     1      -0.171  28.534  10.435  1.00  0.00    -0.011 C 
HETATM    5  C1  UNL     1      -1.536  28.494   9.807  1.00  0.00     0.010 C 
HETATM    6  C3  UNL     1      -0.182  27.949  11.760  1.00  0.00     0.005 C 
HETATM    7  C4  UNL     1       0.793  28.393  12.784  1.00  0.00     0.000 C 
HETATM    8  C5  UNL     1       0.145  28.690  14.122  1.00  0.00     0.000 C 
HETATM    9  C6  UNL     1      -0.969  29.700  14.011  1.00  0.00     0.000 C 
HETATM   10  C7  UNL     1      -0.581  30.894  13.175  1.00  0.00     0.000 C 
HETATM   11  C8  UNL     1      -1.279  30.890  11.869  1.00  0.00     0.001 C 
HETATM   12  C9  UNL     1      -0.401  31.029  10.664  1.00  0.00     0.009 C 
ENDBRANCH   2   3
ENDBRANCH   1   2
BRANCH   1  13
HETATM   13  C13 UNL     1       2.786  28.565   8.420  1.00  0.00     0.035 C 
BRANCH  13  14
HETATM   14  C14 UNL     1       2.535  27.525   7.308  1.00  0.00     0.052 C 
HETATM   15  C15 UNL     1       1.491  26.507   7.622  1.00  0.00     0.280 C 
HETATM   16  N1  UNL     1       2.466  25.479   7.446  1.00  0.00     0.097 N 
HETATM   17  C16 UNL     1       2.309  24.541   6.411  1.00  0.00     0.300 C 
HETATM   18  C19 UNL     1       3.545  26.381   7.412  1.00  0.00     0.254 C 
HETATM   19  C17 UNL     1       3.149  24.700   5.197  1.00  0.00     0.262 C 
HETATM   20  N2  UNL     1       4.491  25.159   5.489  1.00  0.00    -0.071 N 
HETATM   21  C18 UNL     1       4.424  26.379   6.220  1.00  0.00     0.268 C 
ATOM     22  H22 UNL     1       5.046  24.451   5.970  1.00  0.00     0.277 HD
ATOM     23  H21 UNL     1       5.062  25.244   4.648  1.00  0.00     0.277 HD
ENDBRANCH  13  14
ENDBRANCH   1  13
TORSDOF 4
ENDMDL
