MODEL 1
REMARK VINA RESULT: -6.876312282      0.000      0.000
REMARK  4 active torsions:
REMARK  status: ('A' for Active; 'I' for Inactive)
REMARK    1  A    between atoms: C4_5  and  C5_6 
REMARK    2  A    between atoms: C6_7  and  C7_8 
REMARK    3  A    between atoms: C11_14  and  C12_15 
REMARK       I    between atoms: C12_15  and  N2_17 
REMARK    4  A    between atoms: N2_17  and  C13_19 
ROOT
HETATM    1  C1  UNL     1      -2.126  20.434  11.951  1.00  0.00     0.019 C 
HETATM    2  C2  UNL     1      -2.159  21.201  11.019  1.00  0.00    -0.065 C 
HETATM    3  C3  UNL     1      -2.175  22.118   9.920  1.00  0.00     0.086 C 
HETATM    4 CL1  UNL     1      -2.105  21.479   8.299  1.00  0.00    -0.074 Cl
HETATM    5  C4  UNL     1      -2.241  23.451  10.126  1.00  0.00     0.033 C 
ENDROOT
BRANCH   5   6
HETATM    6  C5  UNL     1      -2.256  24.358   9.015  1.00  0.00     0.005 C 
HETATM    7  C6  UNL     1      -1.882  25.599   8.941  1.00  0.00     0.030 C 
BRANCH   7   8
HETATM    8  C7  UNL     1      -1.336  26.420  10.002  1.00  0.00     0.047 A 
HETATM    9  N1  UNL     1      -1.994  26.562  11.177  1.00  0.00    -0.365 N 
HETATM   10  C8  UNL     1      -1.551  27.332  12.167  1.00  0.00     0.088 A 
ATOM     11  H1  UNL     1      -2.869  26.056  11.309  1.00  0.00     0.165 HD
HETATM   12  C9  UNL     1      -0.375  28.041  12.048  1.00  0.00     0.018 A 
HETATM   13  C10 UNL     1       0.329  27.933  10.888  1.00  0.00     0.021 A 
HETATM   14  C11 UNL     1      -0.147  27.113   9.847  1.00  0.00     0.058 A 
BRANCH  14  15
HETATM   15  C12 UNL     1       0.722  26.949   8.699  1.00  0.00     0.254 C 
HETATM   16  O1  UNL     1       0.762  27.977   7.925  1.00  0.00    -0.268 OA
HETATM   17  N2  UNL     1       1.510  25.875   8.323  1.00  0.00    -0.352 N 
ATOM     18  H2  UNL     1       1.515  25.045   8.914  1.00  0.00     0.163 HD
BRANCH  17  19
HETATM   19  C13 UNL     1       2.325  25.876   7.130  1.00  0.00     0.084 C 
HETATM   20  C14 UNL     1       3.789  25.920   7.488  1.00  0.00     0.025 C 
HETATM   21  C15 UNL     1       4.414  25.680   6.105  1.00  0.00     0.002 C 
HETATM   22  C16 UNL     1       3.395  24.817   5.355  1.00  0.00     0.002 C 
HETATM   23  C17 UNL     1       2.263  24.570   6.361  1.00  0.00     0.025 C 
ENDBRANCH  17  19
ENDBRANCH  14  15
ENDBRANCH   7   8
ENDBRANCH   5   6
TORSDOF 4
ENDMDL
MODEL 2
REMARK VINA RESULT: -6.828357229      3.233      4.848
REMARK  4 active torsions:
REMARK  status: ('A' for Active; 'I' for Inactive)
REMARK    1  A    between atoms: C4_5  and  C5_6 
REMARK    2  A    between atoms: C6_7  and  C7_8 
REMARK    3  A    between atoms: C11_14  and  C12_15 
REMARK       I    between atoms: C12_15  and  N2_17 
REMARK    4  A    between atoms: N2_17  and  C13_19 
ROOT
HETATM    1  C1  UNL     1       0.747  28.470  14.712  1.00  0.00     0.019 C 
HETATM    2  C2  UNL     1       0.627  28.905  13.592  1.00  0.00    -0.065 C 
HETATM    3  C3  UNL     1       0.472  29.398  12.256  1.00  0.00     0.086 C 
HETATM    4 CL1  UNL     1      -0.619  30.730  11.980  1.00  0.00    -0.074 Cl
HETATM    5  C4  UNL     1       1.153  28.848  11.228  1.00  0.00     0.033 C 
ENDROOT
BRANCH   5   6
HETATM    6  C5  UNL     1       0.988  29.353   9.895  1.00  0.00     0.005 C 
HETATM    7  C6  UNL     1       0.145  29.013   8.969  1.00  0.00     0.030 C 
BRANCH   7   8
HETATM    8  C7  UNL     1      -0.884  27.996   9.043  1.00  0.00     0.047 A 
HETATM    9  N1  UNL     1      -2.171  28.329   9.296  1.00  0.00    -0.365 N 
HETATM   10  C8  UNL     1      -3.144  27.429   9.408  1.00  0.00     0.088 A 
ATOM     11  H1  UNL     1      -2.407  29.315   9.406  1.00  0.00     0.165 HD
HETATM   12  C9  UNL     1      -2.889  26.081   9.270  1.00  0.00     0.018 A 
HETATM   13  C10 UNL     1      -1.611  25.690   9.012  1.00  0.00     0.021 A 
HETATM   14  C11 UNL     1      -0.589  26.652   8.893  1.00  0.00     0.058 A 
BRANCH  14  15
HETATM   15  C12 UNL     1       0.716  26.166   8.489  1.00  0.00     0.254 C 
HETATM   16  O1  UNL     1       1.485  25.860   9.475  1.00  0.00    -0.268 OA
HETATM   17  N2  UNL     1       1.246  25.977   7.225  1.00  0.00    -0.352 N 
ATOM     18  H2  UNL     1       0.665  26.197   6.416  1.00  0.00     0.163 HD
BRANCH  17  19
HETATM   19  C13 UNL     1       2.584  25.482   6.998  1.00  0.00     0.084 C 
HETATM   20  C14 UNL     1       2.644  24.684   5.719  1.00  0.00     0.025 C 
HETATM   21  C15 UNL     1       4.162  24.483   5.597  1.00  0.00     0.002 C 
HETATM   22  C16 UNL     1       4.780  25.717   6.263  1.00  0.00     0.002 C 
HETATM   23  C17 UNL     1       3.585  26.579   6.691  1.00  0.00     0.025 C 
ENDBRANCH  17  19
ENDBRANCH  14  15
ENDBRANCH   7   8
ENDBRANCH   5   6
TORSDOF 4
ENDMDL
MODEL 3
REMARK VINA RESULT: -6.823154356      2.093      3.111
REMARK  4 active torsions:
REMARK  status: ('A' for Active; 'I' for Inactive)
REMARK    1  A    between atoms: C4_5  and  C5_6 
REMARK    2  A    between atoms: C6_7  and  C7_8 
REMARK    3  A    between atoms: C11_14  and  C12_15 
REMARK       I    between atoms: C12_15  and  N2_17 
REMARK    4  A    between atoms: N2_17  and  C13_19 
ROOT
HETATM    1  C1  UNL     1      -7.013  26.824   7.080  1.00  0.00     0.019 C 
HETATM    2  C2  UNL     1      -6.009  26.154   7.117  1.00  0.00    -0.065 C 
HETATM    3  C3  UNL     1      -4.829  25.345   7.179  1.00  0.00     0.086 C 
HETATM    4 CL1  UNL     1      -4.472  24.286   5.840  1.00  0.00    -0.074 Cl
HETATM    5  C4  UNL     1      -4.006  25.395   8.248  1.00  0.00     0.033 C 
ENDROOT
BRANCH   5   6
HETATM    6  C5  UNL     1      -2.827  24.579   8.296  1.00  0.00     0.005 C 
HETATM    7  C6  UNL     1      -1.759  24.693   9.025  1.00  0.00     0.030 C 
BRANCH   7   8
HETATM    8  C7  UNL     1      -1.468  25.713  10.010  1.00  0.00     0.047 A 
HETATM    9  N1  UNL     1      -2.178  25.787  11.161  1.00  0.00    -0.365 N 
HETATM   10  C8  UNL     1      -1.972  26.726  12.080  1.00  0.00     0.088 A 
ATOM     11  H1  UNL     1      -2.903  25.091  11.332  1.00  0.00     0.165 HD
HETATM   12  C9  UNL     1      -1.006  27.695  11.907  1.00  0.00     0.018 A 
HETATM   13  C10 UNL     1      -0.261  27.667  10.768  1.00  0.00     0.021 A 
HETATM   14  C11 UNL     1      -0.486  26.666   9.802  1.00  0.00     0.058 A 
BRANCH  14  15
HETATM   15  C12 UNL     1       0.433  26.627   8.682  1.00  0.00     0.254 C 
HETATM   16  O1  UNL     1       0.324  27.631   7.884  1.00  0.00    -0.268 OA
HETATM   17  N2  UNL     1       1.399  25.693   8.353  1.00  0.00    -0.352 N 
ATOM     18  H2  UNL     1       1.525  24.887   8.965  1.00  0.00     0.163 HD
BRANCH  17  19
HETATM   19  C13 UNL     1       2.238  25.806   7.182  1.00  0.00     0.084 C 
HETATM   20  C14 UNL     1       3.690  25.895   7.577  1.00  0.00     0.025 C 
HETATM   21  C15 UNL     1       4.354  25.772   6.197  1.00  0.00     0.002 C 
HETATM   22  C16 UNL     1       3.394  24.910   5.371  1.00  0.00     0.002 C 
HETATM   23  C17 UNL     1       2.254  24.549   6.333  1.00  0.00     0.025 C 
ENDBRANCH  17  19
ENDBRANCH  14  15
ENDBRANCH   7   8
ENDBRANCH   5   6
TORSDOF 4
ENDMDL
MODEL 4
REMARK VINA RESULT: -6.754473944      2.687      6.356
REMARK  4 active torsions:
REMARK  status: ('A' for Active; 'I' for Inactive)
REMARK    1  A    between atoms: C4_5  and  C5_6 
REMARK    2  A    between atoms: C6_7  and  C7_8 
REMARK    3  A    between atoms: C11_14  and  C12_15 
REMARK       I    between atoms: C12_15  and  N2_17 
REMARK    4  A    between atoms: N2_17  and  C13_19 
ROOT
HETATM    1  C1  UNL     1       0.566  28.475  13.753  1.00  0.00     0.019 C 
HETATM    2  C2  UNL     1       0.410  28.841  12.613  1.00  0.00    -0.065 C 
HETATM    3  C3  UNL     1       0.228  29.251  11.254  1.00  0.00     0.086 C 
HETATM    4 CL1  UNL     1      -1.372  29.698  10.723  1.00  0.00    -0.074 Cl
HETATM    5  C4  UNL     1       1.269  29.293  10.394  1.00  0.00     0.033 C 
ENDROOT
BRANCH   5   6
HETATM    6  C5  UNL     1       1.072  29.706   9.035  1.00  0.00     0.005 C 
HETATM    7  C6  UNL     1       1.540  29.207   7.931  1.00  0.00     0.030 C 
BRANCH   7   8
HETATM    8  C7  UNL     1       2.417  28.065   7.782  1.00  0.00     0.047 A 
HETATM    9  N1  UNL     1       3.743  28.233   7.566  1.00  0.00    -0.365 N 
HETATM   10  C8  UNL     1       4.583  27.216   7.389  1.00  0.00     0.088 A 
ATOM     11  H1  UNL     1       4.116  29.181   7.539  1.00  0.00     0.165 HD
HETATM   12  C9  UNL     1       4.139  25.911   7.415  1.00  0.00     0.018 A 
HETATM   13  C10 UNL     1       2.814  25.684   7.631  1.00  0.00     0.021 A 
HETATM   14  C11 UNL     1       1.935  26.768   7.820  1.00  0.00     0.058 A 
BRANCH  14  15
HETATM   15  C12 UNL     1       0.568  26.440   8.174  1.00  0.00     0.254 C 
HETATM   16  O1  UNL     1      -0.224  26.349   7.162  1.00  0.00    -0.268 OA
HETATM   17  N2  UNL     1      -0.003  26.207   9.412  1.00  0.00    -0.352 N 
ATOM     18  H2  UNL     1       0.592  26.259  10.239  1.00  0.00     0.163 HD
BRANCH  17  19
HETATM   19  C13 UNL     1      -1.401  25.892   9.589  1.00  0.00     0.084 C 
HETATM   20  C14 UNL     1      -1.628  24.405   9.477  1.00  0.00     0.025 C 
HETATM   21  C15 UNL     1      -3.096  24.321   9.922  1.00  0.00     0.002 C 
HETATM   22  C16 UNL     1      -3.281  25.485  10.901  1.00  0.00     0.002 C 
HETATM   23  C17 UNL     1      -1.899  26.146  10.999  1.00  0.00     0.025 C 
ENDBRANCH  17  19
ENDBRANCH  14  15
ENDBRANCH   7   8
ENDBRANCH   5   6
TORSDOF 4
ENDMDL
MODEL 5
REMARK VINA RESULT: -6.748035400      3.163      5.464
REMARK  4 active torsions:
REMARK  status: ('A' for Active; 'I' for Inactive)
REMARK    1  A    between atoms: C4_5  and  C5_6 
REMARK    2  A    between atoms: C6_7  and  C7_8 
REMARK    3  A    between atoms: C11_14  and  C12_15 
REMARK       I    between atoms: C12_15  and  N2_17 
REMARK    4  A    between atoms: N2_17  and  C13_19 
ROOT
HETATM    1  C1  UNL     1      -1.745  33.120  10.448  1.00  0.00     0.019 C 
HETATM    2  C2  UNL     1      -1.137  32.167  10.873  1.00  0.00    -0.065 C 
HETATM    3  C3  UNL     1      -0.395  31.047  11.366  1.00  0.00     0.086 C 
HETATM    4 CL1  UNL     1      -0.116  30.921  13.082  1.00  0.00    -0.074 Cl
HETATM    5  C4  UNL     1       0.083  30.104  10.525  1.00  0.00     0.033 C 
ENDROOT
BRANCH   5   6
HETATM    6  C5  UNL     1       0.824  28.986  11.034  1.00  0.00     0.005 C 
HETATM    7  C6  UNL     1       0.549  27.718  11.010  1.00  0.00     0.030 C 
BRANCH   7   8
HETATM    8  C7  UNL     1      -0.623  27.080  10.448  1.00  0.00     0.047 A 
HETATM    9  N1  UNL     1      -1.782  27.021  11.146  1.00  0.00    -0.365 N 
HETATM   10  C8  UNL     1      -2.874  26.416  10.687  1.00  0.00     0.088 A 
ATOM     11  H1  UNL     1      -1.820  27.460  12.065  1.00  0.00     0.165 HD
HETATM   12  C9  UNL     1      -2.886  25.804   9.452  1.00  0.00     0.018 A 
HETATM   13  C10 UNL     1      -1.747  25.835   8.706  1.00  0.00     0.021 A 
HETATM   14  C11 UNL     1      -0.597  26.480   9.201  1.00  0.00     0.058 A 
BRANCH  14  15
HETATM   15  C12 UNL     1       0.530  26.583   8.295  1.00  0.00     0.254 C 
HETATM   16  O1  UNL     1       0.606  27.713   7.684  1.00  0.00    -0.268 OA
HETATM   17  N2  UNL     1       1.526  25.667   8.001  1.00  0.00    -0.352 N 
ATOM     18  H2  UNL     1       1.509  24.763   8.472  1.00  0.00     0.163 HD
BRANCH  17  19
HETATM   19  C13 UNL     1       2.587  25.934   7.059  1.00  0.00     0.084 C 
HETATM   20  C14 UNL     1       3.880  26.217   7.782  1.00  0.00     0.025 C 
HETATM   21  C15 UNL     1       4.857  26.231   6.597  1.00  0.00     0.002 C 
HETATM   22  C16 UNL     1       4.250  25.266   5.573  1.00  0.00     0.002 C 
HETATM   23  C17 UNL     1       2.984  24.717   6.244  1.00  0.00     0.025 C 
ENDBRANCH  17  19
ENDBRANCH  14  15
ENDBRANCH   7   8
ENDBRANCH   5   6
TORSDOF 4
ENDMDL
