MODEL 1
REMARK VINA RESULT: -4.818920321      0.000      0.000
REMARK  10 active torsions:
REMARK  status: ('A' for Active; 'I' for Inactive)
REMARK    1  A    between atoms: O1_2  and  C2_3 
REMARK    2  A    between atoms: C2_3  and  C3_5 
REMARK    3  A    between atoms: C4_6  and  C5_7 
REMARK    4  A    between atoms: C6_8  and  C7_9 
REMARK    5  A    between atoms: C7_9  and  O3_10 
REMARK    6  A    between atoms: O3_10  and  S1_11 
REMARK    7  A    between atoms: C9_15  and  O6_16 
REMARK    8  A    between atoms: C10_18  and  O7_19 
REMARK    9  A    between atoms: C11_21  and  O8_22 
REMARK   10  A    between atoms: C12_24  and  C13_25 
ROOT
HETATM    1  C3  UNL     1     102.879  20.682  35.103  1.00  0.00     0.126 C 
HETATM    2  C4  UNL     1     103.131  19.254  34.695  1.00  0.00    -0.035 C 
HETATM    3  C9  UNL     1     103.990  19.091  33.526  1.00  0.00     0.179 C 
HETATM    4  C10 UNL     1     104.296  20.381  32.790  1.00  0.00     0.180 C 
HETATM    5  C11 UNL     1     104.565  21.573  33.598  1.00  0.00     0.157 C 
HETATM    6  C12 UNL     1     104.122  21.482  35.046  1.00  0.00     0.063 C 
ENDROOT
BRANCH   2   7
HETATM    7  C5  UNL     1     102.538  18.302  35.330  1.00  0.00     0.004 C 
HETATM    8  C6  UNL     1     102.810  17.404  36.424  1.00  0.00     0.001 C 
BRANCH   8   9
HETATM    9  C7  UNL     1     104.045  17.499  37.234  1.00  0.00     0.217 C 
BRANCH   9  10
HETATM   10  O3  UNL     1     103.714  17.877  38.583  1.00  0.00    -0.272 OA
BRANCH  10  11
HETATM   11  S1  UNL     1     105.114  17.880  39.485  1.00  0.00     0.261 S 
HETATM   12  C8  UNL     1     106.095  19.330  39.199  1.00  0.00     0.194 C 
HETATM   13  O4  UNL     1     104.710  17.890  40.941  1.00  0.00    -0.199 OA
HETATM   14  O5  UNL     1     105.874  16.624  39.189  1.00  0.00    -0.199 OA
ENDBRANCH  10  11
ENDBRANCH   9  10
ENDBRANCH   8   9
ENDBRANCH   2   7
BRANCH   1  15
HETATM   15  C2  UNL     1     102.064  20.874  36.280  1.00  0.00     0.267 C 
HETATM   16  O2  UNL     1     100.842  21.211  36.157  1.00  0.00    -0.265 OA
BRANCH  15  17
HETATM   17  O1  UNL     1     102.524  20.716  37.553  1.00  0.00    -0.326 OA
HETATM   18  C1  UNL     1     102.243  21.589  38.629  1.00  0.00     0.213 C 
ENDBRANCH  15  17
ENDBRANCH   1  15
BRANCH   3  19
HETATM   19  O6  UNL     1     105.174  18.437  33.680  1.00  0.00    -0.389 OA
ATOM     20  H6  UNL     1     105.974  18.891  33.444  1.00  0.00     0.210 HD
ENDBRANCH   3  19
BRANCH   6  21
HETATM   21  C13 UNL     1     105.249  21.162  35.954  1.00  0.00     0.230 C 
HETATM   22  F1  UNL     1     105.361  21.999  37.024  1.00  0.00    -0.255 F 
ENDBRANCH   6  21
BRANCH   4  23
HETATM   23  O7  UNL     1     103.178  20.627  31.956  1.00  0.00    -0.390 OA
ATOM     24  H7  UNL     1     103.490  21.195  31.263  1.00  0.00     0.210 HD
ENDBRANCH   4  23
BRANCH   5  25
HETATM   25  O8  UNL     1     104.017  22.746  33.064  1.00  0.00    -0.392 OA
ATOM     26  H8  UNL     1     103.583  23.290  33.710  1.00  0.00     0.210 HD
ENDBRANCH   5  25
TORSDOF 10
ENDMDL
MODEL 2
REMARK VINA RESULT: -4.797731984      3.091      6.103
REMARK  10 active torsions:
REMARK  status: ('A' for Active; 'I' for Inactive)
REMARK    1  A    between atoms: O1_2  and  C2_3 
REMARK    2  A    between atoms: C2_3  and  C3_5 
REMARK    3  A    between atoms: C4_6  and  C5_7 
REMARK    4  A    between atoms: C6_8  and  C7_9 
REMARK    5  A    between atoms: C7_9  and  O3_10 
REMARK    6  A    between atoms: O3_10  and  S1_11 
REMARK    7  A    between atoms: C9_15  and  O6_16 
REMARK    8  A    between atoms: C10_18  and  O7_19 
REMARK    9  A    between atoms: C11_21  and  O8_22 
REMARK   10  A    between atoms: C12_24  and  C13_25 
ROOT
HETATM    1  C3  UNL     1     103.182  20.296  36.416  1.00  0.00     0.126 C 
HETATM    2  C4  UNL     1     104.217  20.446  35.333  1.00  0.00    -0.035 C 
HETATM    3  C9  UNL     1     105.248  19.413  35.320  1.00  0.00     0.179 C 
HETATM    4  C10 UNL     1     105.233  18.499  36.529  1.00  0.00     0.180 C 
HETATM    5  C11 UNL     1     103.928  18.067  37.035  1.00  0.00     0.157 C 
HETATM    6  C12 UNL     1     102.747  18.888  36.550  1.00  0.00     0.063 C 
ENDROOT
BRANCH   2   7
HETATM    7  C5  UNL     1     104.176  21.476  34.559  1.00  0.00     0.004 C 
HETATM    8  C6  UNL     1     103.621  21.840  33.279  1.00  0.00     0.001 C 
BRANCH   8   9
HETATM    9  C7  UNL     1     102.743  20.929  32.512  1.00  0.00     0.217 C 
BRANCH   9  10
HETATM   10  O3  UNL     1     101.460  21.548  32.306  1.00  0.00    -0.272 OA
BRANCH  10  11
HETATM   11  S1  UNL     1     101.419  22.166  30.760  1.00  0.00     0.261 S 
HETATM   12  C8  UNL     1     102.060  23.818  30.679  1.00  0.00     0.194 C 
HETATM   13  O4  UNL     1     102.311  21.295  29.904  1.00  0.00    -0.199 OA
HETATM   14  O5  UNL     1     100.013  22.086  30.251  1.00  0.00    -0.199 OA
ENDBRANCH  10  11
ENDBRANCH   9  10
ENDBRANCH   8   9
ENDBRANCH   2   7
BRANCH   1  15
HETATM   15  C2  UNL     1     102.126  21.281  36.431  1.00  0.00     0.267 C 
HETATM   16  O2  UNL     1     101.081  21.100  35.726  1.00  0.00    -0.265 OA
BRANCH  15  17
HETATM   17  O1  UNL     1     102.170  22.427  37.168  1.00  0.00    -0.326 OA
HETATM   18  C1  UNL     1     101.069  22.990  37.853  1.00  0.00     0.213 C 
ENDBRANCH  15  17
ENDBRANCH   1  15
BRANCH   3  19
HETATM   19  O6  UNL     1     105.347  18.611  34.224  1.00  0.00    -0.389 OA
ATOM     20  H6  UNL     1     105.888  17.832  34.282  1.00  0.00     0.210 HD
ENDBRANCH   3  19
BRANCH   6  21
HETATM   21  C13 UNL     1     102.032  18.226  35.433  1.00  0.00     0.230 C 
HETATM   22  F1  UNL     1     102.609  17.067  35.008  1.00  0.00    -0.255 F 
ENDBRANCH   6  21
BRANCH   4  23
HETATM   23  O7  UNL     1     105.920  19.197  37.552  1.00  0.00    -0.390 OA
ATOM     24  H7  UNL     1     106.826  18.915  37.498  1.00  0.00     0.210 HD
ENDBRANCH   4  23
BRANCH   5  25
HETATM   25  O8  UNL     1     103.858  18.017  38.432  1.00  0.00    -0.392 OA
ATOM     26  H8  UNL     1     103.628  17.160  38.770  1.00  0.00     0.210 HD
ENDBRANCH   5  25
TORSDOF 10
ENDMDL
MODEL 3
REMARK VINA RESULT: -4.647859604     11.030     12.568
REMARK  10 active torsions:
REMARK  status: ('A' for Active; 'I' for Inactive)
REMARK    1  A    between atoms: O1_2  and  C2_3 
REMARK    2  A    between atoms: C2_3  and  C3_5 
REMARK    3  A    between atoms: C4_6  and  C5_7 
REMARK    4  A    between atoms: C6_8  and  C7_9 
REMARK    5  A    between atoms: C7_9  and  O3_10 
REMARK    6  A    between atoms: O3_10  and  S1_11 
REMARK    7  A    between atoms: C9_15  and  O6_16 
REMARK    8  A    between atoms: C10_18  and  O7_19 
REMARK    9  A    between atoms: C11_21  and  O8_22 
REMARK   10  A    between atoms: C12_24  and  C13_25 
ROOT
HETATM    1  C3  UNL     1      93.158  17.391  28.809  1.00  0.00     0.126 C 
HETATM    2  C4  UNL     1      94.099  16.854  29.855  1.00  0.00    -0.035 C 
HETATM    3  C9  UNL     1      93.881  17.372  31.202  1.00  0.00     0.179 C 
HETATM    4  C10 UNL     1      92.899  18.524  31.278  1.00  0.00     0.180 C 
HETATM    5  C11 UNL     1      91.700  18.448  30.440  1.00  0.00     0.157 C 
HETATM    6  C12 UNL     1      91.767  17.436  29.312  1.00  0.00     0.063 C 
ENDROOT
BRANCH   2   7
HETATM    7  C5  UNL     1      95.049  16.058  29.500  1.00  0.00     0.004 C 
HETATM    8  C6  UNL     1      96.148  15.354  30.111  1.00  0.00     0.001 C 
BRANCH   8   9
HETATM    9  C7  UNL     1      96.369  15.353  31.574  1.00  0.00     0.217 C 
BRANCH   9  10
HETATM   10  O3  UNL     1      96.319  14.004  32.073  1.00  0.00    -0.272 OA
BRANCH  10  11
HETATM   11  S1  UNL     1      97.878  13.434  32.201  1.00  0.00     0.261 S 
HETATM   12  C8  UNL     1      99.073  14.744  32.219  1.00  0.00     0.194 C 
HETATM   13  O4  UNL     1      97.984  12.711  33.524  1.00  0.00    -0.199 OA
HETATM   14  O5  UNL     1      98.125  12.467  31.085  1.00  0.00    -0.199 OA
ENDBRANCH  10  11
ENDBRANCH   9  10
ENDBRANCH   8   9
ENDBRANCH   2   7
BRANCH   1  15
HETATM   15  C2  UNL     1      93.323  16.868  27.473  1.00  0.00     0.267 C 
HETATM   16  O2  UNL     1      93.485  17.667  26.495  1.00  0.00    -0.265 OA
BRANCH  15  17
HETATM   17  O1  UNL     1      93.318  15.538  27.175  1.00  0.00    -0.326 OA
HETATM   18  C1  UNL     1      93.845  14.972  25.991  1.00  0.00     0.213 C 
ENDBRANCH  15  17
ENDBRANCH   1  15
BRANCH   3  19
HETATM   19  O6  UNL     1      93.532  16.494  32.183  1.00  0.00    -0.389 OA
ATOM     20  H6  UNL     1      94.116  15.767  32.366  1.00  0.00     0.210 HD
ENDBRANCH   3  19
BRANCH   6  21
HETATM   21  C13 UNL     1      91.064  16.176  29.652  1.00  0.00     0.230 C 
HETATM   22  F1  UNL     1      90.468  15.563  28.589  1.00  0.00    -0.255 F 
ENDBRANCH   6  21
BRANCH   4  23
HETATM   23  O7  UNL     1      93.635  19.684  30.932  1.00  0.00    -0.390 OA
ATOM     24  H7  UNL     1      93.495  20.302  31.640  1.00  0.00     0.210 HD
ENDBRANCH   4  23
BRANCH   5  25
HETATM   25  O8  UNL     1      91.329  19.676  29.880  1.00  0.00    -0.392 OA
ATOM     26  H8  UNL     1      90.691  20.152  30.397  1.00  0.00     0.210 HD
ENDBRANCH   5  25
TORSDOF 10
ENDMDL
MODEL 4
REMARK VINA RESULT: -4.508843449      2.402      4.321
REMARK  10 active torsions:
REMARK  status: ('A' for Active; 'I' for Inactive)
REMARK    1  A    between atoms: O1_2  and  C2_3 
REMARK    2  A    between atoms: C2_3  and  C3_5 
REMARK    3  A    between atoms: C4_6  and  C5_7 
REMARK    4  A    between atoms: C6_8  and  C7_9 
REMARK    5  A    between atoms: C7_9  and  O3_10 
REMARK    6  A    between atoms: O3_10  and  S1_11 
REMARK    7  A    between atoms: C9_15  and  O6_16 
REMARK    8  A    between atoms: C10_18  and  O7_19 
REMARK    9  A    between atoms: C11_21  and  O8_22 
REMARK   10  A    between atoms: C12_24  and  C13_25 
ROOT
HETATM    1  C3  UNL     1     102.277  19.824  34.683  1.00  0.00     0.126 C 
HETATM    2  C4  UNL     1     102.176  20.226  36.131  1.00  0.00    -0.035 C 
HETATM    3  C9  UNL     1     102.389  19.143  37.086  1.00  0.00     0.179 C 
HETATM    4  C10 UNL     1     102.451  17.762  36.462  1.00  0.00     0.180 C 
HETATM    5  C11 UNL     1     103.172  17.624  35.195  1.00  0.00     0.157 C 
HETATM    6  C12 UNL     1     103.429  18.924  34.456  1.00  0.00     0.063 C 
ENDROOT
BRANCH   2   7
HETATM    7  C5  UNL     1     101.847  21.436  36.429  1.00  0.00     0.004 C 
HETATM    8  C6  UNL     1     102.444  22.593  37.047  1.00  0.00     0.001 C 
BRANCH   8   9
HETATM    9  C7  UNL     1     103.867  22.625  37.452  1.00  0.00     0.217 C 
BRANCH   9  10
HETATM   10  O3  UNL     1     103.991  23.243  38.746  1.00  0.00    -0.272 OA
BRANCH  10  11
HETATM   11  S1  UNL     1     104.307  22.054  39.867  1.00  0.00     0.261 S 
HETATM   12  C8  UNL     1     104.993  22.709  41.366  1.00  0.00     0.194 C 
HETATM   13  O4  UNL     1     102.987  21.408  40.222  1.00  0.00    -0.199 OA
HETATM   14  O5  UNL     1     105.206  21.034  39.240  1.00  0.00    -0.199 OA
ENDBRANCH  10  11
ENDBRANCH   9  10
ENDBRANCH   8   9
ENDBRANCH   2   7
BRANCH   1  15
HETATM   15  C2  UNL     1     102.109  20.882  33.714  1.00  0.00     0.267 C 
HETATM   16  O2  UNL     1     100.990  21.030  33.125  1.00  0.00    -0.265 OA
BRANCH  15  17
HETATM   17  O1  UNL     1     103.094  21.762  33.375  1.00  0.00    -0.326 OA
HETATM   18  C1  UNL     1     103.581  21.964  32.064  1.00  0.00     0.213 C 
ENDBRANCH  15  17
ENDBRANCH   1  15
BRANCH   3  19
HETATM   19  O6  UNL     1     103.444  19.234  37.941  1.00  0.00    -0.389 OA
ATOM     20  H6  UNL     1     104.318  19.298  37.574  1.00  0.00     0.210 HD
ENDBRANCH   3  19
BRANCH   6  21
HETATM   21  C13 UNL     1     104.809  19.422  34.670  1.00  0.00     0.230 C 
HETATM   22  F1  UNL     1     105.509  18.739  35.620  1.00  0.00    -0.255 F 
ENDBRANCH   6  21
BRANCH   4  23
HETATM   23  O7  UNL     1     101.106  17.359  36.278  1.00  0.00    -0.390 OA
ATOM     24  H7  UNL     1     100.888  16.826  37.034  1.00  0.00     0.210 HD
ENDBRANCH   4  23
BRANCH   5  25
HETATM   25  O8  UNL     1     102.559  16.745  34.295  1.00  0.00    -0.392 OA
ATOM     26  H8  UNL     1     101.712  17.044  33.988  1.00  0.00     0.210 HD
ENDBRANCH   5  25
TORSDOF 10
ENDMDL
MODEL 5
REMARK VINA RESULT: -4.499917985      3.336      6.297
REMARK  10 active torsions:
REMARK  status: ('A' for Active; 'I' for Inactive)
REMARK    1  A    between atoms: O1_2  and  C2_3 
REMARK    2  A    between atoms: C2_3  and  C3_5 
REMARK    3  A    between atoms: C4_6  and  C5_7 
REMARK    4  A    between atoms: C6_8  and  C7_9 
REMARK    5  A    between atoms: C7_9  and  O3_10 
REMARK    6  A    between atoms: O3_10  and  S1_11 
REMARK    7  A    between atoms: C9_15  and  O6_16 
REMARK    8  A    between atoms: C10_18  and  O7_19 
REMARK    9  A    between atoms: C11_21  and  O8_22 
REMARK   10  A    between atoms: C12_24  and  C13_25 
ROOT
HETATM    1  C3  UNL     1     104.042  21.013  36.329  1.00  0.00     0.126 C 
HETATM    2  C4  UNL     1     104.276  20.584  34.904  1.00  0.00    -0.035 C 
HETATM    3  C9  UNL     1     104.371  19.141  34.705  1.00  0.00     0.179 C 
HETATM    4  C10 UNL     1     104.445  18.336  35.987  1.00  0.00     0.180 C 
HETATM    5  C11 UNL     1     103.588  18.754  37.099  1.00  0.00     0.157 C 
HETATM    6  C12 UNL     1     103.028  20.159  36.986  1.00  0.00     0.063 C 
ENDROOT
BRANCH   2   7
HETATM    7  C5  UNL     1     104.445  21.481  33.994  1.00  0.00     0.004 C 
HETATM    8  C6  UNL     1     103.795  21.927  32.787  1.00  0.00     0.001 C 
BRANCH   8   9
HETATM    9  C7  UNL     1     102.500  21.371  32.338  1.00  0.00     0.217 C 
BRANCH   9  10
HETATM   10  O3  UNL     1     102.500  21.231  30.905  1.00  0.00    -0.272 OA
BRANCH  10  11
HETATM   11  S1  UNL     1     101.457  22.362  30.268  1.00  0.00     0.261 S 
HETATM   12  C8  UNL     1     100.814  21.869  28.689  1.00  0.00     0.194 C 
HETATM   13  O4  UNL     1     100.285  22.475  31.214  1.00  0.00    -0.199 OA
HETATM   14  O5  UNL     1     102.166  23.678  30.196  1.00  0.00    -0.199 OA
ENDBRANCH  10  11
ENDBRANCH   9  10
ENDBRANCH   8   9
ENDBRANCH   2   7
BRANCH   1  15
HETATM   15  C2  UNL     1     103.904  22.433  36.552  1.00  0.00     0.267 C 
HETATM   16  O2  UNL     1     104.940  23.147  36.754  1.00  0.00    -0.265 OA
BRANCH  15  17
HETATM   17  O1  UNL     1     102.707  23.085  36.564  1.00  0.00    -0.326 OA
HETATM   18  C1  UNL     1     102.192  23.811  37.662  1.00  0.00     0.213 C 
ENDBRANCH  15  17
ENDBRANCH   1  15
BRANCH   3  19
HETATM   19  O6  UNL     1     103.443  18.535  33.914  1.00  0.00    -0.389 OA
ATOM     20  H6  UNL     1     102.535  18.805  33.996  1.00  0.00     0.210 HD
ENDBRANCH   3  19
BRANCH   6  21
HETATM   21  C13 UNL     1     101.629  20.163  36.495  1.00  0.00     0.230 C 
HETATM   22  F1  UNL     1     100.741  20.759  37.341  1.00  0.00    -0.255 F 
ENDBRANCH   6  21
BRANCH   4  23
HETATM   23  O7  UNL     1     105.800  18.386  36.399  1.00  0.00    -0.390 OA
ATOM     24  H7  UNL     1     106.178  19.137  35.957  1.00  0.00     0.210 HD
ENDBRANCH   4  23
BRANCH   5  25
HETATM   25  O8  UNL     1     104.205  18.647  38.351  1.00  0.00    -0.392 OA
ATOM     26  H8  UNL     1     104.868  19.309  38.506  1.00  0.00     0.210 HD
ENDBRANCH   5  25
TORSDOF 10
ENDMDL
