MODEL 1
REMARK VINA RESULT: -7.774948780      0.000      0.000
REMARK  5 active torsions:
REMARK  status: ('A' for Active; 'I' for Inactive)
REMARK    1  A    between atoms: C2_2  and  O2_4 
REMARK    2  A    between atoms: O2_4  and  C3_5 
REMARK    3  A    between atoms: C10_15  and  O6_17 
REMARK    4  A    between atoms: C14_21  and  C15_22 
REMARK    5  A    between atoms: C15_22  and  C16_23 
ROOT
HETATM    1  C3  UNL     1      12.435 -27.316  58.970  1.00  0.00     0.275 C 
HETATM    2  O3  UNL     1      13.718 -27.485  59.521  1.00  0.00    -0.346 OA
HETATM    3  C4  UNL     1      14.609 -27.359  58.459  1.00  0.00     0.102 C 
HETATM    4  C5  UNL     1      14.778 -25.866  58.233  1.00  0.00     0.050 C 
HETATM    5  C6  UNL     1      15.952 -27.890  58.872  1.00  0.00     0.095 C 
HETATM    6  C7  UNL     1      15.895 -28.423  60.313  1.00  0.00     0.049 C 
HETATM    7  C8  UNL     1      17.031 -26.825  58.905  1.00  0.00     0.049 C 
HETATM    8  O4  UNL     1      16.443 -28.940  58.090  1.00  0.00    -0.305 OA
HETATM    9  C9  UNL     1      15.706 -29.713  57.237  1.00  0.00     0.295 C 
HETATM   10  O5  UNL     1      16.242 -30.521  56.427  1.00  0.00    -0.262 OA
HETATM   11  C10 UNL     1      14.216 -29.541  57.322  1.00  0.00     0.152 C 
HETATM   12  C11 UNL     1      13.593 -30.217  56.127  1.00  0.00     0.058 C 
HETATM   13  C12 UNL     1      13.958 -28.060  57.337  1.00  0.00     0.039 C 
HETATM   14  C13 UNL     1      14.441 -27.492  56.023  1.00  0.00     0.022 C 
HETATM   15  C14 UNL     1      12.483 -27.851  57.571  1.00  0.00     0.060 C 
ENDROOT
BRANCH  15  16
HETATM   16  C15 UNL     1      11.821 -27.037  56.526  1.00  0.00     0.037 C 
BRANCH  16  17
HETATM   17  C16 UNL     1      10.501 -27.539  56.071  1.00  0.00    -0.024 C 
HETATM   18  C17 UNL     1      10.216 -27.505  54.774  1.00  0.00    -0.091 C 
HETATM   19  C18 UNL     1       8.887 -28.013  54.326  1.00  0.00     0.042 C 
HETATM   20  C19 UNL     1      11.200 -26.970  53.770  1.00  0.00     0.042 C 
ENDBRANCH  16  17
ENDBRANCH  15  16
BRANCH   1  21
HETATM   21  O2  UNL     1      11.489 -27.971  59.801  1.00  0.00    -0.290 OA
BRANCH  21  22
HETATM   22  C2  UNL     1      10.133 -27.711  59.747  1.00  0.00     0.257 C 
HETATM   23  C1  UNL     1       9.522 -26.448  60.204  1.00  0.00     0.126 C 
HETATM   24  O1  UNL     1       9.379 -28.602  59.282  1.00  0.00    -0.266 OA
ENDBRANCH  21  22
ENDBRANCH   1  21
BRANCH  11  25
HETATM   25  O6  UNL     1      13.757 -30.202  58.451  1.00  0.00    -0.379 OA
ATOM     26  H6  UNL     1      12.845 -30.432  58.319  1.00  0.00     0.211 HD
ENDBRANCH  11  25
TORSDOF 5
ENDMDL
MODEL 2
REMARK VINA RESULT: -7.639557019      1.875      4.161
REMARK  5 active torsions:
REMARK  status: ('A' for Active; 'I' for Inactive)
REMARK    1  A    between atoms: C2_2  and  O2_4 
REMARK    2  A    between atoms: O2_4  and  C3_5 
REMARK    3  A    between atoms: C10_15  and  O6_17 
REMARK    4  A    between atoms: C14_21  and  C15_22 
REMARK    5  A    between atoms: C15_22  and  C16_23 
ROOT
HETATM    1  C3  UNL     1      12.647 -28.446  59.132  1.00  0.00     0.275 C 
HETATM    2  O3  UNL     1      13.172 -29.482  58.338  1.00  0.00    -0.346 OA
HETATM    3  C4  UNL     1      14.080 -28.878  57.474  1.00  0.00     0.102 C 
HETATM    4  C5  UNL     1      15.356 -28.691  58.275  1.00  0.00     0.050 C 
HETATM    5  C6  UNL     1      14.405 -29.826  56.354  1.00  0.00     0.095 C 
HETATM    6  C7  UNL     1      13.611 -31.132  56.514  1.00  0.00     0.049 C 
HETATM    7  C8  UNL     1      15.857 -30.264  56.347  1.00  0.00     0.049 C 
HETATM    8  O4  UNL     1      14.118 -29.352  55.071  1.00  0.00    -0.305 OA
HETATM    9  C9  UNL     1      13.300 -28.298  54.773  1.00  0.00     0.295 C 
HETATM   10  O5  UNL     1      13.229 -27.809  53.610  1.00  0.00    -0.262 OA
HETATM   11  C10 UNL     1      12.491 -27.756  55.916  1.00  0.00     0.152 C 
HETATM   12  C11 UNL     1      11.901 -26.434  55.494  1.00  0.00     0.058 C 
HETATM   13  C12 UNL     1      13.436 -27.612  57.077  1.00  0.00     0.039 C 
HETATM   14  C13 UNL     1      14.486 -26.596  56.696  1.00  0.00     0.022 C 
HETATM   15  C14 UNL     1      12.626 -27.210  58.284  1.00  0.00     0.060 C 
ENDROOT
BRANCH  15  16
HETATM   16  C15 UNL     1      13.089 -25.958  58.925  1.00  0.00     0.037 C 
BRANCH  16  17
HETATM   17  C16 UNL     1      13.702 -26.121  60.266  1.00  0.00    -0.024 C 
HETATM   18  C17 UNL     1      14.899 -25.592  60.492  1.00  0.00    -0.091 C 
HETATM   19  C18 UNL     1      15.506 -25.761  61.844  1.00  0.00     0.042 C 
HETATM   20  C19 UNL     1      15.636 -24.837  59.420  1.00  0.00     0.042 C 
ENDBRANCH  16  17
ENDBRANCH  15  16
BRANCH   1  21
HETATM   21  O2  UNL     1      11.367 -28.835  59.607  1.00  0.00    -0.290 OA
BRANCH  21  22
HETATM   22  C2  UNL     1      10.227 -28.080  59.403  1.00  0.00     0.257 C 
HETATM   23  C1  UNL     1       9.901 -26.865  60.175  1.00  0.00     0.126 C 
HETATM   24  O1  UNL     1       9.425 -28.451  58.511  1.00  0.00    -0.266 OA
ENDBRANCH  21  22
ENDBRANCH   1  21
BRANCH  11  25
HETATM   25  O6  UNL     1      11.432 -28.617  56.158  1.00  0.00    -0.379 OA
ATOM     26  H6  UNL     1      11.150 -28.991  55.332  1.00  0.00     0.211 HD
ENDBRANCH  11  25
TORSDOF 5
ENDMDL
MODEL 3
REMARK VINA RESULT: -7.631744013      2.109      4.229
REMARK  5 active torsions:
REMARK  status: ('A' for Active; 'I' for Inactive)
REMARK    1  A    between atoms: C2_2  and  O2_4 
REMARK    2  A    between atoms: O2_4  and  C3_5 
REMARK    3  A    between atoms: C10_15  and  O6_17 
REMARK    4  A    between atoms: C14_21  and  C15_22 
REMARK    5  A    between atoms: C15_22  and  C16_23 
ROOT
HETATM    1  C3  UNL     1      13.073 -27.184  57.461  1.00  0.00     0.275 C 
HETATM    2  O3  UNL     1      14.162 -27.916  56.955  1.00  0.00    -0.346 OA
HETATM    3  C4  UNL     1      14.984 -28.181  58.046  1.00  0.00     0.102 C 
HETATM    4  C5  UNL     1      14.365 -29.373  58.753  1.00  0.00     0.050 C 
HETATM    5  C6  UNL     1      16.334 -28.620  57.555  1.00  0.00     0.095 C 
HETATM    6  C7  UNL     1      16.375 -28.604  56.019  1.00  0.00     0.049 C 
HETATM    7  C8  UNL     1      16.668 -30.052  57.928  1.00  0.00     0.049 C 
HETATM    8  O4  UNL     1      17.407 -27.830  57.979  1.00  0.00    -0.305 OA
HETATM    9  C9  UNL     1      17.316 -26.568  58.494  1.00  0.00     0.295 C 
HETATM   10  O5  UNL     1      18.302 -25.984  59.025  1.00  0.00    -0.262 OA
HETATM   11  C10 UNL     1      15.966 -25.917  58.390  1.00  0.00     0.152 C 
HETATM   12  C11 UNL     1      15.963 -24.689  59.265  1.00  0.00     0.058 C 
HETATM   13  C12 UNL     1      14.962 -26.940  58.843  1.00  0.00     0.039 C 
HETATM   14  C13 UNL     1      15.243 -27.253  60.294  1.00  0.00     0.022 C 
HETATM   15  C14 UNL     1      13.585 -26.370  58.611  1.00  0.00     0.060 C 
ENDROOT
BRANCH  15  16
HETATM   16  C15 UNL     1      12.740 -26.334  59.826  1.00  0.00     0.037 C 
BRANCH  16  17
HETATM   17  C16 UNL     1      11.616 -25.367  59.789  1.00  0.00    -0.024 C 
HETATM   18  C17 UNL     1      10.372 -25.832  59.778  1.00  0.00    -0.091 C 
HETATM   19  C18 UNL     1       9.249 -24.852  59.740  1.00  0.00     0.042 C 
HETATM   20  C19 UNL     1      10.088 -27.309  59.802  1.00  0.00     0.042 C 
ENDBRANCH  16  17
ENDBRANCH  15  16
BRANCH   1  21
HETATM   21  O2  UNL     1      12.516 -26.406  56.413  1.00  0.00    -0.290 OA
BRANCH  21  22
HETATM   22  C2  UNL     1      11.478 -26.850  55.616  1.00  0.00     0.257 C 
HETATM   23  C1  UNL     1      10.451 -27.809  56.068  1.00  0.00     0.126 C 
HETATM   24  O1  UNL     1      11.407 -26.413  54.441  1.00  0.00    -0.266 OA
ENDBRANCH  21  22
ENDBRANCH   1  21
BRANCH  11  25
HETATM   25  O6  UNL     1      15.780 -25.487  57.085  1.00  0.00    -0.379 OA
ATOM     26  H6  UNL     1      14.964 -25.003  57.037  1.00  0.00     0.211 HD
ENDBRANCH  11  25
TORSDOF 5
ENDMDL
MODEL 4
REMARK VINA RESULT: -7.573529073      2.468      4.448
REMARK  5 active torsions:
REMARK  status: ('A' for Active; 'I' for Inactive)
REMARK    1  A    between atoms: C2_2  and  O2_4 
REMARK    2  A    between atoms: O2_4  and  C3_5 
REMARK    3  A    between atoms: C10_15  and  O6_17 
REMARK    4  A    between atoms: C14_21  and  C15_22 
REMARK    5  A    between atoms: C15_22  and  C16_23 
ROOT
HETATM    1  C3  UNL     1      12.526 -27.918  55.902  1.00  0.00     0.275 C 
HETATM    2  O3  UNL     1      13.479 -28.454  55.017  1.00  0.00    -0.346 OA
HETATM    3  C4  UNL     1      14.443 -29.063  55.815  1.00  0.00     0.102 C 
HETATM    4  C5  UNL     1      13.871 -30.416  56.200  1.00  0.00     0.050 C 
HETATM    5  C6  UNL     1      15.673 -29.328  54.994  1.00  0.00     0.095 C 
HETATM    6  C7  UNL     1      15.476 -28.817  53.558  1.00  0.00     0.049 C 
HETATM    7  C8  UNL     1      15.974 -30.805  54.833  1.00  0.00     0.049 C 
HETATM    8  O4  UNL     1      16.843 -28.724  55.464  1.00  0.00    -0.305 OA
HETATM    9  C9  UNL     1      16.907 -27.695  56.361  1.00  0.00     0.295 C 
HETATM   10  O5  UNL     1      17.996 -27.319  56.879  1.00  0.00    -0.262 OA
HETATM   11  C10 UNL     1      15.598 -27.036  56.693  1.00  0.00     0.152 C 
HETATM   12  C11 UNL     1      15.803 -26.157  57.901  1.00  0.00     0.058 C 
HETATM   13  C12 UNL     1      14.617 -28.145  56.958  1.00  0.00     0.039 C 
HETATM   14  C13 UNL     1      15.100 -28.912  58.166  1.00  0.00     0.022 C 
HETATM   15  C14 UNL     1      13.257 -27.523  57.149  1.00  0.00     0.060 C 
ENDROOT
BRANCH  15  16
HETATM   16  C15 UNL     1      12.614 -27.876  58.435  1.00  0.00     0.037 C 
BRANCH  16  17
HETATM   17  C16 UNL     1      12.066 -26.733  59.205  1.00  0.00    -0.024 C 
HETATM   18  C17 UNL     1      10.751 -26.546  59.225  1.00  0.00    -0.091 C 
HETATM   19  C18 UNL     1      10.210 -25.394  60.002  1.00  0.00     0.042 C 
HETATM   20  C19 UNL     1       9.818 -27.466  58.486  1.00  0.00     0.042 C 
ENDBRANCH  16  17
ENDBRANCH  15  16
BRANCH   1  21
HETATM   21  O2  UNL     1      11.861 -26.840  55.262  1.00  0.00    -0.290 OA
BRANCH  21  22
HETATM   22  C2  UNL     1      10.920 -27.021  54.266  1.00  0.00     0.257 C 
HETATM   23  C1  UNL     1       9.605 -27.655  54.488  1.00  0.00     0.126 C 
HETATM   24  O1  UNL     1      11.201 -26.625  53.108  1.00  0.00    -0.266 OA
ENDBRANCH  21  22
ENDBRANCH   1  21
BRANCH  11  25
HETATM   25  O6  UNL     1      15.238 -26.208  55.642  1.00  0.00    -0.379 OA
ATOM     26  H6  UNL     1      15.864 -25.495  55.588  1.00  0.00     0.211 HD
ENDBRANCH  11  25
TORSDOF 5
ENDMDL
MODEL 5
REMARK VINA RESULT: -7.194059463      1.722      5.899
REMARK  5 active torsions:
REMARK  status: ('A' for Active; 'I' for Inactive)
REMARK    1  A    between atoms: C2_2  and  O2_4 
REMARK    2  A    between atoms: O2_4  and  C3_5 
REMARK    3  A    between atoms: C10_15  and  O6_17 
REMARK    4  A    between atoms: C14_21  and  C15_22 
REMARK    5  A    between atoms: C15_22  and  C16_23 
ROOT
HETATM    1  C3  UNL     1      13.653 -27.945  58.512  1.00  0.00     0.275 C 
HETATM    2  O3  UNL     1      12.907 -28.339  57.386  1.00  0.00    -0.346 OA
HETATM    3  C4  UNL     1      12.057 -27.275  57.100  1.00  0.00     0.102 C 
HETATM    4  C5  UNL     1      12.895 -26.267  56.335  1.00  0.00     0.050 C 
HETATM    5  C6  UNL     1      10.976 -27.741  56.167  1.00  0.00     0.095 C 
HETATM    6  C7  UNL     1      11.145 -29.236  55.858  1.00  0.00     0.049 C 
HETATM    7  C8  UNL     1      11.029 -27.065  54.810  1.00  0.00     0.049 C 
HETATM    8  O4  UNL     1       9.671 -27.588  56.644  1.00  0.00    -0.305 OA
HETATM    9  C9  UNL     1       9.316 -27.379  57.947  1.00  0.00     0.295 C 
HETATM   10  O5  UNL     1       8.139 -27.069  58.284  1.00  0.00    -0.262 OA
HETATM   11  C10 UNL     1      10.417 -27.541  58.957  1.00  0.00     0.152 C 
HETATM   12  C11 UNL     1       9.938 -26.980  60.273  1.00  0.00     0.058 C 
HETATM   13  C12 UNL     1      11.604 -26.792  58.419  1.00  0.00     0.039 C 
HETATM   14  C13 UNL     1      11.230 -25.331  58.333  1.00  0.00     0.022 C 
HETATM   15  C14 UNL     1      12.771 -27.057  59.336  1.00  0.00     0.060 C 
ENDROOT
BRANCH  15  16
HETATM   16  C15 UNL     1      13.392 -25.829  59.883  1.00  0.00     0.037 C 
BRANCH  16  17
HETATM   17  C16 UNL     1      14.693 -25.451  59.276  1.00  0.00    -0.024 C 
HETATM   18  C17 UNL     1      15.686 -25.077  60.074  1.00  0.00    -0.091 C 
HETATM   19  C18 UNL     1      16.989 -24.699  59.454  1.00  0.00     0.042 C 
HETATM   20  C19 UNL     1      15.516 -25.030  61.568  1.00  0.00     0.042 C 
ENDBRANCH  16  17
ENDBRANCH  15  16
BRANCH   1  21
HETATM   21  O2  UNL     1      14.096 -29.107  59.197  1.00  0.00    -0.290 OA
BRANCH  21  22
HETATM   22  C2  UNL     1      15.432 -29.395  59.404  1.00  0.00     0.257 C 
HETATM   23  C1  UNL     1      16.248 -28.778  60.468  1.00  0.00     0.126 C 
HETATM   24  O1  UNL     1      15.981 -30.228  58.641  1.00  0.00    -0.266 OA
ENDBRANCH  21  22
ENDBRANCH   1  21
BRANCH  11  25
HETATM   25  O6  UNL     1      10.646 -28.894  59.150  1.00  0.00    -0.379 OA
ATOM     26  H6  UNL     1      11.182 -29.217  58.436  1.00  0.00     0.211 HD
ENDBRANCH  11  25
TORSDOF 5
ENDMDL
