MODEL 1
REMARK VINA RESULT: -6.998483486      0.000      0.000
REMARK  5 active torsions:
REMARK  status: ('A' for Active; 'I' for Inactive)
REMARK    1  A    between atoms: C2_2  and  O1_5 
REMARK    2  A    between atoms: O1_5  and  C5_6 
REMARK       I    between atoms: C5_6  and  N1_8 
REMARK    3  A    between atoms: C6_11  and  C7_12 
REMARK    4  A    between atoms: N3_15  and  C10_16 
REMARK    5  A    between atoms: C10_16  and  C11_17 
ROOT
HETATM    1  C5  UNL     1      16.413 -26.694  55.160  1.00  0.00     0.387 C 
HETATM    2  O2  UNL     1      17.523 -26.319  55.588  1.00  0.00    -0.236 OA
HETATM    3  N1  UNL     1      15.389 -26.905  56.139  1.00  0.00    -0.203 N 
HETATM    4  N2  UNL     1      14.192 -27.302  55.845  1.00  0.00    -0.291 N 
ATOM      5  H2  UNL     1      13.846 -27.444  54.896  1.00  0.00     0.187 HD
HETATM    6  C6  UNL     1      13.459 -27.504  56.972  1.00  0.00     0.070 A 
HETATM    7  C14 UNL     1      14.296 -27.195  58.038  1.00  0.00     0.023 A 
HETATM    8  C15 UNL     1      15.507 -26.819  57.483  1.00  0.00     0.052 A 
HETATM    9  C16 UNL     1      16.660 -26.401  58.319  1.00  0.00     0.093 C 
HETATM   10  C17 UNL     1      16.231 -26.417  59.781  1.00  0.00     0.192 C 
HETATM   11  C18 UNL     1      15.331 -25.255  60.065  1.00  0.00     0.036 C 
HETATM   12  C19 UNL     1      13.957 -25.837  60.102  1.00  0.00     0.040 C 
HETATM   13  C20 UNL     1      14.134 -27.207  59.499  1.00  0.00     0.223 C 
HETATM   14  N4  UNL     1      15.434 -27.585  60.088  1.00  0.00    -0.062 N 
ATOM     15  H41 UNL     1      15.407 -27.851  61.073  1.00  0.00     0.278 HD
ATOM     16  H42 UNL     1      15.817 -28.474  59.766  1.00  0.00     0.278 HD
ENDROOT
BRANCH   6  17
HETATM   17  C7  UNL     1      12.101 -28.027  57.053  1.00  0.00     0.276 C 
HETATM   18  C8  UNL     1      11.525 -28.699  55.866  1.00  0.00     0.072 C 
HETATM   19  C9  UNL     1      10.519 -27.557  55.889  1.00  0.00     0.276 C 
HETATM   20  N3  UNL     1      10.995 -27.100  57.210  1.00  0.00     0.099 N 
BRANCH  20  21
HETATM   21  C10 UNL     1      10.187 -27.539  58.309  1.00  0.00     0.278 C 
BRANCH  21  22
HETATM   22  C11 UNL     1      10.275 -26.869  59.602  1.00  0.00     0.014 A 
HETATM   23  C12 UNL     1       9.008 -26.302  60.221  1.00  0.00     0.007 A 
HETATM   24  C13 UNL     1      10.224 -25.441  59.906  1.00  0.00     0.007 A 
ENDBRANCH  21  22
ENDBRANCH  20  21
ENDBRANCH   6  17
BRANCH   1  25
HETATM   25  O1  UNL     1      16.263 -26.878  53.821  1.00  0.00    -0.292 OA
BRANCH  25  26
HETATM   26  C2  UNL     1      16.709 -27.955  53.039  1.00  0.00     0.061 C 
HETATM   27  C1  UNL     1      16.765 -27.486  51.583  1.00  0.00     0.046 C 
HETATM   28  C3  UNL     1      18.023 -28.548  53.399  1.00  0.00     0.046 C 
HETATM   29  C4  UNL     1      15.667 -29.070  53.047  1.00  0.00     0.046 C 
ENDBRANCH  25  26
ENDBRANCH   1  25
TORSDOF 5
ENDMDL
MODEL 2
REMARK VINA RESULT: -6.903640787      2.791      6.621
REMARK  5 active torsions:
REMARK  status: ('A' for Active; 'I' for Inactive)
REMARK    1  A    between atoms: C2_2  and  O1_5 
REMARK    2  A    between atoms: O1_5  and  C5_6 
REMARK       I    between atoms: C5_6  and  N1_8 
REMARK    3  A    between atoms: C6_11  and  C7_12 
REMARK    4  A    between atoms: N3_15  and  C10_16 
REMARK    5  A    between atoms: C10_16  and  C11_17 
ROOT
HETATM    1  C5  UNL     1      11.691 -27.898  57.097  1.00  0.00     0.387 C 
HETATM    2  O2  UNL     1      11.037 -28.623  56.319  1.00  0.00    -0.236 OA
HETATM    3  N1  UNL     1      13.058 -28.266  57.314  1.00  0.00    -0.203 N 
HETATM    4  N2  UNL     1      13.856 -27.614  58.100  1.00  0.00    -0.291 N 
ATOM      5  H2  UNL     1      13.611 -26.753  58.588  1.00  0.00     0.187 HD
HETATM    6  C6  UNL     1      15.062 -28.234  58.186  1.00  0.00     0.070 A 
HETATM    7  C14 UNL     1      14.979 -29.358  57.373  1.00  0.00     0.023 A 
HETATM    8  C15 UNL     1      13.704 -29.353  56.834  1.00  0.00     0.052 A 
HETATM    9  C16 UNL     1      13.242 -30.404  55.893  1.00  0.00     0.093 C 
HETATM   10  C17 UNL     1      14.397 -31.362  55.630  1.00  0.00     0.192 C 
HETATM   11  C18 UNL     1      15.411 -30.712  54.741  1.00  0.00     0.036 C 
HETATM   12  C19 UNL     1      16.519 -30.309  55.657  1.00  0.00     0.040 C 
HETATM   13  C20 UNL     1      15.912 -30.441  57.030  1.00  0.00     0.223 C 
HETATM   14  N4  UNL     1      15.117 -31.671  56.847  1.00  0.00    -0.062 N 
ATOM     15  H41 UNL     1      15.653 -32.540  56.829  1.00  0.00     0.278 HD
ATOM     16  H42 UNL     1      14.538 -31.940  57.642  1.00  0.00     0.278 HD
ENDROOT
BRANCH   6  17
HETATM   17  C7  UNL     1      16.187 -27.850  59.030  1.00  0.00     0.276 C 
HETATM   18  C8  UNL     1      16.329 -28.489  60.359  1.00  0.00     0.072 C 
HETATM   19  C9  UNL     1      16.133 -27.078  60.895  1.00  0.00     0.276 C 
HETATM   20  N3  UNL     1      16.256 -26.496  59.544  1.00  0.00     0.099 N 
BRANCH  20  21
HETATM   21  C10 UNL     1      17.554 -25.964  59.252  1.00  0.00     0.278 C 
BRANCH  21  22
HETATM   22  C11 UNL     1      17.706 -24.567  58.859  1.00  0.00     0.014 A 
HETATM   23  C12 UNL     1      16.471 -23.684  58.801  1.00  0.00     0.007 A 
HETATM   24  C13 UNL     1      17.367 -23.922  57.593  1.00  0.00     0.007 A 
ENDBRANCH  21  22
ENDBRANCH  20  21
ENDBRANCH   6  17
BRANCH   1  25
HETATM   25  O1  UNL     1      11.066 -26.838  57.674  1.00  0.00    -0.292 OA
BRANCH  25  26
HETATM   26  C2  UNL     1      10.481 -26.766  58.948  1.00  0.00     0.061 C 
HETATM   27  C1  UNL     1      11.197 -25.662  59.732  1.00  0.00     0.046 C 
HETATM   28  C3  UNL     1       9.018 -26.516  59.004  1.00  0.00     0.046 C 
HETATM   29  C4  UNL     1      10.774 -28.045  59.727  1.00  0.00     0.046 C 
ENDBRANCH  25  26
ENDBRANCH   1  25
TORSDOF 5
ENDMDL
MODEL 3
REMARK VINA RESULT: -6.816227356      2.793      6.693
REMARK  5 active torsions:
REMARK  status: ('A' for Active; 'I' for Inactive)
REMARK    1  A    between atoms: C2_2  and  O1_5 
REMARK    2  A    between atoms: O1_5  and  C5_6 
REMARK       I    between atoms: C5_6  and  N1_8 
REMARK    3  A    between atoms: C6_11  and  C7_12 
REMARK    4  A    between atoms: N3_15  and  C10_16 
REMARK    5  A    between atoms: C10_16  and  C11_17 
ROOT
HETATM    1  C5  UNL     1      11.330 -27.660  57.258  1.00  0.00     0.387 C 
HETATM    2  O2  UNL     1      10.759 -28.487  56.518  1.00  0.00    -0.236 OA
HETATM    3  N1  UNL     1      12.732 -27.858  57.473  1.00  0.00    -0.203 N 
HETATM    4  N2  UNL     1      13.453 -27.086  58.224  1.00  0.00    -0.291 N 
ATOM      5  H2  UNL     1      13.113 -26.240  58.679  1.00  0.00     0.187 HD
HETATM    6  C6  UNL     1      14.725 -27.558  58.321  1.00  0.00     0.070 A 
HETATM    7  C14 UNL     1      14.767 -28.716  57.554  1.00  0.00     0.023 A 
HETATM    8  C15 UNL     1      13.496 -28.881  57.030  1.00  0.00     0.052 A 
HETATM    9  C16 UNL     1      13.153 -30.016  56.137  1.00  0.00     0.093 C 
HETATM   10  C17 UNL     1      14.410 -30.844  55.900  1.00  0.00     0.192 C 
HETATM   11  C18 UNL     1      15.335 -30.118  54.973  1.00  0.00     0.036 C 
HETATM   12  C19 UNL     1      16.396 -29.552  55.859  1.00  0.00     0.040 C 
HETATM   13  C20 UNL     1      15.817 -29.697  57.244  1.00  0.00     0.223 C 
HETATM   14  N4  UNL     1      15.170 -31.018  57.119  1.00  0.00    -0.062 N 
ATOM     15  H41 UNL     1      15.803 -31.818  57.130  1.00  0.00     0.278 HD
ATOM     16  H42 UNL     1      14.631 -31.319  57.931  1.00  0.00     0.278 HD
ENDROOT
BRANCH   6  17
HETATM   17  C7  UNL     1      15.803 -27.012  59.136  1.00  0.00     0.276 C 
HETATM   18  C8  UNL     1      15.943 -27.479  60.534  1.00  0.00     0.072 C 
HETATM   19  C9  UNL     1      15.655 -26.028  60.892  1.00  0.00     0.276 C 
HETATM   20  N3  UNL     1      15.783 -25.604  59.484  1.00  0.00     0.099 N 
BRANCH  20  21
HETATM   21  C10 UNL     1      17.058 -25.037  59.157  1.00  0.00     0.278 C 
BRANCH  21  22
HETATM   22  C11 UNL     1      17.140 -23.853  58.307  1.00  0.00     0.014 A 
HETATM   23  C12 UNL     1      17.553 -24.021  56.855  1.00  0.00     0.007 A 
HETATM   24  C13 UNL     1      18.323 -23.140  57.830  1.00  0.00     0.007 A 
ENDBRANCH  21  22
ENDBRANCH  20  21
ENDBRANCH   6  17
BRANCH   1  25
HETATM   25  O1  UNL     1      10.590 -26.657  57.799  1.00  0.00    -0.292 OA
BRANCH  25  26
HETATM   26  C2  UNL     1      10.143 -26.528  59.125  1.00  0.00     0.061 C 
HETATM   27  C1  UNL     1      10.410 -27.856  59.840  1.00  0.00     0.046 C 
HETATM   28  C3  UNL     1      10.733 -25.428  59.929  1.00  0.00     0.046 C 
HETATM   29  C4  UNL     1       8.625 -26.375  59.149  1.00  0.00     0.046 C 
ENDBRANCH  25  26
ENDBRANCH   1  25
TORSDOF 5
ENDMDL
MODEL 4
REMARK VINA RESULT: -6.676600213      2.926      7.142
REMARK  5 active torsions:
REMARK  status: ('A' for Active; 'I' for Inactive)
REMARK    1  A    between atoms: C2_2  and  O1_5 
REMARK    2  A    between atoms: O1_5  and  C5_6 
REMARK       I    between atoms: C5_6  and  N1_8 
REMARK    3  A    between atoms: C6_11  and  C7_12 
REMARK    4  A    between atoms: N3_15  and  C10_16 
REMARK    5  A    between atoms: C10_16  and  C11_17 
ROOT
HETATM    1  C5  UNL     1      10.821 -27.725  59.089  1.00  0.00     0.387 C 
HETATM    2  O2  UNL     1      10.189 -28.389  58.243  1.00  0.00    -0.236 OA
HETATM    3  N1  UNL     1      12.211 -27.507  58.821  1.00  0.00    -0.203 N 
HETATM    4  N2  UNL     1      12.995 -26.846  59.612  1.00  0.00    -0.291 N 
ATOM      5  H2  UNL     1      12.692 -26.371  60.462  1.00  0.00     0.187 HD
HETATM    6  C6  UNL     1      14.275 -26.871  59.157  1.00  0.00     0.070 A 
HETATM    7  C14 UNL     1      14.253 -27.613  57.982  1.00  0.00     0.023 A 
HETATM    8  C15 UNL     1      12.937 -28.001  57.793  1.00  0.00     0.052 A 
HETATM    9  C16 UNL     1      12.514 -28.808  56.621  1.00  0.00     0.093 C 
HETATM   10  C17 UNL     1      13.726 -29.037  55.726  1.00  0.00     0.192 C 
HETATM   11  C18 UNL     1      14.073 -27.775  55.000  1.00  0.00     0.036 C 
HETATM   12  C19 UNL     1      15.256 -27.227  55.730  1.00  0.00     0.040 C 
HETATM   13  C20 UNL     1      15.280 -28.021  57.012  1.00  0.00     0.223 C 
HETATM   14  N4  UNL     1      14.906 -29.354  56.501  1.00  0.00    -0.062 N 
ATOM     15  H41 UNL     1      15.640 -29.851  55.996  1.00  0.00     0.278 HD
ATOM     16  H42 UNL     1      14.782 -30.076  57.211  1.00  0.00     0.278 HD
ENDROOT
BRANCH   6  17
HETATM   17  C7  UNL     1      15.451 -26.312  59.812  1.00  0.00     0.276 C 
HETATM   18  C8  UNL     1      15.584 -26.458  61.279  1.00  0.00     0.072 C 
HETATM   19  C9  UNL     1      15.512 -24.937  61.290  1.00  0.00     0.276 C 
HETATM   20  N3  UNL     1      15.639 -24.874  59.820  1.00  0.00     0.099 N 
BRANCH  20  21
HETATM   21  C10 UNL     1      16.965 -24.586  59.358  1.00  0.00     0.278 C 
BRANCH  21  22
HETATM   22  C11 UNL     1      17.176 -23.624  58.282  1.00  0.00     0.014 A 
HETATM   23  C12 UNL     1      17.560 -24.139  56.905  1.00  0.00     0.007 A 
HETATM   24  C13 UNL     1      18.429 -23.164  57.688  1.00  0.00     0.007 A 
ENDBRANCH  21  22
ENDBRANCH  20  21
ENDBRANCH   6  17
BRANCH   1  25
HETATM   25  O1  UNL     1      10.157 -27.275  60.187  1.00  0.00    -0.292 OA
BRANCH  25  26
HETATM   26  C2  UNL     1       9.449 -26.071  60.337  1.00  0.00     0.061 C 
HETATM   27  C1  UNL     1       9.307 -25.796  61.837  1.00  0.00     0.046 C 
HETATM   28  C3  UNL     1      10.024 -24.867  59.685  1.00  0.00     0.046 C 
HETATM   29  C4  UNL     1       8.018 -26.245  59.838  1.00  0.00     0.046 C 
ENDBRANCH  25  26
ENDBRANCH   1  25
TORSDOF 5
ENDMDL
MODEL 5
REMARK VINA RESULT: -6.457530678      1.886      5.133
REMARK  5 active torsions:
REMARK  status: ('A' for Active; 'I' for Inactive)
REMARK    1  A    between atoms: C2_2  and  O1_5 
REMARK    2  A    between atoms: O1_5  and  C5_6 
REMARK       I    between atoms: C5_6  and  N1_8 
REMARK    3  A    between atoms: C6_11  and  C7_12 
REMARK    4  A    between atoms: N3_15  and  C10_16 
REMARK    5  A    between atoms: C10_16  and  C11_17 
ROOT
HETATM    1  C5  UNL     1      13.651 -27.673  55.018  1.00  0.00     0.387 C 
HETATM    2  O2  UNL     1      12.594 -27.778  54.364  1.00  0.00    -0.236 OA
HETATM    3  N1  UNL     1      13.511 -27.445  56.425  1.00  0.00    -0.203 N 
HETATM    4  N2  UNL     1      14.517 -27.306  57.229  1.00  0.00    -0.291 N 
ATOM      5  H2  UNL     1      15.494 -27.405  56.954  1.00  0.00     0.187 HD
HETATM    6  C6  UNL     1      14.095 -27.011  58.486  1.00  0.00     0.070 A 
HETATM    7  C14 UNL     1      12.707 -26.975  58.429  1.00  0.00     0.023 A 
HETATM    8  C15 UNL     1      12.365 -27.253  57.117  1.00  0.00     0.052 A 
HETATM    9  C16 UNL     1      10.952 -27.315  56.667  1.00  0.00     0.093 C 
HETATM   10  C17 UNL     1      10.048 -27.088  57.872  1.00  0.00     0.192 C 
HETATM   11  C18 UNL     1      10.045 -28.303  58.747  1.00  0.00     0.036 C 
HETATM   12  C19 UNL     1      10.938 -27.950  59.892  1.00  0.00     0.040 C 
HETATM   13  C20 UNL     1      11.651 -26.710  59.418  1.00  0.00     0.223 C 
HETATM   14  N4  UNL     1      10.547 -26.025  58.718  1.00  0.00    -0.062 N 
ATOM     15  H41 UNL     1       9.853 -25.584  59.321  1.00  0.00     0.278 HD
ATOM     16  H42 UNL     1      10.803 -25.165  58.234  1.00  0.00     0.278 HD
ENDROOT
BRANCH   6  17
HETATM   17  C7  UNL     1      14.928 -26.706  59.643  1.00  0.00     0.276 C 
HETATM   18  C8  UNL     1      15.345 -25.303  59.868  1.00  0.00     0.072 C 
HETATM   19  C9  UNL     1      16.753 -25.843  59.664  1.00  0.00     0.276 C 
HETATM   20  N3  UNL     1      16.275 -27.239  59.704  1.00  0.00     0.099 N 
BRANCH  20  21
HETATM   21  C10 UNL     1      16.452 -27.883  60.973  1.00  0.00     0.278 C 
BRANCH  21  22
HETATM   22  C11 UNL     1      17.145 -29.164  61.058  1.00  0.00     0.014 A 
HETATM   23  C12 UNL     1      18.663 -29.174  61.108  1.00  0.00     0.007 A 
HETATM   24  C13 UNL     1      17.873 -29.890  60.021  1.00  0.00     0.007 A 
ENDBRANCH  21  22
ENDBRANCH  20  21
ENDBRANCH   6  17
BRANCH   1  25
HETATM   25  O1  UNL     1      14.834 -27.775  54.357  1.00  0.00    -0.292 OA
BRANCH  25  26
HETATM   26  C2  UNL     1      15.633 -28.916  54.180  1.00  0.00     0.061 C 
HETATM   27  C1  UNL     1      17.033 -28.596  54.709  1.00  0.00     0.046 C 
HETATM   28  C3  UNL     1      15.160 -30.173  54.816  1.00  0.00     0.046 C 
HETATM   29  C4  UNL     1      15.834 -29.184  52.691  1.00  0.00     0.046 C 
ENDBRANCH  25  26
ENDBRANCH   1  25
TORSDOF 5
ENDMDL
