MODEL 1
REMARK VINA RESULT: -6.345635136      0.000      0.000
REMARK  5 active torsions:
REMARK  status: ('A' for Active; 'I' for Inactive)
REMARK    1  A    between atoms: C2_2  and  C5_5 
REMARK    2  A    between atoms: C6_7  and  C7_8 
REMARK    3  A    between atoms: C9_11  and  C10_12 
REMARK    4  A    between atoms: C10_12  and  N1_13 
REMARK    5  A    between atoms: C15_23  and  S1_24 
ROOT
HETATM    1  S1  UNL     1     -29.765  -3.317   0.246  1.00  0.00     0.010 SA
HETATM    2  C16 UNL     1     -29.900  -4.551  -1.011  1.00  0.00     0.140 C 
HETATM    3  N4  UNL     1     -29.988  -5.352  -1.856  1.00  0.00    -0.184 NA
ENDROOT
BRANCH   1   4
HETATM    4  C15 UNL     1     -31.075  -3.576   1.434  1.00  0.00     0.117 A 
HETATM    5  C5  UNL     1     -30.944  -4.279   2.608  1.00  0.00     0.097 A 
HETATM    6  O1  UNL     1     -32.122  -4.228   3.178  1.00  0.00    -0.296 OA
HETATM    7  C6  UNL     1     -32.990  -3.544   2.448  1.00  0.00     0.154 A 
HETATM    8  N3  UNL     1     -32.344  -3.129   1.349  1.00  0.00    -0.330 N 
ATOM      9  H3  UNL     1     -32.740  -2.576   0.589  1.00  0.00     0.168 HD
BRANCH   5  10
HETATM   10  C2  UNL     1     -29.727  -4.962   3.135  1.00  0.00     0.001 C 
HETATM   11  C1  UNL     1     -28.829  -3.988   3.853  1.00  0.00     0.021 C 
HETATM   12  C3  UNL     1     -30.119  -6.024   4.160  1.00  0.00     0.021 C 
HETATM   13  C4  UNL     1     -29.036  -5.693   2.010  1.00  0.00     0.021 C 
ENDBRANCH   5  10
BRANCH   7  14
HETATM   14  C7  UNL     1     -34.411  -3.314   2.834  1.00  0.00     0.204 C 
HETATM   15  O2  UNL     1     -34.474  -2.911   4.165  1.00  0.00    -0.377 OA
HETATM   16  C8  UNL     1     -34.058  -1.641   3.698  1.00  0.00     0.178 C 
HETATM   17  C9  UNL     1     -34.868  -1.947   2.432  1.00  0.00     0.075 C 
BRANCH  17  18
HETATM   18  C10 UNL     1     -36.333  -1.667   2.720  1.00  0.00     0.282 C 
BRANCH  18  19
HETATM   19  N1  UNL     1     -37.061  -1.339   1.538  1.00  0.00     0.092 N 
HETATM   20  C11 UNL     1     -38.269  -2.127   1.475  1.00  0.00     0.300 C 
HETATM   21  C12 UNL     1     -38.132  -3.302   0.505  1.00  0.00     0.262 C 
HETATM   22  N2  UNL     1     -37.929  -2.851  -0.855  1.00  0.00    -0.072 N 
HETATM   23  C13 UNL     1     -37.404  -1.505  -0.806  1.00  0.00     0.262 C 
ATOM     24  H22 UNL     1     -37.340  -3.485  -1.396  1.00  0.00     0.277 HD
ATOM     25  H21 UNL     1     -38.771  -2.926  -1.425  1.00  0.00     0.277 HD
HETATM   26  C14 UNL     1     -36.340  -1.509   0.301  1.00  0.00     0.300 C 
ENDBRANCH  18  19
ENDBRANCH  17  18
ENDBRANCH   7  14
ENDBRANCH   1   4
TORSDOF 5
ENDMDL
MODEL 2
REMARK VINA RESULT: -6.301898487      3.017      5.149
REMARK  5 active torsions:
REMARK  status: ('A' for Active; 'I' for Inactive)
REMARK    1  A    between atoms: C2_2  and  C5_5 
REMARK    2  A    between atoms: C6_7  and  C7_8 
REMARK    3  A    between atoms: C9_11  and  C10_12 
REMARK    4  A    between atoms: C10_12  and  N1_13 
REMARK    5  A    between atoms: C15_23  and  S1_24 
ROOT
HETATM    1  S1  UNL     1     -28.293  -1.734  -2.216  1.00  0.00     0.010 SA
HETATM    2  C16 UNL     1     -29.738  -0.722  -2.317  1.00  0.00     0.140 C 
HETATM    3  N4  UNL     1     -30.682  -0.038  -2.380  1.00  0.00    -0.184 NA
ENDROOT
BRANCH   1   4
HETATM    4  C15 UNL     1     -28.611  -3.059  -1.058  1.00  0.00     0.117 A 
HETATM    5  C5  UNL     1     -28.026  -4.301  -1.106  1.00  0.00     0.097 A 
HETATM    6  O1  UNL     1     -28.524  -4.960  -0.090  1.00  0.00    -0.296 OA
HETATM    7  C6  UNL     1     -29.384  -4.223   0.597  1.00  0.00     0.154 A 
HETATM    8  N3  UNL     1     -29.448  -3.025  -0.001  1.00  0.00    -0.330 N 
ATOM      9  H3  UNL     1     -30.023  -2.235   0.289  1.00  0.00     0.168 HD
BRANCH   5  10
HETATM   10  C2  UNL     1     -27.034  -4.809  -2.098  1.00  0.00     0.001 C 
HETATM   11  C1  UNL     1     -25.692  -4.150  -1.905  1.00  0.00     0.021 C 
HETATM   12  C3  UNL     1     -26.811  -6.307  -1.903  1.00  0.00     0.021 C 
HETATM   13  C4  UNL     1     -27.587  -4.639  -3.491  1.00  0.00     0.021 C 
ENDBRANCH   5  10
BRANCH   7  14
HETATM   14  C7  UNL     1     -30.115  -4.698   1.807  1.00  0.00     0.204 C 
HETATM   15  O2  UNL     1     -29.201  -5.060   2.792  1.00  0.00    -0.377 OA
HETATM   16  C8  UNL     1     -29.054  -3.673   3.029  1.00  0.00     0.178 C 
HETATM   17  C9  UNL     1     -30.540  -3.551   2.668  1.00  0.00     0.075 C 
BRANCH  17  18
HETATM   18  C10 UNL     1     -31.363  -3.951   3.882  1.00  0.00     0.282 C 
BRANCH  18  19
HETATM   19  N1  UNL     1     -32.416  -3.026   4.147  1.00  0.00     0.092 N 
HETATM   20  C11 UNL     1     -33.646  -3.508   3.565  1.00  0.00     0.300 C 
HETATM   21  C12 UNL     1     -33.975  -2.792   2.255  1.00  0.00     0.262 C 
HETATM   22  N2  UNL     1     -34.208  -1.379   2.462  1.00  0.00    -0.072 N 
HETATM   23  C13 UNL     1     -33.562  -0.996   3.698  1.00  0.00     0.262 C 
ATOM     24  H22 UNL     1     -33.912  -0.810   1.670  1.00  0.00     0.277 HD
ATOM     25  H21 UNL     1     -35.198  -1.136   2.443  1.00  0.00     0.277 HD
HETATM   26  C14 UNL     1     -32.187  -1.681   3.683  1.00  0.00     0.300 C 
ENDBRANCH  18  19
ENDBRANCH  17  18
ENDBRANCH   7  14
ENDBRANCH   1   4
TORSDOF 5
ENDMDL
MODEL 3
REMARK VINA RESULT: -6.149622345      1.052      1.454
REMARK  5 active torsions:
REMARK  status: ('A' for Active; 'I' for Inactive)
REMARK    1  A    between atoms: C2_2  and  C5_5 
REMARK    2  A    between atoms: C6_7  and  C7_8 
REMARK    3  A    between atoms: C9_11  and  C10_12 
REMARK    4  A    between atoms: C10_12  and  N1_13 
REMARK    5  A    between atoms: C15_23  and  S1_24 
ROOT
HETATM    1  S1  UNL     1     -29.415  -3.586   0.317  1.00  0.00     0.010 SA
HETATM    2  C16 UNL     1     -29.427  -4.990  -0.756  1.00  0.00     0.140 C 
HETATM    3  N4  UNL     1     -29.431  -5.906  -1.480  1.00  0.00    -0.184 NA
ENDROOT
BRANCH   1   4
HETATM    4  C15 UNL     1     -30.928  -3.589   1.268  1.00  0.00     0.117 A 
HETATM    5  C5  UNL     1     -31.043  -4.036   2.562  1.00  0.00     0.097 A 
HETATM    6  O1  UNL     1     -32.300  -3.863   2.881  1.00  0.00    -0.296 OA
HETATM    7  C6  UNL     1     -32.991  -3.338   1.881  1.00  0.00     0.154 A 
HETATM    8  N3  UNL     1     -32.140  -3.160   0.860  1.00  0.00    -0.330 N 
ATOM      9  H3  UNL     1     -32.367  -2.773  -0.056  1.00  0.00     0.168 HD
BRANCH   5  10
HETATM   10  C2  UNL     1     -29.972  -4.604   3.433  1.00  0.00     0.001 C 
HETATM   11  C1  UNL     1     -28.913  -3.573   3.728  1.00  0.00     0.021 C 
HETATM   12  C3  UNL     1     -30.554  -5.024   4.780  1.00  0.00     0.021 C 
HETATM   13  C4  UNL     1     -29.422  -5.858   2.797  1.00  0.00     0.021 C 
ENDBRANCH   5  10
BRANCH   7  14
HETATM   14  C7  UNL     1     -34.448  -3.026   1.941  1.00  0.00     0.204 C 
HETATM   15  O2  UNL     1     -34.709  -2.234   3.056  1.00  0.00    -0.377 OA
HETATM   16  C8  UNL     1     -34.182  -1.162   2.297  1.00  0.00     0.178 C 
HETATM   17  C9  UNL     1     -34.788  -1.857   1.071  1.00  0.00     0.075 C 
BRANCH  17  18
HETATM   18  C10 UNL     1     -36.271  -1.528   1.018  1.00  0.00     0.282 C 
BRANCH  18  19
HETATM   19  N1  UNL     1     -36.881  -1.987  -0.187  1.00  0.00     0.092 N 
HETATM   20  C11 UNL     1     -37.373  -0.861  -0.944  1.00  0.00     0.300 C 
HETATM   21  C12 UNL     1     -38.885  -0.690  -0.793  1.00  0.00     0.262 C 
HETATM   22  N2  UNL     1     -39.607  -1.824  -1.329  1.00  0.00    -0.072 N 
HETATM   23  C13 UNL     1     -38.707  -2.956  -1.354  1.00  0.00     0.262 C 
ATOM     24  H22 UNL     1     -40.470  -2.018  -0.821  1.00  0.00     0.277 HD
ATOM     25  H21 UNL     1     -40.024  -1.631  -2.239  1.00  0.00     0.277 HD
HETATM   26  C14 UNL     1     -37.959  -2.928  -0.013  1.00  0.00     0.300 C 
ENDBRANCH  18  19
ENDBRANCH  17  18
ENDBRANCH   7  14
ENDBRANCH   1   4
TORSDOF 5
ENDMDL
MODEL 4
REMARK VINA RESULT: -6.095758213      2.862      4.028
REMARK  5 active torsions:
REMARK  status: ('A' for Active; 'I' for Inactive)
REMARK    1  A    between atoms: C2_2  and  C5_5 
REMARK    2  A    between atoms: C6_7  and  C7_8 
REMARK    3  A    between atoms: C9_11  and  C10_12 
REMARK    4  A    between atoms: C10_12  and  N1_13 
REMARK    5  A    between atoms: C15_23  and  S1_24 
ROOT
HETATM    1  S1  UNL     1     -28.836  -3.284  -0.348  1.00  0.00     0.010 SA
HETATM    2  C16 UNL     1     -29.267  -4.876  -0.982  1.00  0.00     0.140 C 
HETATM    3  N4  UNL     1     -29.547  -5.922  -1.419  1.00  0.00    -0.184 NA
ENDROOT
BRANCH   1   4
HETATM    4  C15 UNL     1     -30.190  -2.692   0.659  1.00  0.00     0.117 A 
HETATM    5  C5  UNL     1     -31.333  -2.104   0.173  1.00  0.00     0.097 A 
HETATM    6  O1  UNL     1     -32.057  -1.825   1.226  1.00  0.00    -0.296 OA
HETATM    7  C6  UNL     1     -31.454  -2.193   2.346  1.00  0.00     0.154 A 
HETATM    8  N3  UNL     1     -30.279  -2.740   2.003  1.00  0.00    -0.330 N 
ATOM      9  H3  UNL     1     -29.581  -3.122   2.642  1.00  0.00     0.168 HD
BRANCH   5  10
HETATM   10  C2  UNL     1     -31.688  -1.833  -1.251  1.00  0.00     0.001 C 
HETATM   11  C1  UNL     1     -32.110  -3.098  -1.953  1.00  0.00     0.021 C 
HETATM   12  C3  UNL     1     -32.879  -0.881  -1.326  1.00  0.00     0.021 C 
HETATM   13  C4  UNL     1     -30.538  -1.129  -1.929  1.00  0.00     0.021 C 
ENDBRANCH   5  10
BRANCH   7  14
HETATM   14  C7  UNL     1     -32.029  -2.006   3.709  1.00  0.00     0.204 C 
HETATM   15  O2  UNL     1     -31.233  -1.122   4.433  1.00  0.00    -0.377 OA
HETATM   16  C8  UNL     1     -31.853  -0.098   3.679  1.00  0.00     0.178 C 
HETATM   17  C9  UNL     1     -33.112  -0.974   3.703  1.00  0.00     0.075 C 
BRANCH  17  18
HETATM   18  C10 UNL     1     -33.803  -0.784   5.043  1.00  0.00     0.282 C 
BRANCH  18  19
HETATM   19  N1  UNL     1     -35.224  -0.789   4.922  1.00  0.00     0.092 N 
HETATM   20  C11 UNL     1     -35.763  -1.971   5.550  1.00  0.00     0.300 C 
HETATM   21  C12 UNL     1     -36.138  -3.040   4.523  1.00  0.00     0.262 C 
HETATM   22  N2  UNL     1     -37.195  -2.589   3.644  1.00  0.00    -0.072 N 
HETATM   23  C13 UNL     1     -37.202  -1.143   3.657  1.00  0.00     0.262 C 
ATOM     24  H22 UNL     1     -37.116  -2.974   2.702  1.00  0.00     0.277 HD
ATOM     25  H21 UNL     1     -38.103  -2.990   3.880  1.00  0.00     0.277 HD
HETATM   26  C14 UNL     1     -35.729  -0.716   3.574  1.00  0.00     0.300 C 
ENDBRANCH  18  19
ENDBRANCH  17  18
ENDBRANCH   7  14
ENDBRANCH   1   4
TORSDOF 5
ENDMDL
MODEL 5
REMARK VINA RESULT: -6.055659890      4.577      7.233
REMARK  5 active torsions:
REMARK  status: ('A' for Active; 'I' for Inactive)
REMARK    1  A    between atoms: C2_2  and  C5_5 
REMARK    2  A    between atoms: C6_7  and  C7_8 
REMARK    3  A    between atoms: C9_11  and  C10_12 
REMARK    4  A    between atoms: C10_12  and  N1_13 
REMARK    5  A    between atoms: C15_23  and  S1_24 
ROOT
HETATM    1  S1  UNL     1     -31.629   3.260  -0.863  1.00  0.00     0.010 SA
HETATM    2  C16 UNL     1     -30.641   4.533  -0.139  1.00  0.00     0.140 C 
HETATM    3  N4  UNL     1     -29.982   5.380   0.322  1.00  0.00    -0.184 NA
ENDROOT
BRANCH   1   4
HETATM    4  C15 UNL     1     -31.273   1.723  -0.023  1.00  0.00     0.117 A 
HETATM    5  C5  UNL     1     -30.539   0.689  -0.553  1.00  0.00     0.097 A 
HETATM    6  O1  UNL     1     -30.515  -0.233   0.376  1.00  0.00    -0.296 OA
HETATM    7  C6  UNL     1     -31.183   0.142   1.456  1.00  0.00     0.154 A 
HETATM    8  N3  UNL     1     -31.664   1.371   1.218  1.00  0.00    -0.330 N 
ATOM      9  H3  UNL     1     -32.224   1.935   1.859  1.00  0.00     0.168 HD
BRANCH   5  10
HETATM   10  C2  UNL     1     -29.900   0.616  -1.899  1.00  0.00     0.001 C 
HETATM   11  C1  UNL     1     -29.007   1.806  -2.138  1.00  0.00     0.021 C 
HETATM   12  C3  UNL     1     -29.008  -0.619  -1.994  1.00  0.00     0.021 C 
HETATM   13  C4  UNL     1     -30.968   0.450  -2.952  1.00  0.00     0.021 C 
ENDBRANCH   5  10
BRANCH   7  14
HETATM   14  C7  UNL     1     -31.334  -0.694   2.681  1.00  0.00     0.204 C 
HETATM   15  O2  UNL     1     -32.686  -0.844   2.979  1.00  0.00    -0.377 OA
HETATM   16  C8  UNL     1     -32.711  -1.797   1.933  1.00  0.00     0.178 C 
HETATM   17  C9  UNL     1     -31.278  -2.153   2.351  1.00  0.00     0.075 C 
BRANCH  17  18
HETATM   18  C10 UNL     1     -31.345  -3.070   3.561  1.00  0.00     0.282 C 
BRANCH  18  19
HETATM   19  N1  UNL     1     -30.184  -3.889   3.681  1.00  0.00     0.092 N 
HETATM   20  C11 UNL     1     -29.267  -3.595   2.605  1.00  0.00     0.300 C 
HETATM   21  C12 UNL     1     -29.329  -4.652   1.501  1.00  0.00     0.262 C 
HETATM   22  N2  UNL     1     -28.910  -5.951   1.982  1.00  0.00    -0.072 N 
HETATM   23  C13 UNL     1     -29.070  -5.969   3.419  1.00  0.00     0.262 C 
ATOM     24  H22 UNL     1     -29.400  -6.718   1.521  1.00  0.00     0.277 HD
ATOM     25  H21 UNL     1     -27.965  -6.195   1.686  1.00  0.00     0.277 HD
HETATM   26  C14 UNL     1     -30.428  -5.309   3.699  1.00  0.00     0.300 C 
ENDBRANCH  18  19
ENDBRANCH  17  18
ENDBRANCH   7  14
ENDBRANCH   1   4
TORSDOF 5
ENDMDL
