MODEL 1
REMARK VINA RESULT: -7.298182455      0.000      0.000
REMARK  5 active torsions:
REMARK  status: ('A' for Active; 'I' for Inactive)
REMARK    1  A    between atoms: N4_10  and  C4_11 
REMARK    2  A    between atoms: C10_17  and  N5_18 
REMARK    3  A    between atoms: N5_18  and  C11_20 
REMARK    4  A    between atoms: C11_20  and  C12_21 
REMARK    5  A    between atoms: C12_21  and  N6_22 
ROOT
HETATM    1  C1  UNL     1     -28.731  -1.071  -1.751  1.00  0.00     0.183 A 
HETATM    2  N1  UNL     1     -30.025  -0.740  -1.701  1.00  0.00    -0.335 N 
ATOM      3  H1  UNL     1     -30.300   0.242  -1.709  1.00  0.00     0.168 HD
HETATM    4  C2  UNL     1     -30.955  -1.689  -1.642  1.00  0.00     0.157 A 
HETATM    5  C3  UNL     1     -30.567  -3.015  -1.633  1.00  0.00     0.139 A 
HETATM    6  N2  UNL     1     -31.731  -3.694  -1.571  1.00  0.00    -0.279 N 
ATOM      7  H2  UNL     1     -31.819  -4.710  -1.549  1.00  0.00     0.189 HD
HETATM    8  N3  UNL     1     -32.730  -2.851  -1.543  1.00  0.00    -0.238 N 
ATOM      9  H3  UNL     1     -33.712  -3.126  -1.494  1.00  0.00     0.208 HD
HETATM   10  N4  UNL     1     -32.310  -1.602  -1.586  1.00  0.00    -0.255 N 
HETATM   11  C10 UNL     1     -29.251  -3.369  -1.684  1.00  0.00     0.134 A 
HETATM   12  N7  UNL     1     -28.349  -2.340  -1.743  1.00  0.00    -0.337 N 
ATOM     13  H7  UNL     1     -27.353  -2.556  -1.783  1.00  0.00     0.168 HD
ENDROOT
BRANCH  11  14
HETATM   14  N5  UNL     1     -28.856  -4.560  -1.679  1.00  0.00    -0.373 N 
ATOM     15  H5  UNL     1     -29.023  -5.125  -2.512  1.00  0.00     0.161 HD
BRANCH  14  16
HETATM   16  C11 UNL     1     -28.186  -5.171  -0.572  1.00  0.00     0.141 C 
BRANCH  16  17
HETATM   17  C12 UNL     1     -29.176  -5.843   0.372  1.00  0.00     0.141 C 
BRANCH  17  18
HETATM   18  N6  UNL     1     -29.201  -5.111   1.609  1.00  0.00    -0.392 N 
HETATM   19  C13 UNL     1     -30.258  -4.191   1.743  1.00  0.00     0.058 C 
HETATM   20  C14 UNL     1     -30.701  -3.810   3.088  1.00  0.00     0.044 C 
HETATM   21  C15 UNL     1     -30.275  -4.676   4.215  1.00  0.00     0.007 C 
HETATM   22  C16 UNL     1     -29.990  -6.064   3.731  1.00  0.00     0.020 C 
HETATM   23  C17 UNL     1     -28.904  -5.957   2.700  1.00  0.00     0.122 C 
ENDBRANCH  17  18
ENDBRANCH  16  17
ENDBRANCH  14  16
ENDBRANCH  11  14
BRANCH  10  24
HETATM   24  C4  UNL     1     -33.036  -0.348  -1.577  1.00  0.00     0.111 C 
HETATM   25  C5  UNL     1     -33.295   0.104  -2.990  1.00  0.00     0.027 C 
HETATM   26  C6  UNL     1     -34.160   1.360  -2.876  1.00  0.00     0.002 C 
HETATM   27  C7  UNL     1     -35.541   0.850  -2.492  1.00  0.00     0.000 C 
HETATM   28  C8  UNL     1     -35.535  -0.024  -1.287  1.00  0.00     0.002 C 
HETATM   29  C9  UNL     1     -34.223  -0.341  -0.688  1.00  0.00     0.027 C 
ENDBRANCH  10  24
TORSDOF 5
ENDMDL
MODEL 2
REMARK VINA RESULT: -7.015347928      2.135      3.488
REMARK  5 active torsions:
REMARK  status: ('A' for Active; 'I' for Inactive)
REMARK    1  A    between atoms: N4_10  and  C4_11 
REMARK    2  A    between atoms: C10_17  and  N5_18 
REMARK    3  A    between atoms: N5_18  and  C11_20 
REMARK    4  A    between atoms: C11_20  and  C12_21 
REMARK    5  A    between atoms: C12_21  and  N6_22 
ROOT
HETATM    1  C1  UNL     1     -32.660  -2.476  -1.318  1.00  0.00     0.183 A 
HETATM    2  N1  UNL     1     -32.057  -1.284  -1.292  1.00  0.00    -0.335 N 
ATOM      3  H1  UNL     1     -32.607  -0.439  -1.134  1.00  0.00     0.168 HD
HETATM    4  C2  UNL     1     -30.743  -1.197  -1.470  1.00  0.00     0.157 A 
HETATM    5  C3  UNL     1     -30.011  -2.350  -1.682  1.00  0.00     0.139 A 
HETATM    6  N2  UNL     1     -28.743  -1.910  -1.819  1.00  0.00    -0.279 N 
ATOM      7  H2  UNL     1     -27.931  -2.503  -1.988  1.00  0.00     0.189 HD
HETATM    8  N3  UNL     1     -28.714  -0.609  -1.702  1.00  0.00    -0.238 N 
ATOM      9  H3  UNL     1     -27.866  -0.045  -1.770  1.00  0.00     0.208 HD
HETATM   10  N4  UNL     1     -29.918  -0.116  -1.485  1.00  0.00    -0.255 N 
HETATM   11  C10 UNL     1     -30.612  -3.573  -1.710  1.00  0.00     0.134 A 
HETATM   12  N7  UNL     1     -31.968  -3.588  -1.520  1.00  0.00    -0.337 N 
ATOM     13  H7  UNL     1     -32.460  -4.481  -1.533  1.00  0.00     0.168 HD
ENDROOT
BRANCH  11  14
HETATM   14  N5  UNL     1     -29.985  -4.645  -1.898  1.00  0.00    -0.373 N 
ATOM     15  H5  UNL     1     -29.844  -4.957  -2.859  1.00  0.00     0.161 HD
BRANCH  14  16
HETATM   16  C11 UNL     1     -29.459  -5.454  -0.842  1.00  0.00     0.141 C 
BRANCH  16  17
HETATM   17  C12 UNL     1     -29.028  -4.600   0.346  1.00  0.00     0.141 C 
BRANCH  17  18
HETATM   18  N6  UNL     1     -29.805  -4.986   1.493  1.00  0.00    -0.392 N 
HETATM   19  C13 UNL     1     -29.119  -5.748   2.457  1.00  0.00     0.058 C 
HETATM   20  C14 UNL     1     -29.594  -5.732   3.844  1.00  0.00     0.044 C 
HETATM   21  C15 UNL     1     -30.525  -4.644   4.231  1.00  0.00     0.007 C 
HETATM   22  C16 UNL     1     -30.344  -3.456   3.339  1.00  0.00     0.020 C 
HETATM   23  C17 UNL     1     -30.614  -3.915   1.934  1.00  0.00     0.122 C 
ENDBRANCH  17  18
ENDBRANCH  16  17
ENDBRANCH  14  16
ENDBRANCH  11  14
BRANCH  10  24
HETATM   24  C4  UNL     1     -30.374   1.246  -1.294  1.00  0.00     0.111 C 
HETATM   25  C5  UNL     1     -30.876   1.426   0.114  1.00  0.00     0.027 C 
HETATM   26  C6  UNL     1     -31.220   2.910   0.250  1.00  0.00     0.002 C 
HETATM   27  C7  UNL     1     -29.876   3.616   0.345  1.00  0.00     0.000 C 
HETATM   28  C8  UNL     1     -28.952   3.282  -0.774  1.00  0.00     0.002 C 
HETATM   29  C9  UNL     1     -29.413   2.277  -1.754  1.00  0.00     0.027 C 
ENDBRANCH  10  24
TORSDOF 5
ENDMDL
MODEL 3
REMARK VINA RESULT: -7.011721690      2.404      6.777
REMARK  5 active torsions:
REMARK  status: ('A' for Active; 'I' for Inactive)
REMARK    1  A    between atoms: N4_10  and  C4_11 
REMARK    2  A    between atoms: C10_17  and  N5_18 
REMARK    3  A    between atoms: N5_18  and  C11_20 
REMARK    4  A    between atoms: C11_20  and  C12_21 
REMARK    5  A    between atoms: C12_21  and  N6_22 
ROOT
HETATM    1  C1  UNL     1     -31.043  -1.203   1.705  1.00  0.00     0.183 A 
HETATM    2  N1  UNL     1     -30.314  -2.011   0.929  1.00  0.00    -0.335 N 
ATOM      3  H1  UNL     1     -29.320  -2.139   1.119  1.00  0.00     0.168 HD
HETATM    4  C2  UNL     1     -30.883  -2.649  -0.090  1.00  0.00     0.157 A 
HETATM    5  C3  UNL     1     -32.231  -2.468  -0.334  1.00  0.00     0.139 A 
HETATM    6  N2  UNL     1     -32.474  -3.243  -1.411  1.00  0.00    -0.279 N 
ATOM      7  H2  UNL     1     -33.380  -3.350  -1.865  1.00  0.00     0.189 HD
HETATM    8  N3  UNL     1     -31.371  -3.838  -1.781  1.00  0.00    -0.238 N 
ATOM      9  H3  UNL     1     -31.301  -4.476  -2.575  1.00  0.00     0.208 HD
HETATM   10  N4  UNL     1     -30.359  -3.509  -1.003  1.00  0.00    -0.255 N 
HETATM   11  C10 UNL     1     -32.987  -1.647   0.449  1.00  0.00     0.134 A 
HETATM   12  N7  UNL     1     -32.336  -1.022   1.479  1.00  0.00    -0.337 N 
ATOM     13  H7  UNL     1     -32.862  -0.399   2.092  1.00  0.00     0.168 HD
ENDROOT
BRANCH  11  14
HETATM   14  N5  UNL     1     -34.214  -1.455   0.263  1.00  0.00    -0.373 N 
ATOM     15  H5  UNL     1     -34.840  -2.258   0.319  1.00  0.00     0.161 HD
BRANCH  14  16
HETATM   16  C11 UNL     1     -34.783  -0.173  -0.023  1.00  0.00     0.141 C 
BRANCH  16  17
HETATM   17  C12 UNL     1     -34.662   0.168  -1.503  1.00  0.00     0.141 C 
BRANCH  17  18
HETATM   18  N6  UNL     1     -33.684   1.211  -1.655  1.00  0.00    -0.392 N 
HETATM   19  C13 UNL     1     -33.427   1.969  -0.496  1.00  0.00     0.058 C 
HETATM   20  C14 UNL     1     -32.135   2.649  -0.365  1.00  0.00     0.044 C 
HETATM   21  C15 UNL     1     -31.041   2.210  -1.267  1.00  0.00     0.007 C 
HETATM   22  C16 UNL     1     -31.263   0.799  -1.712  1.00  0.00     0.020 C 
HETATM   23  C17 UNL     1     -32.586   0.763  -2.422  1.00  0.00     0.122 C 
ENDBRANCH  17  18
ENDBRANCH  16  17
ENDBRANCH  14  16
ENDBRANCH  11  14
BRANCH  10  24
HETATM   24  C4  UNL     1     -28.965  -3.909  -1.024  1.00  0.00     0.111 C 
HETATM   25  C5  UNL     1     -28.816  -5.205  -1.776  1.00  0.00     0.027 C 
HETATM   26  C6  UNL     1     -27.312  -5.478  -1.845  1.00  0.00     0.002 C 
HETATM   27  C7  UNL     1     -26.784  -4.496  -2.881  1.00  0.00     0.000 C 
HETATM   28  C8  UNL     1     -27.157  -3.083  -2.600  1.00  0.00     0.002 C 
HETATM   29  C9  UNL     1     -28.033  -2.832  -1.437  1.00  0.00     0.027 C 
ENDBRANCH  10  24
TORSDOF 5
ENDMDL
MODEL 4
REMARK VINA RESULT: -6.992656156      1.801      3.646
REMARK  5 active torsions:
REMARK  status: ('A' for Active; 'I' for Inactive)
REMARK    1  A    between atoms: N4_10  and  C4_11 
REMARK    2  A    between atoms: C10_17  and  N5_18 
REMARK    3  A    between atoms: N5_18  and  C11_20 
REMARK    4  A    between atoms: C11_20  and  C12_21 
REMARK    5  A    between atoms: C12_21  and  N6_22 
ROOT
HETATM    1  C1  UNL     1     -32.156  -1.112   2.685  1.00  0.00     0.183 A 
HETATM    2  N1  UNL     1     -32.792  -0.687   1.589  1.00  0.00    -0.335 N 
ATOM      3  H1  UNL     1     -33.295   0.201   1.604  1.00  0.00     0.168 HD
HETATM    4  C2  UNL     1     -32.770  -1.418   0.479  1.00  0.00     0.157 A 
HETATM    5  C3  UNL     1     -32.084  -2.618   0.473  1.00  0.00     0.139 A 
HETATM    6  N2  UNL     1     -32.261  -3.088  -0.780  1.00  0.00    -0.279 N 
ATOM      7  H2  UNL     1     -31.884  -3.965  -1.137  1.00  0.00     0.189 HD
HETATM    8  N3  UNL     1     -32.990  -2.246  -1.465  1.00  0.00    -0.238 N 
ATOM      9  H3  UNL     1     -33.261  -2.383  -2.440  1.00  0.00     0.208 HD
HETATM   10  N4  UNL     1     -33.331  -1.199  -0.741  1.00  0.00    -0.255 N 
HETATM   11  C10 UNL     1     -31.430  -3.065   1.582  1.00  0.00     0.134 A 
HETATM   12  N7  UNL     1     -31.495  -2.261   2.689  1.00  0.00    -0.337 N 
ATOM     13  H7  UNL     1     -31.021  -2.555   3.543  1.00  0.00     0.168 HD
ENDROOT
BRANCH  11  14
HETATM   14  N5  UNL     1     -30.795  -4.147   1.620  1.00  0.00    -0.373 N 
ATOM     15  H5  UNL     1     -31.311  -5.000   1.836  1.00  0.00     0.161 HD
BRANCH  14  16
HETATM   16  C11 UNL     1     -29.389  -4.252   1.377  1.00  0.00     0.141 C 
BRANCH  16  17
HETATM   17  C12 UNL     1     -29.083  -5.343   0.357  1.00  0.00     0.141 C 
BRANCH  17  18
HETATM   18  N6  UNL     1     -28.779  -4.720  -0.903  1.00  0.00    -0.392 N 
HETATM   19  C13 UNL     1     -28.575  -3.328  -0.854  1.00  0.00     0.058 C 
HETATM   20  C14 UNL     1     -27.760  -2.693  -1.893  1.00  0.00     0.044 C 
HETATM   21  C15 UNL     1     -26.897  -3.577  -2.716  1.00  0.00     0.007 C 
HETATM   22  C16 UNL     1     -26.567  -4.831  -1.969  1.00  0.00     0.020 C 
HETATM   23  C17 UNL     1     -27.870  -5.507  -1.645  1.00  0.00     0.122 C 
ENDBRANCH  17  18
ENDBRANCH  16  17
ENDBRANCH  14  16
ENDBRANCH  11  14
BRANCH  10  24
HETATM   24  C4  UNL     1     -34.120  -0.027  -1.063  1.00  0.00     0.111 C 
HETATM   25  C5  UNL     1     -33.871   0.380  -2.492  1.00  0.00     0.027 C 
HETATM   26  C6  UNL     1     -34.829   1.540  -2.770  1.00  0.00     0.002 C 
HETATM   27  C7  UNL     1     -36.199   0.892  -2.903  1.00  0.00     0.000 C 
HETATM   28  C8  UNL     1     -36.564   0.035  -1.742  1.00  0.00     0.002 C 
HETATM   29  C9  UNL     1     -35.549  -0.136  -0.682  1.00  0.00     0.027 C 
ENDBRANCH  10  24
TORSDOF 5
ENDMDL
MODEL 5
REMARK VINA RESULT: -6.932071598      2.577      6.251
REMARK  5 active torsions:
REMARK  status: ('A' for Active; 'I' for Inactive)
REMARK    1  A    between atoms: N4_10  and  C4_11 
REMARK    2  A    between atoms: C10_17  and  N5_18 
REMARK    3  A    between atoms: N5_18  and  C11_20 
REMARK    4  A    between atoms: C11_20  and  C12_21 
REMARK    5  A    between atoms: C12_21  and  N6_22 
ROOT
HETATM    1  C1  UNL     1     -29.058  -5.547   2.385  1.00  0.00     0.183 A 
HETATM    2  N1  UNL     1     -28.997  -5.069   1.139  1.00  0.00    -0.335 N 
ATOM      3  H1  UNL     1     -28.218  -5.327   0.533  1.00  0.00     0.168 HD
HETATM    4  C2  UNL     1     -29.948  -4.257   0.688  1.00  0.00     0.157 A 
HETATM    5  C3  UNL     1     -30.997  -3.917   1.521  1.00  0.00     0.139 A 
HETATM    6  N2  UNL     1     -31.762  -3.102   0.765  1.00  0.00    -0.279 N 
ATOM      7  H2  UNL     1     -32.630  -2.662   1.069  1.00  0.00     0.189 HD
HETATM    8  N3  UNL     1     -31.221  -2.964  -0.417  1.00  0.00    -0.238 N 
ATOM      9  H3  UNL     1     -31.615  -2.393  -1.165  1.00  0.00     0.208 HD
HETATM   10  N4  UNL     1     -30.102  -3.654  -0.520  1.00  0.00    -0.255 N 
HETATM   11  C10 UNL     1     -31.075  -4.397   2.794  1.00  0.00     0.134 A 
HETATM   12  N7  UNL     1     -30.060  -5.227   3.192  1.00  0.00    -0.337 N 
ATOM     13  H7  UNL     1     -30.076  -5.611   4.137  1.00  0.00     0.168 HD
ENDROOT
BRANCH  11  14
HETATM   14  N5  UNL     1     -32.010  -4.115   3.583  1.00  0.00    -0.373 N 
ATOM     15  H5  UNL     1     -32.655  -4.858   3.850  1.00  0.00     0.161 HD
BRANCH  14  16
HETATM   16  C11 UNL     1     -32.223  -2.808   4.127  1.00  0.00     0.141 C 
BRANCH  16  17
HETATM   17  C12 UNL     1     -33.624  -2.675   4.713  1.00  0.00     0.141 C 
BRANCH  17  18
HETATM   18  N6  UNL     1     -34.420  -1.877   3.820  1.00  0.00    -0.392 N 
HETATM   19  C13 UNL     1     -33.708  -0.928   3.063  1.00  0.00     0.058 C 
HETATM   20  C14 UNL     1     -34.272  -0.467   1.791  1.00  0.00     0.044 C 
HETATM   21  C15 UNL     1     -35.359  -1.282   1.194  1.00  0.00     0.007 C 
HETATM   22  C16 UNL     1     -35.272  -2.700   1.667  1.00  0.00     0.020 C 
HETATM   23  C17 UNL     1     -35.387  -2.672   3.164  1.00  0.00     0.122 C 
ENDBRANCH  17  18
ENDBRANCH  16  17
ENDBRANCH  14  16
ENDBRANCH  11  14
BRANCH  10  24
HETATM   24  C4  UNL     1     -29.169  -3.805  -1.619  1.00  0.00     0.111 C 
HETATM   25  C5  UNL     1     -27.998  -2.878  -1.426  1.00  0.00     0.027 C 
HETATM   26  C6  UNL     1     -27.022  -3.195  -2.561  1.00  0.00     0.002 C 
HETATM   27  C7  UNL     1     -26.389  -4.522  -2.174  1.00  0.00     0.000 C 
HETATM   28  C8  UNL     1     -27.385  -5.589  -1.881  1.00  0.00     0.002 C 
HETATM   29  C9  UNL     1     -28.812  -5.212  -1.922  1.00  0.00     0.027 C 
ENDBRANCH  10  24
TORSDOF 5
ENDMDL
