MODEL 1
REMARK VINA RESULT: -7.501708227      0.000      0.000
REMARK  7 active torsions:
REMARK  status: ('A' for Active; 'I' for Inactive)
REMARK    1  A    between atoms: C2_2  and  O1_4 
REMARK    2  A    between atoms: O1_4  and  C4_5 
REMARK    3  A    between atoms: C11_15  and  O5_16 
REMARK    4  A    between atoms: O5_16  and  C12_17 
REMARK    5  A    between atoms: C12_17  and  C13_19 
REMARK    6  A    between atoms: C13_19  and  O7_20 
REMARK    7  A    between atoms: C13_19  and  C14_22 
ROOT
HETATM    1  C4  UNL     1     -31.482  -2.554   0.267  1.00  0.00     0.313 C 
HETATM    2  O2  UNL     1     -32.286  -1.627   1.027  1.00  0.00    -0.286 OA
HETATM    3  C5  UNL     1     -31.591  -1.259   2.167  1.00  0.00     0.264 C 
HETATM    4  O3  UNL     1     -31.976  -0.476   3.059  1.00  0.00    -0.265 OA
HETATM    5  C6  UNL     1     -30.289  -1.964   2.156  1.00  0.00     0.157 C 
HETATM    6  C7  UNL     1     -30.705  -3.206   1.355  1.00  0.00     0.147 C 
HETATM    7  O4  UNL     1     -31.555  -3.936   2.169  1.00  0.00    -0.367 OA
HETATM    8  C8  UNL     1     -30.845  -4.942   2.769  1.00  0.00     0.121 C 
HETATM    9  C9  UNL     1     -30.795  -4.819   4.278  1.00  0.00     0.040 C 
HETATM   10  C10 UNL     1     -29.454  -4.956   2.228  1.00  0.00     0.067 C 
HETATM   11  C11 UNL     1     -29.568  -4.049   0.991  1.00  0.00     0.174 C 
ENDROOT
BRANCH  11  12
HETATM   12  O5  UNL     1     -29.680  -4.828  -0.160  1.00  0.00    -0.311 OA
BRANCH  12  13
HETATM   13  C12 UNL     1     -28.560  -5.402  -0.739  1.00  0.00     0.289 C 
HETATM   14  O6  UNL     1     -27.867  -6.153  -0.008  1.00  0.00    -0.262 OA
BRANCH  13  15
HETATM   15  C13 UNL     1     -28.148  -5.180  -2.144  1.00  0.00     0.225 C 
BRANCH  15  16
HETATM   16  O7  UNL     1     -27.522  -6.329  -2.616  1.00  0.00    -0.385 OA
ATOM     17  H7  UNL     1     -26.614  -6.320  -2.337  1.00  0.00     0.210 HD
ENDBRANCH  15  16
BRANCH  15  18
HETATM   18  C14 UNL     1     -27.167  -4.045  -2.305  1.00  0.00    -0.016 C 
HETATM   19  C15 UNL     1     -27.112  -3.748  -3.809  1.00  0.00     0.018 C 
HETATM   20  C16 UNL     1     -25.788  -4.390  -1.868  1.00  0.00     0.018 C 
HETATM   21  C17 UNL     1     -27.651  -2.762  -1.655  1.00  0.00     0.018 C 
ENDBRANCH  15  18
ENDBRANCH  13  15
ENDBRANCH  12  13
ENDBRANCH  11  12
BRANCH   1  22
HETATM   22  O1  UNL     1     -30.671  -1.738  -0.558  1.00  0.00    -0.322 OA
BRANCH  22  23
HETATM   23  C2  UNL     1     -31.156  -1.086  -1.681  1.00  0.00     0.036 C 
HETATM   24  C1  UNL     1     -32.425  -1.090  -2.028  1.00  0.00     0.045 C 
HETATM   25  C3  UNL     1     -30.199  -0.342  -2.540  1.00  0.00     0.075 C 
ENDBRANCH  22  23
ENDBRANCH   1  22
TORSDOF 7
ENDMDL
MODEL 2
REMARK VINA RESULT: -7.500406082      1.163      3.761
REMARK  7 active torsions:
REMARK  status: ('A' for Active; 'I' for Inactive)
REMARK    1  A    between atoms: C2_2  and  O1_4 
REMARK    2  A    between atoms: O1_4  and  C4_5 
REMARK    3  A    between atoms: C11_15  and  O5_16 
REMARK    4  A    between atoms: O5_16  and  C12_17 
REMARK    5  A    between atoms: C12_17  and  C13_19 
REMARK    6  A    between atoms: C13_19  and  O7_20 
REMARK    7  A    between atoms: C13_19  and  C14_22 
ROOT
HETATM    1  C4  UNL     1     -30.291  -2.559   2.026  1.00  0.00     0.313 C 
HETATM    2  O2  UNL     1     -30.898  -1.605   2.925  1.00  0.00    -0.286 OA
HETATM    3  C5  UNL     1     -32.105  -1.187   2.389  1.00  0.00     0.264 C 
HETATM    4  O3  UNL     1     -32.901  -0.365   2.886  1.00  0.00    -0.265 OA
HETATM    5  C6  UNL     1     -32.299  -1.889   1.099  1.00  0.00     0.157 C 
HETATM    6  C7  UNL     1     -30.825  -2.089   0.720  1.00  0.00     0.147 C 
HETATM    7  O4  UNL     1     -30.317  -0.834   0.426  1.00  0.00    -0.367 OA
HETATM    8  C8  UNL     1     -30.322  -0.657  -0.931  1.00  0.00     0.121 C 
HETATM    9  C9  UNL     1     -31.221   0.474  -1.383  1.00  0.00     0.040 C 
HETATM   10  C10 UNL     1     -30.752  -1.924  -1.594  1.00  0.00     0.067 C 
HETATM   11  C11 UNL     1     -30.656  -2.949  -0.450  1.00  0.00     0.174 C 
ENDROOT
BRANCH  11  12
HETATM   12  O5  UNL     1     -29.469  -3.671  -0.559  1.00  0.00    -0.311 OA
BRANCH  12  13
HETATM   13  C12 UNL     1     -29.366  -4.739  -1.437  1.00  0.00     0.289 C 
HETATM   14  O6  UNL     1     -30.442  -5.193  -1.902  1.00  0.00    -0.262 OA
BRANCH  13  15
HETATM   15  C13 UNL     1     -28.084  -5.355  -1.844  1.00  0.00     0.225 C 
BRANCH  15  16
HETATM   16  O7  UNL     1     -27.472  -5.903  -0.720  1.00  0.00    -0.385 OA
ATOM     17  H7  UNL     1     -26.688  -5.404  -0.524  1.00  0.00     0.210 HD
ENDBRANCH  15  16
BRANCH  15  18
HETATM   18  C14 UNL     1     -27.109  -4.367  -2.438  1.00  0.00    -0.016 C 
HETATM   19  C15 UNL     1     -27.140  -4.607  -3.953  1.00  0.00     0.018 C 
HETATM   20  C16 UNL     1     -25.709  -4.573  -1.983  1.00  0.00     0.018 C 
HETATM   21  C17 UNL     1     -27.551  -2.928  -2.244  1.00  0.00     0.018 C 
ENDBRANCH  15  18
ENDBRANCH  13  15
ENDBRANCH  12  13
ENDBRANCH  11  12
BRANCH   1  22
HETATM   22  O1  UNL     1     -30.832  -3.810   2.409  1.00  0.00    -0.322 OA
BRANCH  22  23
HETATM   23  C2  UNL     1     -30.112  -4.750   3.132  1.00  0.00     0.036 C 
HETATM   24  C1  UNL     1     -30.251  -4.928   4.428  1.00  0.00     0.045 C 
HETATM   25  C3  UNL     1     -29.134  -5.604   2.410  1.00  0.00     0.075 C 
ENDBRANCH  22  23
ENDBRANCH   1  22
TORSDOF 7
ENDMDL
MODEL 3
REMARK VINA RESULT: -7.206355186      1.581      2.182
REMARK  7 active torsions:
REMARK  status: ('A' for Active; 'I' for Inactive)
REMARK    1  A    between atoms: C2_2  and  O1_4 
REMARK    2  A    between atoms: O1_4  and  C4_5 
REMARK    3  A    between atoms: C11_15  and  O5_16 
REMARK    4  A    between atoms: O5_16  and  C12_17 
REMARK    5  A    between atoms: C12_17  and  C13_19 
REMARK    6  A    between atoms: C13_19  and  O7_20 
REMARK    7  A    between atoms: C13_19  and  C14_22 
ROOT
HETATM    1  C4  UNL     1     -31.930  -1.605   0.477  1.00  0.00     0.313 C 
HETATM    2  O2  UNL     1     -32.725  -0.410   0.625  1.00  0.00    -0.286 OA
HETATM    3  C5  UNL     1     -32.512   0.120   1.886  1.00  0.00     0.264 C 
HETATM    4  O3  UNL     1     -33.032   1.147   2.366  1.00  0.00    -0.265 OA
HETATM    5  C6  UNL     1     -31.543  -0.753   2.590  1.00  0.00     0.157 C 
HETATM    6  C7  UNL     1     -31.872  -2.077   1.886  1.00  0.00     0.147 C 
HETATM    7  O4  UNL     1     -33.137  -2.449   2.311  1.00  0.00    -0.367 OA
HETATM    8  C8  UNL     1     -33.018  -3.370   3.317  1.00  0.00     0.121 C 
HETATM    9  C9  UNL     1     -33.582  -2.889   4.638  1.00  0.00     0.040 C 
HETATM   10  C10 UNL     1     -31.579  -3.725   3.495  1.00  0.00     0.067 C 
HETATM   11  C11 UNL     1     -30.932  -3.144   2.225  1.00  0.00     0.174 C 
ENDROOT
BRANCH  11  12
HETATM   12  O5  UNL     1     -30.735  -4.157   1.288  1.00  0.00    -0.311 OA
BRANCH  12  13
HETATM   13  C12 UNL     1     -29.491  -4.748   1.134  1.00  0.00     0.289 C 
HETATM   14  O6  UNL     1     -28.688  -4.632   2.093  1.00  0.00    -0.262 OA
BRANCH  13  15
HETATM   15  C13 UNL     1     -29.072  -5.491  -0.075  1.00  0.00     0.225 C 
BRANCH  15  16
HETATM   16  O7  UNL     1     -27.909  -6.200   0.213  1.00  0.00    -0.385 OA
ATOM     17  H7  UNL     1     -27.693  -6.074   1.130  1.00  0.00     0.210 HD
ENDBRANCH  15  16
BRANCH  15  18
HETATM   18  C14 UNL     1     -28.762  -4.595  -1.249  1.00  0.00    -0.016 C 
HETATM   19  C15 UNL     1     -30.107  -4.318  -1.933  1.00  0.00     0.018 C 
HETATM   20  C16 UNL     1     -27.872  -5.228  -2.258  1.00  0.00     0.018 C 
HETATM   21  C17 UNL     1     -28.236  -3.237  -0.819  1.00  0.00     0.018 C 
ENDBRANCH  15  18
ENDBRANCH  13  15
ENDBRANCH  12  13
ENDBRANCH  11  12
BRANCH   1  22
HETATM   22  O1  UNL     1     -30.674  -1.148   0.011  1.00  0.00    -0.322 OA
BRANCH  22  23
HETATM   23  C2  UNL     1     -30.538  -0.303  -1.080  1.00  0.00     0.036 C 
HETATM   24  C1  UNL     1     -30.799  -0.669  -2.316  1.00  0.00     0.045 C 
HETATM   25  C3  UNL     1     -30.074   1.089  -0.846  1.00  0.00     0.075 C 
ENDBRANCH  22  23
ENDBRANCH   1  22
TORSDOF 7
ENDMDL
MODEL 4
REMARK VINA RESULT: -7.179686950      1.755      2.530
REMARK  7 active torsions:
REMARK  status: ('A' for Active; 'I' for Inactive)
REMARK    1  A    between atoms: C2_2  and  O1_4 
REMARK    2  A    between atoms: O1_4  and  C4_5 
REMARK    3  A    between atoms: C11_15  and  O5_16 
REMARK    4  A    between atoms: O5_16  and  C12_17 
REMARK    5  A    between atoms: C12_17  and  C13_19 
REMARK    6  A    between atoms: C13_19  and  O7_20 
REMARK    7  A    between atoms: C13_19  and  C14_22 
ROOT
HETATM    1  C4  UNL     1     -33.287  -2.578   1.847  1.00  0.00     0.313 C 
HETATM    2  O2  UNL     1     -33.914  -2.283   3.114  1.00  0.00    -0.286 OA
HETATM    3  C5  UNL     1     -32.951  -1.823   3.996  1.00  0.00     0.264 C 
HETATM    4  O3  UNL     1     -33.125  -1.476   5.182  1.00  0.00    -0.265 OA
HETATM    5  C6  UNL     1     -31.650  -1.812   3.288  1.00  0.00     0.157 C 
HETATM    6  C7  UNL     1     -31.919  -2.951   2.294  1.00  0.00     0.147 C 
HETATM    7  O4  UNL     1     -31.967  -4.121   3.035  1.00  0.00    -0.367 OA
HETATM    8  C8  UNL     1     -30.755  -4.751   2.955  1.00  0.00     0.121 C 
HETATM    9  C9  UNL     1     -30.053  -4.870   4.292  1.00  0.00     0.040 C 
HETATM   10  C10 UNL     1     -29.876  -4.013   2.000  1.00  0.00     0.067 C 
HETATM   11  C11 UNL     1     -30.868  -3.079   1.286  1.00  0.00     0.174 C 
ENDROOT
BRANCH  11  12
HETATM   12  O5  UNL     1     -31.218  -3.617   0.048  1.00  0.00    -0.311 OA
BRANCH  12  13
HETATM   13  C12 UNL     1     -30.518  -3.273  -1.098  1.00  0.00     0.289 C 
HETATM   14  O6  UNL     1     -30.458  -2.049  -1.377  1.00  0.00    -0.262 OA
BRANCH  13  15
HETATM   15  C13 UNL     1     -29.855  -4.253  -1.987  1.00  0.00     0.225 C 
BRANCH  15  16
HETATM   16  O7  UNL     1     -30.578  -5.442  -1.963  1.00  0.00    -0.385 OA
ATOM     17  H7  UNL     1     -30.984  -5.570  -2.812  1.00  0.00     0.210 HD
ENDBRANCH  15  16
BRANCH  15  18
HETATM   18  C14 UNL     1     -28.445  -4.585  -1.562  1.00  0.00    -0.016 C 
HETATM   19  C15 UNL     1     -27.762  -5.176  -2.802  1.00  0.00     0.018 C 
HETATM   20  C16 UNL     1     -28.379  -5.609  -0.486  1.00  0.00     0.018 C 
HETATM   21  C17 UNL     1     -27.641  -3.348  -1.204  1.00  0.00     0.018 C 
ENDBRANCH  15  18
ENDBRANCH  13  15
ENDBRANCH  12  13
ENDBRANCH  11  12
BRANCH   1  22
HETATM   22  O1  UNL     1     -33.306  -1.351   1.141  1.00  0.00    -0.322 OA
BRANCH  22  23
HETATM   23  C2  UNL     1     -34.136  -1.121   0.054  1.00  0.00     0.036 C 
HETATM   24  C1  UNL     1     -35.421  -1.401   0.053  1.00  0.00     0.045 C 
HETATM   25  C3  UNL     1     -33.548  -0.529  -1.175  1.00  0.00     0.075 C 
ENDBRANCH  22  23
ENDBRANCH   1  22
TORSDOF 7
ENDMDL
MODEL 5
REMARK VINA RESULT: -7.136796115      2.210      4.640
REMARK  7 active torsions:
REMARK  status: ('A' for Active; 'I' for Inactive)
REMARK    1  A    between atoms: C2_2  and  O1_4 
REMARK    2  A    between atoms: O1_4  and  C4_5 
REMARK    3  A    between atoms: C11_15  and  O5_16 
REMARK    4  A    between atoms: O5_16  and  C12_17 
REMARK    5  A    between atoms: C12_17  and  C13_19 
REMARK    6  A    between atoms: C13_19  and  O7_20 
REMARK    7  A    between atoms: C13_19  and  C14_22 
ROOT
HETATM    1  C4  UNL     1     -32.164  -3.026   3.706  1.00  0.00     0.313 C 
HETATM    2  O2  UNL     1     -33.388  -3.241   4.441  1.00  0.00    -0.286 OA
HETATM    3  C5  UNL     1     -34.436  -3.361   3.544  1.00  0.00     0.264 C 
HETATM    4  O3  UNL     1     -35.638  -3.551   3.818  1.00  0.00    -0.265 OA
HETATM    5  C6  UNL     1     -33.885  -3.222   2.176  1.00  0.00     0.157 C 
HETATM    6  C7  UNL     1     -32.683  -2.325   2.501  1.00  0.00     0.147 C 
HETATM    7  O4  UNL     1     -33.196  -1.089   2.859  1.00  0.00    -0.367 OA
HETATM    8  C8  UNL     1     -33.137  -0.250   1.778  1.00  0.00     0.121 C 
HETATM    9  C9  UNL     1     -34.500   0.208   1.302  1.00  0.00     0.040 C 
HETATM   10  C10 UNL     1     -32.429  -0.937   0.658  1.00  0.00     0.067 C 
HETATM   11  C11 UNL     1     -31.788  -2.147   1.359  1.00  0.00     0.174 C 
ENDROOT
BRANCH  11  12
HETATM   12  O5  UNL     1     -30.444  -1.885   1.623  1.00  0.00    -0.311 OA
BRANCH  12  13
HETATM   13  C12 UNL     1     -29.463  -2.805   1.287  1.00  0.00     0.289 C 
HETATM   14  O6  UNL     1     -28.329  -2.634   1.800  1.00  0.00    -0.262 OA
BRANCH  13  15
HETATM   15  C13 UNL     1     -29.681  -3.950   0.374  1.00  0.00     0.225 C 
BRANCH  15  16
HETATM   16  O7  UNL     1     -28.737  -4.934   0.655  1.00  0.00    -0.385 OA
ATOM     17  H7  UNL     1     -28.006  -4.837   0.057  1.00  0.00     0.210 HD
ENDBRANCH  15  16
BRANCH  15  18
HETATM   18  C14 UNL     1     -29.522  -3.590  -1.083  1.00  0.00    -0.016 C 
HETATM   19  C15 UNL     1     -28.938  -4.836  -1.762  1.00  0.00     0.018 C 
HETATM   20  C16 UNL     1     -28.570  -2.471  -1.314  1.00  0.00     0.018 C 
HETATM   21  C17 UNL     1     -30.853  -3.339  -1.767  1.00  0.00     0.018 C 
ENDBRANCH  15  18
ENDBRANCH  13  15
ENDBRANCH  12  13
ENDBRANCH  11  12
BRANCH   1  22
HETATM   22  O1  UNL     1     -31.688  -4.325   3.408  1.00  0.00    -0.322 OA
BRANCH  22  23
HETATM   23  C2  UNL     1     -30.503  -4.829   3.924  1.00  0.00     0.036 C 
HETATM   24  C1  UNL     1     -29.637  -4.099   4.593  1.00  0.00     0.045 C 
HETATM   25  C3  UNL     1     -30.191  -6.265   3.713  1.00  0.00     0.075 C 
ENDBRANCH  22  23
ENDBRANCH   1  22
TORSDOF 7
ENDMDL
