MODEL 1
REMARK VINA RESULT: -8.204036735      0.000      0.000
REMARK  3 active torsions:
REMARK  status: ('A' for Active; 'I' for Inactive)
REMARK    1  A    between atoms: C7_9  and  C8_10 
REMARK    2  A    between atoms: C10_13  and  C11_14 
REMARK    3  A    between atoms: C11_14  and  O4_15 
ROOT
HETATM    1  C1  UNL     1     -30.208   1.480  -0.276  1.00  0.00     0.014 C 
HETATM    2  C2  UNL     1     -30.713   1.070  -1.548  1.00  0.00     0.025 C 
HETATM    3  C3  UNL     1     -31.931   0.339  -1.826  1.00  0.00     0.015 C 
HETATM    4  C4  UNL     1     -31.899   0.373  -3.328  1.00  0.00    -0.023 C 
HETATM    5  C5  UNL     1     -30.626   0.326  -3.678  1.00  0.00     0.005 C 
HETATM    6  C6  UNL     1     -29.750   0.264  -2.455  1.00  0.00     0.187 C 
HETATM    7  O1  UNL     1     -29.519  -0.977  -1.967  1.00  0.00    -0.230 OA
HETATM    8  O2  UNL     1     -29.490  -1.062  -0.664  1.00  0.00    -0.223 OA
HETATM    9  C7  UNL     1     -30.264  -2.156  -0.164  1.00  0.00     0.150 C 
HETATM   10  C12 UNL     1     -29.903  -2.337   1.288  1.00  0.00     0.054 C 
HETATM   11  C13 UNL     1     -31.113  -2.244   2.197  1.00  0.00     0.081 C 
HETATM   12  C14 UNL     1     -32.227  -3.082   1.622  1.00  0.00     0.127 C 
HETATM   13  O6  UNL     1     -32.758  -3.989   2.193  1.00  0.00    -0.298 OA
HETATM   14  C15 UNL     1     -32.656  -2.712   0.249  1.00  0.00     0.086 C 
HETATM   15  C16 UNL     1     -31.679  -1.662  -0.248  1.00  0.00     0.036 C 
HETATM   16  C17 UNL     1     -32.086  -1.106  -1.575  1.00  0.00     0.017 C 
ENDROOT
BRANCH   9  17
HETATM   17  C8  UNL     1     -29.971  -3.387  -0.959  1.00  0.00     0.298 C 
HETATM   18  O3  UNL     1     -30.264  -4.583  -0.369  1.00  0.00    -0.355 OA
HETATM   19  C9  UNL     1     -29.327  -5.507  -0.884  1.00  0.00     0.205 C 
HETATM   20  C10 UNL     1     -28.124  -4.604  -1.041  1.00  0.00     0.172 C 
HETATM   21  O5  UNL     1     -28.688  -3.427  -1.466  1.00  0.00    -0.349 OA
BRANCH  20  22
HETATM   22  C11 UNL     1     -27.189  -5.135  -2.116  1.00  0.00     0.198 C 
BRANCH  22  23
HETATM   23  O4  UNL     1     -25.944  -5.466  -1.600  1.00  0.00    -0.398 OA
ATOM     24  H4  UNL     1     -25.238  -5.104  -2.122  1.00  0.00     0.209 HD
ENDBRANCH  22  23
ENDBRANCH  20  22
ENDBRANCH   9  17
TORSDOF 3
ENDMDL
MODEL 2
REMARK VINA RESULT: -8.011164064      1.440      1.831
REMARK  3 active torsions:
REMARK  status: ('A' for Active; 'I' for Inactive)
REMARK    1  A    between atoms: C7_9  and  C8_10 
REMARK    2  A    between atoms: C10_13  and  C11_14 
REMARK    3  A    between atoms: C11_14  and  O4_15 
ROOT
HETATM    1  C1  UNL     1     -31.488   2.162  -0.637  1.00  0.00     0.014 C 
HETATM    2  C2  UNL     1     -31.042   1.494  -1.819  1.00  0.00     0.025 C 
HETATM    3  C3  UNL     1     -31.656   0.367  -2.488  1.00  0.00     0.015 C 
HETATM    4  C4  UNL     1     -30.760   0.279  -3.691  1.00  0.00    -0.023 C 
HETATM    5  C5  UNL     1     -29.556   0.643  -3.290  1.00  0.00     0.005 C 
HETATM    6  C6  UNL     1     -29.575   0.993  -1.826  1.00  0.00     0.187 C 
HETATM    7  O1  UNL     1     -29.394  -0.045  -0.977  1.00  0.00    -0.230 OA
HETATM    8  O2  UNL     1     -30.113  -0.002   0.112  1.00  0.00    -0.223 OA
HETATM    9  C7  UNL     1     -30.753  -1.247   0.402  1.00  0.00     0.150 C 
HETATM   10  C12 UNL     1     -31.280  -1.166   1.812  1.00  0.00     0.054 C 
HETATM   11  C13 UNL     1     -32.774  -1.417   1.883  1.00  0.00     0.081 C 
HETATM   12  C14 UNL     1     -33.110  -2.633   1.058  1.00  0.00     0.127 C 
HETATM   13  O6  UNL     1     -33.646  -3.615   1.482  1.00  0.00    -0.298 OA
HETATM   14  C15 UNL     1     -32.726  -2.554  -0.375  1.00  0.00     0.086 C 
HETATM   15  C16 UNL     1     -31.919  -1.279  -0.543  1.00  0.00     0.036 C 
HETATM   16  C17 UNL     1     -31.588  -1.016  -1.978  1.00  0.00     0.017 C 
ENDROOT
BRANCH   9  17
HETATM   17  C8  UNL     1     -29.775  -2.366   0.246  1.00  0.00     0.298 C 
HETATM   18  O3  UNL     1     -29.945  -3.183  -0.835  1.00  0.00    -0.355 OA
HETATM   19  C9  UNL     1     -29.473  -4.454  -0.435  1.00  0.00     0.205 C 
HETATM   20  C10 UNL     1     -29.869  -4.436   1.024  1.00  0.00     0.172 C 
HETATM   21  O5  UNL     1     -29.626  -3.134   1.383  1.00  0.00    -0.349 OA
BRANCH  20  22
HETATM   22  C11 UNL     1     -28.975  -5.360   1.836  1.00  0.00     0.198 C 
BRANCH  22  23
HETATM   23  O4  UNL     1     -28.197  -6.171   1.022  1.00  0.00    -0.398 OA
ATOM     24  H4  UNL     1     -27.296  -6.210   1.320  1.00  0.00     0.209 HD
ENDBRANCH  22  23
ENDBRANCH  20  22
ENDBRANCH   9  17
TORSDOF 3
ENDMDL
MODEL 3
REMARK VINA RESULT: -7.688275128      1.906      2.754
REMARK  3 active torsions:
REMARK  status: ('A' for Active; 'I' for Inactive)
REMARK    1  A    between atoms: C7_9  and  C8_10 
REMARK    2  A    between atoms: C10_13  and  C11_14 
REMARK    3  A    between atoms: C11_14  and  O4_15 
ROOT
HETATM    1  C1  UNL     1     -32.146   2.206  -0.823  1.00  0.00     0.014 C 
HETATM    2  C2  UNL     1     -31.367   1.506  -1.795  1.00  0.00     0.025 C 
HETATM    3  C3  UNL     1     -31.667   0.240  -2.429  1.00  0.00     0.015 C 
HETATM    4  C4  UNL     1     -30.523   0.177  -3.402  1.00  0.00    -0.023 C 
HETATM    5  C5  UNL     1     -29.495   0.759  -2.812  1.00  0.00     0.005 C 
HETATM    6  C6  UNL     1     -29.883   1.239  -1.438  1.00  0.00     0.187 C 
HETATM    7  O1  UNL     1     -29.760   0.326  -0.446  1.00  0.00    -0.230 OA
HETATM    8  O2  UNL     1     -30.701   0.362   0.458  1.00  0.00    -0.223 OA
HETATM    9  C7  UNL     1     -31.222  -0.935   0.764  1.00  0.00     0.150 C 
HETATM   10  C12 UNL     1     -32.053  -0.802   2.015  1.00  0.00     0.054 C 
HETATM   11  C13 UNL     1     -33.480  -1.272   1.809  1.00  0.00     0.081 C 
HETATM   12  C14 UNL     1     -33.464  -2.599   1.092  1.00  0.00     0.127 C 
HETATM   13  O6  UNL     1     -33.948  -3.607   1.518  1.00  0.00    -0.298 OA
HETATM   14  C15 UNL     1     -32.787  -2.598  -0.230  1.00  0.00     0.086 C 
HETATM   15  C16 UNL     1     -32.136  -1.236  -0.388  1.00  0.00     0.036 C 
HETATM   16  C17 UNL     1     -31.533  -1.061  -1.746  1.00  0.00     0.017 C 
ENDROOT
BRANCH   9  17
HETATM   17  C8  UNL     1     -30.097  -1.899   0.954  1.00  0.00     0.298 C 
HETATM   18  O3  UNL     1     -30.069  -2.981   0.121  1.00  0.00    -0.355 OA
HETATM   19  C9  UNL     1     -29.469  -4.023   0.864  1.00  0.00     0.205 C 
HETATM   20  C10 UNL     1     -29.982  -3.692   2.247  1.00  0.00     0.172 C 
HETATM   21  O5  UNL     1     -29.942  -2.320   2.259  1.00  0.00    -0.349 OA
BRANCH  20  22
HETATM   22  C11 UNL     1     -29.044  -4.236   3.313  1.00  0.00     0.198 C 
BRANCH  22  23
HETATM   23  O4  UNL     1     -29.198  -3.572   4.522  1.00  0.00    -0.398 OA
ATOM     24  H4  UNL     1     -28.771  -4.034   5.235  1.00  0.00     0.209 HD
ENDBRANCH  22  23
ENDBRANCH  20  22
ENDBRANCH   9  17
TORSDOF 3
ENDMDL
MODEL 4
REMARK VINA RESULT: -7.478239631      1.835      3.512
REMARK  3 active torsions:
REMARK  status: ('A' for Active; 'I' for Inactive)
REMARK    1  A    between atoms: C7_9  and  C8_10 
REMARK    2  A    between atoms: C10_13  and  C11_14 
REMARK    3  A    between atoms: C11_14  and  O4_15 
ROOT
HETATM    1  C1  UNL     1     -32.372   0.440  -2.977  1.00  0.00     0.014 C 
HETATM    2  C2  UNL     1     -31.171   0.938  -2.387  1.00  0.00     0.025 C 
HETATM    3  C3  UNL     1     -29.844   0.361  -2.450  1.00  0.00     0.015 C 
HETATM    4  C4  UNL     1     -29.073   1.442  -1.746  1.00  0.00    -0.023 C 
HETATM    5  C5  UNL     1     -29.881   1.944  -0.830  1.00  0.00     0.005 C 
HETATM    6  C6  UNL     1     -31.215   1.246  -0.869  1.00  0.00     0.187 C 
HETATM    7  O1  UNL     1     -31.301   0.116  -0.128  1.00  0.00    -0.230 OA
HETATM    8  O2  UNL     1     -31.999  -0.846  -0.667  1.00  0.00    -0.223 OA
HETATM    9  C7  UNL     1     -31.338  -2.113  -0.601  1.00  0.00     0.150 C 
HETATM   10  C12 UNL     1     -32.352  -3.170  -0.958  1.00  0.00     0.054 C 
HETATM   11  C13 UNL     1     -31.908  -4.018  -2.134  1.00  0.00     0.081 C 
HETATM   12  C14 UNL     1     -30.474  -4.436  -1.926  1.00  0.00     0.127 C 
HETATM   13  O6  UNL     1     -30.097  -5.571  -1.881  1.00  0.00    -0.298 OA
HETATM   14  C15 UNL     1     -29.503  -3.322  -1.772  1.00  0.00     0.086 C 
HETATM   15  C16 UNL     1     -30.315  -2.041  -1.696  1.00  0.00     0.036 C 
HETATM   16  C17 UNL     1     -29.440  -0.829  -1.677  1.00  0.00     0.017 C 
ENDROOT
BRANCH   9  17
HETATM   17  C8  UNL     1     -30.788  -2.323   0.773  1.00  0.00     0.298 C 
HETATM   18  O3  UNL     1     -29.468  -2.027   0.957  1.00  0.00    -0.355 OA
HETATM   19  C9  UNL     1     -29.013  -2.906   1.966  1.00  0.00     0.205 C 
HETATM   20  C10 UNL     1     -29.850  -4.125   1.653  1.00  0.00     0.172 C 
HETATM   21  O5  UNL     1     -31.054  -3.575   1.290  1.00  0.00    -0.349 OA
BRANCH  20  22
HETATM   22  C11 UNL     1     -30.038  -4.983   2.894  1.00  0.00     0.198 C 
BRANCH  22  23
HETATM   23  O4  UNL     1     -28.905  -5.731   3.181  1.00  0.00    -0.398 OA
ATOM     24  H4  UNL     1     -29.126  -6.584   3.534  1.00  0.00     0.209 HD
ENDBRANCH  22  23
ENDBRANCH  20  22
ENDBRANCH   9  17
TORSDOF 3
ENDMDL
MODEL 5
REMARK VINA RESULT: -7.474230373      1.835      4.297
REMARK  3 active torsions:
REMARK  status: ('A' for Active; 'I' for Inactive)
REMARK    1  A    between atoms: C7_9  and  C8_10 
REMARK    2  A    between atoms: C10_13  and  C11_14 
REMARK    3  A    between atoms: C11_14  and  O4_15 
ROOT
HETATM    1  C1  UNL     1     -32.348   0.459  -3.286  1.00  0.00     0.014 C 
HETATM    2  C2  UNL     1     -31.148   1.030  -2.763  1.00  0.00     0.025 C 
HETATM    3  C3  UNL     1     -29.818   0.460  -2.766  1.00  0.00     0.015 C 
HETATM    4  C4  UNL     1     -29.053   1.621  -2.195  1.00  0.00    -0.023 C 
HETATM    5  C5  UNL     1     -29.861   2.219  -1.339  1.00  0.00     0.005 C 
HETATM    6  C6  UNL     1     -31.189   1.510  -1.290  1.00  0.00     0.187 C 
HETATM    7  O1  UNL     1     -31.262   0.472  -0.424  1.00  0.00    -0.230 OA
HETATM    8  O2  UNL     1     -31.955  -0.552  -0.846  1.00  0.00    -0.223 OA
HETATM    9  C7  UNL     1     -31.282  -1.797  -0.638  1.00  0.00     0.150 C 
HETATM   10  C12 UNL     1     -32.288  -2.896  -0.867  1.00  0.00     0.054 C 
HETATM   11  C13 UNL     1     -31.842  -3.870  -1.940  1.00  0.00     0.081 C 
HETATM   12  C14 UNL     1     -30.404  -4.250  -1.693  1.00  0.00     0.127 C 
HETATM   13  O6  UNL     1     -30.017  -5.369  -1.520  1.00  0.00    -0.298 OA
HETATM   14  C15 UNL     1     -29.442  -3.118  -1.673  1.00  0.00     0.086 C 
HETATM   15  C16 UNL     1     -30.264  -1.843  -1.740  1.00  0.00     0.036 C 
HETATM   16  C17 UNL     1     -29.399  -0.630  -1.864  1.00  0.00     0.017 C 
ENDROOT
BRANCH   9  17
HETATM   17  C8  UNL     1     -30.724  -1.844   0.747  1.00  0.00     0.298 C 
HETATM   18  O3  UNL     1     -30.544  -3.082   1.294  1.00  0.00    -0.355 OA
HETATM   19  C9  UNL     1     -30.723  -2.918   2.687  1.00  0.00     0.205 C 
HETATM   20  C10 UNL     1     -31.782  -1.839   2.692  1.00  0.00     0.172 C 
HETATM   21  O5  UNL     1     -31.399  -1.040   1.644  1.00  0.00    -0.349 OA
BRANCH  20  22
HETATM   22  C11 UNL     1     -31.730  -1.040   3.984  1.00  0.00     0.198 C 
BRANCH  22  23
HETATM   23  O4  UNL     1     -32.542  -1.590   4.965  1.00  0.00    -0.398 OA
ATOM     24  H4  UNL     1     -33.235  -0.995   5.225  1.00  0.00     0.209 HD
ENDBRANCH  22  23
ENDBRANCH  20  22
ENDBRANCH   9  17
TORSDOF 3
ENDMDL
