MODEL 1
REMARK VINA RESULT: -6.943394258      0.000      0.000
REMARK  5 active torsions:
REMARK  status: ('A' for Active; 'I' for Inactive)
REMARK    1  A    between atoms: O1_2  and  C2_3 
REMARK    2  A    between atoms: C3_6  and  N2_7 
REMARK    3  A    between atoms: N2_7  and  N3_9 
REMARK    4  A    between atoms: C7_15  and  C8_16 
REMARK    5  A    between atoms: C8_16  and  O2_17 
ROOT
HETATM    1  C8  UNL     1     -30.688  -3.419  -1.647  1.00  0.00     0.161 C 
HETATM    2  N4  UNL     1     -29.415  -3.774  -1.368  1.00  0.00    -0.344 N 
HETATM    3  C9  UNL     1     -28.291  -3.052  -0.932  1.00  0.00     0.126 C 
HETATM    4  C10 UNL     1     -27.235  -2.928  -2.032  1.00  0.00     0.020 C 
HETATM    5  C11 UNL     1     -26.897  -4.321  -2.549  1.00  0.00     0.004 C 
HETATM    6  C12 UNL     1     -28.090  -5.186  -2.766  1.00  0.00     0.040 C 
HETATM    7  C13 UNL     1     -29.058  -5.224  -1.631  1.00  0.00     0.193 C 
HETATM    8  C14 UNL     1     -28.559  -5.762  -0.397  1.00  0.00     0.084 C 
HETATM    9  N5  UNL     1     -28.165  -6.210   0.578  1.00  0.00    -0.195 NA
ENDROOT
BRANCH   1  10
HETATM   10  C7  UNL     1     -31.391  -2.152  -1.693  1.00  0.00     0.110 A 
HETATM   11  C2  UNL     1     -31.153  -0.879  -2.084  1.00  0.00     0.165 A 
HETATM   12  N1  UNL     1     -32.065   0.041  -1.877  1.00  0.00    -0.315 N 
HETATM   13  C3  UNL     1     -33.200  -0.287  -1.293  1.00  0.00     0.166 A 
ATOM     14  H1  UNL     1     -31.897   1.005  -2.166  1.00  0.00     0.170 HD
HETATM   15  S1  UNL     1     -33.022  -1.938  -1.008  1.00  0.00    -0.044 SA
BRANCH  11  16
HETATM   16  O1  UNL     1     -29.926  -0.544  -2.724  1.00  0.00    -0.340 OA
HETATM   17  C1  UNL     1     -29.682   0.646  -3.392  1.00  0.00     0.211 C 
ENDBRANCH  11  16
BRANCH  13  18
HETATM   18  N2  UNL     1     -34.220   0.492  -1.005  1.00  0.00    -0.280 N 
ATOM     19  H2  UNL     1     -34.958   0.197  -0.365  1.00  0.00     0.189 HD
BRANCH  18  20
HETATM   20  N3  UNL     1     -34.239   1.743  -1.622  1.00  0.00    -0.308 N 
HETATM   21  C4  UNL     1     -35.158   2.004  -2.463  1.00  0.00    -0.004 C 
HETATM   22  C5  UNL     1     -36.189   1.002  -2.778  1.00  0.00     0.064 C 
HETATM   23  C6  UNL     1     -35.184   3.326  -3.120  1.00  0.00     0.064 C 
ATOM     24  H3  UNL     1     -33.526   2.439  -1.402  1.00  0.00     0.186 HD
ENDBRANCH  18  20
ENDBRANCH  13  18
ENDBRANCH   1  10
BRANCH   1  25
HETATM   25  O2  UNL     1     -31.525  -4.439  -1.958  1.00  0.00    -0.345 OA
ATOM     26  H2  UNL     1     -31.436  -4.675  -2.874  1.00  0.00     0.219 HD
ENDBRANCH   1  25
TORSDOF 5
ENDMDL
MODEL 2
REMARK VINA RESULT: -6.832090312      0.898      1.015
REMARK  5 active torsions:
REMARK  status: ('A' for Active; 'I' for Inactive)
REMARK    1  A    between atoms: O1_2  and  C2_3 
REMARK    2  A    between atoms: C3_6  and  N2_7 
REMARK    3  A    between atoms: N2_7  and  N3_9 
REMARK    4  A    between atoms: C7_15  and  C8_16 
REMARK    5  A    between atoms: C8_16  and  O2_17 
ROOT
HETATM    1  C8  UNL     1     -30.684  -3.446  -1.647  1.00  0.00     0.161 C 
HETATM    2  N4  UNL     1     -29.409  -3.790  -1.365  1.00  0.00    -0.344 N 
HETATM    3  C9  UNL     1     -28.296  -3.061  -0.915  1.00  0.00     0.126 C 
HETATM    4  C10 UNL     1     -27.236  -2.912  -2.008  1.00  0.00     0.020 C 
HETATM    5  C11 UNL     1     -26.880  -4.296  -2.538  1.00  0.00     0.004 C 
HETATM    6  C12 UNL     1     -28.062  -5.172  -2.772  1.00  0.00     0.040 C 
HETATM    7  C13 UNL     1     -29.035  -5.233  -1.642  1.00  0.00     0.193 C 
HETATM    8  C14 UNL     1     -28.536  -5.780  -0.412  1.00  0.00     0.084 C 
HETATM    9  N5  UNL     1     -28.143  -6.234   0.561  1.00  0.00    -0.195 NA
ENDROOT
BRANCH   1  10
HETATM   10  C7  UNL     1     -31.402  -2.187  -1.683  1.00  0.00     0.110 A 
HETATM   11  C2  UNL     1     -31.178  -0.908  -2.063  1.00  0.00     0.165 A 
HETATM   12  N1  UNL     1     -32.100  -0.000  -1.848  1.00  0.00    -0.315 N 
HETATM   13  C3  UNL     1     -33.231  -0.346  -1.267  1.00  0.00     0.166 A 
ATOM     14  H1  UNL     1     -31.942   0.968  -2.130  1.00  0.00     0.170 HD
HETATM   15  S1  UNL     1     -33.035  -1.997  -0.997  1.00  0.00    -0.044 SA
BRANCH  11  16
HETATM   16  O1  UNL     1     -29.954  -0.554  -2.700  1.00  0.00    -0.340 OA
HETATM   17  C1  UNL     1     -29.737   0.626  -3.394  1.00  0.00     0.211 C 
ENDBRANCH  11  16
BRANCH  13  18
HETATM   18  N2  UNL     1     -34.260   0.420  -0.973  1.00  0.00    -0.280 N 
ATOM     19  H2  UNL     1     -34.442   0.733  -0.020  1.00  0.00     0.189 HD
BRANCH  18  20
HETATM   20  N3  UNL     1     -35.088   0.781  -2.036  1.00  0.00    -0.308 N 
HETATM   21  C4  UNL     1     -36.281   0.337  -2.069  1.00  0.00    -0.004 C 
HETATM   22  C5  UNL     1     -36.781  -0.542  -1.000  1.00  0.00     0.064 C 
HETATM   23  C6  UNL     1     -37.163   0.715  -3.191  1.00  0.00     0.064 C 
ATOM     24  H3  UNL     1     -34.743   1.392  -2.777  1.00  0.00     0.186 HD
ENDBRANCH  18  20
ENDBRANCH  13  18
ENDBRANCH   1  10
BRANCH   1  25
HETATM   25  O2  UNL     1     -31.509  -4.472  -1.974  1.00  0.00    -0.345 OA
ATOM     26  H2  UNL     1     -31.604  -4.535  -2.917  1.00  0.00     0.219 HD
ENDBRANCH   1  25
TORSDOF 5
ENDMDL
MODEL 3
REMARK VINA RESULT: -6.743205338      4.029      7.903
REMARK  5 active torsions:
REMARK  status: ('A' for Active; 'I' for Inactive)
REMARK    1  A    between atoms: O1_2  and  C2_3 
REMARK    2  A    between atoms: C3_6  and  N2_7 
REMARK    3  A    between atoms: N2_7  and  N3_9 
REMARK    4  A    between atoms: C7_15  and  C8_16 
REMARK    5  A    between atoms: C8_16  and  O2_17 
ROOT
HETATM    1  C8  UNL     1     -30.860  -2.874   2.930  1.00  0.00     0.161 C 
HETATM    2  N4  UNL     1     -31.878  -2.003   2.772  1.00  0.00    -0.344 N 
HETATM    3  C9  UNL     1     -32.774  -1.755   1.718  1.00  0.00     0.126 C 
HETATM    4  C10 UNL     1     -32.493  -0.413   1.039  1.00  0.00     0.020 C 
HETATM    5  C11 UNL     1     -32.489   0.682   2.099  1.00  0.00     0.004 C 
HETATM    6  C12 UNL     1     -31.749   0.314   3.339  1.00  0.00     0.040 C 
HETATM    7  C13 UNL     1     -32.095  -1.022   3.908  1.00  0.00     0.193 C 
HETATM    8  C14 UNL     1     -33.452  -1.184   4.348  1.00  0.00     0.084 C 
HETATM    9  N5  UNL     1     -34.527  -1.305   4.716  1.00  0.00    -0.195 NA
ENDROOT
BRANCH   1  10
HETATM   10  C7  UNL     1     -30.221  -3.844   2.063  1.00  0.00     0.110 A 
HETATM   11  C2  UNL     1     -29.414  -4.924   2.177  1.00  0.00     0.165 A 
HETATM   12  N1  UNL     1     -28.967  -5.514   1.094  1.00  0.00    -0.315 N 
HETATM   13  C3  UNL     1     -29.311  -5.049  -0.089  1.00  0.00     0.166 A 
ATOM     14  H1  UNL     1     -28.357  -6.329   1.168  1.00  0.00     0.170 HD
HETATM   15  S1  UNL     1     -30.298  -3.736   0.287  1.00  0.00    -0.044 SA
BRANCH  11  16
HETATM   16  O1  UNL     1     -29.061  -5.421   3.465  1.00  0.00    -0.340 OA
HETATM   17  C1  UNL     1     -29.025  -6.763   3.811  1.00  0.00     0.211 C 
ENDBRANCH  11  16
BRANCH  13  18
HETATM   18  N2  UNL     1     -28.964  -5.505  -1.274  1.00  0.00    -0.280 N 
ATOM     19  H2  UNL     1     -29.659  -5.778  -1.969  1.00  0.00     0.189 HD
BRANCH  18  20
HETATM   20  N3  UNL     1     -27.596  -5.594  -1.527  1.00  0.00    -0.308 N 
HETATM   21  C4  UNL     1     -26.986  -4.580  -1.996  1.00  0.00    -0.004 C 
HETATM   22  C5  UNL     1     -27.714  -3.329  -2.265  1.00  0.00     0.064 C 
HETATM   23  C6  UNL     1     -25.538  -4.668  -2.267  1.00  0.00     0.064 C 
ATOM     24  H3  UNL     1     -27.090  -6.460  -1.340  1.00  0.00     0.186 HD
ENDBRANCH  18  20
ENDBRANCH  13  18
ENDBRANCH   1  10
BRANCH   1  25
HETATM   25  O2  UNL     1     -30.275  -2.875   4.155  1.00  0.00    -0.345 OA
ATOM     26  H2  UNL     1     -30.139  -3.766   4.457  1.00  0.00     0.219 HD
ENDBRANCH   1  25
TORSDOF 5
ENDMDL
MODEL 4
REMARK VINA RESULT: -6.727776967      2.329      3.230
REMARK  5 active torsions:
REMARK  status: ('A' for Active; 'I' for Inactive)
REMARK    1  A    between atoms: O1_2  and  C2_3 
REMARK    2  A    between atoms: C3_6  and  N2_7 
REMARK    3  A    between atoms: N2_7  and  N3_9 
REMARK    4  A    between atoms: C7_15  and  C8_16 
REMARK    5  A    between atoms: C8_16  and  O2_17 
ROOT
HETATM    1  C8  UNL     1     -30.410  -3.197  -1.460  1.00  0.00     0.161 C 
HETATM    2  N4  UNL     1     -29.184  -3.738  -1.289  1.00  0.00    -0.344 N 
HETATM    3  C9  UNL     1     -27.933  -3.193  -0.953  1.00  0.00     0.126 C 
HETATM    4  C10 UNL     1     -26.968  -3.217  -2.140  1.00  0.00     0.020 C 
HETATM    5  C11 UNL     1     -26.884  -4.640  -2.677  1.00  0.00     0.004 C 
HETATM    6  C12 UNL     1     -28.206  -5.319  -2.788  1.00  0.00     0.040 C 
HETATM    7  C13 UNL     1     -29.069  -5.222  -1.575  1.00  0.00     0.193 C 
HETATM    8  C14 UNL     1     -28.551  -5.839  -0.386  1.00  0.00     0.084 C 
HETATM    9  N5  UNL     1     -28.146  -6.347   0.555  1.00  0.00    -0.195 NA
ENDROOT
BRANCH   1  10
HETATM   10  C7  UNL     1     -30.920  -1.840  -1.451  1.00  0.00     0.110 A 
HETATM   11  C2  UNL     1     -32.110  -1.210  -1.315  1.00  0.00     0.165 A 
HETATM   12  N1  UNL     1     -32.171   0.092  -1.455  1.00  0.00    -0.315 N 
HETATM   13  C3  UNL     1     -31.073   0.770  -1.724  1.00  0.00     0.166 A 
ATOM     14  H1  UNL     1     -33.062   0.578  -1.356  1.00  0.00     0.170 HD
HETATM   15  S1  UNL     1     -29.890  -0.428  -1.792  1.00  0.00    -0.044 SA
BRANCH  11  16
HETATM   16  O1  UNL     1     -33.285  -1.957  -1.012  1.00  0.00    -0.340 OA
HETATM   17  C1  UNL     1     -33.889  -2.007   0.234  1.00  0.00     0.211 C 
ENDBRANCH  11  16
BRANCH  13  18
HETATM   18  N2  UNL     1     -30.941   2.067  -1.897  1.00  0.00    -0.280 N 
ATOM     19  H2  UNL     1     -31.569   2.595  -2.503  1.00  0.00     0.189 HD
BRANCH  18  20
HETATM   20  N3  UNL     1     -29.897   2.682  -1.207  1.00  0.00    -0.308 N 
HETATM   21  C4  UNL     1     -30.151   3.687  -0.468  1.00  0.00    -0.004 C 
HETATM   22  C5  UNL     1     -31.528   4.192  -0.342  1.00  0.00     0.064 C 
HETATM   23  C6  UNL     1     -29.051   4.343   0.265  1.00  0.00     0.064 C 
ATOM     24  H3  UNL     1     -28.943   2.332  -1.293  1.00  0.00     0.186 HD
ENDBRANCH  18  20
ENDBRANCH  13  18
ENDBRANCH   1  10
BRANCH   1  25
HETATM   25  O2  UNL     1     -31.412  -4.080  -1.694  1.00  0.00    -0.345 OA
ATOM     26  H2  UNL     1     -32.219  -3.781  -1.293  1.00  0.00     0.219 HD
ENDBRANCH   1  25
TORSDOF 5
ENDMDL
MODEL 5
REMARK VINA RESULT: -6.620813414      1.938      2.589
REMARK  5 active torsions:
REMARK  status: ('A' for Active; 'I' for Inactive)
REMARK    1  A    between atoms: O1_2  and  C2_3 
REMARK    2  A    between atoms: C3_6  and  N2_7 
REMARK    3  A    between atoms: N2_7  and  N3_9 
REMARK    4  A    between atoms: C7_15  and  C8_16 
REMARK    5  A    between atoms: C8_16  and  O2_17 
ROOT
HETATM    1  C8  UNL     1     -30.821  -3.439  -1.450  1.00  0.00     0.161 C 
HETATM    2  N4  UNL     1     -29.525  -3.742  -1.224  1.00  0.00    -0.344 N 
HETATM    3  C9  UNL     1     -28.447  -3.013  -0.695  1.00  0.00     0.126 C 
HETATM    4  C10 UNL     1     -27.413  -2.668  -1.770  1.00  0.00     0.020 C 
HETATM    5  C11 UNL     1     -26.989  -3.952  -2.473  1.00  0.00     0.004 C 
HETATM    6  C12 UNL     1     -28.124  -4.858  -2.805  1.00  0.00     0.040 C 
HETATM    7  C13 UNL     1     -29.075  -5.116  -1.684  1.00  0.00     0.193 C 
HETATM    8  C14 UNL     1     -28.527  -5.783  -0.537  1.00  0.00     0.084 C 
HETATM    9  N5  UNL     1     -28.094  -6.332   0.368  1.00  0.00    -0.195 NA
ENDROOT
BRANCH   1  10
HETATM   10  C7  UNL     1     -31.608  -2.229  -1.321  1.00  0.00     0.110 A 
HETATM   11  C2  UNL     1     -32.775  -1.839  -0.759  1.00  0.00     0.165 A 
HETATM   12  N1  UNL     1     -33.202  -0.612  -0.942  1.00  0.00    -0.315 N 
HETATM   13  C3  UNL     1     -32.489   0.223  -1.670  1.00  0.00     0.166 A 
ATOM     14  H1  UNL     1     -34.081  -0.307  -0.524  1.00  0.00     0.170 HD
HETATM   15  S1  UNL     1     -31.162  -0.707  -2.132  1.00  0.00    -0.044 SA
BRANCH  11  16
HETATM   16  O1  UNL     1     -33.528  -2.752   0.035  1.00  0.00    -0.340 OA
HETATM   17  C1  UNL     1     -33.368  -2.930   1.400  1.00  0.00     0.211 C 
ENDBRANCH  11  16
BRANCH  13  18
HETATM   18  N2  UNL     1     -32.755   1.478  -1.961  1.00  0.00    -0.280 N 
ATOM     19  H2  UNL     1     -33.455   1.731  -2.658  1.00  0.00     0.189 HD
BRANCH  18  20
HETATM   20  N3  UNL     1     -32.030   2.444  -1.263  1.00  0.00    -0.308 N 
HETATM   21  C4  UNL     1     -32.559   3.583  -1.053  1.00  0.00    -0.004 C 
HETATM   22  C5  UNL     1     -33.917   3.876  -1.538  1.00  0.00     0.064 C 
HETATM   23  C6  UNL     1     -31.797   4.610  -0.315  1.00  0.00     0.064 C 
ATOM     24  H3  UNL     1     -31.089   2.241  -0.924  1.00  0.00     0.186 HD
ENDBRANCH  18  20
ENDBRANCH  13  18
ENDBRANCH   1  10
BRANCH   1  25
HETATM   25  O2  UNL     1     -31.592  -4.462  -1.897  1.00  0.00    -0.345 OA
ATOM     26  H2  UNL     1     -31.916  -4.276  -2.771  1.00  0.00     0.219 HD
ENDBRANCH   1  25
TORSDOF 5
ENDMDL
