MODEL 1
REMARK VINA RESULT: -6.642433825      0.000      0.000
REMARK  6 active torsions:
REMARK  status: ('A' for Active; 'I' for Inactive)
REMARK    1  A    between atoms: C2_2  and  C3_3 
REMARK    2  A    between atoms: N1_9  and  O1_11 
REMARK    3  A    between atoms: O1_11  and  C9_12 
REMARK    4  A    between atoms: C11_15  and  O3_17 
REMARK    5  A    between atoms: N3_21  and  C14_22 
REMARK    6  A    between atoms: C14_22  and  C15_23 
ROOT
HETATM    1  C3  UNL     1     -32.697   1.327  -0.355  1.00  0.00     0.252 C 
HETATM    2  C4  UNL     1     -32.840   0.588   0.932  1.00  0.00     0.115 C 
HETATM    3  C5  UNL     1     -31.618  -0.174   0.375  1.00  0.00     0.360 C 
HETATM    4  C6  UNL     1     -30.728  -0.700   1.394  1.00  0.00     0.082 C 
HETATM    5  C7  UNL     1     -30.214  -2.090   1.215  1.00  0.00     0.064 C 
HETATM    6  C8  UNL     1     -31.006  -2.961   0.351  1.00  0.00     0.075 C 
HETATM    7  N1  UNL     1     -30.572  -4.137   0.087  1.00  0.00    -0.261 N 
ATOM      8  H1  UNL     1     -31.124  -4.748  -0.516  1.00  0.00     0.194 HD
HETATM    9  C11 UNL     1     -32.288  -2.438  -0.172  1.00  0.00     0.299 C 
HETATM   10  C12 UNL     1     -33.330  -2.638   0.901  1.00  0.00     0.089 C 
HETATM   11  N2  UNL     1     -32.096  -1.114  -0.610  1.00  0.00     0.165 N 
HETATM   12  C13 UNL     1     -31.335  -1.097  -1.823  1.00  0.00     0.318 C 
HETATM   13  N3  UNL     1     -31.259   1.069  -0.266  1.00  0.00     0.137 N 
ENDROOT
BRANCH  13  14
HETATM   14  C14 UNL     1     -30.578   2.062   0.500  1.00  0.00     0.280 C 
BRANCH  14  15
HETATM   15  C15 UNL     1     -29.376   2.680  -0.180  1.00  0.00     0.006 C 
HETATM   16  C16 UNL     1     -29.534   4.182  -0.301  1.00  0.00     0.011 C 
HETATM   17  C17 UNL     1     -29.363   2.189  -1.658  1.00  0.00     0.011 C 
ENDBRANCH  14  15
ENDBRANCH  13  14
BRANCH   1  18
HETATM   18  C2  UNL     1     -33.118   2.727  -0.371  1.00  0.00    -0.002 C 
HETATM   19  C1  UNL     1     -33.484   3.290  -1.501  1.00  0.00     0.009 C 
ENDBRANCH   1  18
BRANCH   9  20
HETATM   20  O3  UNL     1     -32.653  -3.258  -1.238  1.00  0.00    -0.358 OA
ATOM     21  H3  UNL     1     -33.507  -2.963  -1.532  1.00  0.00     0.213 HD
ENDBRANCH   9  20
BRANCH   7  22
HETATM   22  O1  UNL     1     -29.381  -4.595   0.596  1.00  0.00    -0.200 OA
BRANCH  22  23
HETATM   23  C9  UNL     1     -28.606  -5.420  -0.239  1.00  0.00     0.277 C 
HETATM   24  C10 UNL     1     -28.521  -5.217  -1.708  1.00  0.00     0.128 C 
HETATM   25  O2  UNL     1     -27.953  -6.370   0.271  1.00  0.00    -0.264 OA
ENDBRANCH  22  23
ENDBRANCH   7  22
TORSDOF 6
ENDMDL
MODEL 2
REMARK VINA RESULT: -6.482018563      2.128      2.587
REMARK  6 active torsions:
REMARK  status: ('A' for Active; 'I' for Inactive)
REMARK    1  A    between atoms: C2_2  and  C3_3 
REMARK    2  A    between atoms: N1_9  and  O1_11 
REMARK    3  A    between atoms: O1_11  and  C9_12 
REMARK    4  A    between atoms: C11_15  and  O3_17 
REMARK    5  A    between atoms: N3_21  and  C14_22 
REMARK    6  A    between atoms: C14_22  and  C15_23 
ROOT
HETATM    1  C3  UNL     1     -33.521  -0.034  -2.044  1.00  0.00     0.252 C 
HETATM    2  C4  UNL     1     -33.407   0.457  -0.640  1.00  0.00     0.115 C 
HETATM    3  C5  UNL     1     -32.337  -0.655  -0.573  1.00  0.00     0.360 C 
HETATM    4  C6  UNL     1     -31.264  -0.393   0.369  1.00  0.00     0.082 C 
HETATM    5  C7  UNL     1     -30.818  -1.519   1.242  1.00  0.00     0.064 C 
HETATM    6  C8  UNL     1     -31.783  -2.595   1.444  1.00  0.00     0.075 C 
HETATM    7  N1  UNL     1     -31.431  -3.631   2.110  1.00  0.00    -0.261 N 
ATOM      8  H1  UNL     1     -32.103  -4.385   2.253  1.00  0.00     0.194 HD
HETATM    9  C11 UNL     1     -33.138  -2.429   0.871  1.00  0.00     0.299 C 
HETATM   10  C12 UNL     1     -33.940  -1.595   1.840  1.00  0.00     0.089 C 
HETATM   11  N2  UNL     1     -33.021  -1.917  -0.436  1.00  0.00     0.165 N 
HETATM   12  C13 UNL     1     -32.525  -2.927  -1.322  1.00  0.00     0.318 C 
HETATM   13  N3  UNL     1     -32.099  -0.374  -1.970  1.00  0.00     0.137 N 
ENDROOT
BRANCH  13  14
HETATM   14  C14 UNL     1     -31.261   0.729  -2.312  1.00  0.00     0.280 C 
BRANCH  14  15
HETATM   15  C15 UNL     1     -30.115   0.394  -3.243  1.00  0.00     0.006 C 
HETATM   16  C16 UNL     1     -29.202  -0.646  -2.627  1.00  0.00     0.011 C 
HETATM   17  C17 UNL     1     -29.212   1.658  -3.358  1.00  0.00     0.011 C 
ENDBRANCH  14  15
ENDBRANCH  13  14
BRANCH   1  18
HETATM   18  C2  UNL     1     -33.915   0.940  -3.061  1.00  0.00    -0.002 C 
HETATM   19  C1  UNL     1     -34.708   1.939  -2.741  1.00  0.00     0.009 C 
ENDBRANCH   1  18
BRANCH   9  20
HETATM   20  O3  UNL     1     -33.727  -3.691   0.851  1.00  0.00    -0.358 OA
ATOM     21  H3  UNL     1     -33.329  -4.169   0.134  1.00  0.00     0.213 HD
ENDBRANCH   9  20
BRANCH   7  22
HETATM   22  O1  UNL     1     -30.167  -3.751   2.636  1.00  0.00    -0.200 OA
BRANCH  22  23
HETATM   23  C9  UNL     1     -29.385  -4.827   2.178  1.00  0.00     0.277 C 
HETATM   24  C10 UNL     1     -29.053  -5.996   3.032  1.00  0.00     0.128 C 
HETATM   25  O2  UNL     1     -28.946  -4.808   0.997  1.00  0.00    -0.264 OA
ENDBRANCH  22  23
ENDBRANCH   7  22
TORSDOF 6
ENDMDL
MODEL 3
REMARK VINA RESULT: -6.392728693      1.847      2.779
REMARK  6 active torsions:
REMARK  status: ('A' for Active; 'I' for Inactive)
REMARK    1  A    between atoms: C2_2  and  C3_3 
REMARK    2  A    between atoms: N1_9  and  O1_11 
REMARK    3  A    between atoms: O1_11  and  C9_12 
REMARK    4  A    between atoms: C11_15  and  O3_17 
REMARK    5  A    between atoms: N3_21  and  C14_22 
REMARK    6  A    between atoms: C14_22  and  C15_23 
ROOT
HETATM    1  C3  UNL     1     -32.360   0.386   0.841  1.00  0.00     0.252 C 
HETATM    2  C4  UNL     1     -30.879   0.220   0.904  1.00  0.00     0.115 C 
HETATM    3  C5  UNL     1     -31.180  -0.876  -0.142  1.00  0.00     0.360 C 
HETATM    4  C6  UNL     1     -30.104  -1.109  -1.088  1.00  0.00     0.082 C 
HETATM    5  C7  UNL     1     -29.760  -2.525  -1.413  1.00  0.00     0.064 C 
HETATM    6  C8  UNL     1     -30.154  -3.523  -0.423  1.00  0.00     0.075 C 
HETATM    7  N1  UNL     1     -29.967  -4.764  -0.681  1.00  0.00    -0.261 N 
ATOM      8  H1  UNL     1     -30.241  -5.464   0.009  1.00  0.00     0.194 HD
HETATM    9  C11 UNL     1     -30.746  -3.045   0.847  1.00  0.00     0.299 C 
HETATM   10  C12 UNL     1     -29.609  -2.661   1.760  1.00  0.00     0.089 C 
HETATM   11  N2  UNL     1     -31.680  -2.031   0.562  1.00  0.00     0.165 N 
HETATM   12  C13 UNL     1     -32.855  -2.592  -0.036  1.00  0.00     0.318 C 
HETATM   13  N3  UNL     1     -32.281  -0.039  -0.557  1.00  0.00     0.137 N 
ENDROOT
BRANCH  13  14
HETATM   14  C14 UNL     1     -32.016   1.052  -1.439  1.00  0.00     0.280 C 
BRANCH  14  15
HETATM   15  C15 UNL     1     -32.937   1.141  -2.637  1.00  0.00     0.006 C 
HETATM   16  C16 UNL     1     -34.172   1.958  -2.312  1.00  0.00     0.011 C 
HETATM   17  C17 UNL     1     -33.499  -0.285  -2.912  1.00  0.00     0.011 C 
ENDBRANCH  14  15
ENDBRANCH  13  14
BRANCH   1  18
HETATM   18  C2  UNL     1     -32.892   1.724   1.096  1.00  0.00    -0.002 C 
HETATM   19  C1  UNL     1     -34.140   1.870   1.485  1.00  0.00     0.009 C 
ENDBRANCH   1  18
BRANCH   9  20
HETATM   20  O3  UNL     1     -31.376  -4.139   1.436  1.00  0.00    -0.358 OA
ATOM     21  H3  UNL     1     -32.178  -3.816   1.830  1.00  0.00     0.213 HD
ENDBRANCH   9  20
BRANCH   7  22
HETATM   22  O1  UNL     1     -29.407  -5.174  -1.867  1.00  0.00    -0.200 OA
BRANCH  22  23
HETATM   23  C9  UNL     1     -28.010  -5.343  -1.887  1.00  0.00     0.277 C 
HETATM   24  C10 UNL     1     -27.145  -4.731  -2.928  1.00  0.00     0.128 C 
HETATM   25  O2  UNL     1     -27.463  -6.037  -0.989  1.00  0.00    -0.264 OA
ENDBRANCH  22  23
ENDBRANCH   7  22
TORSDOF 6
ENDMDL
MODEL 4
REMARK VINA RESULT: -6.325190515      0.966      1.266
REMARK  6 active torsions:
REMARK  status: ('A' for Active; 'I' for Inactive)
REMARK    1  A    between atoms: C2_2  and  C3_3 
REMARK    2  A    between atoms: N1_9  and  O1_11 
REMARK    3  A    between atoms: O1_11  and  C9_12 
REMARK    4  A    between atoms: C11_15  and  O3_17 
REMARK    5  A    between atoms: N3_21  and  C14_22 
REMARK    6  A    between atoms: C14_22  and  C15_23 
ROOT
HETATM    1  C3  UNL     1     -33.345   1.247  -0.687  1.00  0.00     0.252 C 
HETATM    2  C4  UNL     1     -33.049   0.967   0.748  1.00  0.00     0.115 C 
HETATM    3  C5  UNL     1     -32.028  -0.006   0.118  1.00  0.00     0.360 C 
HETATM    4  C6  UNL     1     -30.843  -0.233   0.926  1.00  0.00     0.082 C 
HETATM    5  C7  UNL     1     -30.350  -1.636   1.055  1.00  0.00     0.064 C 
HETATM    6  C8  UNL     1     -31.333  -2.687   0.805  1.00  0.00     0.075 C 
HETATM    7  N1  UNL     1     -30.952  -3.910   0.813  1.00  0.00    -0.261 N 
ATOM      8  H1  UNL     1     -31.636  -4.646   0.640  1.00  0.00     0.194 HD
HETATM    9  C11 UNL     1     -32.736  -2.281   0.562  1.00  0.00     0.299 C 
HETATM   10  C12 UNL     1     -33.383  -2.064   1.908  1.00  0.00     0.089 C 
HETATM   11  N2  UNL     1     -32.747  -1.179  -0.314  1.00  0.00     0.165 N 
HETATM   12  C13 UNL     1     -32.401  -1.596  -1.640  1.00  0.00     0.318 C 
HETATM   13  N3  UNL     1     -31.940   0.944  -0.966  1.00  0.00     0.137 N 
ENDROOT
BRANCH  13  14
HETATM   14  C14 UNL     1     -31.099   2.085  -0.808  1.00  0.00     0.280 C 
BRANCH  14  15
HETATM   15  C15 UNL     1     -30.008   2.224  -1.849  1.00  0.00     0.006 C 
HETATM   16  C16 UNL     1     -29.849   0.942  -2.642  1.00  0.00     0.011 C 
HETATM   17  C17 UNL     1     -28.651   2.366  -1.098  1.00  0.00     0.011 C 
ENDBRANCH  14  15
ENDBRANCH  13  14
BRANCH   1  18
HETATM   18  C2  UNL     1     -33.809   2.592  -1.022  1.00  0.00    -0.002 C 
HETATM   19  C1  UNL     1     -34.575   2.778  -2.075  1.00  0.00     0.009 C 
ENDBRANCH   1  18
BRANCH   9  20
HETATM   20  O3  UNL     1     -33.377  -3.374  -0.016  1.00  0.00    -0.358 OA
ATOM     21  H3  UNL     1     -32.698  -3.947  -0.350  1.00  0.00     0.213 HD
ENDBRANCH   9  20
BRANCH   7  22
HETATM   22  O1  UNL     1     -29.643  -4.253   1.051  1.00  0.00    -0.200 OA
BRANCH  22  23
HETATM   23  C9  UNL     1     -29.050  -5.165   0.158  1.00  0.00     0.277 C 
HETATM   24  C10 UNL     1     -29.332  -5.152  -1.301  1.00  0.00     0.128 C 
HETATM   25  O2  UNL     1     -28.248  -6.028   0.603  1.00  0.00    -0.264 OA
ENDBRANCH  22  23
ENDBRANCH   7  22
TORSDOF 6
ENDMDL
MODEL 5
REMARK VINA RESULT: -6.296085952      2.502      3.028
REMARK  6 active torsions:
REMARK  status: ('A' for Active; 'I' for Inactive)
REMARK    1  A    between atoms: C2_2  and  C3_3 
REMARK    2  A    between atoms: N1_9  and  O1_11 
REMARK    3  A    between atoms: O1_11  and  C9_12 
REMARK    4  A    between atoms: C11_15  and  O3_17 
REMARK    5  A    between atoms: N3_21  and  C14_22 
REMARK    6  A    between atoms: C14_22  and  C15_23 
ROOT
HETATM    1  C3  UNL     1     -33.588  -0.349  -1.951  1.00  0.00     0.252 C 
HETATM    2  C4  UNL     1     -33.493   0.314  -0.618  1.00  0.00     0.115 C 
HETATM    3  C5  UNL     1     -32.271  -0.622  -0.487  1.00  0.00     0.360 C 
HETATM    4  C6  UNL     1     -31.212  -0.105   0.360  1.00  0.00     0.082 C 
HETATM    5  C7  UNL     1     -30.575  -1.048   1.327  1.00  0.00     0.064 C 
HETATM    6  C8  UNL     1     -31.366  -2.218   1.698  1.00  0.00     0.075 C 
HETATM    7  N1  UNL     1     -30.843  -3.110   2.454  1.00  0.00    -0.261 N 
ATOM      8  H1  UNL     1     -31.393  -3.927   2.716  1.00  0.00     0.194 HD
HETATM    9  C11 UNL     1     -32.752  -2.310   1.185  1.00  0.00     0.299 C 
HETATM   10  C12 UNL     1     -33.628  -1.489   2.098  1.00  0.00     0.089 C 
HETATM   11  N2  UNL     1     -32.760  -1.943  -0.175  1.00  0.00     0.165 N 
HETATM   12  C13 UNL     1     -32.158  -2.970  -0.970  1.00  0.00     0.318 C 
HETATM   13  N3  UNL     1     -32.130  -0.476  -1.917  1.00  0.00     0.137 N 
ENDROOT
BRANCH  13  14
HETATM   14  C14 UNL     1     -31.474   0.685  -2.424  1.00  0.00     0.280 C 
BRANCH  14  15
HETATM   15  C15 UNL     1     -30.259   0.407  -3.283  1.00  0.00     0.006 C 
HETATM   16  C16 UNL     1     -29.377  -0.649  -2.649  1.00  0.00     0.011 C 
HETATM   17  C17 UNL     1     -29.370   1.686  -3.276  1.00  0.00     0.011 C 
ENDBRANCH  14  15
ENDBRANCH  13  14
BRANCH   1  18
HETATM   18  C2  UNL     1     -34.157   0.435  -3.046  1.00  0.00    -0.002 C 
HETATM   19  C1  UNL     1     -35.384   0.900  -2.952  1.00  0.00     0.009 C 
ENDBRANCH   1  18
BRANCH   9  20
HETATM   20  O3  UNL     1     -33.152  -3.635   1.337  1.00  0.00    -0.358 OA
ATOM     21  H3  UNL     1     -33.217  -4.005   0.464  1.00  0.00     0.213 HD
ENDBRANCH   9  20
BRANCH   7  22
HETATM   22  O1  UNL     1     -29.556  -2.989   2.921  1.00  0.00    -0.200 OA
BRANCH  22  23
HETATM   23  C9  UNL     1     -29.082  -4.018   3.756  1.00  0.00     0.277 C 
HETATM   24  C10 UNL     1     -29.004  -5.434   3.315  1.00  0.00     0.128 C 
HETATM   25  O2  UNL     1     -28.705  -3.736   4.925  1.00  0.00    -0.264 OA
ENDBRANCH  22  23
ENDBRANCH   7  22
TORSDOF 6
ENDMDL
