MODEL 1
REMARK VINA RESULT: -7.517001417      0.000      0.000
REMARK  4 active torsions:
REMARK  status: ('A' for Active; 'I' for Inactive)
REMARK    1  A    between atoms: C2_2  and  C3_3 
REMARK    2  A    between atoms: C3_3  and  C4_4 
REMARK    3  A    between atoms: C15_21  and  C16_22 
REMARK    4  A    between atoms: C16_22  and  O2_23 
ROOT
HETATM    1  C4  UNL     1     -29.559  -3.302   0.532  1.00  0.00     0.022 A 
HETATM    2  N1  UNL     1     -29.666  -4.192   1.566  1.00  0.00    -0.337 N 
ATOM      3  H1  UNL     1     -30.202  -3.884   2.378  1.00  0.00     0.168 HD
HETATM    4  C5  UNL     1     -29.154  -5.398   1.626  1.00  0.00     0.189 A 
HETATM    5  C6  UNL     1     -29.327  -6.281   2.760  1.00  0.00     0.137 C 
HETATM    6  N2  UNL     1     -29.444  -6.996   3.663  1.00  0.00    -0.188 NA
HETATM    7  N3  UNL     1     -28.446  -5.819   0.566  1.00  0.00    -0.337 N 
ATOM      8  H3  UNL     1     -28.032  -6.751   0.568  1.00  0.00     0.168 HD
HETATM    9  C7  UNL     1     -28.282  -5.012  -0.504  1.00  0.00     0.019 A 
HETATM   10  C8  UNL     1     -28.831  -3.722  -0.559  1.00  0.00    -0.013 A 
HETATM   11  C9  UNL     1     -28.691  -2.679  -1.540  1.00  0.00     0.042 C 
HETATM   12  C10 UNL     1     -27.551  -2.777  -2.499  1.00  0.00     0.005 C 
HETATM   13  C11 UNL     1     -27.411  -4.074  -3.197  1.00  0.00     0.001 C 
HETATM   14  C12 UNL     1     -26.551  -4.959  -2.316  1.00  0.00     0.006 C 
HETATM   15  C13 UNL     1     -27.502  -5.755  -1.508  1.00  0.00     0.057 C 
ENDROOT
BRANCH   1  16
HETATM   16  C3  UNL     1     -30.357  -2.087   0.664  1.00  0.00     0.097 C 
BRANCH  16  17
HETATM   17  C2  UNL     1     -31.850  -2.259   0.463  1.00  0.00     0.084 C 
HETATM   18  C1  UNL     1     -32.023  -2.696  -1.027  1.00  0.00     0.049 C 
HETATM   19  C14 UNL     1     -32.733  -1.112   0.628  1.00  0.00     0.206 C 
HETATM   20  O1  UNL     1     -33.412  -0.996   1.838  1.00  0.00    -0.379 OA
HETATM   21  C15 UNL     1     -33.949  -2.167   2.298  1.00  0.00     0.168 C 
HETATM   22  C17 UNL     1     -32.814  -3.161   2.377  1.00  0.00     0.203 C 
HETATM   23  O3  UNL     1     -32.195  -3.404   1.172  1.00  0.00    -0.375 OA
BRANCH  21  24
HETATM   24  C16 UNL     1     -35.100  -2.707   1.475  1.00  0.00     0.198 C 
BRANCH  24  25
HETATM   25  O2  UNL     1     -34.896  -4.100   1.310  1.00  0.00    -0.398 OA
ATOM     26  H2  UNL     1     -34.580  -4.243   0.425  1.00  0.00     0.209 HD
ENDBRANCH  24  25
ENDBRANCH  21  24
ENDBRANCH  16  17
ENDBRANCH   1  16
TORSDOF 4
ENDMDL
MODEL 2
REMARK VINA RESULT: -7.471686610      2.829      4.666
REMARK  4 active torsions:
REMARK  status: ('A' for Active; 'I' for Inactive)
REMARK    1  A    between atoms: C2_2  and  C3_3 
REMARK    2  A    between atoms: C3_3  and  C4_4 
REMARK    3  A    between atoms: C15_21  and  C16_22 
REMARK    4  A    between atoms: C16_22  and  O2_23 
ROOT
HETATM    1  C4  UNL     1     -30.439  -2.577  -0.850  1.00  0.00     0.022 A 
HETATM    2  N1  UNL     1     -30.428  -1.237  -1.129  1.00  0.00    -0.337 N 
ATOM      3  H1  UNL     1     -31.222  -0.695  -0.788  1.00  0.00     0.168 HD
HETATM    4  C5  UNL     1     -29.507  -0.576  -1.787  1.00  0.00     0.189 A 
HETATM    5  C6  UNL     1     -29.570   0.850  -2.028  1.00  0.00     0.137 C 
HETATM    6  N2  UNL     1     -29.610   1.987  -2.243  1.00  0.00    -0.188 NA
HETATM    7  N3  UNL     1     -28.455  -1.275  -2.242  1.00  0.00    -0.337 N 
ATOM      8  H3  UNL     1     -27.713  -0.800  -2.758  1.00  0.00     0.168 HD
HETATM    9  C7  UNL     1     -28.374  -2.604  -2.019  1.00  0.00     0.019 A 
HETATM   10  C8  UNL     1     -29.367  -3.305  -1.316  1.00  0.00    -0.013 A 
HETATM   11  C9  UNL     1     -29.526  -4.711  -1.063  1.00  0.00     0.042 C 
HETATM   12  C10 UNL     1     -28.754  -5.662  -1.917  1.00  0.00     0.005 C 
HETATM   13  C11 UNL     1     -27.305  -5.387  -2.033  1.00  0.00     0.001 C 
HETATM   14  C12 UNL     1     -27.129  -4.432  -3.198  1.00  0.00     0.006 C 
HETATM   15  C13 UNL     1     -27.108  -3.078  -2.598  1.00  0.00     0.057 C 
ENDROOT
BRANCH   1  16
HETATM   16  C3  UNL     1     -31.511  -3.026   0.033  1.00  0.00     0.097 C 
BRANCH  16  17
HETATM   17  C2  UNL     1     -31.190  -3.006   1.515  1.00  0.00     0.084 C 
HETATM   18  C1  UNL     1     -32.471  -2.448   2.213  1.00  0.00     0.049 C 
HETATM   19  C14 UNL     1     -30.098  -2.174   2.001  1.00  0.00     0.206 C 
HETATM   20  O1  UNL     1     -28.879  -2.799   2.252  1.00  0.00    -0.379 OA
HETATM   21  C15 UNL     1     -28.982  -3.996   2.904  1.00  0.00     0.168 C 
HETATM   22  C17 UNL     1     -29.904  -4.861   2.076  1.00  0.00     0.203 C 
HETATM   23  O3  UNL     1     -31.167  -4.339   1.911  1.00  0.00    -0.375 OA
BRANCH  21  24
HETATM   24  C16 UNL     1     -29.455  -3.901   4.340  1.00  0.00     0.198 C 
BRANCH  24  25
HETATM   25  O2  UNL     1     -28.380  -3.401   5.116  1.00  0.00    -0.398 OA
ATOM     26  H2  UNL     1     -27.880  -4.145   5.431  1.00  0.00     0.209 HD
ENDBRANCH  24  25
ENDBRANCH  21  24
ENDBRANCH  16  17
ENDBRANCH   1  16
TORSDOF 4
ENDMDL
MODEL 3
REMARK VINA RESULT: -7.297586030      3.182      6.146
REMARK  4 active torsions:
REMARK  status: ('A' for Active; 'I' for Inactive)
REMARK    1  A    between atoms: C2_2  and  C3_3 
REMARK    2  A    between atoms: C3_3  and  C4_4 
REMARK    3  A    between atoms: C15_21  and  C16_22 
REMARK    4  A    between atoms: C16_22  and  O2_23 
ROOT
HETATM    1  C4  UNL     1     -32.034  -0.971  -0.295  1.00  0.00     0.022 A 
HETATM    2  N1  UNL     1     -32.517  -1.823   0.661  1.00  0.00    -0.337 N 
ATOM      3  H1  UNL     1     -31.824  -2.348   1.195  1.00  0.00     0.168 HD
HETATM    4  C5  UNL     1     -33.774  -2.037   0.965  1.00  0.00     0.189 A 
HETATM    5  C6  UNL     1     -34.198  -2.951   2.004  1.00  0.00     0.137 C 
HETATM    6  N2  UNL     1     -34.556  -3.688   2.822  1.00  0.00    -0.188 NA
HETATM    7  N3  UNL     1     -34.700  -1.353   0.272  1.00  0.00    -0.337 N 
ATOM      8  H3  UNL     1     -35.690  -1.487   0.477  1.00  0.00     0.168 HD
HETATM    9  C7  UNL     1     -34.323  -0.489  -0.694  1.00  0.00     0.019 A 
HETATM   10  C8  UNL     1     -32.974  -0.269  -1.015  1.00  0.00    -0.013 A 
HETATM   11  C9  UNL     1     -32.371   0.514  -2.060  1.00  0.00     0.042 C 
HETATM   12  C10 UNL     1     -33.230   0.909  -3.216  1.00  0.00     0.005 C 
HETATM   13  C11 UNL     1     -34.520   1.543  -2.867  1.00  0.00     0.001 C 
HETATM   14  C12 UNL     1     -35.529   0.424  -2.693  1.00  0.00     0.006 C 
HETATM   15  C13 UNL     1     -35.542   0.127  -1.242  1.00  0.00     0.057 C 
ENDROOT
BRANCH   1  16
HETATM   16  C3  UNL     1     -30.583  -0.811  -0.319  1.00  0.00     0.097 C 
BRANCH  16  17
HETATM   17  C2  UNL     1     -29.805  -1.980  -0.892  1.00  0.00     0.084 C 
HETATM   18  C1  UNL     1     -28.903  -1.372  -2.012  1.00  0.00     0.049 C 
HETATM   19  C14 UNL     1     -30.523  -3.075  -1.532  1.00  0.00     0.206 C 
HETATM   20  O1  UNL     1     -30.735  -4.227  -0.780  1.00  0.00    -0.379 OA
HETATM   21  C15 UNL     1     -29.650  -4.638  -0.056  1.00  0.00     0.168 C 
HETATM   22  C17 UNL     1     -29.236  -3.466   0.804  1.00  0.00     0.203 C 
HETATM   23  O3  UNL     1     -28.891  -2.340   0.092  1.00  0.00    -0.375 OA
BRANCH  21  24
HETATM   24  C16 UNL     1     -28.490  -5.151  -0.884  1.00  0.00     0.198 C 
BRANCH  24  25
HETATM   25  O2  UNL     1     -27.879  -6.206  -0.161  1.00  0.00    -0.398 OA
ATOM     26  H2  UNL     1     -27.281  -6.652  -0.750  1.00  0.00     0.209 HD
ENDBRANCH  24  25
ENDBRANCH  21  24
ENDBRANCH  16  17
ENDBRANCH   1  16
TORSDOF 4
ENDMDL
MODEL 4
REMARK VINA RESULT: -7.258649015      2.851      5.032
REMARK  4 active torsions:
REMARK  status: ('A' for Active; 'I' for Inactive)
REMARK    1  A    between atoms: C2_2  and  C3_3 
REMARK    2  A    between atoms: C3_3  and  C4_4 
REMARK    3  A    between atoms: C15_21  and  C16_22 
REMARK    4  A    between atoms: C16_22  and  O2_23 
ROOT
HETATM    1  C4  UNL     1     -30.612  -2.248  -0.722  1.00  0.00     0.022 A 
HETATM    2  N1  UNL     1     -29.549  -3.017  -1.111  1.00  0.00    -0.337 N 
ATOM      3  H1  UNL     1     -29.517  -3.969  -0.745  1.00  0.00     0.168 HD
HETATM    4  C5  UNL     1     -28.566  -2.662  -1.903  1.00  0.00     0.189 A 
HETATM    5  C6  UNL     1     -27.482  -3.547  -2.275  1.00  0.00     0.137 C 
HETATM    6  N2  UNL     1     -26.600  -4.236  -2.571  1.00  0.00    -0.188 NA
HETATM    7  N3  UNL     1     -28.593  -1.412  -2.394  1.00  0.00    -0.337 N 
ATOM      8  H3  UNL     1     -27.850  -1.094  -3.017  1.00  0.00     0.168 HD
HETATM    9  C7  UNL     1     -29.601  -0.576  -2.067  1.00  0.00     0.019 A 
HETATM   10  C8  UNL     1     -30.647  -0.963  -1.215  1.00  0.00    -0.013 A 
HETATM   11  C9  UNL     1     -31.742  -0.210  -0.665  1.00  0.00     0.042 C 
HETATM   12  C10 UNL     1     -31.636   1.279  -0.679  1.00  0.00     0.005 C 
HETATM   13  C11 UNL     1     -31.285   1.884  -1.983  1.00  0.00     0.001 C 
HETATM   14  C12 UNL     1     -29.771   1.925  -2.057  1.00  0.00     0.006 C 
HETATM   15  C13 UNL     1     -29.377   0.693  -2.778  1.00  0.00     0.057 C 
ENDROOT
BRANCH   1  16
HETATM   16  C3  UNL     1     -31.643  -2.944   0.043  1.00  0.00     0.097 C 
BRANCH  16  17
HETATM   17  C2  UNL     1     -31.324  -3.183   1.506  1.00  0.00     0.084 C 
HETATM   18  C1  UNL     1     -32.704  -3.198   2.238  1.00  0.00     0.049 C 
HETATM   19  C14 UNL     1     -30.518  -2.210   2.232  1.00  0.00     0.206 C 
HETATM   20  O1  UNL     1     -29.166  -2.499   2.403  1.00  0.00    -0.379 OA
HETATM   21  C15 UNL     1     -28.906  -3.794   2.757  1.00  0.00     0.168 C 
HETATM   22  C17 UNL     1     -29.544  -4.667   1.701  1.00  0.00     0.203 C 
HETATM   23  O3  UNL     1     -30.906  -4.506   1.587  1.00  0.00    -0.375 OA
BRANCH  21  24
HETATM   24  C16 UNL     1     -29.369  -4.180   4.146  1.00  0.00     0.198 C 
BRANCH  24  25
HETATM   25  O2  UNL     1     -28.629  -3.409   5.077  1.00  0.00    -0.398 OA
ATOM     26  H2  UNL     1     -29.190  -3.242   5.825  1.00  0.00     0.209 HD
ENDBRANCH  24  25
ENDBRANCH  21  24
ENDBRANCH  16  17
ENDBRANCH   1  16
TORSDOF 4
ENDMDL
MODEL 5
REMARK VINA RESULT: -7.134523640      3.181      6.136
REMARK  4 active torsions:
REMARK  status: ('A' for Active; 'I' for Inactive)
REMARK    1  A    between atoms: C2_2  and  C3_3 
REMARK    2  A    between atoms: C3_3  and  C4_4 
REMARK    3  A    between atoms: C15_21  and  C16_22 
REMARK    4  A    between atoms: C16_22  and  O2_23 
ROOT
HETATM    1  C4  UNL     1     -31.384  -2.708  -1.097  1.00  0.00     0.022 A 
HETATM    2  N1  UNL     1     -32.175  -3.196  -0.092  1.00  0.00    -0.337 N 
ATOM      3  H1  UNL     1     -32.276  -4.210  -0.043  1.00  0.00     0.168 HD
HETATM    4  C5  UNL     1     -32.816  -2.500   0.815  1.00  0.00     0.189 A 
HETATM    5  C6  UNL     1     -33.625  -3.100   1.855  1.00  0.00     0.137 C 
HETATM    6  N2  UNL     1     -34.288  -3.562   2.685  1.00  0.00    -0.188 NA
HETATM    7  N3  UNL     1     -32.694  -1.164   0.766  1.00  0.00    -0.337 N 
ATOM      8  H3  UNL     1     -33.174  -0.583   1.454  1.00  0.00     0.168 HD
HETATM    9  C7  UNL     1     -31.936  -0.586  -0.191  1.00  0.00     0.019 A 
HETATM   10  C8  UNL     1     -31.255  -1.339  -1.160  1.00  0.00    -0.013 A 
HETATM   11  C9  UNL     1     -30.494  -0.927  -2.308  1.00  0.00     0.042 C 
HETATM   12  C10 UNL     1     -30.685   0.468  -2.805  1.00  0.00     0.005 C 
HETATM   13  C11 UNL     1     -30.570   1.532  -1.783  1.00  0.00     0.001 C 
HETATM   14  C12 UNL     1     -31.949   1.716  -1.180  1.00  0.00     0.006 C 
HETATM   15  C13 UNL     1     -31.966   0.868   0.033  1.00  0.00     0.057 C 
ENDROOT
BRANCH   1  16
HETATM   16  C3  UNL     1     -30.664  -3.714  -1.873  1.00  0.00     0.097 C 
BRANCH  16  17
HETATM   17  C2  UNL     1     -29.258  -4.023  -1.400  1.00  0.00     0.084 C 
HETATM   18  C1  UNL     1     -29.399  -4.413   0.105  1.00  0.00     0.049 C 
HETATM   19  C14 UNL     1     -28.245  -2.976  -1.429  1.00  0.00     0.206 C 
HETATM   20  O1  UNL     1     -27.352  -2.978  -2.498  1.00  0.00    -0.379 OA
HETATM   21  C15 UNL     1     -26.867  -4.213  -2.826  1.00  0.00     0.168 C 
HETATM   22  C17 UNL     1     -28.067  -5.093  -3.087  1.00  0.00     0.203 C 
HETATM   23  O3  UNL     1     -28.913  -5.224  -2.009  1.00  0.00    -0.375 OA
BRANCH  21  24
HETATM   24  C16 UNL     1     -25.944  -4.829  -1.796  1.00  0.00     0.198 C 
BRANCH  24  25
HETATM   25  O2  UNL     1     -26.418  -6.136  -1.518  1.00  0.00    -0.398 OA
ATOM     26  H2  UNL     1     -25.841  -6.521  -0.868  1.00  0.00     0.209 HD
ENDBRANCH  24  25
ENDBRANCH  21  24
ENDBRANCH  16  17
ENDBRANCH   1  16
TORSDOF 4
ENDMDL
