MODEL 1
REMARK VINA RESULT: -6.940417861      0.000      0.000
REMARK  6 active torsions:
REMARK  status: ('A' for Active; 'I' for Inactive)
REMARK    1  A    between atoms: C2_2  and  C4_4 
REMARK    2  A    between atoms: C4_4  and  C5_5 
REMARK    3  A    between atoms: C5_5  and  O2_7 
REMARK    4  A    between atoms: O2_7  and  N1_8 
REMARK    5  A    between atoms: C6_10  and  O3_11 
REMARK    6  A    between atoms: C6_10  and  C7_13 
ROOT
HETATM    1  N1  UNL     1      -4.300   0.311  14.064  1.00  0.00    -0.236 N 
ATOM      2  H1  UNL     1      -3.745  -0.543  13.993  1.00  0.00     0.197 HD
HETATM    3  C6  UNL     1      -4.327   1.121  13.062  1.00  0.00     0.177 C 
ENDROOT
BRANCH   1   4
HETATM    4  O2  UNL     1      -4.985   0.554  15.217  1.00  0.00    -0.197 OA
BRANCH   4   5
HETATM    5  C5  UNL     1      -4.453   1.363  16.228  1.00  0.00     0.285 C 
HETATM    6  O1  UNL     1      -3.258   1.699  16.232  1.00  0.00    -0.263 OA
BRANCH   5   7
HETATM    7  C4  UNL     1      -5.375   1.803  17.296  1.00  0.00     0.146 C 
BRANCH   7   8
HETATM    8  C2  UNL     1      -6.638   2.298  16.728  1.00  0.00    -0.084 C 
HETATM    9  C1  UNL     1      -7.735   1.584  16.797  1.00  0.00     0.014 C 
HETATM   10  C3  UNL     1      -6.679   3.626  16.066  1.00  0.00     0.043 C 
ENDBRANCH   7   8
ENDBRANCH   5   7
ENDBRANCH   4   5
ENDBRANCH   1   4
BRANCH   3  11
HETATM   11  O3  UNL     1      -5.097   2.282  13.190  1.00  0.00    -0.346 OA
ATOM     12  H3  UNL     1      -5.285   2.774  12.400  1.00  0.00     0.219 HD
ENDBRANCH   3  11
BRANCH   3  13
HETATM   13  C7  UNL     1      -3.616   0.915  11.804  1.00  0.00     0.169 C 
HETATM   14  F1  UNL     1      -2.441   1.634  11.664  1.00  0.00    -0.234 F 
HETATM   15  C8  UNL     1      -4.549   1.120  10.605  1.00  0.00     0.052 C 
HETATM   16  C9  UNL     1      -3.769  -0.001   9.931  1.00  0.00     0.007 C 
HETATM   17  C10 UNL     1      -3.463  -0.505  11.331  1.00  0.00     0.052 C 
ENDBRANCH   3  13
TORSDOF 6
ENDMDL
MODEL 2
REMARK VINA RESULT: -6.902269042      1.403      1.703
REMARK  6 active torsions:
REMARK  status: ('A' for Active; 'I' for Inactive)
REMARK    1  A    between atoms: C2_2  and  C4_4 
REMARK    2  A    between atoms: C4_4  and  C5_5 
REMARK    3  A    between atoms: C5_5  and  O2_7 
REMARK    4  A    between atoms: O2_7  and  N1_8 
REMARK    5  A    between atoms: C6_10  and  O3_11 
REMARK    6  A    between atoms: C6_10  and  C7_13 
ROOT
HETATM    1  N1  UNL     1      -4.494   1.699  13.618  1.00  0.00    -0.236 N 
ATOM      2  H1  UNL     1      -4.272   2.692  13.543  1.00  0.00     0.197 HD
HETATM    3  C6  UNL     1      -4.235   0.925  12.619  1.00  0.00     0.177 C 
ENDROOT
BRANCH   1   4
HETATM    4  O2  UNL     1      -5.055   1.236  14.770  1.00  0.00    -0.197 OA
BRANCH   4   5
HETATM    5  C5  UNL     1      -4.455   1.455  16.016  1.00  0.00     0.285 C 
HETATM    6  O1  UNL     1      -3.221   1.462  16.152  1.00  0.00    -0.263 OA
BRANCH   5   7
HETATM    7  C4  UNL     1      -5.353   1.679  17.168  1.00  0.00     0.146 C 
BRANCH   7   8
HETATM    8  C2  UNL     1      -6.635   2.252  16.731  1.00  0.00    -0.084 C 
HETATM    9  C1  UNL     1      -7.738   1.545  16.766  1.00  0.00     0.014 C 
HETATM   10  C3  UNL     1      -6.688   3.653  16.243  1.00  0.00     0.043 C 
ENDBRANCH   7   8
ENDBRANCH   5   7
ENDBRANCH   4   5
ENDBRANCH   1   4
BRANCH   3  11
HETATM   11  O3  UNL     1      -4.550  -0.431  12.753  1.00  0.00    -0.346 OA
ATOM     12  H3  UNL     1      -4.821  -0.898  11.971  1.00  0.00     0.219 HD
ENDBRANCH   3  11
BRANCH   3  13
HETATM   13  C7  UNL     1      -3.636   1.362  11.361  1.00  0.00     0.169 C 
HETATM   14  F1  UNL     1      -4.330   1.002  10.219  1.00  0.00    -0.234 F 
HETATM   15  C8  UNL     1      -2.163   0.944  11.281  1.00  0.00     0.052 C 
HETATM   16  C9  UNL     1      -1.933   2.259  10.547  1.00  0.00     0.007 C 
HETATM   17  C10 UNL     1      -3.146   2.782  11.295  1.00  0.00     0.052 C 
ENDBRANCH   3  13
TORSDOF 6
ENDMDL
MODEL 3
REMARK VINA RESULT: -6.845387503      2.453      5.432
REMARK  6 active torsions:
REMARK  status: ('A' for Active; 'I' for Inactive)
REMARK    1  A    between atoms: C2_2  and  C4_4 
REMARK    2  A    between atoms: C4_4  and  C5_5 
REMARK    3  A    between atoms: C5_5  and  O2_7 
REMARK    4  A    between atoms: O2_7  and  N1_8 
REMARK    5  A    between atoms: C6_10  and  O3_11 
REMARK    6  A    between atoms: C6_10  and  C7_13 
ROOT
HETATM    1  N1  UNL     1      -4.425   3.212  15.170  1.00  0.00    -0.236 N 
ATOM      2  H1  UNL     1      -5.220   3.842  15.061  1.00  0.00     0.197 HD
HETATM    3  C6  UNL     1      -4.474   2.299  16.079  1.00  0.00     0.177 C 
ENDROOT
BRANCH   1   4
HETATM    4  O2  UNL     1      -3.348   3.364  14.349  1.00  0.00    -0.197 OA
BRANCH   4   5
HETATM    5  C5  UNL     1      -3.421   3.066  12.983  1.00  0.00     0.285 C 
HETATM    6  O1  UNL     1      -2.451   3.233  12.227  1.00  0.00    -0.263 OA
BRANCH   5   7
HETATM    7  C4  UNL     1      -4.705   2.541  12.475  1.00  0.00     0.146 C 
BRANCH   7   8
HETATM    8  C2  UNL     1      -4.574   1.133  12.071  1.00  0.00    -0.084 C 
HETATM    9  C1  UNL     1      -4.204   0.216  12.930  1.00  0.00     0.014 C 
HETATM   10  C3  UNL     1      -4.867   0.737  10.671  1.00  0.00     0.043 C 
ENDBRANCH   7   8
ENDBRANCH   5   7
ENDBRANCH   4   5
ENDBRANCH   1   4
BRANCH   3  11
HETATM   11  O3  UNL     1      -3.370   1.449  16.203  1.00  0.00    -0.346 OA
ATOM     12  H3  UNL     1      -3.057   1.018  15.417  1.00  0.00     0.219 HD
ENDBRANCH   3  11
BRANCH   3  13
HETATM   13  C7  UNL     1      -5.598   2.087  16.987  1.00  0.00     0.169 C 
HETATM   14  F1  UNL     1      -5.313   2.258  18.331  1.00  0.00    -0.234 F 
HETATM   15  C8  UNL     1      -6.271   0.735  16.720  1.00  0.00     0.052 C 
HETATM   16  C9  UNL     1      -7.581   1.432  17.062  1.00  0.00     0.007 C 
HETATM   17  C10 UNL     1      -6.910   2.716  16.607  1.00  0.00     0.052 C 
ENDBRANCH   3  13
TORSDOF 6
ENDMDL
MODEL 4
REMARK VINA RESULT: -6.843735906      1.613      2.032
REMARK  6 active torsions:
REMARK  status: ('A' for Active; 'I' for Inactive)
REMARK    1  A    between atoms: C2_2  and  C4_4 
REMARK    2  A    between atoms: C4_4  and  C5_5 
REMARK    3  A    between atoms: C5_5  and  O2_7 
REMARK    4  A    between atoms: O2_7  and  N1_8 
REMARK    5  A    between atoms: C6_10  and  O3_11 
REMARK    6  A    between atoms: C6_10  and  C7_13 
ROOT
HETATM    1  N1  UNL     1      -4.101   1.068  13.404  1.00  0.00    -0.236 N 
ATOM      2  H1  UNL     1      -3.649   1.966  13.575  1.00  0.00     0.197 HD
HETATM    3  C6  UNL     1      -4.045   0.558  12.221  1.00  0.00     0.177 C 
ENDROOT
BRANCH   1   4
HETATM    4  O2  UNL     1      -4.743   0.448  14.434  1.00  0.00    -0.197 OA
BRANCH   4   5
HETATM    5  C5  UNL     1      -4.643   0.920  15.749  1.00  0.00     0.285 C 
HETATM    6  O1  UNL     1      -3.571   1.344  16.208  1.00  0.00    -0.263 OA
BRANCH   5   7
HETATM    7  C4  UNL     1      -5.871   0.893  16.571  1.00  0.00     0.146 C 
BRANCH   7   8
HETATM    8  C2  UNL     1      -6.238   2.247  17.010  1.00  0.00    -0.084 C 
HETATM    9  C1  UNL     1      -6.525   3.184  16.141  1.00  0.00     0.014 C 
HETATM   10  C3  UNL     1      -6.289   2.563  18.460  1.00  0.00     0.043 C 
ENDBRANCH   7   8
ENDBRANCH   5   7
ENDBRANCH   4   5
ENDBRANCH   1   4
BRANCH   3  11
HETATM   11  O3  UNL     1      -4.674  -0.675  12.018  1.00  0.00    -0.346 OA
ATOM     12  H3  UNL     1      -5.015  -0.857  11.151  1.00  0.00     0.219 HD
ENDBRANCH   3  11
BRANCH   3  13
HETATM   13  C7  UNL     1      -3.373   1.172  11.080  1.00  0.00     0.169 C 
HETATM   14  F1  UNL     1      -3.762   0.698   9.838  1.00  0.00    -0.234 F 
HETATM   15  C8  UNL     1      -1.850   1.127  11.249  1.00  0.00     0.052 C 
HETATM   16  C9  UNL     1      -1.832   2.485  10.559  1.00  0.00     0.007 C 
HETATM   17  C10 UNL     1      -3.242   2.670  11.091  1.00  0.00     0.052 C 
ENDBRANCH   3  13
TORSDOF 6
ENDMDL
MODEL 5
REMARK VINA RESULT: -6.799225634      1.898      5.966
REMARK  6 active torsions:
REMARK  status: ('A' for Active; 'I' for Inactive)
REMARK    1  A    between atoms: C2_2  and  C4_4 
REMARK    2  A    between atoms: C4_4  and  C5_5 
REMARK    3  A    between atoms: C5_5  and  O2_7 
REMARK    4  A    between atoms: O2_7  and  N1_8 
REMARK    5  A    between atoms: C6_10  and  O3_11 
REMARK    6  A    between atoms: C6_10  and  C7_13 
ROOT
HETATM    1  N1  UNL     1      -4.948   1.827  13.898  1.00  0.00    -0.236 N 
ATOM      2  H1  UNL     1      -4.979   2.837  13.755  1.00  0.00     0.197 HD
HETATM    3  C6  UNL     1      -5.074   1.364  15.095  1.00  0.00     0.177 C 
ENDROOT
BRANCH   1   4
HETATM    4  O2  UNL     1      -4.776   1.014  12.818  1.00  0.00    -0.197 OA
BRANCH   4   5
HETATM    5  C5  UNL     1      -5.058   1.454  11.518  1.00  0.00     0.285 C 
HETATM    6  O1  UNL     1      -5.848   2.387  11.304  1.00  0.00    -0.263 OA
BRANCH   5   7
HETATM    7  C4  UNL     1      -4.374   0.760  10.408  1.00  0.00     0.146 C 
BRANCH   7   8
HETATM    8  C2  UNL     1      -3.099   0.181  10.856  1.00  0.00    -0.084 C 
HETATM    9  C1  UNL     1      -2.031   0.927  10.998  1.00  0.00     0.014 C 
HETATM   10  C3  UNL     1      -3.013  -1.270  11.156  1.00  0.00     0.043 C 
ENDBRANCH   7   8
ENDBRANCH   5   7
ENDBRANCH   4   5
ENDBRANCH   1   4
BRANCH   3  11
HETATM   11  O3  UNL     1      -5.028  -0.025  15.259  1.00  0.00    -0.346 OA
ATOM     12  H3  UNL     1      -5.533  -0.555  14.655  1.00  0.00     0.219 HD
ENDBRANCH   3  11
BRANCH   3  13
HETATM   13  C7  UNL     1      -5.260   2.182  16.290  1.00  0.00     0.169 C 
HETATM   14  F1  UNL     1      -4.221   3.049  16.582  1.00  0.00    -0.234 F 
HETATM   15  C8  UNL     1      -5.627   1.313  17.499  1.00  0.00     0.052 C 
HETATM   16  C9  UNL     1      -6.517   2.470  17.935  1.00  0.00     0.007 C 
HETATM   17  C10 UNL     1      -6.602   2.838  16.464  1.00  0.00     0.052 C 
ENDBRANCH   3  13
TORSDOF 6
ENDMDL
