MODEL 1
REMARK VINA RESULT: -6.179841132      0.000      0.000
REMARK  5 active torsions:
REMARK  status: ('A' for Active; 'I' for Inactive)
REMARK    1  A    between atoms: N1_2  and  C2_5 
REMARK    2  A    between atoms: C2_5  and  C3_6 
REMARK    3  A    between atoms: C3_6  and  C4_7 
REMARK    4  A    between atoms: C5_8  and  C6_9 
REMARK    5  A    between atoms: C6_9  and  N2_10 
ROOT
HETATM    1  N2  UNL     1      -3.288   3.824  13.263  1.00  0.00     0.091 N 
HETATM    2  C7  UNL     1      -4.549   3.231  12.843  1.00  0.00     0.273 C 
HETATM    3  C8  UNL     1      -5.691   3.358  13.756  1.00  0.00     0.039 C 
HETATM    4  C9  UNL     1      -5.439   3.491  15.215  1.00  0.00    -0.037 C 
HETATM    5  C10 UNL     1      -6.320   4.613  15.801  1.00  0.00     0.010 C 
HETATM    6  C11 UNL     1      -6.862   4.108  17.104  1.00  0.00     0.001 C 
HETATM    7  C12 UNL     1      -6.826   2.612  17.014  1.00  0.00     0.001 C 
HETATM    8  C13 UNL     1      -5.811   2.235  15.985  1.00  0.00     0.010 C 
HETATM    9  C14 UNL     1      -4.015   3.886  15.517  1.00  0.00     0.039 C 
HETATM   10  C15 UNL     1      -3.593   4.774  14.339  1.00  0.00     0.273 C 
ENDROOT
BRANCH   1  11
HETATM   11  C6  UNL     1      -2.664   4.556  12.150  1.00  0.00     0.299 C 
BRANCH  11  12
HETATM   12  C5  UNL     1      -1.283   4.086  12.069  1.00  0.00    -0.001 C 
HETATM   13  C4  UNL     1      -0.853   3.117  11.309  1.00  0.00    -0.027 C 
BRANCH  13  14
HETATM   14  C3  UNL     1      -1.712   2.344  10.403  1.00  0.00     0.054 C 
BRANCH  14  15
HETATM   15  C2  UNL     1      -2.000   0.973  11.086  1.00  0.00     0.235 C 
BRANCH  15  16
HETATM   16  N1  UNL     1      -3.325   0.610  10.600  1.00  0.00    -0.079 N 
HETATM   17  C1  UNL     1      -4.055  -0.246  11.509  1.00  0.00     0.266 C 
ATOM     18  H12 UNL     1      -3.268   0.189   9.673  1.00  0.00     0.276 HD
ATOM     19  H11 UNL     1      -3.868   1.444  10.373  1.00  0.00     0.276 HD
ENDBRANCH  15  16
ENDBRANCH  14  15
ENDBRANCH  13  14
ENDBRANCH  11  12
ENDBRANCH   1  11
TORSDOF 5
ENDMDL
MODEL 2
REMARK VINA RESULT: -6.071620935      0.783      1.666
REMARK  5 active torsions:
REMARK  status: ('A' for Active; 'I' for Inactive)
REMARK    1  A    between atoms: N1_2  and  C2_5 
REMARK    2  A    between atoms: C2_5  and  C3_6 
REMARK    3  A    between atoms: C3_6  and  C4_7 
REMARK    4  A    between atoms: C5_8  and  C6_9 
REMARK    5  A    between atoms: C6_9  and  N2_10 
ROOT
HETATM    1  N2  UNL     1      -4.475   4.414  12.821  1.00  0.00     0.091 N 
HETATM    2  C7  UNL     1      -3.978   5.136  13.983  1.00  0.00     0.273 C 
HETATM    3  C8  UNL     1      -4.095   4.476  15.288  1.00  0.00     0.039 C 
HETATM    4  C9  UNL     1      -5.180   3.482  15.502  1.00  0.00    -0.037 C 
HETATM    5  C10 UNL     1      -4.619   2.233  16.210  1.00  0.00     0.010 C 
HETATM    6  C11 UNL     1      -5.616   1.838  17.256  1.00  0.00     0.001 C 
HETATM    7  C12 UNL     1      -6.394   3.079  17.576  1.00  0.00     0.001 C 
HETATM    8  C13 UNL     1      -6.278   4.008  16.411  1.00  0.00     0.010 C 
HETATM    9  C14 UNL     1      -5.769   2.989  14.203  1.00  0.00     0.039 C 
HETATM   10  C15 UNL     1      -4.601   3.004  13.209  1.00  0.00     0.273 C 
ENDROOT
BRANCH   1  11
HETATM   11  C6  UNL     1      -3.524   4.513  11.704  1.00  0.00     0.299 C 
BRANCH  11  12
HETATM   12  C5  UNL     1      -2.197   4.277  12.267  1.00  0.00    -0.001 C 
HETATM   13  C4  UNL     1      -1.313   3.437  11.804  1.00  0.00    -0.027 C 
BRANCH  13  14
HETATM   14  C3  UNL     1      -1.525   2.592  10.622  1.00  0.00     0.054 C 
BRANCH  14  15
HETATM   15  C2  UNL     1      -1.837   1.150  11.127  1.00  0.00     0.235 C 
BRANCH  15  16
HETATM   16  N1  UNL     1      -3.055   0.785  10.413  1.00  0.00    -0.079 N 
HETATM   17  C1  UNL     1      -3.923  -0.090  11.171  1.00  0.00     0.266 C 
ATOM     18  H12 UNL     1      -2.834   0.377   9.505  1.00  0.00     0.276 HD
ATOM     19  H11 UNL     1      -3.558   1.618  10.106  1.00  0.00     0.276 HD
ENDBRANCH  15  16
ENDBRANCH  14  15
ENDBRANCH  13  14
ENDBRANCH  11  12
ENDBRANCH   1  11
TORSDOF 5
ENDMDL
MODEL 3
REMARK VINA RESULT: -6.037734546      2.878      5.845
REMARK  5 active torsions:
REMARK  status: ('A' for Active; 'I' for Inactive)
REMARK    1  A    between atoms: N1_2  and  C2_5 
REMARK    2  A    between atoms: C2_5  and  C3_6 
REMARK    3  A    between atoms: C3_6  and  C4_7 
REMARK    4  A    between atoms: C5_8  and  C6_9 
REMARK    5  A    between atoms: C6_9  and  N2_10 
ROOT
HETATM    1  N2  UNL     1      -5.085   4.528  13.813  1.00  0.00     0.091 N 
HETATM    2  C7  UNL     1      -3.757   4.161  14.281  1.00  0.00     0.273 C 
HETATM    3  C8  UNL     1      -2.814   5.251  14.559  1.00  0.00     0.039 C 
HETATM    4  C9  UNL     1      -2.960   6.538  13.828  1.00  0.00    -0.037 C 
HETATM    5  C10 UNL     1      -2.831   7.719  14.810  1.00  0.00     0.010 C 
HETATM    6  C11 UNL     1      -1.980   8.754  14.139  1.00  0.00     0.001 C 
HETATM    7  C12 UNL     1      -1.160   8.019  13.120  1.00  0.00     0.001 C 
HETATM    8  C13 UNL     1      -1.867   6.744  12.793  1.00  0.00     0.010 C 
HETATM    9  C14 UNL     1      -4.319   6.682  13.188  1.00  0.00     0.039 C 
HETATM   10  C15 UNL     1      -5.280   5.947  14.132  1.00  0.00     0.273 C 
ENDROOT
BRANCH   1  11
HETATM   11  C6  UNL     1      -6.115   3.742  14.507  1.00  0.00     0.299 C 
BRANCH  11  12
HETATM   12  C5  UNL     1      -6.352   4.408  15.786  1.00  0.00    -0.001 C 
HETATM   13  C4  UNL     1      -6.784   3.833  16.874  1.00  0.00    -0.027 C 
BRANCH  13  14
HETATM   14  C3  UNL     1      -7.097   2.402  16.976  1.00  0.00     0.054 C 
BRANCH  14  15
HETATM   15  C2  UNL     1      -5.971   1.734  17.822  1.00  0.00     0.235 C 
BRANCH  15  16
HETATM   16  N1  UNL     1      -5.580   0.574  17.031  1.00  0.00    -0.079 N 
HETATM   17  C1  UNL     1      -4.679   0.898  15.946  1.00  0.00     0.266 C 
ATOM     18  H12 UNL     1      -6.401   0.079  16.684  1.00  0.00     0.276 HD
ATOM     19  H11 UNL     1      -5.183  -0.153  17.626  1.00  0.00     0.276 HD
ENDBRANCH  15  16
ENDBRANCH  14  15
ENDBRANCH  13  14
ENDBRANCH  11  12
ENDBRANCH   1  11
TORSDOF 5
ENDMDL
MODEL 4
REMARK VINA RESULT: -5.980570730      1.516      2.252
REMARK  5 active torsions:
REMARK  status: ('A' for Active; 'I' for Inactive)
REMARK    1  A    between atoms: N1_2  and  C2_5 
REMARK    2  A    between atoms: C2_5  and  C3_6 
REMARK    3  A    between atoms: C3_6  and  C4_7 
REMARK    4  A    between atoms: C5_8  and  C6_9 
REMARK    5  A    between atoms: C6_9  and  N2_10 
ROOT
HETATM    1  N2  UNL     1      -4.601   5.038  14.357  1.00  0.00     0.091 N 
HETATM    2  C7  UNL     1      -3.703   4.246  15.182  1.00  0.00     0.273 C 
HETATM    3  C8  UNL     1      -4.286   3.129  15.935  1.00  0.00     0.039 C 
HETATM    4  C9  UNL     1      -5.716   3.194  16.333  1.00  0.00    -0.037 C 
HETATM    5  C10 UNL     1      -6.408   1.848  16.036  1.00  0.00     0.010 C 
HETATM    6  C11 UNL     1      -7.281   1.535  17.213  1.00  0.00     0.001 C 
HETATM    7  C12 UNL     1      -6.699   2.291  18.371  1.00  0.00     0.001 C 
HETATM    8  C13 UNL     1      -5.894   3.424  17.825  1.00  0.00     0.010 C 
HETATM    9  C14 UNL     1      -6.483   4.231  15.550  1.00  0.00     0.039 C 
HETATM   10  C15 UNL     1      -5.823   4.248  14.165  1.00  0.00     0.273 C 
ENDROOT
BRANCH   1  11
HETATM   11  C6  UNL     1      -3.999   5.302  13.041  1.00  0.00     0.299 C 
BRANCH  11  12
HETATM   12  C5  UNL     1      -2.986   4.269  12.834  1.00  0.00    -0.001 C 
HETATM   13  C4  UNL     1      -3.032   3.330  11.931  1.00  0.00    -0.027 C 
BRANCH  13  14
HETATM   14  C3  UNL     1      -4.129   3.171  10.968  1.00  0.00     0.054 C 
BRANCH  14  15
HETATM   15  C2  UNL     1      -5.015   1.986  11.457  1.00  0.00     0.235 C 
BRANCH  15  16
HETATM   16  N1  UNL     1      -5.004   1.054  10.336  1.00  0.00    -0.079 N 
HETATM   17  C1  UNL     1      -3.854   0.176  10.332  1.00  0.00     0.266 C 
ATOM     18  H12 UNL     1      -5.081   1.552   9.450  1.00  0.00     0.276 HD
ATOM     19  H11 UNL     1      -5.870   0.516  10.304  1.00  0.00     0.276 HD
ENDBRANCH  15  16
ENDBRANCH  14  15
ENDBRANCH  13  14
ENDBRANCH  11  12
ENDBRANCH   1  11
TORSDOF 5
ENDMDL
MODEL 5
REMARK VINA RESULT: -5.960250410      1.016      1.981
REMARK  5 active torsions:
REMARK  status: ('A' for Active; 'I' for Inactive)
REMARK    1  A    between atoms: N1_2  and  C2_5 
REMARK    2  A    between atoms: C2_5  and  C3_6 
REMARK    3  A    between atoms: C3_6  and  C4_7 
REMARK    4  A    between atoms: C5_8  and  C6_9 
REMARK    5  A    between atoms: C6_9  and  N2_10 
ROOT
HETATM    1  N2  UNL     1      -4.207   4.312  13.705  1.00  0.00     0.091 N 
HETATM    2  C7  UNL     1      -3.509   4.262  14.980  1.00  0.00     0.273 C 
HETATM    3  C8  UNL     1      -4.032   3.346  16.000  1.00  0.00     0.039 C 
HETATM    4  C9  UNL     1      -5.478   2.999  15.987  1.00  0.00    -0.037 C 
HETATM    5  C10 UNL     1      -5.657   1.480  16.181  1.00  0.00     0.010 C 
HETATM    6  C11 UNL     1      -6.795   1.292  17.138  1.00  0.00     0.001 C 
HETATM    7  C12 UNL     1      -6.885   2.564  17.928  1.00  0.00     0.001 C 
HETATM    8  C13 UNL     1      -6.241   3.649  17.129  1.00  0.00     0.010 C 
HETATM    9  C14 UNL     1      -6.134   3.325  14.668  1.00  0.00     0.039 C 
HETATM   10  C15 UNL     1      -5.038   3.105  13.617  1.00  0.00     0.273 C 
ENDROOT
BRANCH   1  11
HETATM   11  C6  UNL     1      -3.249   4.307  12.589  1.00  0.00     0.299 C 
BRANCH  11  12
HETATM   12  C5  UNL     1      -3.953   3.738  11.442  1.00  0.00    -0.001 C 
HETATM   13  C4  UNL     1      -3.432   2.945  10.547  1.00  0.00    -0.027 C 
BRANCH  13  14
HETATM   14  C3  UNL     1      -2.034   2.495  10.565  1.00  0.00     0.054 C 
BRANCH  14  15
HETATM   15  C2  UNL     1      -2.008   1.070  11.195  1.00  0.00     0.235 C 
BRANCH  15  16
HETATM   16  N1  UNL     1      -3.108   0.376  10.536  1.00  0.00    -0.079 N 
HETATM   17  C1  UNL     1      -3.505  -0.840  11.212  1.00  0.00     0.266 C 
ATOM     18  H12 UNL     1      -2.885   0.190   9.559  1.00  0.00     0.276 HD
ATOM     19  H11 UNL     1      -3.906   0.998  10.412  1.00  0.00     0.276 HD
ENDBRANCH  15  16
ENDBRANCH  14  15
ENDBRANCH  13  14
ENDBRANCH  11  12
ENDBRANCH   1  11
TORSDOF 5
ENDMDL
