MODEL 1
REMARK VINA RESULT: -6.821847087      0.000      0.000
REMARK  5 active torsions:
REMARK  status: ('A' for Active; 'I' for Inactive)
REMARK    1  A    between atoms: C6_6  and  N1_7 
REMARK    2  A    between atoms: N1_7  and  C7_9 
REMARK    3  A    between atoms: C7_9  and  C8_10 
REMARK    4  A    between atoms: C8_10  and  C9_11 
REMARK    5  A    between atoms: C9_11  and  N2_12 
ROOT
HETATM    1  N1  UNL     1      -5.482   3.224  13.981  1.00  0.00    -0.417 N 
ATOM      2  H1  UNL     1      -5.785   2.483  13.350  1.00  0.00     0.153 HD
ENDROOT
BRANCH   1   3
HETATM    3  C6  UNL     1      -5.891   3.223  15.328  1.00  0.00     0.080 C 
HETATM    4  C5  UNL     1      -6.037   4.601  15.942  1.00  0.00     0.025 C 
HETATM    5  C4  UNL     1      -6.991   4.417  17.131  1.00  0.00     0.002 C 
HETATM    6  C3  UNL     1      -6.514   3.372  18.084  1.00  0.00     0.005 C 
HETATM    7  C2  UNL     1      -6.023   2.108  17.472  1.00  0.00    -0.013 C 
HETATM    8  C1  UNL     1      -7.129   1.149  17.107  1.00  0.00     0.010 C 
HETATM    9  C14 UNL     1      -5.099   2.391  16.291  1.00  0.00     0.007 C 
HETATM   10  C15 UNL     1      -4.594   1.138  15.665  1.00  0.00     0.012 C 
ENDBRANCH   1   3
BRANCH   1  11
HETATM   11  C7  UNL     1      -4.646   4.264  13.513  1.00  0.00     0.116 C 
BRANCH  11  12
HETATM   12  C8  UNL     1      -3.640   3.791  12.487  1.00  0.00     0.049 C 
BRANCH  12  13
HETATM   13  C9  UNL     1      -4.279   3.545  11.141  1.00  0.00     0.274 C 
BRANCH  13  14
HETATM   14  N2  UNL     1      -3.926   2.220  10.649  1.00  0.00     0.088 N 
HETATM   15  C10 UNL     1      -2.723   1.764  11.358  1.00  0.00     0.272 C 
HETATM   16  C11 UNL     1      -2.782   0.276  11.159  1.00  0.00     0.032 C 
HETATM   17  C12 UNL     1      -4.252  -0.031  11.318  1.00  0.00     0.032 C 
HETATM   18  C13 UNL     1      -4.931   1.288  11.106  1.00  0.00     0.272 C 
ENDBRANCH  13  14
ENDBRANCH  12  13
ENDBRANCH  11  12
ENDBRANCH   1  11
TORSDOF 5
ENDMDL
MODEL 2
REMARK VINA RESULT: -6.672926174      0.570      1.077
REMARK  5 active torsions:
REMARK  status: ('A' for Active; 'I' for Inactive)
REMARK    1  A    between atoms: C6_6  and  N1_7 
REMARK    2  A    between atoms: N1_7  and  C7_9 
REMARK    3  A    between atoms: C7_9  and  C8_10 
REMARK    4  A    between atoms: C8_10  and  C9_11 
REMARK    5  A    between atoms: C9_11  and  N2_12 
ROOT
HETATM    1  N1  UNL     1      -5.597   3.375  13.944  1.00  0.00    -0.417 N 
ATOM      2  H1  UNL     1      -5.922   2.659  13.295  1.00  0.00     0.153 HD
ENDROOT
BRANCH   1   3
HETATM    3  C6  UNL     1      -5.965   3.326  15.301  1.00  0.00     0.080 C 
HETATM    4  C5  UNL     1      -6.091   4.680  15.969  1.00  0.00     0.025 C 
HETATM    5  C4  UNL     1      -7.008   4.453  17.179  1.00  0.00     0.002 C 
HETATM    6  C3  UNL     1      -6.504   3.374  18.078  1.00  0.00     0.005 C 
HETATM    7  C2  UNL     1      -6.034   2.133  17.406  1.00  0.00    -0.013 C 
HETATM    8  C1  UNL     1      -7.151   1.188  17.040  1.00  0.00     0.010 C 
HETATM    9  C14 UNL     1      -5.145   2.459  16.209  1.00  0.00     0.007 C 
HETATM   10  C15 UNL     1      -4.661   1.229  15.523  1.00  0.00     0.012 C 
ENDBRANCH   1   3
BRANCH   1  11
HETATM   11  C7  UNL     1      -4.771   4.430  13.490  1.00  0.00     0.116 C 
BRANCH  11  12
HETATM   12  C8  UNL     1      -3.434   3.947  12.972  1.00  0.00     0.049 C 
BRANCH  12  13
HETATM   13  C9  UNL     1      -3.580   3.104  11.728  1.00  0.00     0.274 C 
BRANCH  13  14
HETATM   14  N2  UNL     1      -3.422   1.693  12.051  1.00  0.00     0.088 N 
HETATM   15  C10 UNL     1      -4.620   0.973  11.596  1.00  0.00     0.272 C 
HETATM   16  C11 UNL     1      -4.126  -0.443  11.508  1.00  0.00     0.032 C 
HETATM   17  C12 UNL     1      -2.737  -0.284  10.935  1.00  0.00     0.032 C 
HETATM   18  C13 UNL     1      -2.388   1.150  11.199  1.00  0.00     0.272 C 
ENDBRANCH  13  14
ENDBRANCH  12  13
ENDBRANCH  11  12
ENDBRANCH   1  11
TORSDOF 5
ENDMDL
MODEL 3
REMARK VINA RESULT: -6.503438404      0.971      2.275
REMARK  5 active torsions:
REMARK  status: ('A' for Active; 'I' for Inactive)
REMARK    1  A    between atoms: C6_6  and  N1_7 
REMARK    2  A    between atoms: N1_7  and  C7_9 
REMARK    3  A    between atoms: C7_9  and  C8_10 
REMARK    4  A    between atoms: C8_10  and  C9_11 
REMARK    5  A    between atoms: C9_11  and  N2_12 
ROOT
HETATM    1  N1  UNL     1      -4.022   4.229  15.282  1.00  0.00    -0.417 N 
ATOM      2  H1  UNL     1      -3.773   5.080  15.787  1.00  0.00     0.153 HD
ENDROOT
BRANCH   1   3
HETATM    3  C6  UNL     1      -4.871   3.274  15.872  1.00  0.00     0.080 C 
HETATM    4  C5  UNL     1      -4.740   1.877  15.300  1.00  0.00     0.025 C 
HETATM    5  C4  UNL     1      -5.270   0.939  16.393  1.00  0.00     0.002 C 
HETATM    6  C3  UNL     1      -6.654   1.295  16.823  1.00  0.00     0.005 C 
HETATM    7  C2  UNL     1      -6.911   2.741  17.059  1.00  0.00    -0.013 C 
HETATM    8  C1  UNL     1      -6.459   3.217  18.417  1.00  0.00     0.010 C 
HETATM    9  C14 UNL     1      -6.334   3.593  15.932  1.00  0.00     0.007 C 
HETATM   10  C15 UNL     1      -6.583   5.045  16.148  1.00  0.00     0.012 C 
ENDBRANCH   1   3
BRANCH   1  11
HETATM   11  C7  UNL     1      -3.517   3.996  13.982  1.00  0.00     0.116 C 
BRANCH  11  12
HETATM   12  C8  UNL     1      -4.378   4.611  12.900  1.00  0.00     0.049 C 
BRANCH  12  13
HETATM   13  C9  UNL     1      -4.212   3.904  11.576  1.00  0.00     0.274 C 
BRANCH  13  14
HETATM   14  N2  UNL     1      -3.926   2.492  11.788  1.00  0.00     0.088 N 
HETATM   15  C10 UNL     1      -5.055   1.705  11.273  1.00  0.00     0.272 C 
HETATM   16  C11 UNL     1      -4.435   0.351  11.077  1.00  0.00     0.032 C 
HETATM   17  C12 UNL     1      -3.068   0.680  10.524  1.00  0.00     0.032 C 
HETATM   18  C13 UNL     1      -2.850   2.113  10.902  1.00  0.00     0.272 C 
ENDBRANCH  13  14
ENDBRANCH  12  13
ENDBRANCH  11  12
ENDBRANCH   1  11
TORSDOF 5
ENDMDL
MODEL 4
REMARK VINA RESULT: -6.403840822      1.396      2.416
REMARK  5 active torsions:
REMARK  status: ('A' for Active; 'I' for Inactive)
REMARK    1  A    between atoms: C6_6  and  N1_7 
REMARK    2  A    between atoms: N1_7  and  C7_9 
REMARK    3  A    between atoms: C7_9  and  C8_10 
REMARK    4  A    between atoms: C8_10  and  C9_11 
REMARK    5  A    between atoms: C9_11  and  N2_12 
ROOT
HETATM    1  N1  UNL     1      -4.118   1.130  15.507  1.00  0.00    -0.417 N 
ATOM      2  H1  UNL     1      -3.284   0.959  16.068  1.00  0.00     0.153 HD
ENDROOT
BRANCH   1   3
HETATM    3  C6  UNL     1      -5.053   2.105  15.901  1.00  0.00     0.080 C 
HETATM    4  C5  UNL     1      -4.606   3.534  15.675  1.00  0.00     0.025 C 
HETATM    5  C4  UNL     1      -5.898   4.360  15.616  1.00  0.00     0.002 C 
HETATM    6  C3  UNL     1      -6.747   4.172  16.829  1.00  0.00     0.005 C 
HETATM    7  C2  UNL     1      -6.920   2.769  17.291  1.00  0.00    -0.013 C 
HETATM    8  C1  UNL     1      -7.985   2.014  16.533  1.00  0.00     0.010 C 
HETATM    9  C14 UNL     1      -5.588   2.025  17.300  1.00  0.00     0.007 C 
HETATM   10  C15 UNL     1      -5.739   0.617  17.762  1.00  0.00     0.012 C 
ENDBRANCH   1   3
BRANCH   1  11
HETATM   11  C7  UNL     1      -4.348   0.390  14.323  1.00  0.00     0.116 C 
BRANCH  11  12
HETATM   12  C8  UNL     1      -4.406   1.263  13.088  1.00  0.00     0.049 C 
BRANCH  12  13
HETATM   13  C9  UNL     1      -4.181   0.468  11.824  1.00  0.00     0.274 C 
BRANCH  13  14
HETATM   14  N2  UNL     1      -3.414   1.250  10.865  1.00  0.00     0.088 N 
HETATM   15  C10 UNL     1      -3.618   2.676  11.154  1.00  0.00     0.272 C 
HETATM   16  C11 UNL     1      -2.431   3.309  10.486  1.00  0.00     0.032 C 
HETATM   17  C12 UNL     1      -1.311   2.343  10.794  1.00  0.00     0.032 C 
HETATM   18  C13 UNL     1      -2.010   1.068  11.158  1.00  0.00     0.272 C 
ENDBRANCH  13  14
ENDBRANCH  12  13
ENDBRANCH  11  12
ENDBRANCH   1  11
TORSDOF 5
ENDMDL
MODEL 5
REMARK VINA RESULT: -6.327262758      0.779      1.997
REMARK  5 active torsions:
REMARK  status: ('A' for Active; 'I' for Inactive)
REMARK    1  A    between atoms: C6_6  and  N1_7 
REMARK    2  A    between atoms: N1_7  and  C7_9 
REMARK    3  A    between atoms: C7_9  and  C8_10 
REMARK    4  A    between atoms: C8_10  and  C9_11 
REMARK    5  A    between atoms: C9_11  and  N2_12 
ROOT
HETATM    1  N1  UNL     1      -4.256   3.998  15.192  1.00  0.00    -0.417 N 
ATOM      2  H1  UNL     1      -3.444   4.432  15.629  1.00  0.00     0.153 HD
ENDROOT
BRANCH   1   3
HETATM    3  C6  UNL     1      -5.018   3.046  15.894  1.00  0.00     0.080 C 
HETATM    4  C5  UNL     1      -4.952   1.643  15.324  1.00  0.00     0.025 C 
HETATM    5  C4  UNL     1      -5.335   0.715  16.486  1.00  0.00     0.002 C 
HETATM    6  C3  UNL     1      -6.656   1.069  17.082  1.00  0.00     0.005 C 
HETATM    7  C2  UNL     1      -6.890   2.516  17.333  1.00  0.00    -0.013 C 
HETATM    8  C1  UNL     1      -6.274   3.010  18.618  1.00  0.00     0.010 C 
HETATM    9  C14 UNL     1      -6.465   3.358  16.133  1.00  0.00     0.007 C 
HETATM   10  C15 UNL     1      -6.694   4.812  16.363  1.00  0.00     0.012 C 
ENDBRANCH   1   3
BRANCH   1  11
HETATM   11  C7  UNL     1      -4.630   4.347  13.873  1.00  0.00     0.116 C 
BRANCH  11  12
HETATM   12  C8  UNL     1      -3.616   3.905  12.840  1.00  0.00     0.049 C 
BRANCH  12  13
HETATM   13  C9  UNL     1      -4.213   3.839  11.454  1.00  0.00     0.274 C 
BRANCH  13  14
HETATM   14  N2  UNL     1      -3.939   2.544  10.846  1.00  0.00     0.088 N 
HETATM   15  C10 UNL     1      -2.714   1.997  11.446  1.00  0.00     0.272 C 
HETATM   16  C11 UNL     1      -2.840   0.530  11.143  1.00  0.00     0.032 C 
HETATM   17  C12 UNL     1      -4.310   0.262  11.368  1.00  0.00     0.032 C 
HETATM   18  C13 UNL     1      -4.950   1.614  11.295  1.00  0.00     0.272 C 
ENDBRANCH  13  14
ENDBRANCH  12  13
ENDBRANCH  11  12
ENDBRANCH   1  11
TORSDOF 5
ENDMDL
