MODEL 1
REMARK VINA RESULT: -6.692411593      0.000      0.000
REMARK  6 active torsions:
REMARK  status: ('A' for Active; 'I' for Inactive)
REMARK    1  A    between atoms: N1_2  and  C3_4 
REMARK    2  A    between atoms: C3_4  and  C4_5 
REMARK    3  A    between atoms: C3_4  and  C10_14 
REMARK    4  A    between atoms: C4_5  and  N2_6 
REMARK    5  A    between atoms: N2_6  and  C5_9 
REMARK    6  A    between atoms: C5_9  and  C6_10 
ROOT
HETATM    1  C3  UNL     1      -4.131   3.801  14.535  1.00  0.00     0.251 C 
ENDROOT
BRANCH   1   2
HETATM    2  N1  UNL     1      -3.379   4.956  14.836  1.00  0.00     0.086 N 
HETATM    3  C1  UNL     1      -2.042   4.961  14.241  1.00  0.00     0.310 C 
HETATM    4  C2  UNL     1      -4.036   6.211  14.555  1.00  0.00     0.310 C 
ENDBRANCH   1   2
BRANCH   1   5
HETATM    5  C4  UNL     1      -4.696   3.604  13.190  1.00  0.00     0.268 C 
BRANCH   5   6
HETATM    6  N2  UNL     1      -4.075   2.606  12.355  1.00  0.00    -0.073 N 
ATOM      7  H22 UNL     1      -3.223   2.953  11.915  1.00  0.00     0.277 HD
ATOM      8  H21 UNL     1      -3.663   1.851  12.903  1.00  0.00     0.277 HD
BRANCH   6   9
HETATM    9  C5  UNL     1      -5.046   2.105  11.363  1.00  0.00     0.237 C 
BRANCH   9  10
HETATM   10  C6  UNL     1      -4.686   0.679  11.089  1.00  0.00     0.011 C 
HETATM   11  C7  UNL     1      -4.132  -0.094  12.270  1.00  0.00     0.006 C 
HETATM   12  C8  UNL     1      -3.222  -0.807  11.260  1.00  0.00     0.001 C 
HETATM   13  C9  UNL     1      -3.302   0.495  10.450  1.00  0.00     0.006 C 
ENDBRANCH   9  10
ENDBRANCH   6   9
ENDBRANCH   5   6
ENDBRANCH   1   5
BRANCH   1  14
HETATM   14  C10 UNL     1      -4.973   3.354  15.672  1.00  0.00     0.021 C 
HETATM   15  C11 UNL     1      -6.351   3.854  15.807  1.00  0.00     0.007 C 
HETATM   16  C12 UNL     1      -6.791   3.567  17.240  1.00  0.00     0.000 C 
HETATM   17  C13 UNL     1      -6.574   2.196  17.715  1.00  0.00     0.000 C 
HETATM   18  C14 UNL     1      -5.425   1.451  17.126  1.00  0.00     0.000 C 
HETATM   19  C15 UNL     1      -5.065   1.823  15.737  1.00  0.00     0.007 C 
ENDBRANCH   1  14
TORSDOF 6
ENDMDL
MODEL 2
REMARK VINA RESULT: -6.403487274      0.554      1.314
REMARK  6 active torsions:
REMARK  status: ('A' for Active; 'I' for Inactive)
REMARK    1  A    between atoms: N1_2  and  C3_4 
REMARK    2  A    between atoms: C3_4  and  C4_5 
REMARK    3  A    between atoms: C3_4  and  C10_14 
REMARK    4  A    between atoms: C4_5  and  N2_6 
REMARK    5  A    between atoms: N2_6  and  C5_9 
REMARK    6  A    between atoms: C5_9  and  C6_10 
ROOT
HETATM    1  C3  UNL     1      -4.504   3.514  14.281  1.00  0.00     0.251 C 
ENDROOT
BRANCH   1   2
HETATM    2  N1  UNL     1      -4.019   4.791  14.632  1.00  0.00     0.086 N 
HETATM    3  C1  UNL     1      -2.559   4.870  14.697  1.00  0.00     0.310 C 
HETATM    4  C2  UNL     1      -4.526   5.884  13.836  1.00  0.00     0.310 C 
ENDBRANCH   1   2
BRANCH   1   5
HETATM    5  C4  UNL     1      -4.985   3.243  12.916  1.00  0.00     0.268 C 
BRANCH   5   6
HETATM    6  N2  UNL     1      -4.226   2.309  12.123  1.00  0.00    -0.073 N 
ATOM      7  H22 UNL     1      -3.387   2.734  11.731  1.00  0.00     0.277 HD
ATOM      8  H21 UNL     1      -3.777   1.596  12.698  1.00  0.00     0.277 HD
BRANCH   6   9
HETATM    9  C5  UNL     1      -5.087   1.718  11.081  1.00  0.00     0.237 C 
BRANCH   9  10
HETATM   10  C6  UNL     1      -4.616   0.313  10.877  1.00  0.00     0.011 C 
HETATM   11  C7  UNL     1      -4.099  -0.390  12.117  1.00  0.00     0.006 C 
HETATM   12  C8  UNL     1      -3.074  -1.066  11.197  1.00  0.00     0.001 C 
HETATM   13  C9  UNL     1      -3.181   0.206  10.344  1.00  0.00     0.006 C 
ENDBRANCH   9  10
ENDBRANCH   6   9
ENDBRANCH   5   6
ENDBRANCH   1   5
BRANCH   1  14
HETATM   14  C10 UNL     1      -5.259   2.866  15.383  1.00  0.00     0.021 C 
HETATM   15  C11 UNL     1      -4.561   1.986  16.334  1.00  0.00     0.007 C 
HETATM   16  C12 UNL     1      -5.631   1.168  17.052  1.00  0.00     0.000 C 
HETATM   17  C13 UNL     1      -6.752   1.931  17.612  1.00  0.00     0.000 C 
HETATM   18  C14 UNL     1      -7.125   3.195  16.916  1.00  0.00     0.000 C 
HETATM   19  C15 UNL     1      -6.015   3.900  16.230  1.00  0.00     0.007 C 
ENDBRANCH   1  14
TORSDOF 6
ENDMDL
MODEL 3
REMARK VINA RESULT: -6.324917947      1.734      3.609
REMARK  6 active torsions:
REMARK  status: ('A' for Active; 'I' for Inactive)
REMARK    1  A    between atoms: N1_2  and  C3_4 
REMARK    2  A    between atoms: C3_4  and  C4_5 
REMARK    3  A    between atoms: C3_4  and  C10_14 
REMARK    4  A    between atoms: C4_5  and  N2_6 
REMARK    5  A    between atoms: N2_6  and  C5_9 
REMARK    6  A    between atoms: C5_9  and  C6_10 
ROOT
HETATM    1  C3  UNL     1      -5.612   2.345  15.772  1.00  0.00     0.251 C 
ENDROOT
BRANCH   1   2
HETATM    2  N1  UNL     1      -6.468   2.366  16.893  1.00  0.00     0.086 N 
HETATM    3  C1  UNL     1      -7.620   1.473  16.772  1.00  0.00     0.310 C 
HETATM    4  C2  UNL     1      -5.823   2.151  18.167  1.00  0.00     0.310 C 
ENDBRANCH   1   2
BRANCH   1   5
HETATM    5  C4  UNL     1      -4.495   1.387  15.700  1.00  0.00     0.268 C 
BRANCH   5   6
HETATM    6  N2  UNL     1      -4.451   0.512  14.555  1.00  0.00    -0.073 N 
ATOM      7  H22 UNL     1      -3.719  -0.193  14.641  1.00  0.00     0.277 HD
ATOM      8  H21 UNL     1      -5.256  -0.112  14.521  1.00  0.00     0.277 HD
BRANCH   6   9
HETATM    9  C5  UNL     1      -4.312   1.307  13.320  1.00  0.00     0.237 C 
BRANCH   9  10
HETATM   10  C6  UNL     1      -4.095   0.335  12.204  1.00  0.00     0.011 C 
HETATM   11  C7  UNL     1      -2.792   0.493  11.445  1.00  0.00     0.006 C 
HETATM   12  C8  UNL     1      -3.579   0.088  10.191  1.00  0.00     0.001 C 
HETATM   13  C9  UNL     1      -4.788   0.724  10.891  1.00  0.00     0.006 C 
ENDBRANCH   9  10
ENDBRANCH   6   9
ENDBRANCH   5   6
ENDBRANCH   1   5
BRANCH   1  14
HETATM   14  C10 UNL     1      -5.350   3.699  15.226  1.00  0.00     0.021 C 
HETATM   15  C11 UNL     1      -6.171   4.840  15.663  1.00  0.00     0.007 C 
HETATM   16  C12 UNL     1      -5.954   5.960  14.649  1.00  0.00     0.000 C 
HETATM   17  C13 UNL     1      -4.557   6.279  14.336  1.00  0.00     0.000 C 
HETATM   18  C14 UNL     1      -3.570   5.166  14.438  1.00  0.00     0.000 C 
HETATM   19  C15 UNL     1      -3.888   4.118  15.437  1.00  0.00     0.007 C 
ENDBRANCH   1  14
TORSDOF 6
ENDMDL
MODEL 4
REMARK VINA RESULT: -6.288582539      1.511      5.307
REMARK  6 active torsions:
REMARK  status: ('A' for Active; 'I' for Inactive)
REMARK    1  A    between atoms: N1_2  and  C3_4 
REMARK    2  A    between atoms: C3_4  and  C4_5 
REMARK    3  A    between atoms: C3_4  and  C10_14 
REMARK    4  A    between atoms: C4_5  and  N2_6 
REMARK    5  A    between atoms: N2_6  and  C5_9 
REMARK    6  A    between atoms: C5_9  and  C6_10 
ROOT
HETATM    1  C3  UNL     1      -4.240   3.877  12.446  1.00  0.00     0.251 C 
ENDROOT
BRANCH   1   2
HETATM    2  N1  UNL     1      -3.583   4.890  11.716  1.00  0.00     0.086 N 
HETATM    3  C1  UNL     1      -4.463   5.624  10.805  1.00  0.00     0.310 C 
HETATM    4  C2  UNL     1      -2.820   5.825  12.507  1.00  0.00     0.310 C 
ENDBRANCH   1   2
BRANCH   1   5
HETATM    5  C4  UNL     1      -4.383   3.980  13.908  1.00  0.00     0.268 C 
BRANCH   5   6
HETATM    6  N2  UNL     1      -3.913   2.868  14.696  1.00  0.00    -0.073 N 
ATOM      7  H22 UNL     1      -4.114   1.973  14.251  1.00  0.00     0.277 HD
ATOM      8  H21 UNL     1      -2.895   2.807  14.701  1.00  0.00     0.277 HD
BRANCH   6   9
HETATM    9  C5  UNL     1      -4.470   2.947  16.060  1.00  0.00     0.237 C 
BRANCH   9  10
HETATM   10  C6  UNL     1      -5.809   2.282  16.019  1.00  0.00     0.011 C 
HETATM   11  C7  UNL     1      -6.903   2.964  16.816  1.00  0.00     0.006 C 
HETATM   12  C8  UNL     1      -7.424   1.556  17.136  1.00  0.00     0.001 C 
HETATM   13  C9  UNL     1      -5.959   1.116  17.006  1.00  0.00     0.006 C 
ENDBRANCH   9  10
ENDBRANCH   6   9
ENDBRANCH   5   6
ENDBRANCH   1   5
BRANCH   1  14
HETATM   14  C10 UNL     1      -3.974   2.520  11.907  1.00  0.00     0.021 C 
HETATM   15  C11 UNL     1      -4.970   1.863  11.046  1.00  0.00     0.007 C 
HETATM   16  C12 UNL     1      -4.617   0.378  11.009  1.00  0.00     0.000 C 
HETATM   17  C13 UNL     1      -3.219   0.059  10.703  1.00  0.00     0.000 C 
HETATM   18  C14 UNL     1      -2.192   1.058  11.116  1.00  0.00     0.000 C 
HETATM   19  C15 UNL     1      -2.644   2.469  11.140  1.00  0.00     0.007 C 
ENDBRANCH   1  14
TORSDOF 6
ENDMDL
MODEL 5
REMARK VINA RESULT: -6.189690042      1.251      1.576
REMARK  6 active torsions:
REMARK  status: ('A' for Active; 'I' for Inactive)
REMARK    1  A    between atoms: N1_2  and  C3_4 
REMARK    2  A    between atoms: C3_4  and  C4_5 
REMARK    3  A    between atoms: C3_4  and  C10_14 
REMARK    4  A    between atoms: C4_5  and  N2_6 
REMARK    5  A    between atoms: N2_6  and  C5_9 
REMARK    6  A    between atoms: C5_9  and  C6_10 
ROOT
HETATM    1  C3  UNL     1      -4.424   3.345  14.633  1.00  0.00     0.251 C 
ENDROOT
BRANCH   1   2
HETATM    2  N1  UNL     1      -4.033   4.684  14.426  1.00  0.00     0.086 N 
HETATM    3  C1  UNL     1      -2.583   4.881  14.419  1.00  0.00     0.310 C 
HETATM    4  C2  UNL     1      -4.612   5.324  13.269  1.00  0.00     0.310 C 
ENDBRANCH   1   2
BRANCH   1   5
HETATM    5  C4  UNL     1      -4.850   2.504  13.501  1.00  0.00     0.268 C 
BRANCH   5   6
HETATM    6  N2  UNL     1      -3.884   1.575  12.972  1.00  0.00    -0.073 N 
ATOM      7  H22 UNL     1      -2.945   1.971  12.948  1.00  0.00     0.277 HD
ATOM      8  H21 UNL     1      -3.704   0.803  13.614  1.00  0.00     0.277 HD
BRANCH   6   9
HETATM    9  C5  UNL     1      -4.318   1.100  11.643  1.00  0.00     0.237 C 
BRANCH   9  10
HETATM   10  C6  UNL     1      -3.243   1.482  10.676  1.00  0.00     0.011 C 
HETATM   11  C7  UNL     1      -1.826   1.170  11.117  1.00  0.00     0.006 C 
HETATM   12  C8  UNL     1      -1.416   2.468  10.409  1.00  0.00     0.001 C 
HETATM   13  C9  UNL     1      -2.831   2.958  10.749  1.00  0.00     0.006 C 
ENDBRANCH   9  10
ENDBRANCH   6   9
ENDBRANCH   5   6
ENDBRANCH   1   5
BRANCH   1  14
HETATM   14  C10 UNL     1      -5.165   3.154  15.905  1.00  0.00     0.021 C 
HETATM   15  C11 UNL     1      -6.424   3.879  16.138  1.00  0.00     0.007 C 
HETATM   16  C12 UNL     1      -6.707   3.810  17.637  1.00  0.00     0.000 C 
HETATM   17  C13 UNL     1      -6.632   2.477  18.243  1.00  0.00     0.000 C 
HETATM   18  C14 UNL     1      -5.692   1.503  17.618  1.00  0.00     0.000 C 
HETATM   19  C15 UNL     1      -5.469   1.671  16.162  1.00  0.00     0.007 C 
ENDBRANCH   1  14
TORSDOF 6
ENDMDL
