MODEL 1
REMARK VINA RESULT: -5.863879548      0.000      0.000
REMARK  5 active torsions:
REMARK  status: ('A' for Active; 'I' for Inactive)
REMARK    1  A    between atoms: C2_2  and  C3_3 
REMARK    2  A    between atoms: C10_11  and  C11_12 
REMARK    3  A    between atoms: C11_12  and  C12_13 
REMARK    4  A    between atoms: C12_13  and  C13_14 
REMARK    5  A    between atoms: C13_14  and  N2_15 
ROOT
HETATM    1  C3  UNL     1      -3.869   1.749  11.842  1.00  0.00    -0.023 C 
HETATM    2  C4  UNL     1      -5.241   2.058  11.266  1.00  0.00     0.017 C 
HETATM    3  C5  UNL     1      -2.957   1.493  10.693  1.00  0.00     0.016 C 
HETATM    4  C6  UNL     1      -1.567   2.041  10.876  1.00  0.00     0.045 C 
HETATM    5  C7  UNL     1      -1.582   3.476  11.334  1.00  0.00     0.058 C 
HETATM    6  N1  UNL     1      -2.576   3.808  12.249  1.00  0.00    -0.388 N 
HETATM    7  C8  UNL     1      -3.305   5.013  12.040  1.00  0.00     0.123 C 
HETATM    8  C9  UNL     1      -4.417   5.002  13.063  1.00  0.00     0.026 C 
HETATM    9  C10 UNL     1      -4.521   3.558  13.449  1.00  0.00     0.011 C 
HETATM   10  C15 UNL     1      -3.393   2.810  12.794  1.00  0.00     0.095 C 
ENDROOT
BRANCH   9  11
HETATM   11  C11 UNL     1      -4.491   3.424  14.959  1.00  0.00     0.008 C 
BRANCH  11  12
HETATM   12  C12 UNL     1      -5.534   2.423  15.399  1.00  0.00     0.028 C 
BRANCH  12  13
HETATM   13  C13 UNL     1      -4.847   1.281  16.143  1.00  0.00     0.231 C 
BRANCH  13  14
HETATM   14  N2  UNL     1      -5.713   0.756  17.185  1.00  0.00    -0.079 N 
HETATM   15  C14 UNL     1      -7.010   1.379  17.035  1.00  0.00     0.266 C 
ATOM     16  H22 UNL     1      -5.760  -0.263  17.184  1.00  0.00     0.276 HD
ATOM     17  H21 UNL     1      -5.322   0.873  18.120  1.00  0.00     0.276 HD
ENDBRANCH  13  14
ENDBRANCH  12  13
ENDBRANCH  11  12
ENDBRANCH   9  11
BRANCH   1  18
HETATM   18  C2  UNL     1      -4.061   0.458  12.648  1.00  0.00     0.007 C 
HETATM   19  C1  UNL     1      -3.952  -0.755  11.780  1.00  0.00     0.006 C 
ENDBRANCH   1  18
TORSDOF 5
ENDMDL
MODEL 2
REMARK VINA RESULT: -5.605892380      0.970      1.044
REMARK  5 active torsions:
REMARK  status: ('A' for Active; 'I' for Inactive)
REMARK    1  A    between atoms: C2_2  and  C3_3 
REMARK    2  A    between atoms: C10_11  and  C11_12 
REMARK    3  A    between atoms: C11_12  and  C12_13 
REMARK    4  A    between atoms: C12_13  and  C13_14 
REMARK    5  A    between atoms: C13_14  and  N2_15 
ROOT
HETATM    1  C3  UNL     1      -3.748   2.148  11.757  1.00  0.00    -0.023 C 
HETATM    2  C4  UNL     1      -4.974   2.433  10.904  1.00  0.00     0.017 C 
HETATM    3  C5  UNL     1      -2.697   1.612  10.850  1.00  0.00     0.016 C 
HETATM    4  C6  UNL     1      -1.305   2.088  11.171  1.00  0.00     0.045 C 
HETATM    5  C7  UNL     1      -1.249   3.582  11.352  1.00  0.00     0.058 C 
HETATM    6  N1  UNL     1      -2.337   4.154  12.005  1.00  0.00    -0.388 N 
HETATM    7  C8  UNL     1      -2.899   5.342  11.458  1.00  0.00     0.123 C 
HETATM    8  C9  UNL     1      -4.153   5.607  12.255  1.00  0.00     0.026 C 
HETATM    9  C10 UNL     1      -4.462   4.276  12.872  1.00  0.00     0.011 C 
HETATM   10  C15 UNL     1      -3.325   3.339  12.570  1.00  0.00     0.095 C 
ENDROOT
BRANCH   9  11
HETATM   11  C11 UNL     1      -4.684   4.437  14.363  1.00  0.00     0.008 C 
BRANCH  11  12
HETATM   12  C12 UNL     1      -6.003   3.807  14.749  1.00  0.00     0.028 C 
BRANCH  12  13
HETATM   13  C13 UNL     1      -5.782   2.873  15.935  1.00  0.00     0.231 C 
BRANCH  13  14
HETATM   14  N2  UNL     1      -6.929   2.896  16.824  1.00  0.00    -0.079 N 
HETATM   15  C14 UNL     1      -7.379   1.532  16.997  1.00  0.00     0.266 C 
ATOM     16  H22 UNL     1      -6.736   3.365  17.709  1.00  0.00     0.276 HD
ATOM     17  H21 UNL     1      -7.669   3.519  16.500  1.00  0.00     0.276 HD
ENDBRANCH  13  14
ENDBRANCH  12  13
ENDBRANCH  11  12
ENDBRANCH   9  11
BRANCH   1  18
HETATM   18  C2  UNL     1      -4.194   1.055  12.737  1.00  0.00     0.007 C 
HETATM   19  C1  UNL     1      -4.059  -0.309  12.139  1.00  0.00     0.006 C 
ENDBRANCH   1  18
TORSDOF 5
ENDMDL
MODEL 3
REMARK VINA RESULT: -5.561659294      1.731      5.197
REMARK  5 active torsions:
REMARK  status: ('A' for Active; 'I' for Inactive)
REMARK    1  A    between atoms: C2_2  and  C3_3 
REMARK    2  A    between atoms: C10_11  and  C11_12 
REMARK    3  A    between atoms: C11_12  and  C12_13 
REMARK    4  A    between atoms: C12_13  and  C13_14 
REMARK    5  A    between atoms: C13_14  and  N2_15 
ROOT
HETATM    1  C3  UNL     1      -5.106   2.637  15.908  1.00  0.00    -0.023 C 
HETATM    2  C4  UNL     1      -3.607   2.570  16.153  1.00  0.00     0.017 C 
HETATM    3  C5  UNL     1      -5.697   3.439  17.015  1.00  0.00     0.016 C 
HETATM    4  C6  UNL     1      -6.816   4.349  16.587  1.00  0.00     0.045 C 
HETATM    5  C7  UNL     1      -6.448   5.163  15.374  1.00  0.00     0.058 C 
HETATM    6  N1  UNL     1      -5.693   4.504  14.409  1.00  0.00    -0.388 N 
HETATM    7  C8  UNL     1      -4.575   5.185  13.850  1.00  0.00     0.123 C 
HETATM    8  C9  UNL     1      -3.859   4.166  12.996  1.00  0.00     0.026 C 
HETATM    9  C10 UNL     1      -4.355   2.855  13.527  1.00  0.00     0.011 C 
HETATM   10  C15 UNL     1      -5.442   3.132  14.529  1.00  0.00     0.095 C 
ENDROOT
BRANCH   9  11
HETATM   11  C11 UNL     1      -4.843   1.987  12.385  1.00  0.00     0.008 C 
BRANCH  11  12
HETATM   12  C12 UNL     1      -4.037   0.709  12.340  1.00  0.00     0.028 C 
BRANCH  12  13
HETATM   13  C13 UNL     1      -3.123   0.738  11.119  1.00  0.00     0.231 C 
BRANCH  13  14
HETATM   14  N2  UNL     1      -1.850   1.355  11.448  1.00  0.00    -0.079 N 
HETATM   15  C14 UNL     1      -1.624   2.429  10.505  1.00  0.00     0.266 C 
ATOM     16  H22 UNL     1      -1.797   1.661  12.419  1.00  0.00     0.276 HD
ATOM     17  H21 UNL     1      -1.081   0.685  11.476  1.00  0.00     0.276 HD
ENDBRANCH  13  14
ENDBRANCH  12  13
ENDBRANCH  11  12
ENDBRANCH   9  11
BRANCH   1  18
HETATM   18  C2  UNL     1      -5.587   1.183  16.007  1.00  0.00     0.007 C 
HETATM   19  C1  UNL     1      -5.987   0.829  17.404  1.00  0.00     0.006 C 
ENDBRANCH   1  18
TORSDOF 5
ENDMDL
MODEL 4
REMARK VINA RESULT: -5.496835249      2.071      4.873
REMARK  5 active torsions:
REMARK  status: ('A' for Active; 'I' for Inactive)
REMARK    1  A    between atoms: C2_2  and  C3_3 
REMARK    2  A    between atoms: C10_11  and  C11_12 
REMARK    3  A    between atoms: C11_12  and  C12_13 
REMARK    4  A    between atoms: C12_13  and  C13_14 
REMARK    5  A    between atoms: C13_14  and  N2_15 
ROOT
HETATM    1  C3  UNL     1      -5.137   4.055  14.891  1.00  0.00    -0.023 C 
HETATM    2  C4  UNL     1      -3.843   3.714  15.609  1.00  0.00     0.017 C 
HETATM    3  C5  UNL     1      -5.505   5.444  15.282  1.00  0.00     0.016 C 
HETATM    4  C6  UNL     1      -6.093   6.264  14.165  1.00  0.00     0.045 C 
HETATM    5  C7  UNL     1      -5.263   6.184  12.911  1.00  0.00     0.058 C 
HETATM    6  N1  UNL     1      -4.709   4.938  12.629  1.00  0.00    -0.388 N 
HETATM    7  C8  UNL     1      -3.345   4.886  12.225  1.00  0.00     0.123 C 
HETATM    8  C9  UNL     1      -2.987   3.419  12.181  1.00  0.00     0.026 C 
HETATM    9  C10 UNL     1      -4.037   2.778  13.036  1.00  0.00     0.011 C 
HETATM   10  C15 UNL     1      -5.050   3.826  13.408  1.00  0.00     0.095 C 
ENDROOT
BRANCH   9  11
HETATM   11  C11 UNL     1      -4.668   1.616  12.295  1.00  0.00     0.008 C 
BRANCH  11  12
HETATM   12  C12 UNL     1      -4.180   1.603  10.865  1.00  0.00     0.028 C 
BRANCH  12  13
HETATM   13  C13 UNL     1      -3.664   0.208  10.525  1.00  0.00     0.231 C 
BRANCH  13  14
HETATM   14  N2  UNL     1      -3.815  -0.683  11.661  1.00  0.00    -0.079 N 
HETATM   15  C14 UNL     1      -3.089  -1.899  11.367  1.00  0.00     0.266 C 
ATOM     16  H22 UNL     1      -3.530  -0.255  12.542  1.00  0.00     0.276 HD
ATOM     17  H21 UNL     1      -4.791  -0.854  11.904  1.00  0.00     0.276 HD
ENDBRANCH  13  14
ENDBRANCH  12  13
ENDBRANCH  11  12
ENDBRANCH   9  11
BRANCH   1  18
HETATM   18  C2  UNL     1      -6.171   3.068  15.450  1.00  0.00     0.007 C 
HETATM   19  C1  UNL     1      -6.686   3.507  16.784  1.00  0.00     0.006 C 
ENDBRANCH   1  18
TORSDOF 5
ENDMDL
MODEL 5
REMARK VINA RESULT: -5.415779205      1.745      3.672
REMARK  5 active torsions:
REMARK  status: ('A' for Active; 'I' for Inactive)
REMARK    1  A    between atoms: C2_2  and  C3_3 
REMARK    2  A    between atoms: C10_11  and  C11_12 
REMARK    3  A    between atoms: C11_12  and  C12_13 
REMARK    4  A    between atoms: C12_13  and  C13_14 
REMARK    5  A    between atoms: C13_14  and  N2_15 
ROOT
HETATM    1  C3  UNL     1      -3.313   5.214  12.890  1.00  0.00    -0.023 C 
HETATM    2  C4  UNL     1      -2.356   4.834  14.008  1.00  0.00     0.017 C 
HETATM    3  C5  UNL     1      -2.523   5.256  11.629  1.00  0.00     0.016 C 
HETATM    4  C6  UNL     1      -3.253   4.725  10.426  1.00  0.00     0.045 C 
HETATM    5  C7  UNL     1      -3.892   3.388  10.699  1.00  0.00     0.058 C 
HETATM    6  N1  UNL     1      -4.450   3.231  11.965  1.00  0.00    -0.388 N 
HETATM    7  C8  UNL     1      -4.190   2.021  12.667  1.00  0.00     0.123 C 
HETATM    8  C9  UNL     1      -4.754   2.223  14.053  1.00  0.00     0.026 C 
HETATM    9  C10 UNL     1      -4.856   3.713  14.175  1.00  0.00     0.011 C 
HETATM   10  C15 UNL     1      -4.521   4.321  12.841  1.00  0.00     0.095 C 
ENDROOT
BRANCH   9  11
HETATM   11  C11 UNL     1      -6.244   4.099  14.644  1.00  0.00     0.008 C 
BRANCH  11  12
HETATM   12  C12 UNL     1      -6.159   4.725  16.017  1.00  0.00     0.028 C 
BRANCH  12  13
HETATM   13  C13 UNL     1      -6.978   3.890  16.997  1.00  0.00     0.231 C 
BRANCH  13  14
HETATM   14  N2  UNL     1      -6.279   2.663  17.333  1.00  0.00    -0.079 N 
HETATM   15  C14 UNL     1      -7.204   1.565  17.154  1.00  0.00     0.266 C 
ATOM     16  H22 UNL     1      -5.414   2.543  16.805  1.00  0.00     0.276 HD
ATOM     17  H21 UNL     1      -5.866   2.685  18.265  1.00  0.00     0.276 HD
ENDBRANCH  13  14
ENDBRANCH  12  13
ENDBRANCH  11  12
ENDBRANCH   9  11
BRANCH   1  18
HETATM   18  C2  UNL     1      -3.797   6.626  13.247  1.00  0.00     0.007 C 
HETATM   19  C1  UNL     1      -3.246   7.081  14.561  1.00  0.00     0.006 C 
ENDBRANCH   1  18
TORSDOF 5
ENDMDL
