MODEL 1
REMARK VINA RESULT: -6.648542765      0.000      0.000
REMARK  5 active torsions:
REMARK  status: ('A' for Active; 'I' for Inactive)
REMARK    1  A    between atoms: C5_5  and  N1_6 
REMARK    2  A    between atoms: N1_6  and  C6_9 
REMARK    3  A    between atoms: C6_9  and  C7_10 
REMARK    4  A    between atoms: C7_10  and  C8_11 
REMARK    5  A    between atoms: C8_11  and  N2_12 
ROOT
HETATM    1  N1  UNL     1      -4.219   2.966  14.605  1.00  0.00    -0.071 N 
ATOM      2  H11 UNL     1      -4.440   2.104  14.106  1.00  0.00     0.277 HD
ATOM      3  H12 UNL     1      -3.207   2.961  14.476  1.00  0.00     0.277 HD
ENDROOT
BRANCH   1   4
HETATM    4  C5  UNL     1      -4.592   2.885  16.034  1.00  0.00     0.185 C 
HETATM    5  C4  UNL     1      -5.581   3.962  16.250  1.00  0.00     0.033 C 
HETATM    6  C3  UNL     1      -6.795   3.647  17.052  1.00  0.00     0.002 C 
HETATM    7  C2  UNL     1      -7.523   2.430  16.521  1.00  0.00     0.000 C 
HETATM    8  C1  UNL     1      -7.179   1.199  17.349  1.00  0.00     0.000 C 
HETATM    9  C15 UNL     1      -5.677   1.268  17.618  1.00  0.00     0.002 C 
HETATM   10  C14 UNL     1      -5.036   1.486  16.271  1.00  0.00     0.033 C 
ENDBRANCH   1   4
BRANCH   1  11
HETATM   11  C6  UNL     1      -4.831   4.116  13.986  1.00  0.00     0.234 C 
BRANCH  11  12
HETATM   12  C7  UNL     1      -4.278   4.455  12.626  1.00  0.00     0.057 C 
BRANCH  12  13
HETATM   13  C8  UNL     1      -3.311   3.309  12.285  1.00  0.00     0.274 C 
BRANCH  13  14
HETATM   14  N2  UNL     1      -3.480   2.879  10.930  1.00  0.00     0.088 N 
HETATM   15  C9  UNL     1      -4.599   1.943  10.873  1.00  0.00     0.272 C 
HETATM   16  C10 UNL     1      -4.347   0.764  11.765  1.00  0.00     0.030 C 
HETATM   17  C11 UNL     1      -3.163   0.007  11.191  1.00  0.00     0.003 C 
HETATM   18  C12 UNL     1      -1.978   0.925  11.137  1.00  0.00     0.030 C 
HETATM   19  C13 UNL     1      -2.276   2.213  10.433  1.00  0.00     0.272 C 
ENDBRANCH  13  14
ENDBRANCH  12  13
ENDBRANCH  11  12
ENDBRANCH   1  11
TORSDOF 5
ENDMDL
MODEL 2
REMARK VINA RESULT: -6.474788813      1.055      5.814
REMARK  5 active torsions:
REMARK  status: ('A' for Active; 'I' for Inactive)
REMARK    1  A    between atoms: C5_5  and  N1_6 
REMARK    2  A    between atoms: N1_6  and  C6_9 
REMARK    3  A    between atoms: C6_9  and  C7_10 
REMARK    4  A    between atoms: C7_10  and  C8_11 
REMARK    5  A    between atoms: C8_11  and  N2_12 
ROOT
HETATM    1  N1  UNL     1      -3.093   3.615  12.997  1.00  0.00    -0.071 N 
ATOM      2  H11 UNL     1      -2.237   4.162  12.917  1.00  0.00     0.277 HD
ATOM      3  H12 UNL     1      -2.766   2.916  13.664  1.00  0.00     0.277 HD
ENDROOT
BRANCH   1   4
HETATM    4  C5  UNL     1      -3.479   3.005  11.706  1.00  0.00     0.185 C 
HETATM    5  C4  UNL     1      -2.222   2.513  11.105  1.00  0.00     0.033 C 
HETATM    6  C3  UNL     1      -2.225   1.159  10.487  1.00  0.00     0.002 C 
HETATM    7  C2  UNL     1      -2.743   0.103  11.441  1.00  0.00     0.000 C 
HETATM    8  C1  UNL     1      -4.200  -0.223  11.136  1.00  0.00     0.000 C 
HETATM    9  C15 UNL     1      -4.888   1.111  10.853  1.00  0.00     0.002 C 
HETATM   10  C14 UNL     1      -4.533   2.002  12.016  1.00  0.00     0.033 C 
ENDBRANCH   1   4
BRANCH   1  11
HETATM   11  C6  UNL     1      -4.180   4.396  13.533  1.00  0.00     0.234 C 
BRANCH  11  12
HETATM   12  C7  UNL     1      -4.016   4.774  14.983  1.00  0.00     0.057 C 
BRANCH  12  13
HETATM   13  C8  UNL     1      -4.221   3.467  15.766  1.00  0.00     0.274 C 
BRANCH  13  14
HETATM   14  N2  UNL     1      -5.425   2.806  15.362  1.00  0.00     0.088 N 
HETATM   15  C9  UNL     1      -6.563   3.523  15.929  1.00  0.00     0.272 C 
HETATM   16  C10 UNL     1      -6.470   3.563  17.425  1.00  0.00     0.030 C 
HETATM   17  C11 UNL     1      -6.607   2.137  17.926  1.00  0.00     0.003 C 
HETATM   18  C12 UNL     1      -5.515   1.303  17.324  1.00  0.00     0.030 C 
HETATM   19  C13 UNL     1      -5.452   1.421  15.832  1.00  0.00     0.272 C 
ENDBRANCH  13  14
ENDBRANCH  12  13
ENDBRANCH  11  12
ENDBRANCH   1  11
TORSDOF 5
ENDMDL
MODEL 3
REMARK VINA RESULT: -6.449010162      1.040      5.906
REMARK  5 active torsions:
REMARK  status: ('A' for Active; 'I' for Inactive)
REMARK    1  A    between atoms: C5_5  and  N1_6 
REMARK    2  A    between atoms: N1_6  and  C6_9 
REMARK    3  A    between atoms: C6_9  and  C7_10 
REMARK    4  A    between atoms: C7_10  and  C8_11 
REMARK    5  A    between atoms: C8_11  and  N2_12 
ROOT
HETATM    1  N1  UNL     1      -4.061   3.427  13.201  1.00  0.00    -0.071 N 
ATOM      2  H11 UNL     1      -3.115   3.370  13.578  1.00  0.00     0.277 HD
ATOM      3  H12 UNL     1      -4.524   2.794  13.854  1.00  0.00     0.277 HD
ENDROOT
BRANCH   1   4
HETATM    4  C5  UNL     1      -4.129   2.929  11.810  1.00  0.00     0.185 C 
HETATM    5  C4  UNL     1      -2.772   3.111  11.253  1.00  0.00     0.033 C 
HETATM    6  C3  UNL     1      -2.188   2.000  10.455  1.00  0.00     0.002 C 
HETATM    7  C2  UNL     1      -2.222   0.685  11.207  1.00  0.00     0.000 C 
HETATM    8  C1  UNL     1      -3.396  -0.165  10.739  1.00  0.00     0.000 C 
HETATM    9  C15 UNL     1      -4.582   0.784  10.587  1.00  0.00     0.002 C 
HETATM   10  C14 UNL     1      -4.660   1.542  11.888  1.00  0.00     0.033 C 
ENDBRANCH   1   4
BRANCH   1  11
HETATM   11  C6  UNL     1      -4.592   4.765  13.286  1.00  0.00     0.234 C 
BRANCH  11  12
HETATM   12  C7  UNL     1      -5.758   4.910  14.229  1.00  0.00     0.057 C 
BRANCH  12  13
HETATM   13  C8  UNL     1      -5.923   3.529  14.884  1.00  0.00     0.274 C 
BRANCH  13  14
HETATM   14  N2  UNL     1      -5.573   3.572  16.272  1.00  0.00     0.088 N 
HETATM   15  C9  UNL     1      -4.602   2.516  16.541  1.00  0.00     0.272 C 
HETATM   16  C10 UNL     1      -5.171   1.173  16.190  1.00  0.00     0.030 C 
HETATM   17  C11 UNL     1      -6.324   0.907  17.140  1.00  0.00     0.003 C 
HETATM   18  C12 UNL     1      -7.342   1.998  16.987  1.00  0.00     0.030 C 
HETATM   19  C13 UNL     1      -6.748   3.366  17.120  1.00  0.00     0.272 C 
ENDBRANCH  13  14
ENDBRANCH  12  13
ENDBRANCH  11  12
ENDBRANCH   1  11
TORSDOF 5
ENDMDL
MODEL 4
REMARK VINA RESULT: -6.405451980      0.694      1.580
REMARK  5 active torsions:
REMARK  status: ('A' for Active; 'I' for Inactive)
REMARK    1  A    between atoms: C5_5  and  N1_6 
REMARK    2  A    between atoms: N1_6  and  C6_9 
REMARK    3  A    between atoms: C6_9  and  C7_10 
REMARK    4  A    between atoms: C7_10  and  C8_11 
REMARK    5  A    between atoms: C8_11  and  N2_12 
ROOT
HETATM    1  N1  UNL     1      -3.837   3.098  15.016  1.00  0.00    -0.071 N 
ATOM      2  H11 UNL     1      -3.365   2.472  14.364  1.00  0.00     0.277 HD
ATOM      3  H12 UNL     1      -3.224   2.972  15.821  1.00  0.00     0.277 HD
ENDROOT
BRANCH   1   4
HETATM    4  C5  UNL     1      -5.219   2.652  15.302  1.00  0.00     0.185 C 
HETATM    5  C4  UNL     1      -5.094   1.274  15.821  1.00  0.00     0.033 C 
HETATM    6  C3  UNL     1      -5.902   0.898  17.013  1.00  0.00     0.002 C 
HETATM    7  C2  UNL     1      -5.694   1.861  18.163  1.00  0.00     0.000 C 
HETATM    8  C1  UNL     1      -6.839   2.863  18.234  1.00  0.00     0.000 C 
HETATM    9  C15 UNL     1      -7.139   3.276  16.794  1.00  0.00     0.002 C 
HETATM   10  C14 UNL     1      -5.810   3.676  16.205  1.00  0.00     0.033 C 
ENDBRANCH   1   4
BRANCH   1  11
HETATM   11  C6  UNL     1      -3.833   4.462  14.548  1.00  0.00     0.234 C 
BRANCH  11  12
HETATM   12  C7  UNL     1      -3.966   4.604  13.054  1.00  0.00     0.057 C 
BRANCH  12  13
HETATM   13  C8  UNL     1      -2.998   3.567  12.461  1.00  0.00     0.274 C 
BRANCH  13  14
HETATM   14  N2  UNL     1      -3.408   3.172  11.147  1.00  0.00     0.088 N 
HETATM   15  C9  UNL     1      -4.519   2.233  11.267  1.00  0.00     0.272 C 
HETATM   16  C10 UNL     1      -4.111   1.032  12.068  1.00  0.00     0.030 C 
HETATM   17  C11 UNL     1      -3.050   0.295  11.270  1.00  0.00     0.003 C 
HETATM   18  C12 UNL     1      -1.894   1.220  11.028  1.00  0.00     0.030 C 
HETATM   19  C13 UNL     1      -2.313   2.524  10.424  1.00  0.00     0.272 C 
ENDBRANCH  13  14
ENDBRANCH  12  13
ENDBRANCH  11  12
ENDBRANCH   1  11
TORSDOF 5
ENDMDL
MODEL 5
REMARK VINA RESULT: -6.220980442      1.364      1.819
REMARK  5 active torsions:
REMARK  status: ('A' for Active; 'I' for Inactive)
REMARK    1  A    between atoms: C5_5  and  N1_6 
REMARK    2  A    between atoms: N1_6  and  C6_9 
REMARK    3  A    between atoms: C6_9  and  C7_10 
REMARK    4  A    between atoms: C7_10  and  C8_11 
REMARK    5  A    between atoms: C8_11  and  N2_12 
ROOT
HETATM    1  N1  UNL     1      -2.697   4.078  14.086  1.00  0.00    -0.071 N 
ATOM      2  H11 UNL     1      -2.926   3.196  13.628  1.00  0.00     0.277 HD
ATOM      3  H12 UNL     1      -1.732   3.870  14.344  1.00  0.00     0.277 HD
ENDROOT
BRANCH   1   4
HETATM    4  C5  UNL     1      -3.545   4.315  15.276  1.00  0.00     0.185 C 
HETATM    5  C4  UNL     1      -4.453   5.420  14.905  1.00  0.00     0.033 C 
HETATM    6  C3  UNL     1      -5.890   5.297  15.271  1.00  0.00     0.002 C 
HETATM    7  C2  UNL     1      -6.492   3.999  14.775  1.00  0.00     0.000 C 
HETATM    8  C1  UNL     1      -6.558   2.977  15.903  1.00  0.00     0.000 C 
HETATM    9  C15 UNL     1      -5.240   3.092  16.666  1.00  0.00     0.002 C 
HETATM   10  C14 UNL     1      -4.159   3.005  15.618  1.00  0.00     0.033 C 
ENDBRANCH   1   4
BRANCH   1  11
HETATM   11  C6  UNL     1      -2.780   5.193  13.176  1.00  0.00     0.234 C 
BRANCH  11  12
HETATM   12  C7  UNL     1      -2.566   4.828  11.729  1.00  0.00     0.057 C 
BRANCH  12  13
HETATM   13  C8  UNL     1      -2.364   3.303  11.722  1.00  0.00     0.274 C 
BRANCH  13  14
HETATM   14  N2  UNL     1      -3.006   2.704  10.591  1.00  0.00     0.088 N 
HETATM   15  C9  UNL     1      -4.437   2.607  10.865  1.00  0.00     0.272 C 
HETATM   16  C10 UNL     1      -4.685   1.788  12.098  1.00  0.00     0.030 C 
HETATM   17  C11 UNL     1      -4.238   0.369  11.796  1.00  0.00     0.003 C 
HETATM   18  C12 UNL     1      -2.785   0.385  11.424  1.00  0.00     0.030 C 
HETATM   19  C13 UNL     1      -2.479   1.364  10.333  1.00  0.00     0.272 C 
ENDBRANCH  13  14
ENDBRANCH  12  13
ENDBRANCH  11  12
ENDBRANCH   1  11
TORSDOF 5
ENDMDL
