MODEL 1
REMARK VINA RESULT: -7.065745100      0.000      0.000
REMARK  5 active torsions:
REMARK  status: ('A' for Active; 'I' for Inactive)
REMARK    1  A    between atoms: C4_4  and  N1_5 
REMARK    2  A    between atoms: N1_5  and  C5_7 
REMARK    3  A    between atoms: C5_7  and  C6_8 
REMARK    4  A    between atoms: C6_8  and  C7_9 
REMARK    5  A    between atoms: C7_9  and  N2_10 
ROOT
HETATM    1  C5  UNL     1      -3.533   4.169  13.541  1.00  0.00     0.057 C 
ENDROOT
BRANCH   1   2
HETATM    2  N1  UNL     1      -4.341   3.567  12.592  1.00  0.00    -0.398 N 
ATOM      3  H1  UNL     1      -5.194   4.062  12.334  1.00  0.00     0.159 HD
BRANCH   2   4
HETATM    4  C4  UNL     1      -4.102   2.357  11.956  1.00  0.00     0.080 C 
HETATM    5  C3  UNL     1      -4.236   1.070  12.672  1.00  0.00     0.025 C 
HETATM    6  C2  UNL     1      -4.172  -0.061  11.620  1.00  0.00     0.002 C 
HETATM    7  C1  UNL     1      -3.240   0.276  10.493  1.00  0.00     0.000 C 
HETATM    8  C15 UNL     1      -2.098   1.078  11.109  1.00  0.00     0.002 C 
HETATM    9  C14 UNL     1      -2.647   2.430  11.421  1.00  0.00     0.025 C 
ENDBRANCH   2   4
ENDBRANCH   1   2
BRANCH   1  10
HETATM   10  C6  UNL     1      -3.853   4.059  14.990  1.00  0.00     0.074 C 
BRANCH  10  11
HETATM   11  C7  UNL     1      -5.349   4.088  15.253  1.00  0.00     0.278 C 
BRANCH  11  12
HETATM   12  N2  UNL     1      -5.849   2.842  15.709  1.00  0.00     0.093 N 
HETATM   13  C8  UNL     1      -4.968   2.095  16.581  1.00  0.00     0.277 C 
HETATM   14  C9  UNL     1      -5.869   1.525  17.665  1.00  0.00     0.016 C 
HETATM   15  C10 UNL     1      -6.163   2.629  18.627  1.00  0.00     0.008 C 
HETATM   16  C13 UNL     1      -7.204   1.485  16.892  1.00  0.00     0.042 C 
HETATM   17  C11 UNL     1      -6.924   3.621  17.743  1.00  0.00     0.036 C 
HETATM   18  C12 UNL     1      -7.079   2.950  16.399  1.00  0.00     0.223 C 
ENDBRANCH  11  12
ENDBRANCH  10  11
ENDBRANCH   1  10
TORSDOF 5
ENDMDL
MODEL 2
REMARK VINA RESULT: -6.896399246      1.100      5.823
REMARK  5 active torsions:
REMARK  status: ('A' for Active; 'I' for Inactive)
REMARK    1  A    between atoms: C4_4  and  N1_5 
REMARK    2  A    between atoms: N1_5  and  C5_7 
REMARK    3  A    between atoms: C5_7  and  C6_8 
REMARK    4  A    between atoms: C6_8  and  C7_9 
REMARK    5  A    between atoms: C7_9  and  N2_10 
ROOT
HETATM    1  C5  UNL     1      -3.985   4.345  14.226  1.00  0.00     0.057 C 
ENDROOT
BRANCH   1   2
HETATM    2  N1  UNL     1      -3.801   3.220  15.010  1.00  0.00    -0.398 N 
ATOM      3  H1  UNL     1      -2.997   2.633  14.790  1.00  0.00     0.159 HD
BRANCH   2   4
HETATM    4  C4  UNL     1      -4.603   2.812  16.066  1.00  0.00     0.080 C 
HETATM    5  C3  UNL     1      -5.116   1.427  16.155  1.00  0.00     0.025 C 
HETATM    6  C2  UNL     1      -5.728   1.243  17.563  1.00  0.00     0.002 C 
HETATM    7  C1  UNL     1      -6.377   2.503  18.059  1.00  0.00     0.000 C 
HETATM    8  C15 UNL     1      -6.978   3.185  16.834  1.00  0.00     0.002 C 
HETATM    9  C14 UNL     1      -5.836   3.754  16.061  1.00  0.00     0.025 C 
ENDBRANCH   2   4
ENDBRANCH   1   2
BRANCH   1  10
HETATM   10  C6  UNL     1      -4.032   4.238  12.743  1.00  0.00     0.074 C 
BRANCH  10  11
HETATM   11  C7  UNL     1      -3.045   3.215  12.208  1.00  0.00     0.278 C 
BRANCH  11  12
HETATM   12  N2  UNL     1      -3.611   2.376  11.214  1.00  0.00     0.093 N 
HETATM   13  C8  UNL     1      -2.689   1.473  10.559  1.00  0.00     0.277 C 
HETATM   14  C9  UNL     1      -3.443   0.159  10.431  1.00  0.00     0.016 C 
HETATM   15  C10 UNL     1      -3.410  -0.506  11.767  1.00  0.00     0.008 C 
HETATM   16  C13 UNL     1      -4.890   0.693  10.437  1.00  0.00     0.042 C 
HETATM   17  C11 UNL     1      -4.185   0.491  12.633  1.00  0.00     0.036 C 
HETATM   18  C12 UNL     1      -4.668   1.571  11.695  1.00  0.00     0.223 C 
ENDBRANCH  11  12
ENDBRANCH  10  11
ENDBRANCH   1  10
TORSDOF 5
ENDMDL
MODEL 3
REMARK VINA RESULT: -6.851294940      0.525      1.192
REMARK  5 active torsions:
REMARK  status: ('A' for Active; 'I' for Inactive)
REMARK    1  A    between atoms: C4_4  and  N1_5 
REMARK    2  A    between atoms: N1_5  and  C5_7 
REMARK    3  A    between atoms: C5_7  and  C6_8 
REMARK    4  A    between atoms: C6_8  and  C7_9 
REMARK    5  A    between atoms: C7_9  and  N2_10 
ROOT
HETATM    1  C5  UNL     1      -3.560   4.397  13.546  1.00  0.00     0.057 C 
ENDROOT
BRANCH   1   2
HETATM    2  N1  UNL     1      -4.148   3.671  12.525  1.00  0.00    -0.398 N 
ATOM      3  H1  UNL     1      -4.927   4.112  12.037  1.00  0.00     0.159 HD
BRANCH   2   4
HETATM    4  C4  UNL     1      -3.783   2.401  12.101  1.00  0.00     0.080 C 
HETATM    5  C3  UNL     1      -2.597   2.186  11.243  1.00  0.00     0.025 C 
HETATM    6  C2  UNL     1      -2.327   0.665  11.190  1.00  0.00     0.002 C 
HETATM    7  C1  UNL     1      -3.599  -0.131  11.222  1.00  0.00     0.000 C 
HETATM    8  C15 UNL     1      -4.633   0.687  10.455  1.00  0.00     0.002 C 
HETATM    9  C14 UNL     1      -5.007   1.833  11.334  1.00  0.00     0.025 C 
ENDBRANCH   2   4
ENDBRANCH   1   2
BRANCH   1  10
HETATM   10  C6  UNL     1      -3.870   4.094  14.969  1.00  0.00     0.074 C 
BRANCH  10  11
HETATM   11  C7  UNL     1      -5.359   4.157  15.261  1.00  0.00     0.278 C 
BRANCH  11  12
HETATM   12  N2  UNL     1      -5.889   2.908  15.675  1.00  0.00     0.093 N 
HETATM   13  C8  UNL     1      -5.011   2.095  16.488  1.00  0.00     0.277 C 
HETATM   14  C9  UNL     1      -5.902   1.506  17.571  1.00  0.00     0.016 C 
HETATM   15  C10 UNL     1      -6.132   2.574  18.588  1.00  0.00     0.008 C 
HETATM   16  C13 UNL     1      -7.257   1.545  16.834  1.00  0.00     0.042 C 
HETATM   17  C11 UNL     1      -6.883   3.630  17.771  1.00  0.00     0.036 C 
HETATM   18  C12 UNL     1      -7.095   3.025  16.404  1.00  0.00     0.223 C 
ENDBRANCH  11  12
ENDBRANCH  10  11
ENDBRANCH   1  10
TORSDOF 5
ENDMDL
MODEL 4
REMARK VINA RESULT: -6.717049585      1.132      5.763
REMARK  5 active torsions:
REMARK  status: ('A' for Active; 'I' for Inactive)
REMARK    1  A    between atoms: C4_4  and  N1_5 
REMARK    2  A    between atoms: N1_5  and  C5_7 
REMARK    3  A    between atoms: C5_7  and  C6_8 
REMARK    4  A    between atoms: C6_8  and  C7_9 
REMARK    5  A    between atoms: C7_9  and  N2_10 
ROOT
HETATM    1  C5  UNL     1      -3.797   4.325  14.248  1.00  0.00     0.057 C 
ENDROOT
BRANCH   1   2
HETATM    2  N1  UNL     1      -3.931   3.227  15.079  1.00  0.00    -0.398 N 
ATOM      3  H1  UNL     1      -3.083   2.700  15.285  1.00  0.00     0.159 HD
BRANCH   2   4
HETATM    4  C4  UNL     1      -5.107   2.772  15.659  1.00  0.00     0.080 C 
HETATM    5  C3  UNL     1      -5.879   3.614  16.599  1.00  0.00     0.025 C 
HETATM    6  C2  UNL     1      -7.243   2.925  16.834  1.00  0.00     0.002 C 
HETATM    7  C1  UNL     1      -7.123   1.428  16.819  1.00  0.00     0.000 C 
HETATM    8  C15 UNL     1      -5.766   1.103  17.435  1.00  0.00     0.002 C 
HETATM    9  C14 UNL     1      -4.738   1.468  16.416  1.00  0.00     0.025 C 
ENDBRANCH   2   4
ENDBRANCH   1   2
BRANCH   1  10
HETATM   10  C6  UNL     1      -3.949   4.186  12.775  1.00  0.00     0.074 C 
BRANCH  10  11
HETATM   11  C7  UNL     1      -2.972   3.182  12.187  1.00  0.00     0.278 C 
BRANCH  11  12
HETATM   12  N2  UNL     1      -3.566   2.349  11.205  1.00  0.00     0.093 N 
HETATM   13  C8  UNL     1      -2.676   1.405  10.564  1.00  0.00     0.277 C 
HETATM   14  C9  UNL     1      -3.475   0.116  10.454  1.00  0.00     0.016 C 
HETATM   15  C10 UNL     1      -3.465  -0.530  11.800  1.00  0.00     0.008 C 
HETATM   16  C13 UNL     1      -4.903   0.701  10.451  1.00  0.00     0.042 C 
HETATM   17  C11 UNL     1      -4.205   0.506  12.651  1.00  0.00     0.036 C 
HETATM   18  C12 UNL     1      -4.651   1.588  11.697  1.00  0.00     0.223 C 
ENDBRANCH  11  12
ENDBRANCH  10  11
ENDBRANCH   1  10
TORSDOF 5
ENDMDL
MODEL 5
REMARK VINA RESULT: -6.520973767      1.102      5.817
REMARK  5 active torsions:
REMARK  status: ('A' for Active; 'I' for Inactive)
REMARK    1  A    between atoms: C4_4  and  N1_5 
REMARK    2  A    between atoms: N1_5  and  C5_7 
REMARK    3  A    between atoms: C5_7  and  C6_8 
REMARK    4  A    between atoms: C6_8  and  C7_9 
REMARK    5  A    between atoms: C7_9  and  N2_10 
ROOT
HETATM    1  C5  UNL     1      -3.773   4.329  14.377  1.00  0.00     0.057 C 
ENDROOT
BRANCH   1   2
HETATM    2  N1  UNL     1      -3.916   3.314  15.307  1.00  0.00    -0.398 N 
ATOM      3  H1  UNL     1      -3.060   2.884  15.654  1.00  0.00     0.159 HD
BRANCH   2   4
HETATM    4  C4  UNL     1      -5.112   2.825  15.814  1.00  0.00     0.080 C 
HETATM    5  C3  UNL     1      -5.913   3.602  16.785  1.00  0.00     0.025 C 
HETATM    6  C2  UNL     1      -7.285   2.905  16.925  1.00  0.00     0.002 C 
HETATM    7  C1  UNL     1      -7.169   1.412  16.808  1.00  0.00     0.000 C 
HETATM    8  C15 UNL     1      -5.834   1.038  17.444  1.00  0.00     0.002 C 
HETATM    9  C14 UNL     1      -4.772   1.469  16.488  1.00  0.00     0.025 C 
ENDBRANCH   2   4
ENDBRANCH   1   2
BRANCH   1  10
HETATM   10  C6  UNL     1      -4.613   4.358  13.150  1.00  0.00     0.074 C 
BRANCH  10  11
HETATM   11  C7  UNL     1      -4.041   3.495  12.039  1.00  0.00     0.278 C 
BRANCH  11  12
HETATM   12  N2  UNL     1      -4.457   2.142  12.127  1.00  0.00     0.093 N 
HETATM   13  C8  UNL     1      -5.164   1.629  10.974  1.00  0.00     0.277 C 
HETATM   14  C9  UNL     1      -4.621   0.224  10.766  1.00  0.00     0.016 C 
HETATM   15  C10 UNL     1      -3.289   0.354  10.104  1.00  0.00     0.008 C 
HETATM   16  C13 UNL     1      -4.169  -0.091  12.208  1.00  0.00     0.042 C 
HETATM   17  C11 UNL     1      -2.482   1.106  11.166  1.00  0.00     0.036 C 
HETATM   18  C12 UNL     1      -3.393   1.242  12.363  1.00  0.00     0.223 C 
ENDBRANCH  11  12
ENDBRANCH  10  11
ENDBRANCH   1  10
TORSDOF 5
ENDMDL
