MODEL 1
REMARK VINA RESULT: -6.129885451      0.000      0.000
REMARK  5 active torsions:
REMARK  status: ('A' for Active; 'I' for Inactive)
REMARK    1  A    between atoms: C2_2  and  C3_3 
REMARK    2  A    between atoms: C3_3  and  C4_4 
REMARK    3  A    between atoms: C3_3  and  C6_6 
REMARK    4  A    between atoms: C6_6  and  N1_7 
REMARK    5  A    between atoms: C11_12  and  C12_13 
ROOT
HETATM    1  N1  UNL     1      -4.777   3.633  13.103  1.00  0.00    -0.388 N 
HETATM    2  C7  UNL     1      -3.832   4.566  12.597  1.00  0.00     0.122 C 
HETATM    3  C8  UNL     1      -2.731   4.700  13.627  1.00  0.00     0.020 C 
HETATM    4  C9  UNL     1      -3.395   4.996  14.949  1.00  0.00     0.004 C 
HETATM    5  C10 UNL     1      -4.879   5.209  14.854  1.00  0.00     0.026 C 
HETATM    6  C11 UNL     1      -5.594   4.049  14.134  1.00  0.00     0.089 C 
ENDROOT
BRANCH   6   7
HETATM    7  C12 UNL     1      -6.059   3.124  15.185  1.00  0.00     0.036 C 
HETATM    8  C13 UNL     1      -6.662   3.745  16.413  1.00  0.00     0.036 C 
HETATM    9  C14 UNL     1      -6.500   2.591  17.416  1.00  0.00     0.232 C 
HETATM   10  N2  UNL     1      -5.197   2.083  17.130  1.00  0.00    -0.075 N 
HETATM   11  C15 UNL     1      -5.138   2.061  15.658  1.00  0.00     0.239 C 
ATOM     12  H22 UNL     1      -4.439   2.603  17.572  1.00  0.00     0.277 HD
ATOM     13  H21 UNL     1      -4.991   1.187  17.571  1.00  0.00     0.277 HD
ENDBRANCH   6   7
BRANCH   1  14
HETATM   14  C6  UNL     1      -4.924   2.502  12.333  1.00  0.00     0.063 C 
BRANCH  14  15
HETATM   15  C3  UNL     1      -3.715   1.589  12.225  1.00  0.00     0.023 C 
BRANCH  15  16
HETATM   16  C2  UNL     1      -4.198   0.222  12.662  1.00  0.00     0.005 C 
HETATM   17  C1  UNL     1      -3.916  -0.867  11.682  1.00  0.00     0.006 C 
ENDBRANCH  15  16
BRANCH  15  18
HETATM   18  C4  UNL     1      -3.099   1.534  10.871  1.00  0.00     0.005 C 
HETATM   19  C5  UNL     1      -1.618   1.934  10.942  1.00  0.00     0.006 C 
ENDBRANCH  15  18
ENDBRANCH  14  15
ENDBRANCH   1  14
TORSDOF 5
ENDMDL
MODEL 2
REMARK VINA RESULT: -5.895630698      1.263      2.085
REMARK  5 active torsions:
REMARK  status: ('A' for Active; 'I' for Inactive)
REMARK    1  A    between atoms: C2_2  and  C3_3 
REMARK    2  A    between atoms: C3_3  and  C4_4 
REMARK    3  A    between atoms: C3_3  and  C6_6 
REMARK    4  A    between atoms: C6_6  and  N1_7 
REMARK    5  A    between atoms: C11_12  and  C12_13 
ROOT
HETATM    1  N1  UNL     1      -4.776   3.857  13.747  1.00  0.00    -0.388 N 
HETATM    2  C7  UNL     1      -4.583   5.052  13.002  1.00  0.00     0.122 C 
HETATM    3  C8  UNL     1      -3.975   6.076  13.937  1.00  0.00     0.020 C 
HETATM    4  C9  UNL     1      -4.850   6.129  15.165  1.00  0.00     0.004 C 
HETATM    5  C10 UNL     1      -6.098   5.299  15.064  1.00  0.00     0.026 C 
HETATM    6  C11 UNL     1      -5.803   3.839  14.668  1.00  0.00     0.089 C 
ENDROOT
BRANCH   6   7
HETATM    7  C12 UNL     1      -5.712   3.073  15.926  1.00  0.00     0.036 C 
HETATM    8  C13 UNL     1      -5.417   1.606  15.803  1.00  0.00     0.036 C 
HETATM    9  C14 UNL     1      -5.931   1.104  17.163  1.00  0.00     0.232 C 
HETATM   10  N2  UNL     1      -7.143   1.836  17.350  1.00  0.00    -0.075 N 
HETATM   11  C15 UNL     1      -6.804   3.204  16.922  1.00  0.00     0.239 C 
ATOM     12  H22 UNL     1      -7.951   1.436  16.873  1.00  0.00     0.277 HD
ATOM     13  H21 UNL     1      -7.528   1.775  18.293  1.00  0.00     0.277 HD
ENDBRANCH   6   7
BRANCH   1  14
HETATM   14  C6  UNL     1      -4.061   2.778  13.281  1.00  0.00     0.063 C 
BRANCH  14  15
HETATM   15  C3  UNL     1      -3.999   2.601  11.773  1.00  0.00     0.023 C 
BRANCH  15  16
HETATM   16  C2  UNL     1      -2.719   1.839  11.505  1.00  0.00     0.005 C 
HETATM   17  C1  UNL     1      -1.543   2.706  11.206  1.00  0.00     0.006 C 
ENDBRANCH  15  16
BRANCH  15  18
HETATM   18  C4  UNL     1      -5.175   1.904  11.183  1.00  0.00     0.005 C 
HETATM   19  C5  UNL     1      -4.758   0.534  10.628  1.00  0.00     0.006 C 
ENDBRANCH  15  18
ENDBRANCH  14  15
ENDBRANCH   1  14
TORSDOF 5
ENDMDL
MODEL 3
REMARK VINA RESULT: -5.877292132      1.663      5.129
REMARK  5 active torsions:
REMARK  status: ('A' for Active; 'I' for Inactive)
REMARK    1  A    between atoms: C2_2  and  C3_3 
REMARK    2  A    between atoms: C3_3  and  C4_4 
REMARK    3  A    between atoms: C3_3  and  C6_6 
REMARK    4  A    between atoms: C6_6  and  N1_7 
REMARK    5  A    between atoms: C11_12  and  C12_13 
ROOT
HETATM    1  N1  UNL     1      -4.300   3.861  13.000  1.00  0.00    -0.388 N 
HETATM    2  C7  UNL     1      -4.138   5.262  12.824  1.00  0.00     0.122 C 
HETATM    3  C8  UNL     1      -4.489   5.581  11.386  1.00  0.00     0.020 C 
HETATM    4  C9  UNL     1      -3.680   4.651  10.516  1.00  0.00     0.004 C 
HETATM    5  C10 UNL     1      -2.695   3.807  11.272  1.00  0.00     0.026 C 
HETATM    6  C11 UNL     1      -3.352   3.033  12.433  1.00  0.00     0.089 C 
ENDROOT
BRANCH   6   7
HETATM    7  C12 UNL     1      -3.693   1.698  11.907  1.00  0.00     0.036 C 
HETATM    8  C13 UNL     1      -2.695   1.061  10.983  1.00  0.00     0.036 C 
HETATM    9  C14 UNL     1      -3.594   0.040  10.265  1.00  0.00     0.232 C 
HETATM   10  N2  UNL     1      -4.801   0.766  10.034  1.00  0.00    -0.075 N 
HETATM   11  C15 UNL     1      -5.028   1.492  11.295  1.00  0.00     0.239 C 
ATOM     12  H22 UNL     1      -4.779   1.362   9.206  1.00  0.00     0.277 HD
ATOM     13  H21 UNL     1      -5.587   0.188   9.735  1.00  0.00     0.277 HD
ENDBRANCH   6   7
BRANCH   1  14
HETATM   14  C6  UNL     1      -5.257   3.513  13.925  1.00  0.00     0.063 C 
BRANCH  14  15
HETATM   15  C3  UNL     1      -4.987   3.909  15.366  1.00  0.00     0.023 C 
BRANCH  15  16
HETATM   16  C2  UNL     1      -6.218   4.666  15.818  1.00  0.00     0.005 C 
HETATM   17  C1  UNL     1      -6.896   4.073  17.007  1.00  0.00     0.006 C 
ENDBRANCH  15  16
BRANCH  15  18
HETATM   18  C4  UNL     1      -4.693   2.767  16.276  1.00  0.00     0.005 C 
HETATM   19  C5  UNL     1      -4.797   1.438  15.515  1.00  0.00     0.006 C 
ENDBRANCH  15  18
ENDBRANCH  14  15
ENDBRANCH   1  14
TORSDOF 5
ENDMDL
MODEL 4
REMARK VINA RESULT: -5.843341687      1.655      4.838
REMARK  5 active torsions:
REMARK  status: ('A' for Active; 'I' for Inactive)
REMARK    1  A    between atoms: C2_2  and  C3_3 
REMARK    2  A    between atoms: C3_3  and  C4_4 
REMARK    3  A    between atoms: C3_3  and  C6_6 
REMARK    4  A    between atoms: C6_6  and  N1_7 
REMARK    5  A    between atoms: C11_12  and  C12_13 
ROOT
HETATM    1  N1  UNL     1      -3.543   4.503  13.536  1.00  0.00    -0.388 N 
HETATM    2  C7  UNL     1      -3.524   5.915  13.374  1.00  0.00     0.122 C 
HETATM    3  C8  UNL     1      -4.646   6.277  12.424  1.00  0.00     0.020 C 
HETATM    4  C9  UNL     1      -4.485   5.412  11.199  1.00  0.00     0.004 C 
HETATM    5  C10 UNL     1      -3.237   4.576  11.199  1.00  0.00     0.026 C 
HETATM    6  C11 UNL     1      -3.093   3.734  12.482  1.00  0.00     0.089 C 
ENDROOT
BRANCH   6   7
HETATM    7  C12 UNL     1      -3.665   2.409  12.181  1.00  0.00     0.036 C 
HETATM    8  C13 UNL     1      -2.906   1.550  11.211  1.00  0.00     0.036 C 
HETATM    9  C14 UNL     1      -4.018   0.588  10.761  1.00  0.00     0.232 C 
HETATM   10  N2  UNL     1      -5.154   1.440  10.614  1.00  0.00    -0.075 N 
HETATM   11  C15 UNL     1      -5.095   2.319  11.795  1.00  0.00     0.239 C 
ATOM     12  H22 UNL     1      -5.193   1.937   9.724  1.00  0.00     0.277 HD
ATOM     13  H21 UNL     1      -6.038   0.944  10.505  1.00  0.00     0.277 HD
ENDBRANCH   6   7
BRANCH   1  14
HETATM   14  C6  UNL     1      -3.783   4.085  14.824  1.00  0.00     0.063 C 
BRANCH  14  15
HETATM   15  C3  UNL     1      -5.185   3.586  15.130  1.00  0.00     0.023 C 
BRANCH  15  16
HETATM   16  C2  UNL     1      -5.010   2.467  16.134  1.00  0.00     0.005 C 
HETATM   17  C1  UNL     1      -4.693   1.143  15.524  1.00  0.00     0.006 C 
ENDBRANCH  15  16
BRANCH  15  18
HETATM   18  C4  UNL     1      -6.115   4.629  15.644  1.00  0.00     0.005 C 
HETATM   19  C5  UNL     1      -6.855   4.117  16.888  1.00  0.00     0.006 C 
ENDBRANCH  15  18
ENDBRANCH  14  15
ENDBRANCH   1  14
TORSDOF 5
ENDMDL
MODEL 5
REMARK VINA RESULT: -5.830398304      1.590      4.745
REMARK  5 active torsions:
REMARK  status: ('A' for Active; 'I' for Inactive)
REMARK    1  A    between atoms: C2_2  and  C3_3 
REMARK    2  A    between atoms: C3_3  and  C4_4 
REMARK    3  A    between atoms: C3_3  and  C6_6 
REMARK    4  A    between atoms: C6_6  and  N1_7 
REMARK    5  A    between atoms: C11_12  and  C12_13 
ROOT
HETATM    1  N1  UNL     1      -3.830   4.083  14.427  1.00  0.00    -0.388 N 
HETATM    2  C7  UNL     1      -3.569   5.455  14.689  1.00  0.00     0.122 C 
HETATM    3  C8  UNL     1      -4.689   6.257  14.059  1.00  0.00     0.020 C 
HETATM    4  C9  UNL     1      -4.801   5.809  12.623  1.00  0.00     0.004 C 
HETATM    5  C10 UNL     1      -3.731   4.845  12.197  1.00  0.00     0.026 C 
HETATM    6  C11 UNL     1      -3.625   3.629  13.140  1.00  0.00     0.089 C 
ENDROOT
BRANCH   6   7
HETATM    7  C12 UNL     1      -4.455   2.564  12.546  1.00  0.00     0.036 C 
HETATM    8  C13 UNL     1      -3.885   1.174  12.568  1.00  0.00     0.036 C 
HETATM    9  C14 UNL     1      -4.709   0.519  11.446  1.00  0.00     0.232 C 
HETATM   10  N2  UNL     1      -4.758   1.528  10.438  1.00  0.00    -0.075 N 
HETATM   11  C15 UNL     1      -5.016   2.769  11.188  1.00  0.00     0.239 C 
ATOM     12  H22 UNL     1      -3.932   1.564   9.841  1.00  0.00     0.277 HD
ATOM     13  H21 UNL     1      -5.428   1.342   9.692  1.00  0.00     0.277 HD
ENDBRANCH   6   7
BRANCH   1  14
HETATM   14  C6  UNL     1      -4.023   3.319  15.555  1.00  0.00     0.063 C 
BRANCH  14  15
HETATM   15  C3  UNL     1      -5.407   2.723  15.746  1.00  0.00     0.023 C 
BRANCH  15  16
HETATM   16  C2  UNL     1      -5.420   2.167  17.154  1.00  0.00     0.005 C 
HETATM   17  C1  UNL     1      -6.063   0.827  17.275  1.00  0.00     0.006 C 
ENDBRANCH  15  16
BRANCH  15  18
HETATM   18  C4  UNL     1      -6.528   3.680  15.534  1.00  0.00     0.005 C 
HETATM   19  C5  UNL     1      -6.820   4.452  16.829  1.00  0.00     0.006 C 
ENDBRANCH  15  18
ENDBRANCH  14  15
ENDBRANCH   1  14
TORSDOF 5
ENDMDL
