MODEL 1
REMARK VINA RESULT: -6.663022951      0.000      0.000
REMARK  5 active torsions:
REMARK  status: ('A' for Active; 'I' for Inactive)
REMARK    1  A    between atoms: C2_2  and  C3_3 
REMARK    2  A    between atoms: C3_3  and  N1_4 
REMARK    3  A    between atoms: C7_8  and  C8_9 
REMARK    4  A    between atoms: C8_9  and  N2_10 
REMARK    5  A    between atoms: N2_10  and  C9_12 
ROOT
HETATM    1  C8  UNL     1      -4.622   3.155  12.105  1.00  0.00     0.134 C 
ENDROOT
BRANCH   1   2
HETATM    2  C7  UNL     1      -3.185   2.742  12.295  1.00  0.00     0.079 C 
HETATM    3  N1  UNL     1      -2.849   1.447  11.863  1.00  0.00    -0.287 NA
HETATM    4  C4  UNL     1      -1.615   1.516  11.125  1.00  0.00     0.095 C 
HETATM    5  C5  UNL     1      -1.663   2.908  10.536  1.00  0.00     0.017 C 
HETATM    6  C6  UNL     1      -2.212   3.718  11.689  1.00  0.00     0.023 C 
BRANCH   3   7
HETATM    7  C3  UNL     1      -3.803   0.669  11.177  1.00  0.00     0.059 C 
BRANCH   7   8
HETATM    8  C2  UNL     1      -3.915  -0.682  11.747  1.00  0.00     0.001 C 
HETATM    9  C1  UNL     1      -3.200  -1.696  11.368  1.00  0.00     0.012 C 
ENDBRANCH   7   8
ENDBRANCH   3   7
ENDBRANCH   1   2
BRANCH   1  10
HETATM   10  N2  UNL     1      -5.411   2.977  13.291  1.00  0.00    -0.416 N 
ATOM     11  H2  UNL     1      -6.400   2.726  13.252  1.00  0.00     0.153 HD
BRANCH  10  12
HETATM   12  C9  UNL     1      -4.732   3.171  14.523  1.00  0.00     0.077 C 
HETATM   13  C10 UNL     1      -4.927   4.588  15.006  1.00  0.00     0.024 C 
HETATM   14  C11 UNL     1      -6.271   4.837  15.607  1.00  0.00     0.002 C 
HETATM   15  C12 UNL     1      -6.544   3.882  16.746  1.00  0.00     0.004 C 
HETATM   16  C13 UNL     1      -6.521   2.492  16.145  1.00  0.00    -0.017 C 
HETATM   17  C14 UNL     1      -6.857   1.493  17.205  1.00  0.00     0.010 C 
HETATM   18  C15 UNL     1      -5.130   2.223  15.618  1.00  0.00     0.029 C 
ENDBRANCH  10  12
ENDBRANCH   1  10
TORSDOF 5
ENDMDL
MODEL 2
REMARK VINA RESULT: -6.637717032      1.189      5.824
REMARK  5 active torsions:
REMARK  status: ('A' for Active; 'I' for Inactive)
REMARK    1  A    between atoms: C2_2  and  C3_3 
REMARK    2  A    between atoms: C3_3  and  N1_4 
REMARK    3  A    between atoms: C7_8  and  C8_9 
REMARK    4  A    between atoms: C8_9  and  N2_10 
REMARK    5  A    between atoms: N2_10  and  C9_12 
ROOT
HETATM    1  C8  UNL     1      -4.260   3.380  14.154  1.00  0.00     0.134 C 
ENDROOT
BRANCH   1   2
HETATM    2  C7  UNL     1      -5.636   3.921  14.444  1.00  0.00     0.079 C 
HETATM    3  N1  UNL     1      -6.162   3.632  15.715  1.00  0.00    -0.287 NA
HETATM    4  C4  UNL     1      -6.741   4.834  16.255  1.00  0.00     0.095 C 
HETATM    5  C5  UNL     1      -5.900   5.917  15.619  1.00  0.00     0.017 C 
HETATM    6  C6  UNL     1      -5.742   5.404  14.205  1.00  0.00     0.023 C 
BRANCH   3   7
HETATM    7  C3  UNL     1      -5.357   2.986  16.675  1.00  0.00     0.059 C 
BRANCH   7   8
HETATM    8  C2  UNL     1      -6.150   2.103  17.544  1.00  0.00     0.001 C 
HETATM    9  C1  UNL     1      -7.145   1.377  17.135  1.00  0.00     0.012 C 
ENDBRANCH   7   8
ENDBRANCH   3   7
ENDBRANCH   1   2
BRANCH   1  10
HETATM   10  N2  UNL     1      -4.289   2.047  13.619  1.00  0.00    -0.416 N 
ATOM     11  H2  UNL     1      -4.137   1.225  14.203  1.00  0.00     0.153 HD
BRANCH  10  12
HETATM   12  C9  UNL     1      -4.543   1.944  12.225  1.00  0.00     0.077 C 
HETATM   13  C10 UNL     1      -3.576   2.811  11.455  1.00  0.00     0.024 C 
HETATM   14  C11 UNL     1      -2.208   2.226  11.339  1.00  0.00     0.002 C 
HETATM   15  C12 UNL     1      -2.255   0.853  10.707  1.00  0.00     0.004 C 
HETATM   16  C13 UNL     1      -3.084  -0.009  11.636  1.00  0.00    -0.017 C 
HETATM   17  C14 UNL     1      -3.115  -1.409  11.111  1.00  0.00     0.010 C 
HETATM   18  C15 UNL     1      -4.489   0.547  11.676  1.00  0.00     0.029 C 
ENDBRANCH  10  12
ENDBRANCH   1  10
TORSDOF 5
ENDMDL
MODEL 3
REMARK VINA RESULT: -6.581822875      1.241      6.150
REMARK  5 active torsions:
REMARK  status: ('A' for Active; 'I' for Inactive)
REMARK    1  A    between atoms: C2_2  and  C3_3 
REMARK    2  A    between atoms: C3_3  and  N1_4 
REMARK    3  A    between atoms: C7_8  and  C8_9 
REMARK    4  A    between atoms: C8_9  and  N2_10 
REMARK    5  A    between atoms: N2_10  and  C9_12 
ROOT
HETATM    1  C8  UNL     1      -4.889   2.037  14.441  1.00  0.00     0.134 C 
ENDROOT
BRANCH   1   2
HETATM    2  C7  UNL     1      -4.945   2.349  15.914  1.00  0.00     0.079 C 
HETATM    3  N1  UNL     1      -5.669   3.499  16.279  1.00  0.00    -0.287 NA
HETATM    4  C4  UNL     1      -6.506   3.175  17.404  1.00  0.00     0.095 C 
HETATM    5  C5  UNL     1      -6.787   1.705  17.191  1.00  0.00     0.017 C 
HETATM    6  C6  UNL     1      -5.439   1.189  16.738  1.00  0.00     0.023 C 
BRANCH   3   7
HETATM    7  C3  UNL     1      -6.392   4.209  15.301  1.00  0.00     0.059 C 
BRANCH   7   8
HETATM    8  C2  UNL     1      -5.975   5.617  15.232  1.00  0.00     0.001 C 
HETATM    9  C1  UNL     1      -4.760   6.009  14.999  1.00  0.00     0.012 C 
ENDBRANCH   7   8
ENDBRANCH   3   7
ENDBRANCH   1   2
BRANCH   1  10
HETATM   10  N2  UNL     1      -3.842   2.749  13.763  1.00  0.00    -0.416 N 
ATOM     11  H2  UNL     1      -3.014   3.090  14.253  1.00  0.00     0.153 HD
BRANCH  10  12
HETATM   12  C9  UNL     1      -4.028   2.947  12.370  1.00  0.00     0.077 C 
HETATM   13  C10 UNL     1      -2.853   3.699  11.791  1.00  0.00     0.024 C 
HETATM   14  C11 UNL     1      -1.637   2.856  11.598  1.00  0.00     0.002 C 
HETATM   15  C12 UNL     1      -1.938   1.658  10.725  1.00  0.00     0.004 C 
HETATM   16  C13 UNL     1      -2.987   0.852  11.464  1.00  0.00    -0.017 C 
HETATM   17  C14 UNL     1      -3.284  -0.393  10.693  1.00  0.00     0.010 C 
HETATM   18  C15 UNL     1      -4.240   1.690  11.577  1.00  0.00     0.029 C 
ENDBRANCH  10  12
ENDBRANCH   1  10
TORSDOF 5
ENDMDL
MODEL 4
REMARK VINA RESULT: -6.546339227      0.937      2.532
REMARK  5 active torsions:
REMARK  status: ('A' for Active; 'I' for Inactive)
REMARK    1  A    between atoms: C2_2  and  C3_3 
REMARK    2  A    between atoms: C3_3  and  N1_4 
REMARK    3  A    between atoms: C7_8  and  C8_9 
REMARK    4  A    between atoms: C8_9  and  N2_10 
REMARK    5  A    between atoms: N2_10  and  C9_12 
ROOT
HETATM    1  C8  UNL     1      -4.082   3.523  12.252  1.00  0.00     0.134 C 
ENDROOT
BRANCH   1   2
HETATM    2  C7  UNL     1      -4.152   2.598  11.065  1.00  0.00     0.079 C 
HETATM    3  N1  UNL     1      -2.923   2.123  10.573  1.00  0.00    -0.287 NA
HETATM    4  C4  UNL     1      -3.041   0.709  10.332  1.00  0.00     0.095 C 
HETATM    5  C5  UNL     1      -4.066   0.286  11.360  1.00  0.00     0.017 C 
HETATM    6  C6  UNL     1      -5.063   1.421  11.296  1.00  0.00     0.023 C 
BRANCH   3   7
HETATM    7  C3  UNL     1      -1.732   2.418  11.266  1.00  0.00     0.059 C 
BRANCH   7   8
HETATM    8  C2  UNL     1      -0.831   3.260  10.465  1.00  0.00     0.001 C 
HETATM    9  C1  UNL     1      -1.152   3.797   9.328  1.00  0.00     0.012 C 
ENDBRANCH   7   8
ENDBRANCH   3   7
ENDBRANCH   1   2
BRANCH   1  10
HETATM   10  N2  UNL     1      -4.976   3.139  13.309  1.00  0.00    -0.416 N 
ATOM     11  H2  UNL     1      -5.904   2.758  13.121  1.00  0.00     0.153 HD
BRANCH  10  12
HETATM   12  C9  UNL     1      -4.490   3.322  14.630  1.00  0.00     0.077 C 
HETATM   13  C10 UNL     1      -4.664   4.762  15.052  1.00  0.00     0.024 C 
HETATM   14  C11 UNL     1      -6.066   5.112  15.425  1.00  0.00     0.002 C 
HETATM   15  C12 UNL     1      -6.580   4.207  16.522  1.00  0.00     0.004 C 
HETATM   16  C13 UNL     1      -6.556   2.803  15.955  1.00  0.00    -0.017 C 
HETATM   17  C14 UNL     1      -7.122   1.855  16.963  1.00  0.00     0.010 C 
HETATM   18  C15 UNL     1      -5.120   2.432  15.662  1.00  0.00     0.029 C 
ENDBRANCH  10  12
ENDBRANCH   1  10
TORSDOF 5
ENDMDL
MODEL 5
REMARK VINA RESULT: -6.363491343      1.322      5.400
REMARK  5 active torsions:
REMARK  status: ('A' for Active; 'I' for Inactive)
REMARK    1  A    between atoms: C2_2  and  C3_3 
REMARK    2  A    between atoms: C3_3  and  N1_4 
REMARK    3  A    between atoms: C7_8  and  C8_9 
REMARK    4  A    between atoms: C8_9  and  N2_10 
REMARK    5  A    between atoms: N2_10  and  C9_12 
ROOT
HETATM    1  C8  UNL     1      -3.620   4.419  13.866  1.00  0.00     0.134 C 
ENDROOT
BRANCH   1   2
HETATM    2  C7  UNL     1      -5.101   4.295  14.113  1.00  0.00     0.079 C 
HETATM    3  N1  UNL     1      -5.484   3.517  15.221  1.00  0.00    -0.287 NA
HETATM    4  C4  UNL     1      -6.505   4.226  15.947  1.00  0.00     0.095 C 
HETATM    5  C5  UNL     1      -6.162   5.671  15.667  1.00  0.00     0.017 C 
HETATM    6  C6  UNL     1      -5.792   5.630  14.201  1.00  0.00     0.023 C 
BRANCH   3   7
HETATM    7  C3  UNL     1      -4.500   3.015  16.096  1.00  0.00     0.059 C 
BRANCH   7   8
HETATM    8  C2  UNL     1      -4.633   1.564  16.288  1.00  0.00     0.001 C 
HETATM    9  C1  UNL     1      -4.529   0.688  15.335  1.00  0.00     0.012 C 
ENDBRANCH   7   8
ENDBRANCH   3   7
ENDBRANCH   1   2
BRANCH   1  10
HETATM   10  N2  UNL     1      -3.094   3.330  13.091  1.00  0.00    -0.416 N 
ATOM     11  H2  UNL     1      -2.270   2.804  13.384  1.00  0.00     0.153 HD
BRANCH  10  12
HETATM   12  C9  UNL     1      -3.791   3.030  11.891  1.00  0.00     0.077 C 
HETATM   13  C10 UNL     1      -2.873   3.195  10.703  1.00  0.00     0.024 C 
HETATM   14  C11 UNL     1      -1.909   2.069  10.528  1.00  0.00     0.002 C 
HETATM   15  C12 UNL     1      -2.632   0.746  10.417  1.00  0.00     0.004 C 
HETATM   16  C13 UNL     1      -3.375   0.562  11.724  1.00  0.00    -0.017 C 
HETATM   17  C14 UNL     1      -4.059  -0.767  11.718  1.00  0.00     0.010 C 
HETATM   18  C15 UNL     1      -4.406   1.661  11.845  1.00  0.00     0.029 C 
ENDBRANCH  10  12
ENDBRANCH   1  10
TORSDOF 5
ENDMDL
