MODEL 1
REMARK VINA RESULT: -5.754903045      0.000      0.000
REMARK  2 active torsions:
REMARK  status: ('A' for Active; 'I' for Inactive)
REMARK    1  A    between atoms: C8_11  and  C9_12 
REMARK    2  A    between atoms: C9_12  and  C10_13 
ROOT
HETATM    1  C1  UNL     1      -3.889   6.424  14.754  1.00  0.00     0.017 C 
HETATM    2  C2  UNL     1      -3.675   4.924  14.514  1.00  0.00    -0.020 C 
HETATM    3  C3  UNL     1      -2.359   4.578  15.159  1.00  0.00     0.017 C 
HETATM    4  C4  UNL     1      -3.526   4.736  13.028  1.00  0.00     0.241 C 
HETATM    5  N1  UNL     1      -3.098   3.417  12.653  1.00  0.00    -0.074 N 
ATOM      6  H11 UNL     1      -2.447   3.036  13.341  1.00  0.00     0.277 HD
ATOM      7  H12 UNL     1      -2.481   3.452  11.841  1.00  0.00     0.277 HD
HETATM    8  C5  UNL     1      -4.198   2.509  12.426  1.00  0.00     0.237 C 
HETATM    9  C6  UNL     1      -5.075   2.347  13.636  1.00  0.00     0.012 C 
HETATM   10  C7  UNL     1      -4.349   1.855  14.842  1.00  0.00     0.011 C 
HETATM   11  C8  UNL     1      -4.404   2.965  15.884  1.00  0.00    -0.007 C 
HETATM   12  C11 UNL     1      -4.842   4.184  15.099  1.00  0.00    -0.001 C 
HETATM   13  C12 UNL     1      -5.758   3.589  14.070  1.00  0.00     0.012 C 
ENDROOT
BRANCH  11  14
HETATM   14  C9  UNL     1      -5.403   2.577  16.952  1.00  0.00     0.036 C 
BRANCH  14  15
HETATM   15  C10 UNL     1      -5.827   1.150  16.893  1.00  0.00     0.222 C 
HETATM   16  F1  UNL     1      -7.225   1.160  16.771  1.00  0.00    -0.255 F 
ENDBRANCH  14  15
ENDBRANCH  11  14
TORSDOF 2
ENDMDL
MODEL 2
REMARK VINA RESULT: -5.250023856      2.020      3.578
REMARK  2 active torsions:
REMARK  status: ('A' for Active; 'I' for Inactive)
REMARK    1  A    between atoms: C8_11  and  C9_12 
REMARK    2  A    between atoms: C9_12  and  C10_13 
ROOT
HETATM    1  C1  UNL     1      -5.915   4.009  15.393  1.00  0.00     0.017 C 
HETATM    2  C2  UNL     1      -4.617   3.675  14.647  1.00  0.00    -0.020 C 
HETATM    3  C3  UNL     1      -4.077   2.422  15.282  1.00  0.00     0.017 C 
HETATM    4  C4  UNL     1      -3.650   4.793  14.929  1.00  0.00     0.241 C 
HETATM    5  N1  UNL     1      -2.311   4.524  14.483  1.00  0.00    -0.074 N 
ATOM      6  H11 UNL     1      -2.083   3.535  14.593  1.00  0.00     0.277 HD
ATOM      7  H12 UNL     1      -1.627   4.925  15.125  1.00  0.00     0.277 HD
HETATM    8  C5  UNL     1      -2.067   4.963  13.129  1.00  0.00     0.237 C 
HETATM    9  C6  UNL     1      -2.988   4.313  12.135  1.00  0.00     0.012 C 
HETATM   10  C7  UNL     1      -2.910   2.824  12.128  1.00  0.00     0.011 C 
HETATM   11  C8  UNL     1      -4.265   2.301  12.589  1.00  0.00    -0.007 C 
HETATM   12  C11 UNL     1      -4.942   3.515  13.190  1.00  0.00    -0.001 C 
HETATM   13  C12 UNL     1      -4.423   4.630  12.329  1.00  0.00     0.012 C 
ENDROOT
BRANCH  11  14
HETATM   14  C9  UNL     1      -5.009   1.762  11.387  1.00  0.00     0.036 C 
BRANCH  14  15
HETATM   15  C10 UNL     1      -4.692   0.341  11.068  1.00  0.00     0.222 C 
HETATM   16  F1  UNL     1      -4.591  -0.325  12.299  1.00  0.00    -0.255 F 
ENDBRANCH  14  15
ENDBRANCH  11  14
TORSDOF 2
ENDMDL
MODEL 3
REMARK VINA RESULT: -5.243500436      2.668      4.317
REMARK  2 active torsions:
REMARK  status: ('A' for Active; 'I' for Inactive)
REMARK    1  A    between atoms: C8_11  and  C9_12 
REMARK    2  A    between atoms: C9_12  and  C10_13 
ROOT
HETATM    1  C1  UNL     1      -6.393   2.957  18.696  1.00  0.00     0.017 C 
HETATM    2  C2  UNL     1      -6.233   2.409  17.272  1.00  0.00    -0.020 C 
HETATM    3  C3  UNL     1      -7.621   2.092  16.784  1.00  0.00     0.017 C 
HETATM    4  C4  UNL     1      -5.474   1.115  17.383  1.00  0.00     0.241 C 
HETATM    5  N1  UNL     1      -5.432   0.362  16.160  1.00  0.00    -0.074 N 
ATOM      6  H11 UNL     1      -6.304   0.465  15.640  1.00  0.00     0.277 HD
ATOM      7  H12 UNL     1      -5.468  -0.640  16.348  1.00  0.00     0.277 HD
HETATM    8  C5  UNL     1      -4.295   0.691  15.333  1.00  0.00     0.237 C 
HETATM    9  C6  UNL     1      -4.262   2.144  14.945  1.00  0.00     0.012 C 
HETATM   10  C7  UNL     1      -5.478   2.595  14.209  1.00  0.00     0.011 C 
HETATM   11  C8  UNL     1      -6.177   3.625  15.089  1.00  0.00    -0.007 C 
HETATM   12  C11 UNL     1      -5.531   3.448  16.447  1.00  0.00    -0.001 C 
HETATM   13  C12 UNL     1      -4.121   3.081  16.084  1.00  0.00     0.012 C 
ENDROOT
BRANCH  11  14
HETATM   14  C9  UNL     1      -5.934   5.001  14.509  1.00  0.00     0.036 C 
BRANCH  14  15
HETATM   15  C10 UNL     1      -5.932   6.093  15.524  1.00  0.00     0.222 C 
HETATM   16  F1  UNL     1      -4.640   6.640  15.508  1.00  0.00    -0.255 F 
ENDBRANCH  14  15
ENDBRANCH  11  14
TORSDOF 2
ENDMDL
MODEL 4
REMARK VINA RESULT: -5.020604593      2.709      3.922
REMARK  2 active torsions:
REMARK  status: ('A' for Active; 'I' for Inactive)
REMARK    1  A    between atoms: C8_11  and  C9_12 
REMARK    2  A    between atoms: C9_12  and  C10_13 
ROOT
HETATM    1  C1  UNL     1      -3.343   7.177  14.401  1.00  0.00     0.017 C 
HETATM    2  C2  UNL     1      -4.264   6.006  14.034  1.00  0.00    -0.020 C 
HETATM    3  C3  UNL     1      -5.017   6.433  12.803  1.00  0.00     0.017 C 
HETATM    4  C4  UNL     1      -5.255   5.860  15.156  1.00  0.00     0.241 C 
HETATM    5  N1  UNL     1      -6.327   4.949  14.865  1.00  0.00    -0.074 N 
ATOM      6  H11 UNL     1      -6.590   4.999  13.881  1.00  0.00     0.277 HD
ATOM      7  H12 UNL     1      -7.200   5.269  15.287  1.00  0.00     0.277 HD
HETATM    8  C5  UNL     1      -6.035   3.589  15.253  1.00  0.00     0.237 C 
HETATM    9  C6  UNL     1      -4.811   3.043  14.571  1.00  0.00     0.012 C 
HETATM   10  C7  UNL     1      -4.896   3.060  13.083  1.00  0.00     0.011 C 
HETATM   11  C8  UNL     1      -3.822   4.019  12.584  1.00  0.00    -0.007 C 
HETATM   12  C11 UNL     1      -3.412   4.789  13.822  1.00  0.00    -0.001 C 
HETATM   13  C12 UNL     1      -3.554   3.756  14.902  1.00  0.00     0.012 C 
ENDROOT
BRANCH  11  14
HETATM   14  C9  UNL     1      -2.683   3.210  12.004  1.00  0.00     0.036 C 
BRANCH  14  15
HETATM   15  C10 UNL     1      -3.103   1.904  11.423  1.00  0.00     0.222 C 
HETATM   16  F1  UNL     1      -1.925   1.177  11.197  1.00  0.00    -0.255 F 
ENDBRANCH  14  15
ENDBRANCH  11  14
TORSDOF 2
ENDMDL
MODEL 5
REMARK VINA RESULT: -5.001309869      2.521      3.762
REMARK  2 active torsions:
REMARK  status: ('A' for Active; 'I' for Inactive)
REMARK    1  A    between atoms: C8_11  and  C9_12 
REMARK    2  A    between atoms: C9_12  and  C10_13 
ROOT
HETATM    1  C1  UNL     1      -4.803   5.703  13.339  1.00  0.00     0.017 C 
HETATM    2  C2  UNL     1      -3.738   4.636  13.050  1.00  0.00    -0.020 C 
HETATM    3  C3  UNL     1      -3.598   3.828  14.313  1.00  0.00     0.017 C 
HETATM    4  C4  UNL     1      -2.441   5.364  12.819  1.00  0.00     0.241 C 
HETATM    5  N1  UNL     1      -1.297   4.498  12.754  1.00  0.00    -0.074 N 
ATOM      6  H11 UNL     1      -1.399   3.711  13.395  1.00  0.00     0.277 HD
ATOM      7  H12 UNL     1      -0.478   4.945  13.167  1.00  0.00     0.277 HD
HETATM    8  C5  UNL     1      -1.012   4.038  11.414  1.00  0.00     0.237 C 
HETATM    9  C6  UNL     1      -2.159   3.280  10.806  1.00  0.00     0.012 C 
HETATM   10  C7  UNL     1      -2.574   2.084  11.596  1.00  0.00     0.011 C 
HETATM   11  C8  UNL     1      -3.992   2.343  12.089  1.00  0.00    -0.007 C 
HETATM   12  C11 UNL     1      -4.193   3.828  11.870  1.00  0.00    -0.001 C 
HETATM   13  C12 UNL     1      -3.395   4.078  10.623  1.00  0.00     0.012 C 
ENDROOT
BRANCH  11  14
HETATM   14  C9  UNL     1      -4.950   1.505  11.270  1.00  0.00     0.036 C 
BRANCH  14  15
HETATM   15  C10 UNL     1      -4.602   0.056  11.230  1.00  0.00     0.222 C 
HETATM   16  F1  UNL     1      -4.586  -0.380  12.563  1.00  0.00    -0.255 F 
ENDBRANCH  14  15
ENDBRANCH  11  14
TORSDOF 2
ENDMDL
