MODEL 1
REMARK VINA RESULT: -6.698715265      0.000      0.000
REMARK  2 active torsions:
REMARK  status: ('A' for Active; 'I' for Inactive)
REMARK    1  A    between atoms: C4_5  and  N1_6 
REMARK    2  A    between atoms: N1_6  and  C5_9 
ROOT
HETATM    1  N1  UNL     1      -3.690   2.411  13.734  1.00  0.00    -0.066 N 
ATOM      2  H11 UNL     1      -3.173   3.289  13.785  1.00  0.00     0.278 HD
ATOM      3  H12 UNL     1      -2.981   1.770  14.089  1.00  0.00     0.278 HD
ENDROOT
BRANCH   1   4
HETATM    4  C4  UNL     1      -4.006   2.097  12.367  1.00  0.00     0.189 C 
HETATM    5  C3  UNL     1      -2.742   2.212  11.548  1.00  0.00     0.036 C 
HETATM    6  C2  UNL     1      -2.624   0.928  10.763  1.00  0.00     0.039 C 
HETATM    7  C1  UNL     1      -3.835   0.090  11.045  1.00  0.00     0.172 C 
HETATM    8  F1  UNL     1      -4.673   0.141   9.957  1.00  0.00    -0.249 F 
HETATM    9  C12 UNL     1      -4.461   0.669  12.289  1.00  0.00     0.070 C 
ENDBRANCH   1   4
BRANCH   1  10
HETATM   10  C5  UNL     1      -4.812   2.445  14.613  1.00  0.00     0.190 C 
HETATM   11  C6  UNL     1      -4.898   1.317  15.588  1.00  0.00     0.033 C 
HETATM   12  C7  UNL     1      -5.395   1.617  16.945  1.00  0.00     0.002 C 
HETATM   13  C8  UNL     1      -6.192   2.864  17.177  1.00  0.00     0.005 C 
HETATM   14  C9  UNL     1      -6.509   3.467  15.877  1.00  0.00    -0.008 A 
HETATM   15  C10 UNL     1      -6.112   4.670  15.239  1.00  0.00     0.012 A 
HETATM   16  C11 UNL     1      -5.064   3.709  15.307  1.00  0.00     0.020 A 
ENDBRANCH   1  10
TORSDOF 2
ENDMDL
MODEL 2
REMARK VINA RESULT: -6.698309508      0.889      1.943
REMARK  2 active torsions:
REMARK  status: ('A' for Active; 'I' for Inactive)
REMARK    1  A    between atoms: C4_5  and  N1_6 
REMARK    2  A    between atoms: N1_6  and  C5_9 
ROOT
HETATM    1  N1  UNL     1      -3.783   2.039  14.631  1.00  0.00    -0.066 N 
ATOM      2  H11 UNL     1      -2.933   2.588  14.501  1.00  0.00     0.278 HD
ATOM      3  H12 UNL     1      -3.375   1.147  14.912  1.00  0.00     0.278 HD
ENDROOT
BRANCH   1   4
HETATM    4  C4  UNL     1      -4.480   1.897  13.381  1.00  0.00     0.189 C 
HETATM    5  C3  UNL     1      -3.772   2.736  12.344  1.00  0.00     0.036 C 
HETATM    6  C2  UNL     1      -3.528   1.834  11.159  1.00  0.00     0.039 C 
HETATM    7  C1  UNL     1      -4.147   0.498  11.448  1.00  0.00     0.172 C 
HETATM    8  F1  UNL     1      -5.305   0.379  10.717  1.00  0.00    -0.249 F 
HETATM    9  C12 UNL     1      -4.391   0.466  12.935  1.00  0.00     0.070 C 
ENDBRANCH   1   4
BRANCH   1  10
HETATM   10  C5  UNL     1      -4.565   2.581  15.692  1.00  0.00     0.190 C 
HETATM   11  C6  UNL     1      -5.019   3.989  15.500  1.00  0.00     0.033 C 
HETATM   12  C7  UNL     1      -6.367   4.349  15.982  1.00  0.00     0.002 C 
HETATM   13  C8  UNL     1      -7.039   3.484  17.003  1.00  0.00     0.005 C 
HETATM   14  C9  UNL     1      -6.066   2.503  17.499  1.00  0.00    -0.008 A 
HETATM   15  C10 UNL     1      -5.961   1.093  17.386  1.00  0.00     0.012 A 
HETATM   16  C11 UNL     1      -5.687   1.767  16.163  1.00  0.00     0.020 A 
ENDBRANCH   1  10
TORSDOF 2
ENDMDL
MODEL 3
REMARK VINA RESULT: -6.371880243      1.380      2.033
REMARK  2 active torsions:
REMARK  status: ('A' for Active; 'I' for Inactive)
REMARK    1  A    between atoms: C4_5  and  N1_6 
REMARK    2  A    between atoms: N1_6  and  C5_9 
ROOT
HETATM    1  N1  UNL     1      -3.648   2.747  13.320  1.00  0.00    -0.066 N 
ATOM      2  H11 UNL     1      -2.680   3.020  13.493  1.00  0.00     0.278 HD
ATOM      3  H12 UNL     1      -3.738   1.984  13.991  1.00  0.00     0.278 HD
ENDROOT
BRANCH   1   4
HETATM    4  C4  UNL     1      -3.794   2.251  11.978  1.00  0.00     0.189 C 
HETATM    5  C3  UNL     1      -2.424   2.180  11.346  1.00  0.00     0.036 C 
HETATM    6  C2  UNL     1      -2.290   0.791  10.773  1.00  0.00     0.039 C 
HETATM    7  C1  UNL     1      -3.585   0.065  10.988  1.00  0.00     0.172 C 
HETATM    8  F1  UNL     1      -4.259  -0.004   9.792  1.00  0.00    -0.249 F 
HETATM    9  C12 UNL     1      -4.334   0.852  12.034  1.00  0.00     0.070 C 
ENDBRANCH   1   4
BRANCH   1  10
HETATM   10  C5  UNL     1      -4.532   3.812  13.662  1.00  0.00     0.190 C 
HETATM   11  C6  UNL     1      -5.746   3.416  14.434  1.00  0.00     0.033 C 
HETATM   12  C7  UNL     1      -6.223   4.336  15.485  1.00  0.00     0.002 C 
HETATM   13  C8  UNL     1      -5.795   5.770  15.458  1.00  0.00     0.005 C 
HETATM   14  C9  UNL     1      -5.107   6.030  14.188  1.00  0.00    -0.008 A 
HETATM   15  C10 UNL     1      -3.764   6.343  13.854  1.00  0.00     0.012 A 
HETATM   16  C11 UNL     1      -3.927   4.994  14.278  1.00  0.00     0.020 A 
ENDBRANCH   1  10
TORSDOF 2
ENDMDL
MODEL 4
REMARK VINA RESULT: -6.296831683      1.165      2.303
REMARK  2 active torsions:
REMARK  status: ('A' for Active; 'I' for Inactive)
REMARK    1  A    between atoms: C4_5  and  N1_6 
REMARK    2  A    between atoms: N1_6  and  C5_9 
ROOT
HETATM    1  N1  UNL     1      -3.655   2.830  12.457  1.00  0.00    -0.066 N 
ATOM      2  H11 UNL     1      -4.162   3.346  11.737  1.00  0.00     0.278 HD
ATOM      3  H12 UNL     1      -2.709   3.166  12.282  1.00  0.00     0.278 HD
ENDROOT
BRANCH   1   4
HETATM    4  C4  UNL     1      -3.737   1.416  12.207  1.00  0.00     0.189 C 
HETATM    5  C3  UNL     1      -5.003   1.142  11.432  1.00  0.00     0.036 C 
HETATM    6  C2  UNL     1      -4.601   0.312  10.237  1.00  0.00     0.039 C 
HETATM    7  C1  UNL     1      -3.132   0.027  10.334  1.00  0.00     0.172 C 
HETATM    8  F1  UNL     1      -2.958  -1.280  10.721  1.00  0.00    -0.249 F 
HETATM    9  C12 UNL     1      -2.583   1.010  11.337  1.00  0.00     0.070 C 
ENDBRANCH   1   4
BRANCH   1  10
HETATM   10  C5  UNL     1      -4.091   3.232  13.754  1.00  0.00     0.190 C 
HETATM   11  C6  UNL     1      -4.986   4.427  13.787  1.00  0.00     0.033 C 
HETATM   12  C7  UNL     1      -6.084   4.436  14.774  1.00  0.00     0.002 C 
HETATM   13  C8  UNL     1      -6.015   3.524  15.960  1.00  0.00     0.005 C 
HETATM   14  C9  UNL     1      -4.680   2.917  16.007  1.00  0.00    -0.008 A 
HETATM   15  C10 UNL     1      -4.207   1.590  15.833  1.00  0.00     0.012 A 
HETATM   16  C11 UNL     1      -4.643   2.186  14.615  1.00  0.00     0.020 A 
ENDBRANCH   1  10
TORSDOF 2
ENDMDL
MODEL 5
REMARK VINA RESULT: -6.294272280      1.164      2.084
REMARK  2 active torsions:
REMARK  status: ('A' for Active; 'I' for Inactive)
REMARK    1  A    between atoms: C4_5  and  N1_6 
REMARK    2  A    between atoms: N1_6  and  C5_9 
ROOT
HETATM    1  N1  UNL     1      -3.713   2.415  14.282  1.00  0.00    -0.066 N 
ATOM      2  H11 UNL     1      -2.720   2.611  14.155  1.00  0.00     0.278 HD
ATOM      3  H12 UNL     1      -3.654   1.584  14.870  1.00  0.00     0.278 HD
ENDROOT
BRANCH   1   4
HETATM    4  C4  UNL     1      -4.323   2.090  13.021  1.00  0.00     0.189 C 
HETATM    5  C3  UNL     1      -3.378   2.501  11.916  1.00  0.00     0.036 C 
HETATM    6  C2  UNL     1      -3.231   1.301  11.013  1.00  0.00     0.039 C 
HETATM    7  C1  UNL     1      -4.130   0.214  11.521  1.00  0.00     0.172 C 
HETATM    8  F1  UNL     1      -5.226   0.124  10.697  1.00  0.00    -0.249 F 
HETATM    9  C12 UNL     1      -4.493   0.601  12.933  1.00  0.00     0.070 C 
ENDBRANCH   1   4
BRANCH   1  10
HETATM   10  C5  UNL     1      -4.341   3.480  14.992  1.00  0.00     0.190 C 
HETATM   11  C6  UNL     1      -3.877   4.852  14.632  1.00  0.00     0.033 C 
HETATM   12  C7  UNL     1      -4.882   5.933  14.603  1.00  0.00     0.002 C 
HETATM   13  C8  UNL     1      -6.177   5.753  15.333  1.00  0.00     0.005 C 
HETATM   14  C9  UNL     1      -6.088   4.539  16.154  1.00  0.00    -0.008 A 
HETATM   15  C10 UNL     1      -6.740   3.280  16.104  1.00  0.00     0.012 A 
HETATM   16  C11 UNL     1      -5.804   3.459  15.047  1.00  0.00     0.020 A 
ENDBRANCH   1  10
TORSDOF 2
ENDMDL
