MODEL 1
REMARK VINA RESULT: -6.214312200      0.000      0.000
REMARK  2 active torsions:
REMARK  status: ('A' for Active; 'I' for Inactive)
REMARK    1  A    between atoms: C3_4  and  N1_5 
REMARK    2  A    between atoms: N1_5  and  C4_7 
ROOT
HETATM    1  F1  UNL     1      -3.129   3.898  13.014  1.00  0.00    -0.249 F 
HETATM    2  C1  UNL     1      -3.139   4.740  14.120  1.00  0.00     0.180 C 
HETATM    3  C2  UNL     1      -3.669   3.922  15.288  1.00  0.00     0.062 C 
HETATM    4  C3  UNL     1      -4.981   3.359  14.898  1.00  0.00     0.079 C 
HETATM    5  C7  UNL     1      -6.027   4.450  14.679  1.00  0.00     0.025 C 
HETATM    6  C8  UNL     1      -5.792   5.675  15.488  1.00  0.00     0.003 C 
HETATM    7  C9  UNL     1      -4.663   6.530  14.976  1.00  0.00     0.012 C 
HETATM    8  C10 UNL     1      -3.971   5.933  13.786  1.00  0.00    -0.009 A 
HETATM    9  C11 UNL     1      -4.381   6.227  12.393  1.00  0.00     0.013 A 
HETATM   10  C12 UNL     1      -3.213   6.980  12.933  1.00  0.00     0.013 A 
ENDROOT
BRANCH   4  11
HETATM   11  N1  UNL     1      -5.486   2.296  15.670  1.00  0.00    -0.413 N 
ATOM     12  H1  UNL     1      -5.106   1.357  15.551  1.00  0.00     0.154 HD
BRANCH  11  13
HETATM   13  C4  UNL     1      -6.516   2.521  16.609  1.00  0.00     0.077 A 
HETATM   14  C5  UNL     1      -7.395   1.511  17.205  1.00  0.00     0.027 A 
HETATM   15  C6  UNL     1      -6.388   2.280  18.066  1.00  0.00     0.027 A 
ENDBRANCH  11  13
ENDBRANCH   4  11
TORSDOF 2
ENDMDL
MODEL 2
REMARK VINA RESULT: -5.979943198      1.541      2.019
REMARK  2 active torsions:
REMARK  status: ('A' for Active; 'I' for Inactive)
REMARK    1  A    between atoms: C3_4  and  N1_5 
REMARK    2  A    between atoms: N1_5  and  C4_7 
ROOT
HETATM    1  F1  UNL     1      -5.251   2.455  12.329  1.00  0.00    -0.249 F 
HETATM    2  C1  UNL     1      -4.106   2.776  13.047  1.00  0.00     0.180 C 
HETATM    3  C2  UNL     1      -4.492   2.757  14.519  1.00  0.00     0.062 C 
HETATM    4  C3  UNL     1      -5.642   3.669  14.704  1.00  0.00     0.079 C 
HETATM    5  C7  UNL     1      -5.269   5.123  14.417  1.00  0.00     0.025 C 
HETATM    6  C8  UNL     1      -3.838   5.435  14.672  1.00  0.00     0.003 C 
HETATM    7  C9  UNL     1      -2.904   4.894  13.623  1.00  0.00     0.012 C 
HETATM    8  C10 UNL     1      -3.611   4.099  12.565  1.00  0.00    -0.009 A 
HETATM    9  C11 UNL     1      -4.125   4.710  11.316  1.00  0.00     0.013 A 
HETATM   10  C12 UNL     1      -2.815   4.001  11.240  1.00  0.00     0.013 A 
ENDROOT
BRANCH   4  11
HETATM   11  N1  UNL     1      -6.384   3.544  15.894  1.00  0.00    -0.413 N 
ATOM     12  H1  UNL     1      -7.049   4.272  16.155  1.00  0.00     0.154 HD
BRANCH  11  13
HETATM   13  C4  UNL     1      -6.214   2.418  16.727  1.00  0.00     0.077 A 
HETATM   14  C5  UNL     1      -6.442   2.355  18.173  1.00  0.00     0.027 A 
HETATM   15  C6  UNL     1      -7.319   1.555  17.206  1.00  0.00     0.027 A 
ENDBRANCH  11  13
ENDBRANCH   4  11
TORSDOF 2
ENDMDL
MODEL 3
REMARK VINA RESULT: -5.970095150      1.434      2.314
REMARK  2 active torsions:
REMARK  status: ('A' for Active; 'I' for Inactive)
REMARK    1  A    between atoms: C3_4  and  N1_5 
REMARK    2  A    between atoms: N1_5  and  C4_7 
ROOT
HETATM    1  F1  UNL     1      -4.098   6.632  15.257  1.00  0.00    -0.249 F 
HETATM    2  C1  UNL     1      -4.432   6.049  14.041  1.00  0.00     0.180 C 
HETATM    3  C2  UNL     1      -5.642   5.162  14.298  1.00  0.00     0.062 C 
HETATM    4  C3  UNL     1      -5.300   4.222  15.389  1.00  0.00     0.079 C 
HETATM    5  C7  UNL     1      -4.188   3.257  14.983  1.00  0.00     0.025 C 
HETATM    6  C8  UNL     1      -4.143   2.978  13.523  1.00  0.00     0.003 C 
HETATM    7  C9  UNL     1      -3.580   4.111  12.707  1.00  0.00     0.012 C 
HETATM    8  C10 UNL     1      -3.236   5.313  13.536  1.00  0.00    -0.009 A 
HETATM    9  C11 UNL     1      -1.893   5.516  14.131  1.00  0.00     0.013 A 
HETATM   10  C12 UNL     1      -2.194   6.241  12.863  1.00  0.00     0.013 A 
ENDROOT
BRANCH   4  11
HETATM   11  N1  UNL     1      -6.363   3.557  16.029  1.00  0.00    -0.413 N 
ATOM     12  H1  UNL     1      -7.306   3.942  15.977  1.00  0.00     0.154 HD
BRANCH  11  13
HETATM   13  C4  UNL     1      -6.131   2.362  16.744  1.00  0.00     0.077 A 
HETATM   14  C5  UNL     1      -6.348   2.140  18.176  1.00  0.00     0.027 A 
HETATM   15  C6  UNL     1      -7.190   1.400  17.132  1.00  0.00     0.027 A 
ENDBRANCH  11  13
ENDBRANCH   4  11
TORSDOF 2
ENDMDL
MODEL 4
REMARK VINA RESULT: -5.724144725      2.845      5.037
REMARK  2 active torsions:
REMARK  status: ('A' for Active; 'I' for Inactive)
REMARK    1  A    between atoms: C3_4  and  N1_5 
REMARK    2  A    between atoms: N1_5  and  C4_7 
ROOT
HETATM    1  F1  UNL     1      -6.719   4.095  14.508  1.00  0.00    -0.249 F 
HETATM    2  C1  UNL     1      -5.644   4.011  15.384  1.00  0.00     0.180 C 
HETATM    3  C2  UNL     1      -4.399   3.818  14.532  1.00  0.00     0.062 C 
HETATM    4  C3  UNL     1      -4.613   2.638  13.665  1.00  0.00     0.079 C 
HETATM    5  C7  UNL     1      -4.736   1.349  14.475  1.00  0.00     0.025 C 
HETATM    6  C8  UNL     1      -3.996   1.381  15.764  1.00  0.00     0.003 C 
HETATM    7  C9  UNL     1      -4.662   2.216  16.824  1.00  0.00     0.012 C 
HETATM    8  C10 UNL     1      -5.909   2.893  16.337  1.00  0.00    -0.009 A 
HETATM    9  C11 UNL     1      -7.251   2.275  16.452  1.00  0.00     0.013 A 
HETATM   10  C12 UNL     1      -6.876   3.288  17.480  1.00  0.00     0.013 A 
ENDROOT
BRANCH   4  11
HETATM   11  N1  UNL     1      -3.756   2.482  12.559  1.00  0.00    -0.413 N 
ATOM     12  H1  UNL     1      -3.280   3.295  12.167  1.00  0.00     0.154 HD
BRANCH  11  13
HETATM   13  C4  UNL     1      -3.552   1.207  11.987  1.00  0.00     0.077 A 
HETATM   14  C5  UNL     1      -4.118   0.709  10.730  1.00  0.00     0.027 A 
HETATM   15  C6  UNL     1      -2.609   0.928  10.879  1.00  0.00     0.027 A 
ENDBRANCH  11  13
ENDBRANCH   4  11
TORSDOF 2
ENDMDL
MODEL 5
REMARK VINA RESULT: -5.642436627      2.861      3.949
REMARK  2 active torsions:
REMARK  status: ('A' for Active; 'I' for Inactive)
REMARK    1  A    between atoms: C3_4  and  N1_5 
REMARK    2  A    between atoms: N1_5  and  C4_7 
ROOT
HETATM    1  F1  UNL     1      -4.806   5.579  12.127  1.00  0.00    -0.249 F 
HETATM    2  C1  UNL     1      -3.758   5.045  12.867  1.00  0.00     0.180 C 
HETATM    3  C2  UNL     1      -3.554   3.621  12.373  1.00  0.00     0.062 C 
HETATM    4  C3  UNL     1      -4.846   2.907  12.483  1.00  0.00     0.079 C 
HETATM    5  C7  UNL     1      -5.294   2.757  13.935  1.00  0.00     0.025 C 
HETATM    6  C8  UNL     1      -4.169   2.709  14.906  1.00  0.00     0.003 C 
HETATM    7  C9  UNL     1      -3.523   4.047  15.149  1.00  0.00     0.012 C 
HETATM    8  C10 UNL     1      -4.115   5.143  14.313  1.00  0.00    -0.009 A 
HETATM    9  C11 UNL     1      -5.247   5.979  14.777  1.00  0.00     0.013 A 
HETATM   10  C12 UNL     1      -3.878   6.556  14.901  1.00  0.00     0.013 A 
ENDROOT
BRANCH   4  11
HETATM   11  N1  UNL     1      -4.986   1.704  11.764  1.00  0.00    -0.413 N 
ATOM     12  H1  UNL     1      -5.766   1.588  11.117  1.00  0.00     0.154 HD
BRANCH  11  13
HETATM   13  C4  UNL     1      -4.054   0.658  11.934  1.00  0.00     0.077 A 
HETATM   14  C5  UNL     1      -4.268  -0.763  11.647  1.00  0.00     0.027 A 
HETATM   15  C6  UNL     1      -3.260   0.057  10.836  1.00  0.00     0.027 A 
ENDBRANCH  11  13
ENDBRANCH   4  11
TORSDOF 2
ENDMDL
