MODEL 1
REMARK VINA RESULT: -5.028583787      0.000      0.000
REMARK  1 active torsions:
REMARK  status: ('A' for Active; 'I' for Inactive)
REMARK    1  A    between atoms: C2_3  and  C3_4 
ROOT
HETATM    1  C1  UNL     1      -5.973   5.889  15.257  1.00  0.00     0.222 C 
HETATM    2  N1  UNL     1      -5.623   4.782  15.304  1.00  0.00    -0.458 NA
HETATM    3  C2  UNL     1      -5.168   3.425  15.365  1.00  0.00     0.116 A 
HETATM    4  C7  UNL     1      -3.745   3.224  15.565  1.00  0.00     0.072 A 
HETATM    5  C8  UNL     1      -4.329   3.067  14.172  1.00  0.00     0.056 A 
HETATM    6  C9  UNL     1      -3.903   4.133  13.199  1.00  0.00     0.032 C 
HETATM    7  S1  UNL     1      -4.473   1.399  13.489  1.00  0.00    -0.083 SA
ENDROOT
BRANCH   3   8
HETATM    8  C3  UNL     1      -6.268   2.501  15.740  1.00  0.00     0.063 C 
HETATM    9  C4  UNL     1      -7.270   3.008  16.757  1.00  0.00     0.014 C 
HETATM   10  C5  UNL     1      -7.452   1.533  17.137  1.00  0.00     0.038 C 
HETATM   11  C6  UNL     1      -5.967   1.404  16.737  1.00  0.00     0.177 C 
HETATM   12  F1  UNL     1      -5.223   1.736  17.824  1.00  0.00    -0.249 F 
ENDBRANCH   3   8
TORSDOF 1
ENDMDL
MODEL 2
REMARK VINA RESULT: -4.919452214      3.311      4.716
REMARK  1 active torsions:
REMARK  status: ('A' for Active; 'I' for Inactive)
REMARK    1  A    between atoms: C2_3  and  C3_4 
ROOT
HETATM    1  C1  UNL     1      -2.248   4.547  12.323  1.00  0.00     0.222 C 
HETATM    2  N1  UNL     1      -3.028   3.754  12.655  1.00  0.00    -0.458 NA
HETATM    3  C2  UNL     1      -4.008   2.794  13.071  1.00  0.00     0.116 A 
HETATM    4  C7  UNL     1      -5.273   3.319  13.550  1.00  0.00     0.072 A 
HETATM    5  C8  UNL     1      -4.239   2.844  14.554  1.00  0.00     0.056 A 
HETATM    6  C9  UNL     1      -3.625   3.942  15.379  1.00  0.00     0.032 C 
HETATM    7  S1  UNL     1      -4.548   1.291  15.428  1.00  0.00    -0.083 SA
ENDROOT
BRANCH   3   8
HETATM    8  C3  UNL     1      -3.762   1.467  12.453  1.00  0.00     0.063 C 
HETATM    9  C4  UNL     1      -2.884   1.440  11.218  1.00  0.00     0.014 C 
HETATM   10  C5  UNL     1      -3.683   0.191  10.822  1.00  0.00     0.038 C 
HETATM   11  C6  UNL     1      -4.843   0.882  11.570  1.00  0.00     0.177 C 
HETATM   12  F1  UNL     1      -5.452   1.720  10.692  1.00  0.00    -0.249 F 
ENDBRANCH   3   8
TORSDOF 1
ENDMDL
MODEL 3
REMARK VINA RESULT: -4.880420059      4.759      5.850
REMARK  1 active torsions:
REMARK  status: ('A' for Active; 'I' for Inactive)
REMARK    1  A    between atoms: C2_3  and  C3_4 
ROOT
HETATM    1  C1  UNL     1      -1.032   3.212  10.202  1.00  0.00     0.222 C 
HETATM    2  N1  UNL     1      -2.023   2.845  10.683  1.00  0.00    -0.458 NA
HETATM    3  C2  UNL     1      -3.259   2.414  11.266  1.00  0.00     0.116 A 
HETATM    4  C7  UNL     1      -4.425   3.236  11.005  1.00  0.00     0.072 A 
HETATM    5  C8  UNL     1      -3.721   3.350  12.345  1.00  0.00     0.056 A 
HETATM    6  C9  UNL     1      -3.014   4.660  12.564  1.00  0.00     0.032 C 
HETATM    7  S1  UNL     1      -4.535   2.651  13.801  1.00  0.00    -0.083 SA
ENDROOT
BRANCH   3   8
HETATM    8  C3  UNL     1      -3.235   0.961  11.574  1.00  0.00     0.063 C 
HETATM    9  C4  UNL     1      -2.268   0.110  10.775  1.00  0.00     0.014 C 
HETATM   10  C5  UNL     1      -3.266  -1.032  11.011  1.00  0.00     0.038 C 
HETATM   11  C6  UNL     1      -4.324   0.091  10.988  1.00  0.00     0.177 C 
HETATM   12  F1  UNL     1      -4.662   0.304   9.690  1.00  0.00    -0.249 F 
ENDBRANCH   3   8
TORSDOF 1
ENDMDL
MODEL 4
REMARK VINA RESULT: -4.810265041      2.393      3.311
REMARK  1 active torsions:
REMARK  status: ('A' for Active; 'I' for Inactive)
REMARK    1  A    between atoms: C2_3  and  C3_4 
ROOT
HETATM    1  C1  UNL     1      -4.444   1.036  12.191  1.00  0.00     0.222 C 
HETATM    2  N1  UNL     1      -4.358   2.025  12.794  1.00  0.00    -0.458 NA
HETATM    3  C2  UNL     1      -4.261   3.258  13.518  1.00  0.00     0.116 A 
HETATM    4  C7  UNL     1      -4.709   4.454  12.832  1.00  0.00     0.072 A 
HETATM    5  C8  UNL     1      -3.222   4.167  12.929  1.00  0.00     0.056 A 
HETATM    6  C9  UNL     1      -2.570   3.823  11.617  1.00  0.00     0.032 C 
HETATM    7  S1  UNL     1      -2.228   5.180  14.051  1.00  0.00    -0.083 SA
ENDROOT
BRANCH   3   8
HETATM    8  C3  UNL     1      -4.223   3.023  14.984  1.00  0.00     0.063 C 
HETATM    9  C4  UNL     1      -4.600   1.635  15.464  1.00  0.00     0.014 C 
HETATM   10  C5  UNL     1      -5.057   2.334  16.752  1.00  0.00     0.038 C 
HETATM   11  C6  UNL     1      -5.390   3.513  15.814  1.00  0.00     0.177 C 
HETATM   12  F1  UNL     1      -6.638   3.301  15.321  1.00  0.00    -0.249 F 
ENDBRANCH   3   8
TORSDOF 1
ENDMDL
MODEL 5
REMARK VINA RESULT: -4.736467714      2.982      3.900
REMARK  1 active torsions:
REMARK  status: ('A' for Active; 'I' for Inactive)
REMARK    1  A    between atoms: C2_3  and  C3_4 
ROOT
HETATM    1  C1  UNL     1      -4.955   2.168  11.920  1.00  0.00     0.222 C 
HETATM    2  N1  UNL     1      -4.719   3.188  12.423  1.00  0.00    -0.458 NA
HETATM    3  C2  UNL     1      -4.427   4.457  13.020  1.00  0.00     0.116 A 
HETATM    4  C7  UNL     1      -4.270   5.582  12.117  1.00  0.00     0.072 A 
HETATM    5  C8  UNL     1      -3.035   4.916  12.696  1.00  0.00     0.056 A 
HETATM    6  C9  UNL     1      -2.205   4.165  11.690  1.00  0.00     0.032 C 
HETATM    7  S1  UNL     1      -2.103   5.802  13.969  1.00  0.00    -0.083 SA
ENDROOT
BRANCH   3   8
HETATM    8  C3  UNL     1      -4.857   4.499  14.441  1.00  0.00     0.063 C 
HETATM    9  C4  UNL     1      -6.024   3.613  14.828  1.00  0.00     0.014 C 
HETATM   10  C5  UNL     1      -6.305   4.660  15.914  1.00  0.00     0.038 C 
HETATM   11  C6  UNL     1      -5.721   5.656  14.890  1.00  0.00     0.177 C 
HETATM   12  F1  UNL     1      -6.734   6.034  14.067  1.00  0.00    -0.249 F 
ENDBRANCH   3   8
TORSDOF 1
ENDMDL
