MODEL 1
REMARK VINA RESULT: -6.006465565      0.000      0.000
REMARK  3 active torsions:
REMARK  status: ('A' for Active; 'I' for Inactive)
REMARK    1  A    between atoms: C2_2  and  N1_4 
REMARK    2  A    between atoms: C2_2  and  C4_8 
REMARK    3  A    between atoms: C4_8  and  C5_9 
ROOT
HETATM    1  C5  UNL     1      -4.975   3.081  15.247  1.00  0.00    -0.002 C 
HETATM    2  C6  UNL     1      -4.473   1.715  14.883  1.00  0.00     0.013 C 
HETATM    3  C7  UNL     1      -4.337   1.663  13.377  1.00  0.00     0.005 C 
HETATM    4  C8  UNL     1      -4.791   3.040  12.961  1.00  0.00    -0.010 C 
HETATM    5  C9  UNL     1      -3.732   3.991  13.398  1.00  0.00     0.048 C 
HETATM    6  C10 UNL     1      -3.963   4.136  14.917  1.00  0.00     0.108 C 
HETATM    7  C11 UNL     1      -4.431   5.549  15.107  1.00  0.00     0.052 C 
HETATM    8  F1  UNL     1      -2.768   3.945  15.580  1.00  0.00    -0.243 F 
HETATM    9  C12 UNL     1      -5.880   3.276  13.984  1.00  0.00     0.017 C 
ENDROOT
BRANCH   1  10
HETATM   10  C4  UNL     1      -5.811   3.221  16.411  1.00  0.00     0.050 C 
BRANCH  10  11
HETATM   11  C2  UNL     1      -6.196   2.155  17.320  1.00  0.00     0.117 C 
HETATM   12  C1  UNL     1      -7.612   1.654  16.934  1.00  0.00     0.045 C 
HETATM   13  C3  UNL     1      -6.356   2.515  18.777  1.00  0.00     0.045 C 
BRANCH  11  14
HETATM   14  N1  UNL     1      -5.391   0.956  17.302  1.00  0.00    -0.071 N 
ATOM     15  H13 UNL     1      -4.424   1.094  17.597  1.00  0.00     0.275 HD
ATOM     16  H12 UNL     1      -5.629   0.278  18.025  1.00  0.00     0.275 HD
ATOM     17  H11 UNL     1      -5.495   0.610  16.348  1.00  0.00     0.275 HD
ENDBRANCH  11  14
ENDBRANCH  10  11
ENDBRANCH   1  10
TORSDOF 3
ENDMDL
MODEL 2
REMARK VINA RESULT: -5.974414642      2.495      4.517
REMARK  3 active torsions:
REMARK  status: ('A' for Active; 'I' for Inactive)
REMARK    1  A    between atoms: C2_2  and  N1_4 
REMARK    2  A    between atoms: C2_2  and  C4_8 
REMARK    3  A    between atoms: C4_8  and  C5_9 
ROOT
HETATM    1  C5  UNL     1      -4.371   3.229  14.341  1.00  0.00    -0.002 C 
HETATM    2  C6  UNL     1      -4.495   1.740  14.210  1.00  0.00     0.013 C 
HETATM    3  C7  UNL     1      -4.720   1.175  15.595  1.00  0.00     0.005 C 
HETATM    4  C8  UNL     1      -4.699   2.411  16.459  1.00  0.00    -0.010 C 
HETATM    5  C9  UNL     1      -5.948   3.165  16.158  1.00  0.00     0.048 C 
HETATM    6  C10 UNL     1      -5.658   3.843  14.802  1.00  0.00     0.108 C 
HETATM    7  C11 UNL     1      -5.592   5.310  15.107  1.00  0.00     0.052 C 
HETATM    8  F1  UNL     1      -6.701   3.591  13.934  1.00  0.00    -0.243 F 
HETATM    9  C12 UNL     1      -3.649   3.221  15.732  1.00  0.00     0.017 C 
ENDROOT
BRANCH   1  10
HETATM   10  C4  UNL     1      -3.525   3.935  13.414  1.00  0.00     0.050 C 
BRANCH  10  11
HETATM   11  C2  UNL     1      -3.326   3.602  12.014  1.00  0.00     0.117 C 
HETATM   12  C1  UNL     1      -3.054   4.908  11.222  1.00  0.00     0.045 C 
HETATM   13  C3  UNL     1      -4.496   3.001  11.274  1.00  0.00     0.045 C 
BRANCH  11  14
HETATM   14  N1  UNL     1      -2.193   2.766  11.695  1.00  0.00    -0.071 N 
ATOM     15  H13 UNL     1      -1.311   3.269  11.601  1.00  0.00     0.275 HD
ATOM     16  H12 UNL     1      -1.890   2.159  12.457  1.00  0.00     0.275 HD
ATOM     17  H11 UNL     1      -2.487   2.270  10.853  1.00  0.00     0.275 HD
ENDBRANCH  11  14
ENDBRANCH  10  11
ENDBRANCH   1  10
TORSDOF 3
ENDMDL
MODEL 3
REMARK VINA RESULT: -5.898343214      1.588      2.779
REMARK  3 active torsions:
REMARK  status: ('A' for Active; 'I' for Inactive)
REMARK    1  A    between atoms: C2_2  and  N1_4 
REMARK    2  A    between atoms: C2_2  and  C4_8 
REMARK    3  A    between atoms: C4_8  and  C5_9 
ROOT
HETATM    1  C5  UNL     1      -4.824   3.588  15.390  1.00  0.00    -0.002 C 
HETATM    2  C6  UNL     1      -5.204   5.040  15.402  1.00  0.00     0.013 C 
HETATM    3  C7  UNL     1      -4.183   5.788  14.575  1.00  0.00     0.005 C 
HETATM    4  C8  UNL     1      -3.249   4.688  14.136  1.00  0.00    -0.010 C 
HETATM    5  C9  UNL     1      -3.996   3.862  13.147  1.00  0.00     0.048 C 
HETATM    6  C10 UNL     1      -4.945   3.007  14.014  1.00  0.00     0.108 C 
HETATM    7  C11 UNL     1      -4.445   1.601  13.869  1.00  0.00     0.052 C 
HETATM    8  F1  UNL     1      -6.228   3.103  13.513  1.00  0.00    -0.243 F 
HETATM    9  C12 UNL     1      -3.274   3.815  15.371  1.00  0.00     0.017 C 
ENDROOT
BRANCH   1  10
HETATM   10  C4  UNL     1      -5.135   2.784  16.543  1.00  0.00     0.050 C 
BRANCH  10  11
HETATM   11  C2  UNL     1      -6.417   2.723  17.223  1.00  0.00     0.117 C 
HETATM   12  C1  UNL     1      -6.172   2.463  18.732  1.00  0.00     0.045 C 
HETATM   13  C3  UNL     1      -7.349   1.600  16.838  1.00  0.00     0.045 C 
BRANCH  11  14
HETATM   14  N1  UNL     1      -7.224   3.920  17.207  1.00  0.00    -0.071 N 
ATOM     15  H13 UNL     1      -8.105   3.841  17.714  1.00  0.00     0.275 HD
ATOM     16  H12 UNL     1      -6.848   4.688  17.763  1.00  0.00     0.275 HD
ATOM     17  H11 UNL     1      -7.326   4.130  16.214  1.00  0.00     0.275 HD
ENDBRANCH  11  14
ENDBRANCH  10  11
ENDBRANCH   1  10
TORSDOF 3
ENDMDL
MODEL 4
REMARK VINA RESULT: -5.832989162      2.945      4.326
REMARK  3 active torsions:
REMARK  status: ('A' for Active; 'I' for Inactive)
REMARK    1  A    between atoms: C2_2  and  N1_4 
REMARK    2  A    between atoms: C2_2  and  C4_8 
REMARK    3  A    between atoms: C4_8  and  C5_9 
ROOT
HETATM    1  C5  UNL     1      -3.763   5.005  13.229  1.00  0.00    -0.002 C 
HETATM    2  C6  UNL     1      -2.272   5.172  13.215  1.00  0.00     0.013 C 
HETATM    3  C7  UNL     1      -1.971   6.622  13.523  1.00  0.00     0.005 C 
HETATM    4  C8  UNL     1      -3.349   7.213  13.688  1.00  0.00    -0.010 C 
HETATM    5  C9  UNL     1      -3.899   6.670  14.961  1.00  0.00     0.048 C 
HETATM    6  C10 UNL     1      -4.322   5.230  14.601  1.00  0.00     0.108 C 
HETATM    7  C11 UNL     1      -5.820   5.232  14.687  1.00  0.00     0.052 C 
HETATM    8  F1  UNL     1      -3.800   4.355  15.532  1.00  0.00    -0.243 F 
HETATM    9  C12 UNL     1      -4.102   6.418  12.645  1.00  0.00     0.017 C 
ENDROOT
BRANCH   1  10
HETATM   10  C4  UNL     1      -4.354   4.020  12.360  1.00  0.00     0.050 C 
BRANCH  10  11
HETATM   11  C2  UNL     1      -4.083   2.593  12.376  1.00  0.00     0.117 C 
HETATM   12  C1  UNL     1      -5.025   1.892  11.363  1.00  0.00     0.045 C 
HETATM   13  C3  UNL     1      -4.362   1.851  13.660  1.00  0.00     0.045 C 
BRANCH  11  14
HETATM   14  N1  UNL     1      -2.764   2.173  11.963  1.00  0.00    -0.071 N 
ATOM     15  H13 UNL     1      -2.041   2.883  12.077  1.00  0.00     0.275 HD
ATOM     16  H12 UNL     1      -2.332   1.480  12.574  1.00  0.00     0.275 HD
ATOM     17  H11 UNL     1      -2.899   1.861  11.001  1.00  0.00     0.275 HD
ENDBRANCH  11  14
ENDBRANCH  10  11
ENDBRANCH   1  10
TORSDOF 3
ENDMDL
MODEL 5
REMARK VINA RESULT: -5.832845473      2.954      4.405
REMARK  3 active torsions:
REMARK  status: ('A' for Active; 'I' for Inactive)
REMARK    1  A    between atoms: C2_2  and  N1_4 
REMARK    2  A    between atoms: C2_2  and  C4_8 
REMARK    3  A    between atoms: C4_8  and  C5_9 
ROOT
HETATM    1  C5  UNL     1      -4.452   3.625  13.625  1.00  0.00    -0.002 C 
HETATM    2  C6  UNL     1      -5.888   3.857  13.993  1.00  0.00     0.013 C 
HETATM    3  C7  UNL     1      -5.930   5.018  14.962  1.00  0.00     0.005 C 
HETATM    4  C8  UNL     1      -4.473   5.382  15.098  1.00  0.00    -0.010 C 
HETATM    5  C9  UNL     1      -4.061   5.992  13.804  1.00  0.00     0.048 C 
HETATM    6  C10 UNL     1      -3.894   4.785  12.857  1.00  0.00     0.108 C 
HETATM    7  C11 UNL     1      -2.424   4.713  12.572  1.00  0.00     0.052 C 
HETATM    8  F1  UNL     1      -4.588   5.024  11.688  1.00  0.00    -0.243 F 
HETATM    9  C12 UNL     1      -3.851   4.006  15.020  1.00  0.00     0.017 C 
ENDROOT
BRANCH   1  10
HETATM   10  C4  UNL     1      -4.028   2.284  13.317  1.00  0.00     0.050 C 
BRANCH  10  11
HETATM   11  C2  UNL     1      -4.174   1.613  12.037  1.00  0.00     0.117 C 
HETATM   12  C1  UNL     1      -4.424   0.103  12.288  1.00  0.00     0.045 C 
HETATM   13  C3  UNL     1      -2.974   1.604  11.121  1.00  0.00     0.045 C 
BRANCH  11  14
HETATM   14  N1  UNL     1      -5.290   2.013  11.212  1.00  0.00    -0.071 N 
ATOM     15  H13 UNL     1      -6.135   1.459  11.349  1.00  0.00     0.275 HD
ATOM     16  H12 UNL     1      -5.705   2.908  11.471  1.00  0.00     0.275 HD
ATOM     17  H11 UNL     1      -4.914   1.981  10.264  1.00  0.00     0.275 HD
ENDBRANCH  11  14
ENDBRANCH  10  11
ENDBRANCH   1  10
TORSDOF 3
ENDMDL
