MODEL 1
REMARK VINA RESULT: -7.059088854      0.000      0.000
REMARK  3 active torsions:
REMARK  status: ('A' for Active; 'I' for Inactive)
REMARK    1  A    between atoms: C2_2  and  C3_3 
REMARK    2  A    between atoms: C3_3  and  C4_4 
REMARK    3  A    between atoms: C4_4  and  C5_5 
ROOT
HETATM    1  C3  UNL     1      -4.972   3.552  14.730  1.00  0.00     0.016 C 
HETATM    2  C7  UNL     1      -6.268   4.178  15.336  1.00  0.00     0.022 C 
HETATM    3  C8  UNL     1      -6.551   3.556  16.721  1.00  0.00     0.002 C 
HETATM    4  C9  UNL     1      -6.885   2.159  16.829  1.00  0.00     0.001 C 
HETATM    5  C10 UNL     1      -5.861   1.077  17.089  1.00  0.00     0.011 C 
HETATM    6  C11 UNL     1      -4.744   1.051  15.990  1.00  0.00     0.081 C 
HETATM    7  C12 UNL     1      -4.808   2.286  15.322  1.00  0.00    -0.173 C 
ENDROOT
BRANCH   1   8
HETATM    8  C2  UNL     1      -3.887   4.610  14.976  1.00  0.00     0.017 C 
HETATM    9  C1  UNL     1      -4.322   5.991  14.696  1.00  0.00     0.007 C 
ENDBRANCH   1   8
BRANCH   1  10
HETATM   10  C4  UNL     1      -5.176   3.507  13.239  1.00  0.00     0.081 C 
BRANCH  10  11
HETATM   11  C5  UNL     1      -4.133   2.704  12.581  1.00  0.00     0.045 A 
HETATM   12  C6  UNL     1      -4.182   1.388  12.199  1.00  0.00     0.135 A 
HETATM   13  N1  UNL     1      -3.016   1.068  11.635  1.00  0.00    -0.296 N 
HETATM   14  N2  UNL     1      -2.257   2.147  11.659  1.00  0.00    -0.243 N 
ATOM     15  H1  UNL     1      -2.759   0.157  11.254  1.00  0.00     0.187 HD
HETATM   16  N3  UNL     1      -2.902   3.147  12.222  1.00  0.00    -0.289 N 
ATOM     17  H2  UNL     1      -1.307   2.198  11.293  1.00  0.00     0.208 HD
ATOM     18  H3  UNL     1      -2.539   4.090  12.364  1.00  0.00     0.188 HD
ENDBRANCH  10  11
ENDBRANCH   1  10
TORSDOF 3
ENDMDL
MODEL 2
REMARK VINA RESULT: -6.090126717      2.808      4.547
REMARK  3 active torsions:
REMARK  status: ('A' for Active; 'I' for Inactive)
REMARK    1  A    between atoms: C2_2  and  C3_3 
REMARK    2  A    between atoms: C3_3  and  C4_4 
REMARK    3  A    between atoms: C4_4  and  C5_5 
ROOT
HETATM    1  C3  UNL     1      -4.638   3.599  14.144  1.00  0.00     0.016 C 
HETATM    2  C7  UNL     1      -3.739   4.720  13.531  1.00  0.00     0.022 C 
HETATM    3  C8  UNL     1      -3.563   4.479  12.015  1.00  0.00     0.002 C 
HETATM    4  C9  UNL     1      -2.850   3.317  11.548  1.00  0.00     0.001 C 
HETATM    5  C10 UNL     1      -3.531   2.016  11.186  1.00  0.00     0.011 C 
HETATM    6  C11 UNL     1      -4.346   1.425  12.387  1.00  0.00     0.081 C 
HETATM    7  C12 UNL     1      -4.526   2.474  13.305  1.00  0.00    -0.173 C 
ENDROOT
BRANCH   1   8
HETATM    8  C2  UNL     1      -6.018   4.255  14.291  1.00  0.00     0.017 C 
HETATM    9  C1  UNL     1      -5.975   5.626  14.834  1.00  0.00     0.007 C 
ENDBRANCH   1   8
BRANCH   1  10
HETATM   10  C4  UNL     1      -4.138   3.369  15.544  1.00  0.00     0.081 C 
BRANCH  10  11
HETATM   11  C5  UNL     1      -4.888   2.290  16.208  1.00  0.00     0.045 A 
HETATM   12  C6  UNL     1      -6.026   2.382  16.968  1.00  0.00     0.135 A 
HETATM   13  N1  UNL     1      -6.366   1.157  17.370  1.00  0.00    -0.296 N 
HETATM   14  N2  UNL     1      -5.473   0.319  16.880  1.00  0.00    -0.243 N 
ATOM     15  H1  UNL     1      -7.169   0.912  17.949  1.00  0.00     0.187 HD
HETATM   16  N3  UNL     1      -4.571   0.971  16.177  1.00  0.00    -0.289 N 
ATOM     17  H2  UNL     1      -5.481  -0.690  17.024  1.00  0.00     0.208 HD
ATOM     18  H3  UNL     1      -3.774   0.557  15.693  1.00  0.00     0.188 HD
ENDBRANCH  10  11
ENDBRANCH   1  10
TORSDOF 3
ENDMDL
MODEL 3
REMARK VINA RESULT: -5.907344828      1.793      2.574
REMARK  3 active torsions:
REMARK  status: ('A' for Active; 'I' for Inactive)
REMARK    1  A    between atoms: C2_2  and  C3_3 
REMARK    2  A    between atoms: C3_3  and  C4_4 
REMARK    3  A    between atoms: C4_4  and  C5_5 
ROOT
HETATM    1  C3  UNL     1      -3.719   5.556  13.705  1.00  0.00     0.016 C 
HETATM    2  C7  UNL     1      -5.123   6.239  13.737  1.00  0.00     0.022 C 
HETATM    3  C8  UNL     1      -5.944   5.692  14.925  1.00  0.00     0.002 C 
HETATM    4  C9  UNL     1      -6.348   4.309  14.946  1.00  0.00     0.001 C 
HETATM    5  C10 UNL     1      -5.547   3.219  15.623  1.00  0.00     0.011 C 
HETATM    6  C11 UNL     1      -4.094   3.115  15.046  1.00  0.00     0.081 C 
HETATM    7  C12 UNL     1      -3.847   4.317  14.360  1.00  0.00    -0.173 C 
ENDROOT
BRANCH   1   8
HETATM    8  C2  UNL     1      -2.774   6.601  14.314  1.00  0.00     0.017 C 
HETATM    9  C1  UNL     1      -2.655   7.838  13.520  1.00  0.00     0.007 C 
ENDBRANCH   1   8
BRANCH   1  10
HETATM   10  C4  UNL     1      -3.331   5.443  12.255  1.00  0.00     0.081 C 
BRANCH  10  11
HETATM   11  C5  UNL     1      -2.326   4.387  12.052  1.00  0.00     0.045 A 
HETATM   12  C6  UNL     1      -2.470   3.182  11.415  1.00  0.00     0.135 A 
HETATM   13  N1  UNL     1      -1.302   2.539  11.459  1.00  0.00    -0.296 N 
HETATM   14  N2  UNL     1      -0.449   3.313  12.102  1.00  0.00    -0.243 N 
ATOM     15  H1  UNL     1      -1.104   1.618  11.067  1.00  0.00     0.187 HD
HETATM   16  N3  UNL     1      -1.036   4.432  12.471  1.00  0.00    -0.289 N 
ATOM     17  H2  UNL     1       0.525   3.078  12.286  1.00  0.00     0.208 HD
ATOM     18  H3  UNL     1      -0.598   5.198  12.982  1.00  0.00     0.188 HD
ENDBRANCH  10  11
ENDBRANCH   1  10
TORSDOF 3
ENDMDL
MODEL 4
REMARK VINA RESULT: -5.853609286      1.503      2.334
REMARK  3 active torsions:
REMARK  status: ('A' for Active; 'I' for Inactive)
REMARK    1  A    between atoms: C2_2  and  C3_3 
REMARK    2  A    between atoms: C3_3  and  C4_4 
REMARK    3  A    between atoms: C4_4  and  C5_5 
ROOT
HETATM    1  C3  UNL     1      -3.535   4.835  13.738  1.00  0.00     0.016 C 
HETATM    2  C7  UNL     1      -4.769   5.669  13.272  1.00  0.00     0.022 C 
HETATM    3  C8  UNL     1      -5.878   5.608  14.346  1.00  0.00     0.002 C 
HETATM    4  C9  UNL     1      -6.529   4.357  14.639  1.00  0.00     0.001 C 
HETATM    5  C10 UNL     1      -6.080   3.425  15.742  1.00  0.00     0.011 C 
HETATM    6  C11 UNL     1      -4.591   2.970  15.557  1.00  0.00     0.081 C 
HETATM    7  C12 UNL     1      -4.006   3.873  14.651  1.00  0.00    -0.173 C 
ENDROOT
BRANCH   1   8
HETATM    8  C2  UNL     1      -2.536   5.884  14.246  1.00  0.00     0.017 C 
HETATM    9  C1  UNL     1      -2.690   7.210  13.620  1.00  0.00     0.007 C 
ENDBRANCH   1   8
BRANCH   1  10
HETATM   10  C4  UNL     1      -2.921   4.247  12.496  1.00  0.00     0.081 C 
BRANCH  10  11
HETATM   11  C5  UNL     1      -3.684   3.081  12.022  1.00  0.00     0.045 A 
HETATM   12  C6  UNL     1      -4.747   3.050  11.157  1.00  0.00     0.135 A 
HETATM   13  N1  UNL     1      -5.129   1.782  11.002  1.00  0.00    -0.296 N 
HETATM   14  N2  UNL     1      -4.333   1.037  11.745  1.00  0.00    -0.243 N 
ATOM     15  H1  UNL     1      -5.896   1.448  10.418  1.00  0.00     0.187 HD
HETATM   16  N3  UNL     1      -3.453   1.791  12.370  1.00  0.00    -0.289 N 
ATOM     17  H2  UNL     1      -4.390   0.022  11.822  1.00  0.00     0.208 HD
ATOM     18  H3  UNL     1      -2.726   1.462  13.005  1.00  0.00     0.188 HD
ENDBRANCH  10  11
ENDBRANCH   1  10
TORSDOF 3
ENDMDL
MODEL 5
REMARK VINA RESULT: -5.823918552      1.745      2.605
REMARK  3 active torsions:
REMARK  status: ('A' for Active; 'I' for Inactive)
REMARK    1  A    between atoms: C2_2  and  C3_3 
REMARK    2  A    between atoms: C3_3  and  C4_4 
REMARK    3  A    between atoms: C4_4  and  C5_5 
ROOT
HETATM    1  C3  UNL     1      -3.861   4.641  12.723  1.00  0.00     0.016 C 
HETATM    2  C7  UNL     1      -4.757   5.890  12.997  1.00  0.00     0.022 C 
HETATM    3  C8  UNL     1      -5.293   5.842  14.445  1.00  0.00     0.002 C 
HETATM    4  C9  UNL     1      -6.205   4.800  14.842  1.00  0.00     0.001 C 
HETATM    5  C10 UNL     1      -5.758   3.502  15.477  1.00  0.00     0.011 C 
HETATM    6  C11 UNL     1      -4.757   2.715  14.564  1.00  0.00     0.081 C 
HETATM    7  C12 UNL     1      -4.271   3.634  13.617  1.00  0.00    -0.173 C 
ENDROOT
BRANCH   1   8
HETATM    8  C2  UNL     1      -2.424   5.170  12.842  1.00  0.00     0.017 C 
HETATM    9  C1  UNL     1      -1.904   5.189  14.222  1.00  0.00     0.007 C 
ENDBRANCH   1   8
BRANCH   1  10
HETATM   10  C4  UNL     1      -4.053   4.287  11.274  1.00  0.00     0.081 C 
BRANCH  10  11
HETATM   11  C5  UNL     1      -4.086   2.828  11.080  1.00  0.00     0.045 A 
HETATM   12  C6  UNL     1      -3.039   1.943  11.075  1.00  0.00     0.135 A 
HETATM   13  N1  UNL     1      -3.523   0.717  10.869  1.00  0.00    -0.296 N 
HETATM   14  N2  UNL     1      -4.832   0.826  10.747  1.00  0.00    -0.243 N 
ATOM     15  H1  UNL     1      -2.981  -0.145  10.815  1.00  0.00     0.187 HD
HETATM   16  N3  UNL     1      -5.200   2.084  10.869  1.00  0.00    -0.289 N 
ATOM     17  H2  UNL     1      -5.468   0.046  10.582  1.00  0.00     0.208 HD
ATOM     18  H3  UNL     1      -6.156   2.437  10.815  1.00  0.00     0.188 HD
ENDBRANCH  10  11
ENDBRANCH   1  10
TORSDOF 3
ENDMDL
