MODEL 1
REMARK VINA RESULT: -5.485267212      0.000      0.000
REMARK  4 active torsions:
REMARK  status: ('A' for Active; 'I' for Inactive)
REMARK    1  A    between atoms: N1_1  and  C1_5 
REMARK    2  A    between atoms: C1_5  and  C2_6 
REMARK    3  A    between atoms: C2_6  and  C3_7 
REMARK    4  A    between atoms: C3_7  and  C4_8 
ROOT
HETATM    1  C4  UNL     1      -5.985   3.842  15.171  1.00  0.00    -0.001 C 
HETATM    2  C5  UNL     1      -6.097   5.320  14.878  1.00  0.00     0.079 C 
HETATM    3  S1  UNL     1      -5.080   5.829  13.481  1.00  0.00    -0.164 SA
HETATM    4  C6  UNL     1      -3.434   5.120  13.759  1.00  0.00     0.047 C 
HETATM    5  C7  UNL     1      -2.907   4.400  12.571  1.00  0.00     0.015 C 
HETATM    6  C8  UNL     1      -3.918   3.687  11.747  1.00  0.00     0.001 C 
HETATM    7  C9  UNL     1      -4.922   2.891  12.547  1.00  0.00     0.000 C 
HETATM    8  C10 UNL     1      -4.418   2.389  13.845  1.00  0.00     0.005 C 
HETATM    9  C11 UNL     1      -4.625   3.294  15.032  1.00  0.00    -0.009 C 
HETATM   10  C12 UNL     1      -3.511   4.315  15.008  1.00  0.00     0.020 C 
ENDROOT
BRANCH   1  11
HETATM   11  C3  UNL     1      -6.628   3.662  16.523  1.00  0.00     0.007 C 
BRANCH  11  12
HETATM   12  C2  UNL     1      -7.124   2.300  16.835  1.00  0.00     0.027 C 
BRANCH  12  13
HETATM   13  C1  UNL     1      -6.206   1.756  17.945  1.00  0.00     0.229 C 
BRANCH  13  14
HETATM   14  N1  UNL     1      -5.768   0.420  17.607  1.00  0.00    -0.079 N 
ATOM     15  H13 UNL     1      -6.525  -0.147  17.225  1.00  0.00     0.274 HD
ATOM     16  H12 UNL     1      -5.151   0.413  16.794  1.00  0.00     0.274 HD
ATOM     17  H11 UNL     1      -5.334  -0.017  18.420  1.00  0.00     0.274 HD
ENDBRANCH  13  14
ENDBRANCH  12  13
ENDBRANCH  11  12
ENDBRANCH   1  11
TORSDOF 4
ENDMDL
MODEL 2
REMARK VINA RESULT: -4.968231196      1.680      2.748
REMARK  4 active torsions:
REMARK  status: ('A' for Active; 'I' for Inactive)
REMARK    1  A    between atoms: N1_1  and  C1_5 
REMARK    2  A    between atoms: C1_5  and  C2_6 
REMARK    3  A    between atoms: C2_6  and  C3_7 
REMARK    4  A    between atoms: C3_7  and  C4_8 
ROOT
HETATM    1  C4  UNL     1      -4.823   4.262  14.655  1.00  0.00    -0.001 C 
HETATM    2  C5  UNL     1      -4.808   3.592  13.301  1.00  0.00     0.079 C 
HETATM    3  S1  UNL     1      -4.003   4.596  12.039  1.00  0.00    -0.164 SA
HETATM    4  C6  UNL     1      -4.710   6.260  12.179  1.00  0.00     0.047 C 
HETATM    5  C7  UNL     1      -3.675   7.325  12.236  1.00  0.00     0.015 C 
HETATM    6  C8  UNL     1      -2.418   6.965  12.943  1.00  0.00     0.001 C 
HETATM    7  C9  UNL     1      -2.626   6.247  14.256  1.00  0.00     0.000 C 
HETATM    8  C10 UNL     1      -3.892   6.580  14.948  1.00  0.00     0.005 C 
HETATM    9  C11 UNL     1      -5.078   5.713  14.616  1.00  0.00    -0.009 C 
HETATM   10  C12 UNL     1      -5.661   6.236  13.323  1.00  0.00     0.020 C 
ENDROOT
BRANCH   1  11
HETATM   11  C3  UNL     1      -5.787   3.450  15.482  1.00  0.00     0.007 C 
BRANCH  11  12
HETATM   12  C2  UNL     1      -5.192   2.373  16.310  1.00  0.00     0.027 C 
BRANCH  12  13
HETATM   13  C1  UNL     1      -6.378   1.587  16.903  1.00  0.00     0.229 C 
BRANCH  13  14
HETATM   14  N1  UNL     1      -5.887   0.450  17.650  1.00  0.00    -0.079 N 
ATOM     15  H13 UNL     1      -6.458  -0.382  17.503  1.00  0.00     0.274 HD
ATOM     16  H12 UNL     1      -5.007   0.095  17.274  1.00  0.00     0.274 HD
ATOM     17  H11 UNL     1      -5.811   0.694  18.638  1.00  0.00     0.274 HD
ENDBRANCH  13  14
ENDBRANCH  12  13
ENDBRANCH  11  12
ENDBRANCH   1  11
TORSDOF 4
ENDMDL
MODEL 3
REMARK VINA RESULT: -4.874091042      3.209      4.325
REMARK  4 active torsions:
REMARK  status: ('A' for Active; 'I' for Inactive)
REMARK    1  A    between atoms: N1_1  and  C1_5 
REMARK    2  A    between atoms: C1_5  and  C2_6 
REMARK    3  A    between atoms: C2_6  and  C3_7 
REMARK    4  A    between atoms: C3_7  and  C4_8 
ROOT
HETATM    1  C4  UNL     1      -3.921   3.638  12.542  1.00  0.00    -0.001 C 
HETATM    2  C5  UNL     1      -3.804   4.387  11.236  1.00  0.00     0.079 C 
HETATM    3  S1  UNL     1      -3.137   6.048  11.446  1.00  0.00    -0.164 SA
HETATM    4  C6  UNL     1      -4.070   6.808  12.803  1.00  0.00     0.047 C 
HETATM    5  C7  UNL     1      -3.194   7.428  13.830  1.00  0.00     0.015 C 
HETATM    6  C8  UNL     1      -1.904   6.734  14.083  1.00  0.00     0.001 C 
HETATM    7  C9  UNL     1      -2.020   5.232  14.206  1.00  0.00     0.000 C 
HETATM    8  C10 UNL     1      -3.325   4.754  14.717  1.00  0.00     0.005 C 
HETATM    9  C11 UNL     1      -4.376   4.460  13.678  1.00  0.00    -0.009 C 
HETATM   10  C12 UNL     1      -5.016   5.779  13.312  1.00  0.00     0.020 C 
ENDROOT
BRANCH   1  11
HETATM   11  C3  UNL     1      -4.769   2.432  12.226  1.00  0.00     0.007 C 
BRANCH  11  12
HETATM   12  C2  UNL     1      -4.204   1.116  12.612  1.00  0.00     0.027 C 
BRANCH  12  13
HETATM   13  C1  UNL     1      -4.194   0.264  11.328  1.00  0.00     0.229 C 
BRANCH  13  14
HETATM   14  N1  UNL     1      -5.065   0.860  10.339  1.00  0.00    -0.079 N 
ATOM     15  H13 UNL     1      -5.777   0.207  10.012  1.00  0.00     0.274 HD
ATOM     16  H12 UNL     1      -5.684   1.562  10.745  1.00  0.00     0.274 HD
ATOM     17  H11 UNL     1      -4.509   1.237   9.572  1.00  0.00     0.274 HD
ENDBRANCH  13  14
ENDBRANCH  12  13
ENDBRANCH  11  12
ENDBRANCH   1  11
TORSDOF 4
ENDMDL
MODEL 4
REMARK VINA RESULT: -4.866550317      1.979      3.128
REMARK  4 active torsions:
REMARK  status: ('A' for Active; 'I' for Inactive)
REMARK    1  A    between atoms: N1_1  and  C1_5 
REMARK    2  A    between atoms: C1_5  and  C2_6 
REMARK    3  A    between atoms: C2_6  and  C3_7 
REMARK    4  A    between atoms: C3_7  and  C4_8 
ROOT
HETATM    1  C4  UNL     1      -3.704   4.409  14.527  1.00  0.00    -0.001 C 
HETATM    2  C5  UNL     1      -3.970   3.719  13.210  1.00  0.00     0.079 C 
HETATM    3  S1  UNL     1      -3.937   4.855  11.812  1.00  0.00    -0.164 SA
HETATM    4  C6  UNL     1      -4.971   6.271  12.276  1.00  0.00     0.047 C 
HETATM    5  C7  UNL     1      -4.301   7.577  12.046  1.00  0.00     0.015 C 
HETATM    6  C8  UNL     1      -2.831   7.597  12.269  1.00  0.00     0.001 C 
HETATM    7  C9  UNL     1      -2.385   6.897  13.532  1.00  0.00     0.000 C 
HETATM    8  C10 UNL     1      -3.383   6.901  14.625  1.00  0.00     0.005 C 
HETATM    9  C11 UNL     1      -4.335   5.734  14.660  1.00  0.00    -0.009 C 
HETATM   10  C12 UNL     1      -5.436   6.033  13.670  1.00  0.00     0.020 C 
ENDROOT
BRANCH   1  11
HETATM   11  C3  UNL     1      -4.080   3.397  15.580  1.00  0.00     0.007 C 
BRANCH  11  12
HETATM   12  C2  UNL     1      -5.476   2.899  15.540  1.00  0.00     0.027 C 
BRANCH  12  13
HETATM   13  C1  UNL     1      -5.465   1.541  16.266  1.00  0.00     0.229 C 
BRANCH  13  14
HETATM   14  N1  UNL     1      -4.364   0.737  15.783  1.00  0.00    -0.079 N 
ATOM     15  H13 UNL     1      -4.683  -0.129  15.348  1.00  0.00     0.274 HD
ATOM     16  H12 UNL     1      -3.913   1.154  14.969  1.00  0.00     0.274 HD
ATOM     17  H11 UNL     1      -3.704   0.565  16.541  1.00  0.00     0.274 HD
ENDBRANCH  13  14
ENDBRANCH  12  13
ENDBRANCH  11  12
ENDBRANCH   1  11
TORSDOF 4
ENDMDL
MODEL 5
REMARK VINA RESULT: -4.832416633      3.249      4.757
REMARK  4 active torsions:
REMARK  status: ('A' for Active; 'I' for Inactive)
REMARK    1  A    between atoms: N1_1  and  C1_5 
REMARK    2  A    between atoms: C1_5  and  C2_6 
REMARK    3  A    between atoms: C2_6  and  C3_7 
REMARK    4  A    between atoms: C3_7  and  C4_8 
ROOT
HETATM    1  C4  UNL     1      -3.676   3.646  12.627  1.00  0.00    -0.001 C 
HETATM    2  C5  UNL     1      -4.395   2.640  13.494  1.00  0.00     0.079 C 
HETATM    3  S1  UNL     1      -4.210   0.950  12.895  1.00  0.00    -0.164 SA
HETATM    4  C6  UNL     1      -4.581   0.991  11.120  1.00  0.00     0.047 C 
HETATM    5  C7  UNL     1      -3.545   0.313  10.298  1.00  0.00     0.015 C 
HETATM    6  C8  UNL     1      -2.148   0.434  10.791  1.00  0.00     0.001 C 
HETATM    7  C9  UNL     1      -1.762   1.828  11.230  1.00  0.00     0.000 C 
HETATM    8  C10 UNL     1      -2.487   2.917  10.534  1.00  0.00     0.005 C 
HETATM    9  C11 UNL     1      -3.766   3.380  11.180  1.00  0.00    -0.009 C 
HETATM   10  C12 UNL     1      -4.848   2.411  10.763  1.00  0.00     0.020 C 
ENDROOT
BRANCH   1  11
HETATM   11  C3  UNL     1      -4.192   4.989  13.078  1.00  0.00     0.007 C 
BRANCH  11  12
HETATM   12  C2  UNL     1      -3.533   5.576  14.270  1.00  0.00     0.027 C 
BRANCH  12  13
HETATM   13  C1  UNL     1      -2.018   5.444  14.028  1.00  0.00     0.229 C 
BRANCH  13  14
HETATM   14  N1  UNL     1      -1.433   4.593  15.040  1.00  0.00    -0.079 N 
ATOM     15  H13 UNL     1      -1.085   5.127  15.837  1.00  0.00     0.274 HD
ATOM     16  H12 UNL     1      -2.136   4.039  15.529  1.00  0.00     0.274 HD
ATOM     17  H11 UNL     1      -0.707   4.010  14.624  1.00  0.00     0.274 HD
ENDBRANCH  13  14
ENDBRANCH  12  13
ENDBRANCH  11  12
ENDBRANCH   1  11
TORSDOF 4
ENDMDL
