MODEL 1
REMARK VINA RESULT: -6.061310474      0.000      0.000
REMARK  5 active torsions:
REMARK  status: ('A' for Active; 'I' for Inactive)
REMARK    1  A    between atoms: C2_2  and  C3_3 
REMARK    2  A    between atoms: C3_3  and  O1_4 
REMARK    3  A    between atoms: O1_4  and  C4_5 
REMARK    4  A    between atoms: C4_5  and  N1_7 
REMARK    5  A    between atoms: N1_7  and  C5_9 
ROOT
HETATM    1  N1  UNL     1      -4.268   2.425  14.272  1.00  0.00    -0.357 N 
ATOM      2  H1  UNL     1      -3.399   2.877  14.557  1.00  0.00     0.162 HD
ENDROOT
BRANCH   1   3
HETATM    3  C4  UNL     1      -4.358   1.998  12.942  1.00  0.00     0.210 C 
HETATM    4  S1  UNL     1      -4.313   3.113  11.750  1.00  0.00    -0.033 SA
BRANCH   3   5
HETATM    5  O1  UNL     1      -4.482   0.685  12.564  1.00  0.00    -0.327 OA
BRANCH   5   6
HETATM    6  C3  UNL     1      -4.387   0.139  11.293  1.00  0.00     0.178 C 
BRANCH   6   7
HETATM    7  C2  UNL     1      -3.049  -0.437  10.929  1.00  0.00     0.022 C 
HETATM    8  C1  UNL     1      -2.976  -1.915  11.310  1.00  0.00     0.007 C 
ENDBRANCH   6   7
ENDBRANCH   5   6
ENDBRANCH   3   5
ENDBRANCH   1   3
BRANCH   1   9
HETATM    9  C5  UNL     1      -5.291   2.283  15.271  1.00  0.00     0.084 C 
HETATM   10  C6  UNL     1      -4.778   1.781  16.608  1.00  0.00     0.025 C 
HETATM   11  C7  UNL     1      -5.936   0.984  17.220  1.00  0.00     0.002 C 
HETATM   12  C8  UNL     1      -7.169   1.843  16.981  1.00  0.00     0.000 C 
HETATM   13  C9  UNL     1      -6.789   3.327  16.864  1.00  0.00     0.002 C 
HETATM   14  C10 UNL     1      -6.014   3.581  15.570  1.00  0.00     0.025 C 
ENDBRANCH   1   9
TORSDOF 5
ENDMDL
MODEL 2
REMARK VINA RESULT: -5.805732299      1.093      1.270
REMARK  5 active torsions:
REMARK  status: ('A' for Active; 'I' for Inactive)
REMARK    1  A    between atoms: C2_2  and  C3_3 
REMARK    2  A    between atoms: C3_3  and  O1_4 
REMARK    3  A    between atoms: O1_4  and  C4_5 
REMARK    4  A    between atoms: C4_5  and  N1_7 
REMARK    5  A    between atoms: N1_7  and  C5_9 
ROOT
HETATM    1  N1  UNL     1      -4.245   2.814  14.300  1.00  0.00    -0.357 N 
ATOM      2  H1  UNL     1      -3.278   2.641  14.575  1.00  0.00     0.162 HD
ENDROOT
BRANCH   1   3
HETATM    3  C4  UNL     1      -4.460   3.324  13.013  1.00  0.00     0.210 C 
HETATM    4  S1  UNL     1      -3.771   4.746  12.602  1.00  0.00    -0.033 SA
BRANCH   3   5
HETATM    5  O1  UNL     1      -5.221   2.700  12.057  1.00  0.00    -0.327 OA
BRANCH   5   6
HETATM    6  C3  UNL     1      -4.806   1.857  11.037  1.00  0.00     0.178 C 
BRANCH   6   7
HETATM    7  C2  UNL     1      -4.323   0.502  11.466  1.00  0.00     0.022 C 
HETATM    8  C1  UNL     1      -3.225  -0.000  10.530  1.00  0.00     0.007 C 
ENDBRANCH   6   7
ENDBRANCH   5   6
ENDBRANCH   3   5
ENDBRANCH   1   3
BRANCH   1   9
HETATM    9  C5  UNL     1      -5.266   2.513  15.265  1.00  0.00     0.084 C 
HETATM   10  C6  UNL     1      -4.730   1.969  16.576  1.00  0.00     0.025 C 
HETATM   11  C7  UNL     1      -5.819   1.032  17.110  1.00  0.00     0.002 C 
HETATM   12  C8  UNL     1      -7.122   1.791  16.902  1.00  0.00     0.000 C 
HETATM   13  C9  UNL     1      -6.878   3.307  16.890  1.00  0.00     0.002 C 
HETATM   14  C10 UNL     1      -6.110   3.717  15.633  1.00  0.00     0.025 C 
ENDBRANCH   1   9
TORSDOF 5
ENDMDL
MODEL 3
REMARK VINA RESULT: -5.728937648      2.266      3.622
REMARK  5 active torsions:
REMARK  status: ('A' for Active; 'I' for Inactive)
REMARK    1  A    between atoms: C2_2  and  C3_3 
REMARK    2  A    between atoms: C3_3  and  O1_4 
REMARK    3  A    between atoms: O1_4  and  C4_5 
REMARK    4  A    between atoms: C4_5  and  N1_7 
REMARK    5  A    between atoms: N1_7  and  C5_9 
ROOT
HETATM    1  N1  UNL     1      -4.314   2.610  14.379  1.00  0.00    -0.357 N 
ATOM      2  H1  UNL     1      -3.359   2.708  14.722  1.00  0.00     0.162 HD
ENDROOT
BRANCH   1   3
HETATM    3  C4  UNL     1      -4.511   2.719  12.997  1.00  0.00     0.210 C 
HETATM    4  S1  UNL     1      -4.297   1.397  12.063  1.00  0.00    -0.033 SA
BRANCH   3   5
HETATM    5  O1  UNL     1      -4.877   3.878  12.362  1.00  0.00    -0.327 OA
BRANCH   5   6
HETATM    6  C3  UNL     1      -4.230   5.105  12.360  1.00  0.00     0.178 C 
BRANCH   6   7
HETATM    7  C2  UNL     1      -4.785   6.138  13.297  1.00  0.00     0.022 C 
HETATM    8  C1  UNL     1      -3.868   6.317  14.506  1.00  0.00     0.007 C 
ENDBRANCH   6   7
ENDBRANCH   5   6
ENDBRANCH   3   5
ENDBRANCH   1   3
BRANCH   1   9
HETATM    9  C5  UNL     1      -5.340   2.373  15.357  1.00  0.00     0.084 C 
HETATM   10  C6  UNL     1      -4.817   1.841  16.678  1.00  0.00     0.025 C 
HETATM   11  C7  UNL     1      -5.939   0.960  17.240  1.00  0.00     0.002 C 
HETATM   12  C8  UNL     1      -7.213   1.764  17.021  1.00  0.00     0.000 C 
HETATM   13  C9  UNL     1      -6.909   3.269  16.971  1.00  0.00     0.002 C 
HETATM   14  C10 UNL     1      -6.134   3.618  15.700  1.00  0.00     0.025 C 
ENDBRANCH   1   9
TORSDOF 5
ENDMDL
MODEL 4
REMARK VINA RESULT: -5.727453414      1.044      1.830
REMARK  5 active torsions:
REMARK  status: ('A' for Active; 'I' for Inactive)
REMARK    1  A    between atoms: C2_2  and  C3_3 
REMARK    2  A    between atoms: C3_3  and  O1_4 
REMARK    3  A    between atoms: O1_4  and  C4_5 
REMARK    4  A    between atoms: C4_5  and  N1_7 
REMARK    5  A    between atoms: N1_7  and  C5_9 
ROOT
HETATM    1  N1  UNL     1      -3.962   2.724  14.850  1.00  0.00    -0.357 N 
ATOM      2  H1  UNL     1      -2.985   2.927  15.065  1.00  0.00     0.162 HD
ENDROOT
BRANCH   1   3
HETATM    3  C4  UNL     1      -4.320   2.678  13.497  1.00  0.00     0.210 C 
HETATM    4  S1  UNL     1      -4.266   4.053  12.618  1.00  0.00    -0.033 SA
BRANCH   3   5
HETATM    5  O1  UNL     1      -4.720   1.537  12.848  1.00  0.00    -0.327 OA
BRANCH   5   6
HETATM    6  C3  UNL     1      -4.541   1.193  11.517  1.00  0.00     0.178 C 
BRANCH   6   7
HETATM    7  C2  UNL     1      -3.384   0.281  11.229  1.00  0.00     0.022 C 
HETATM    8  C1  UNL     1      -2.143   1.087  10.848  1.00  0.00     0.007 C 
ENDBRANCH   6   7
ENDBRANCH   5   6
ENDBRANCH   3   5
ENDBRANCH   1   3
BRANCH   1   9
HETATM    9  C5  UNL     1      -4.847   2.512  15.962  1.00  0.00     0.084 C 
HETATM   10  C6  UNL     1      -6.249   3.049  15.741  1.00  0.00     0.025 C 
HETATM   11  C7  UNL     1      -6.759   3.453  17.128  1.00  0.00     0.002 C 
HETATM   12  C8  UNL     1      -6.356   2.304  18.042  1.00  0.00     0.000 C 
HETATM   13  C9  UNL     1      -6.227   0.994  17.249  1.00  0.00     0.002 C 
HETATM   14  C10 UNL     1      -5.018   1.049  16.315  1.00  0.00     0.025 C 
ENDBRANCH   1   9
TORSDOF 5
ENDMDL
MODEL 5
REMARK VINA RESULT: -5.698679996      2.061      2.560
REMARK  5 active torsions:
REMARK  status: ('A' for Active; 'I' for Inactive)
REMARK    1  A    between atoms: C2_2  and  C3_3 
REMARK    2  A    between atoms: C3_3  and  O1_4 
REMARK    3  A    between atoms: O1_4  and  C4_5 
REMARK    4  A    between atoms: C4_5  and  N1_7 
REMARK    5  A    between atoms: N1_7  and  C5_9 
ROOT
HETATM    1  N1  UNL     1      -6.211   4.248  14.899  1.00  0.00    -0.357 N 
ATOM      2  H1  UNL     1      -7.027   4.849  15.014  1.00  0.00     0.162 HD
ENDROOT
BRANCH   1   3
HETATM    3  C4  UNL     1      -5.276   4.623  13.926  1.00  0.00     0.210 C 
HETATM    4  S1  UNL     1      -4.339   5.933  14.194  1.00  0.00    -0.033 SA
BRANCH   3   5
HETATM    5  O1  UNL     1      -5.089   3.954  12.743  1.00  0.00    -0.327 OA
BRANCH   5   6
HETATM    6  C3  UNL     1      -4.039   3.126  12.375  1.00  0.00     0.178 C 
BRANCH   6   7
HETATM    7  C2  UNL     1      -4.308   1.652  12.467  1.00  0.00     0.022 C 
HETATM    8  C1  UNL     1      -4.740   1.097  11.111  1.00  0.00     0.007 C 
ENDBRANCH   6   7
ENDBRANCH   5   6
ENDBRANCH   3   5
ENDBRANCH   1   3
BRANCH   1   9
HETATM    9  C5  UNL     1      -6.121   3.093  15.750  1.00  0.00     0.084 C 
HETATM   10  C6  UNL     1      -4.698   2.659  16.046  1.00  0.00     0.025 C 
HETATM   11  C7  UNL     1      -4.762   1.139  16.234  1.00  0.00     0.002 C 
HETATM   12  C8  UNL     1      -5.988   0.905  17.106  1.00  0.00     0.000 C 
HETATM   13  C9  UNL     1      -6.288   2.139  17.970  1.00  0.00     0.002 C 
HETATM   14  C10 UNL     1      -6.778   3.297  17.100  1.00  0.00     0.025 C 
ENDBRANCH   1   9
TORSDOF 5
ENDMDL
