MODEL 1
REMARK VINA RESULT: -6.979366724      0.000      0.000
REMARK  4 active torsions:
REMARK  status: ('A' for Active; 'I' for Inactive)
REMARK    1  A    between atoms: C2_2  and  N1_3 
REMARK    2  A    between atoms: C5_10  and  C6_11 
REMARK    3  A    between atoms: C6_11  and  C7_12 
REMARK    4  A    between atoms: C7_12  and  C8_13 
ROOT
HETATM    1  C1  UNL     1      -3.968  -0.563  11.653  1.00  0.00     0.046 C 
HETATM    2  C2  UNL     1      -4.020   0.939  11.517  1.00  0.00     0.124 C 
HETATM    3  C3  UNL     1      -2.693   1.523  11.108  1.00  0.00     0.064 C 
HETATM    4  C4  UNL     1      -2.866   3.031  11.071  1.00  0.00     0.170 C 
HETATM    5  O1  UNL     1      -3.043   3.452  12.378  1.00  0.00    -0.386 OA
HETATM    6  C5  UNL     1      -4.224   2.995  12.947  1.00  0.00     0.123 C 
HETATM    7  C13 UNL     1      -4.413   1.517  12.834  1.00  0.00     0.070 C 
ENDROOT
BRANCH   6   8
HETATM    8  C6  UNL     1      -4.122   3.312  14.446  1.00  0.00     0.032 C 
BRANCH   8   9
HETATM    9  C7  UNL     1      -5.526   3.513  14.949  1.00  0.00     0.007 C 
BRANCH   9  10
HETATM   10  C8  UNL     1      -5.633   2.925  16.328  1.00  0.00    -0.014 C 
HETATM   11  C9  UNL     1      -7.054   2.916  16.789  1.00  0.00     0.004 C 
HETATM   12  C10 UNL     1      -7.299   1.530  17.359  1.00  0.00     0.000 C 
HETATM   13  C11 UNL     1      -5.938   0.873  17.423  1.00  0.00     0.000 C 
HETATM   14  C12 UNL     1      -5.221   1.473  16.252  1.00  0.00     0.004 C 
ENDBRANCH   9  10
ENDBRANCH   8   9
ENDBRANCH   6   8
BRANCH   2  15
HETATM   15  N1  UNL     1      -5.011   1.309  10.532  1.00  0.00    -0.071 N 
ATOM     16  H13 UNL     1      -4.764   0.980   9.599  1.00  0.00     0.275 HD
ATOM     17  H12 UNL     1      -5.880   0.787  10.648  1.00  0.00     0.275 HD
ATOM     18  H11 UNL     1      -5.163   2.317  10.556  1.00  0.00     0.275 HD
ENDBRANCH   2  15
TORSDOF 4
ENDMDL
MODEL 2
REMARK VINA RESULT: -6.337160108      0.925      1.072
REMARK  4 active torsions:
REMARK  status: ('A' for Active; 'I' for Inactive)
REMARK    1  A    between atoms: C2_2  and  N1_3 
REMARK    2  A    between atoms: C5_10  and  C6_11 
REMARK    3  A    between atoms: C6_11  and  C7_12 
REMARK    4  A    between atoms: C7_12  and  C8_13 
ROOT
HETATM    1  C1  UNL     1      -4.403   0.975  11.148  1.00  0.00     0.046 C 
HETATM    2  C2  UNL     1      -3.932   2.384  11.413  1.00  0.00     0.124 C 
HETATM    3  C3  UNL     1      -2.430   2.497  11.402  1.00  0.00     0.064 C 
HETATM    4  C4  UNL     1      -2.092   3.938  11.742  1.00  0.00     0.170 C 
HETATM    5  O1  UNL     1      -2.445   4.136  13.066  1.00  0.00    -0.386 OA
HETATM    6  C5  UNL     1      -3.812   4.053  13.288  1.00  0.00     0.123 C 
HETATM    7  C13 UNL     1      -4.434   2.804  12.753  1.00  0.00     0.070 C 
ENDROOT
BRANCH   6   8
HETATM    8  C6  UNL     1      -3.993   4.016  14.813  1.00  0.00     0.032 C 
BRANCH   8   9
HETATM    9  C7  UNL     1      -5.437   3.686  15.076  1.00  0.00     0.007 C 
BRANCH   9  10
HETATM   10  C8  UNL     1      -5.535   2.968  16.393  1.00  0.00    -0.014 C 
HETATM   11  C9  UNL     1      -6.942   2.980  16.898  1.00  0.00     0.004 C 
HETATM   12  C10 UNL     1      -7.241   1.558  17.334  1.00  0.00     0.000 C 
HETATM   13  C11 UNL     1      -5.915   0.833  17.288  1.00  0.00     0.000 C 
HETATM   14  C12 UNL     1      -5.201   1.512  16.158  1.00  0.00     0.004 C 
ENDBRANCH   9  10
ENDBRANCH   8   9
ENDBRANCH   6   8
BRANCH   2  15
HETATM   15  N1  UNL     1      -4.470   3.278  10.414  1.00  0.00    -0.071 N 
ATOM     16  H13 UNL     1      -4.634   2.805   9.526  1.00  0.00     0.275 HD
ATOM     17  H12 UNL     1      -5.433   3.547  10.619  1.00  0.00     0.275 HD
ATOM     18  H11 UNL     1      -3.861   4.089  10.310  1.00  0.00     0.275 HD
ENDBRANCH   2  15
TORSDOF 4
ENDMDL
MODEL 3
REMARK VINA RESULT: -6.159637835      1.613      2.503
REMARK  4 active torsions:
REMARK  status: ('A' for Active; 'I' for Inactive)
REMARK    1  A    between atoms: C2_2  and  N1_3 
REMARK    2  A    between atoms: C5_10  and  C6_11 
REMARK    3  A    between atoms: C6_11  and  C7_12 
REMARK    4  A    between atoms: C7_12  and  C8_13 
ROOT
HETATM    1  C1  UNL     1      -1.829   4.593  10.697  1.00  0.00     0.046 C 
HETATM    2  C2  UNL     1      -2.741   3.566  11.324  1.00  0.00     0.124 C 
HETATM    3  C3  UNL     1      -3.959   3.291  10.481  1.00  0.00     0.064 C 
HETATM    4  C4  UNL     1      -4.814   2.300  11.249  1.00  0.00     0.170 C 
HETATM    5  O1  UNL     1      -5.304   2.963  12.362  1.00  0.00    -0.386 OA
HETATM    6  C5  UNL     1      -4.316   3.322  13.267  1.00  0.00     0.123 C 
HETATM    7  C13 UNL     1      -3.184   4.079  12.653  1.00  0.00     0.070 C 
ENDROOT
BRANCH   6   8
HETATM    8  C6  UNL     1      -4.985   4.271  14.272  1.00  0.00     0.032 C 
BRANCH   8   9
HETATM    9  C7  UNL     1      -4.800   3.667  15.637  1.00  0.00     0.007 C 
BRANCH   9  10
HETATM   10  C8  UNL     1      -5.774   2.534  15.800  1.00  0.00    -0.014 C 
HETATM   11  C9  UNL     1      -5.098   1.336  16.382  1.00  0.00     0.004 C 
HETATM   12  C10 UNL     1      -6.006   0.842  17.493  1.00  0.00     0.000 C 
HETATM   13  C11 UNL     1      -7.288   1.632  17.348  1.00  0.00     0.000 C 
HETATM   14  C12 UNL     1      -6.810   2.950  16.819  1.00  0.00     0.004 C 
ENDBRANCH   9  10
ENDBRANCH   8   9
ENDBRANCH   6   8
BRANCH   2  15
HETATM   15  N1  UNL     1      -2.025   2.326  11.519  1.00  0.00    -0.071 N 
ATOM     16  H13 UNL     1      -1.408   2.114  10.736  1.00  0.00     0.275 HD
ATOM     17  H12 UNL     1      -1.317   2.404  12.249  1.00  0.00     0.275 HD
ATOM     18  H11 UNL     1      -2.684   1.570  11.705  1.00  0.00     0.275 HD
ENDBRANCH   2  15
TORSDOF 4
ENDMDL
MODEL 4
REMARK VINA RESULT: -6.105901561      1.600      2.276
REMARK  4 active torsions:
REMARK  status: ('A' for Active; 'I' for Inactive)
REMARK    1  A    between atoms: C2_2  and  N1_3 
REMARK    2  A    between atoms: C5_10  and  C6_11 
REMARK    3  A    between atoms: C6_11  and  C7_12 
REMARK    4  A    between atoms: C7_12  and  C8_13 
ROOT
HETATM    1  C1  UNL     1      -1.994   4.774  11.358  1.00  0.00     0.046 C 
HETATM    2  C2  UNL     1      -2.855   3.550  11.554  1.00  0.00     0.124 C 
HETATM    3  C3  UNL     1      -3.937   3.438  10.512  1.00  0.00     0.064 C 
HETATM    4  C4  UNL     1      -4.761   2.212  10.860  1.00  0.00     0.170 C 
HETATM    5  O1  UNL     1      -5.438   2.498  12.034  1.00  0.00    -0.386 OA
HETATM    6  C5  UNL     1      -4.600   2.656  13.127  1.00  0.00     0.123 C 
HETATM    7  C13 UNL     1      -3.493   3.635  12.899  1.00  0.00     0.070 C 
ENDROOT
BRANCH   6   8
HETATM    8  C6  UNL     1      -5.473   3.234  14.251  1.00  0.00     0.032 C 
BRANCH   8   9
HETATM    9  C7  UNL     1      -4.572   3.458  15.436  1.00  0.00     0.007 C 
BRANCH   9  10
HETATM   10  C8  UNL     1      -5.203   2.829  16.646  1.00  0.00    -0.014 C 
HETATM   11  C9  UNL     1      -6.672   3.098  16.677  1.00  0.00     0.004 C 
HETATM   12  C10 UNL     1      -7.334   1.767  16.983  1.00  0.00     0.000 C 
HETATM   13  C11 UNL     1      -6.206   0.830  17.356  1.00  0.00     0.000 C 
HETATM   14  C12 UNL     1      -5.067   1.328  16.518  1.00  0.00     0.004 C 
ENDBRANCH   9  10
ENDBRANCH   8   9
ENDBRANCH   6   8
BRANCH   2  15
HETATM   15  N1  UNL     1      -2.037   2.360  11.502  1.00  0.00    -0.071 N 
ATOM     16  H13 UNL     1      -1.421   2.355  10.689  1.00  0.00     0.275 HD
ATOM     17  H12 UNL     1      -1.323   2.355  12.230  1.00  0.00     0.275 HD
ATOM     18  H11 UNL     1      -2.629   1.531  11.540  1.00  0.00     0.275 HD
ENDBRANCH   2  15
TORSDOF 4
ENDMDL
MODEL 5
REMARK VINA RESULT: -6.058429385      3.222      4.189
REMARK  4 active torsions:
REMARK  status: ('A' for Active; 'I' for Inactive)
REMARK    1  A    between atoms: C2_2  and  N1_3 
REMARK    2  A    between atoms: C5_10  and  C6_11 
REMARK    3  A    between atoms: C6_11  and  C7_12 
REMARK    4  A    between atoms: C7_12  and  C8_13 
ROOT
HETATM    1  C1  UNL     1      -3.359   7.964  12.101  1.00  0.00     0.046 C 
HETATM    2  C2  UNL     1      -3.030   7.102  13.295  1.00  0.00     0.124 C 
HETATM    3  C3  UNL     1      -1.949   6.097  12.994  1.00  0.00     0.064 C 
HETATM    4  C4  UNL     1      -1.762   5.259  14.247  1.00  0.00     0.170 C 
HETATM    5  O1  UNL     1      -2.909   4.499  14.402  1.00  0.00    -0.386 OA
HETATM    6  C5  UNL     1      -4.038   5.258  14.674  1.00  0.00     0.123 C 
HETATM    7  C13 UNL     1      -4.264   6.370  13.701  1.00  0.00     0.070 C 
ENDROOT
BRANCH   6   8
HETATM    8  C6  UNL     1      -5.233   4.304  14.536  1.00  0.00     0.032 C 
BRANCH   8   9
HETATM    9  C7  UNL     1      -4.735   2.924  14.872  1.00  0.00     0.007 C 
BRANCH   9  10
HETATM   10  C8  UNL     1      -5.177   2.579  16.267  1.00  0.00    -0.014 C 
HETATM   11  C9  UNL     1      -6.599   2.980  16.485  1.00  0.00     0.004 C 
HETATM   12  C10 UNL     1      -7.272   1.789  17.144  1.00  0.00     0.000 C 
HETATM   13  C11 UNL     1      -6.152   0.836  17.498  1.00  0.00     0.000 C 
HETATM   14  C12 UNL     1      -5.153   1.073  16.406  1.00  0.00     0.004 C 
ENDBRANCH   9  10
ENDBRANCH   8   9
ENDBRANCH   6   8
BRANCH   2  15
HETATM   15  N1  UNL     1      -2.597   7.931  14.396  1.00  0.00    -0.071 N 
ATOM     16  H13 UNL     1      -2.042   8.726  14.082  1.00  0.00     0.275 HD
ATOM     17  H12 UNL     1      -3.372   8.447  14.814  1.00  0.00     0.275 HD
ATOM     18  H11 UNL     1      -2.101   7.363  15.083  1.00  0.00     0.275 HD
ENDBRANCH   2  15
TORSDOF 4
ENDMDL
