MODEL 1
REMARK VINA RESULT: -6.734815291      0.000      0.000
REMARK  5 active torsions:
REMARK  status: ('A' for Active; 'I' for Inactive)
REMARK    1  A    between atoms: C2_2  and  C4_4 
REMARK    2  A    between atoms: C4_4  and  C5_5 
REMARK    3  A    between atoms: C9_9  and  C10_10 
REMARK    4  A    between atoms: C10_10  and  O2_15 
REMARK    5  A    between atoms: N1_11  and  O1_13 
ROOT
HETATM    1  C5  UNL     1       8.683  14.330  26.036  1.00  0.00     0.122 C 
HETATM    2  C6  UNL     1       9.012  12.857  25.680  1.00  0.00     0.046 C 
HETATM    3  C7  UNL     1       7.448  14.317  26.831  1.00  0.00     0.039 C 
HETATM    4  C8  UNL     1       6.316  15.137  26.187  1.00  0.00     0.017 C 
HETATM    5  C9  UNL     1       6.070  14.724  24.778  1.00  0.00     0.089 C 
HETATM    6  C11 UNL     1       7.368  14.286  24.090  1.00  0.00     0.246 C 
HETATM    7  N2  UNL     1       8.468  14.965  24.720  1.00  0.00    -0.066 N 
ATOM      8  H21 UNL     1       9.309  14.981  24.143  1.00  0.00     0.278 HD
ATOM      9  H22 UNL     1       8.330  15.974  24.782  1.00  0.00     0.278 HD
ENDROOT
BRANCH   5  10
HETATM   10  C10 UNL     1       5.033  13.671  24.648  1.00  0.00     0.165 C 
HETATM   11  N1  UNL     1       5.268  12.605  23.963  1.00  0.00    -0.249 N 
ATOM     12  H1  UNL     1       6.179  12.504  23.516  1.00  0.00     0.196 HD
BRANCH  11  13
HETATM   13  O1  UNL     1       4.354  11.607  23.810  1.00  0.00    -0.288 OA
ATOM     14  H1  UNL     1       3.544  11.719  23.327  1.00  0.00     0.244 HD
ENDBRANCH  11  13
BRANCH  10  15
HETATM   15  O2  UNL     1       3.803  13.802  25.250  1.00  0.00    -0.225 OA
HETATM   16 CL1  UNL     1       2.416  14.449  24.426  1.00  0.00     0.069 Cl
ENDBRANCH  10  15
ENDBRANCH   5  10
BRANCH   1  17
HETATM   17  C4  UNL     1       9.928  14.872  26.606  1.00  0.00     0.042 C 
BRANCH  17  18
HETATM   18  C2  UNL     1      11.135  14.026  26.687  1.00  0.00    -0.020 C 
HETATM   19  C1  UNL     1      11.695  14.201  28.128  1.00  0.00     0.009 C 
HETATM   20  C3  UNL     1      12.303  14.471  25.820  1.00  0.00     0.009 C 
ENDBRANCH  17  18
ENDBRANCH   1  17
TORSDOF 5
ENDMDL
MODEL 2
REMARK VINA RESULT: -6.712178232      4.190      6.129
REMARK  5 active torsions:
REMARK  status: ('A' for Active; 'I' for Inactive)
REMARK    1  A    between atoms: C2_2  and  C4_4 
REMARK    2  A    between atoms: C4_4  and  C5_5 
REMARK    3  A    between atoms: C9_9  and  C10_10 
REMARK    4  A    between atoms: C10_10  and  O2_15 
REMARK    5  A    between atoms: N1_11  and  O1_13 
ROOT
HETATM    1  C5  UNL     1       7.086  14.215  25.101  1.00  0.00     0.122 C 
HETATM    2  C6  UNL     1       7.824  15.164  24.121  1.00  0.00     0.046 C 
HETATM    3  C7  UNL     1       7.339  14.714  26.459  1.00  0.00     0.039 C 
HETATM    4  C8  UNL     1       8.036  13.675  27.355  1.00  0.00     0.017 C 
HETATM    5  C9  UNL     1       9.273  13.143  26.723  1.00  0.00     0.089 C 
HETATM    6  C11 UNL     1       9.133  13.066  25.199  1.00  0.00     0.246 C 
HETATM    7  N2  UNL     1       7.740  12.909  24.878  1.00  0.00    -0.066 N 
ATOM      8  H21 UNL     1       7.586  12.542  23.938  1.00  0.00     0.278 HD
ATOM      9  H22 UNL     1       7.296  12.148  25.392  1.00  0.00     0.278 HD
ENDROOT
BRANCH   5  10
HETATM   10  C10 UNL     1      10.494  13.901  27.094  1.00  0.00     0.165 C 
HETATM   11  N1  UNL     1      10.981  13.813  28.284  1.00  0.00    -0.249 N 
ATOM     12  H1  UNL     1      10.509  13.212  28.960  1.00  0.00     0.196 HD
BRANCH  11  13
HETATM   13  O1  UNL     1      12.097  14.485  28.679  1.00  0.00    -0.288 OA
ATOM     14  H1  UNL     1      12.150  14.961  29.500  1.00  0.00     0.244 HD
ENDBRANCH  11  13
BRANCH  10  15
HETATM   15  O2  UNL     1      11.134  14.711  26.186  1.00  0.00    -0.225 OA
HETATM   16 CL1  UNL     1      12.548  14.207  25.308  1.00  0.00     0.069 Cl
ENDBRANCH  10  15
ENDBRANCH   5  10
BRANCH   1  17
HETATM   17  C4  UNL     1       5.709  14.130  24.585  1.00  0.00     0.042 C 
BRANCH  17  18
HETATM   18  C2  UNL     1       4.576  14.574  25.421  1.00  0.00    -0.020 C 
HETATM   19  C1  UNL     1       3.284  14.169  24.655  1.00  0.00     0.009 C 
HETATM   20  C3  UNL     1       4.421  16.081  25.563  1.00  0.00     0.009 C 
ENDBRANCH  17  18
ENDBRANCH   1  17
TORSDOF 5
ENDMDL
MODEL 3
REMARK VINA RESULT: -6.565387178      4.739      6.471
REMARK  5 active torsions:
REMARK  status: ('A' for Active; 'I' for Inactive)
REMARK    1  A    between atoms: C2_2  and  C4_4 
REMARK    2  A    between atoms: C4_4  and  C5_5 
REMARK    3  A    between atoms: C9_9  and  C10_10 
REMARK    4  A    between atoms: C10_10  and  O2_15 
REMARK    5  A    between atoms: N1_11  and  O1_13 
ROOT
HETATM    1  C5  UNL     1       8.292  14.398  25.318  1.00  0.00     0.122 C 
HETATM    2  C6  UNL     1       8.486  12.886  25.031  1.00  0.00     0.046 C 
HETATM    3  C7  UNL     1       9.548  15.069  24.957  1.00  0.00     0.039 C 
HETATM    4  C8  UNL     1      10.183  15.819  26.142  1.00  0.00     0.017 C 
HETATM    5  C9  UNL     1      10.350  14.936  27.328  1.00  0.00     0.089 C 
HETATM    6  C11 UNL     1       9.220  13.904  27.418  1.00  0.00     0.246 C 
HETATM    7  N2  UNL     1       8.055  14.447  26.775  1.00  0.00    -0.066 N 
ATOM      8  H21 UNL     1       7.192  13.981  27.054  1.00  0.00     0.278 HD
ATOM      9  H22 UNL     1       7.815  15.381  27.108  1.00  0.00     0.278 HD
ENDROOT
BRANCH   5  10
HETATM   10  C10 UNL     1      11.672  14.264  27.378  1.00  0.00     0.165 C 
HETATM   11  N1  UNL     1      12.226  13.997  28.511  1.00  0.00    -0.249 N 
ATOM     12  H1  UNL     1      11.735  14.258  29.366  1.00  0.00     0.196 HD
BRANCH  11  13
HETATM   13  O1  UNL     1      13.436  13.383  28.617  1.00  0.00    -0.288 OA
ATOM     14  H1  UNL     1      14.153  13.739  29.128  1.00  0.00     0.244 HD
ENDBRANCH  11  13
BRANCH  10  15
HETATM   15  O2  UNL     1      12.336  13.910  26.228  1.00  0.00    -0.225 OA
HETATM   16 CL1  UNL     1      13.931  14.488  25.846  1.00  0.00     0.069 Cl
ENDBRANCH  10  15
ENDBRANCH   5  10
BRANCH   1  17
HETATM   17  C4  UNL     1       7.036  14.757  24.637  1.00  0.00     0.042 C 
BRANCH  17  18
HETATM   18  C2  UNL     1       5.748  14.638  25.348  1.00  0.00    -0.020 C 
HETATM   19  C1  UNL     1       4.866  13.682  24.495  1.00  0.00     0.009 C 
HETATM   20  C3  UNL     1       4.911  15.908  25.399  1.00  0.00     0.009 C 
ENDBRANCH  17  18
ENDBRANCH   1  17
TORSDOF 5
ENDMDL
MODEL 4
REMARK VINA RESULT: -6.538046388      4.158      6.054
REMARK  5 active torsions:
REMARK  status: ('A' for Active; 'I' for Inactive)
REMARK    1  A    between atoms: C2_2  and  C4_4 
REMARK    2  A    between atoms: C4_4  and  C5_5 
REMARK    3  A    between atoms: C9_9  and  C10_10 
REMARK    4  A    between atoms: C10_10  and  O2_15 
REMARK    5  A    between atoms: N1_11  and  O1_13 
ROOT
HETATM    1  C5  UNL     1       6.751  13.682  24.880  1.00  0.00     0.122 C 
HETATM    2  C6  UNL     1       7.142  12.228  24.508  1.00  0.00     0.046 C 
HETATM    3  C7  UNL     1       7.790  14.562  24.327  1.00  0.00     0.039 C 
HETATM    4  C8  UNL     1       8.494  15.403  25.406  1.00  0.00     0.017 C 
HETATM    5  C9  UNL     1       9.019  14.556  26.511  1.00  0.00     0.089 C 
HETATM    6  C11 UNL     1       8.115  13.344  26.762  1.00  0.00     0.246 C 
HETATM    7  N2  UNL     1       6.778  13.682  26.357  1.00  0.00    -0.066 N 
ATOM      8  H21 UNL     1       6.071  13.072  26.768  1.00  0.00     0.278 HD
ATOM      9  H22 UNL     1       6.449  14.559  26.761  1.00  0.00     0.278 HD
ENDROOT
BRANCH   5  10
HETATM   10  C10 UNL     1      10.423  14.121  26.300  1.00  0.00     0.165 C 
HETATM   11  N1  UNL     1      11.017  14.353  25.180  1.00  0.00    -0.249 N 
ATOM     12  H1  UNL     1      10.501  14.840  24.447  1.00  0.00     0.196 HD
BRANCH  11  13
HETATM   13  O1  UNL     1      12.301  13.978  24.931  1.00  0.00    -0.288 OA
ATOM     14  H1  UNL     1      12.577  13.069  24.905  1.00  0.00     0.244 HD
ENDBRANCH  11  13
BRANCH  10  15
HETATM   15  O2  UNL     1      11.122  13.466  27.286  1.00  0.00    -0.225 OA
HETATM   16 CL1  UNL     1      12.368  14.233  28.224  1.00  0.00     0.069 Cl
ENDBRANCH  10  15
ENDBRANCH   5  10
BRANCH   1  17
HETATM   17  C4  UNL     1       5.351  13.823  24.448  1.00  0.00     0.042 C 
BRANCH  17  18
HETATM   18  C2  UNL     1       4.375  14.516  25.311  1.00  0.00    -0.020 C 
HETATM   19  C1  UNL     1       2.994  14.377  24.608  1.00  0.00     0.009 C 
HETATM   20  C3  UNL     1       4.548  16.025  25.412  1.00  0.00     0.009 C 
ENDBRANCH  17  18
ENDBRANCH   1  17
TORSDOF 5
ENDMDL
MODEL 5
REMARK VINA RESULT: -6.524451187      1.360      1.473
REMARK  5 active torsions:
REMARK  status: ('A' for Active; 'I' for Inactive)
REMARK    1  A    between atoms: C2_2  and  C4_4 
REMARK    2  A    between atoms: C4_4  and  C5_5 
REMARK    3  A    between atoms: C9_9  and  C10_10 
REMARK    4  A    between atoms: C10_10  and  O2_15 
REMARK    5  A    between atoms: N1_11  and  O1_13 
ROOT
HETATM    1  C5  UNL     1       8.698  14.368  26.055  1.00  0.00     0.122 C 
HETATM    2  C6  UNL     1       9.014  12.906  25.643  1.00  0.00     0.046 C 
HETATM    3  C7  UNL     1       7.479  14.331  26.873  1.00  0.00     0.039 C 
HETATM    4  C8  UNL     1       6.337  15.176  26.279  1.00  0.00     0.017 C 
HETATM    5  C9  UNL     1       6.063  14.813  24.862  1.00  0.00     0.089 C 
HETATM    6  C11 UNL     1       7.346  14.394  24.134  1.00  0.00     0.246 C 
HETATM    7  N2  UNL     1       8.460  15.048  24.765  1.00  0.00    -0.066 N 
ATOM      8  H21 UNL     1       9.290  15.081  24.173  1.00  0.00     0.278 HD
ATOM      9  H22 UNL     1       8.327  16.054  24.864  1.00  0.00     0.278 HD
ENDROOT
BRANCH   5  10
HETATM   10  C10 UNL     1       5.019  13.767  24.716  1.00  0.00     0.165 C 
HETATM   11  N1  UNL     1       3.784  14.097  24.548  1.00  0.00    -0.249 N 
ATOM     12  H1  UNL     1       3.545  15.088  24.518  1.00  0.00     0.196 HD
BRANCH  11  13
HETATM   13  O1  UNL     1       2.786  13.182  24.409  1.00  0.00    -0.288 OA
ATOM     14  H1  UNL     1       1.871  13.424  24.335  1.00  0.00     0.244 HD
ENDBRANCH  11  13
BRANCH  10  15
HETATM   15  O2  UNL     1       5.338  12.431  24.754  1.00  0.00    -0.225 OA
HETATM   16 CL1  UNL     1       5.590  11.482  23.319  1.00  0.00     0.069 Cl
ENDBRANCH  10  15
ENDBRANCH   5  10
BRANCH   1  17
HETATM   17  C4  UNL     1       9.956  14.885  26.619  1.00  0.00     0.042 C 
BRANCH  17  18
HETATM   18  C2  UNL     1      11.149  14.019  26.688  1.00  0.00    -0.020 C 
HETATM   19  C1  UNL     1      11.717  14.173  28.128  1.00  0.00     0.009 C 
HETATM   20  C3  UNL     1      12.321  14.452  25.819  1.00  0.00     0.009 C 
ENDBRANCH  17  18
ENDBRANCH   1  17
TORSDOF 5
ENDMDL
