MODEL 1
REMARK VINA RESULT: -7.651516010      0.000      0.000
REMARK  4 active torsions:
REMARK  status: ('A' for Active; 'I' for Inactive)
REMARK    1  A    between atoms: C1_4  and  O1_5 
REMARK    2  A    between atoms: O1_5  and  N2_6 
REMARK    3  A    between atoms: N2_6  and  C2_8 
REMARK    4  A    between atoms: C3_13  and  N5_14 
ROOT
HETATM    1  C2  UNL     1      10.538  14.445  26.651  1.00  0.00     0.166 A 
HETATM    2  N3  UNL     1      10.196  13.634  27.656  1.00  0.00    -0.281 N 
ATOM      3  H3  UNL     1      10.827  13.324  28.395  1.00  0.00     0.188 HD
HETATM    4  N4  UNL     1       8.930  13.292  27.557  1.00  0.00    -0.282 N 
ATOM      5  H4  UNL     1       8.437  12.679  28.206  1.00  0.00     0.188 HD
HETATM    6  C3  UNL     1       8.382  13.871  26.471  1.00  0.00     0.144 A 
HETATM    7  C10 UNL     1       9.414  14.611  25.890  1.00  0.00     0.126 A 
HETATM    8 CL1  UNL     1       9.282  15.582  24.435  1.00  0.00    -0.076 Cl
ENDROOT
BRANCH   1   9
HETATM    9  N2  UNL     1      11.716  14.946  26.480  1.00  0.00    -0.241 N 
ATOM     10  H2  UNL     1      11.802  15.951  26.326  1.00  0.00     0.196 HD
BRANCH   9  11
HETATM   11  O1  UNL     1      12.853  14.190  26.496  1.00  0.00    -0.232 OA
BRANCH  11  12
HETATM   12  C1  UNL     1      13.850  14.459  27.420  1.00  0.00     0.252 C 
HETATM   13  N1  UNL     1      13.539  14.370  28.671  1.00  0.00    -0.388 N 
ATOM     14  H12 UNL     1      12.593  14.113  28.951  1.00  0.00     0.157 HD
ATOM     15  H11 UNL     1      14.273  14.569  29.351  1.00  0.00     0.157 HD
ENDBRANCH  11  12
ENDBRANCH   9  11
ENDBRANCH   1   9
BRANCH   6  16
HETATM   16  N5  UNL     1       7.044  13.765  26.001  1.00  0.00    -0.365 N 
HETATM   17  C4  UNL     1       6.055  14.248  26.930  1.00  0.00     0.124 C 
HETATM   18  C5  UNL     1       5.403  15.461  26.306  1.00  0.00     0.020 C 
HETATM   19  C6  UNL     1       5.060  15.236  24.854  1.00  0.00     0.002 C 
HETATM   20  C7  UNL     1       4.516  13.859  24.597  1.00  0.00     0.002 C 
HETATM   21  C8  UNL     1       5.563  12.851  24.259  1.00  0.00     0.020 C 
HETATM   22  C9  UNL     1       6.939  13.198  24.696  1.00  0.00     0.124 C 
ENDBRANCH   6  16
TORSDOF 4
ENDMDL
MODEL 2
REMARK VINA RESULT: -7.519629249      0.886      1.758
REMARK  4 active torsions:
REMARK  status: ('A' for Active; 'I' for Inactive)
REMARK    1  A    between atoms: C1_4  and  O1_5 
REMARK    2  A    between atoms: O1_5  and  N2_6 
REMARK    3  A    between atoms: N2_6  and  C2_8 
REMARK    4  A    between atoms: C3_13  and  N5_14 
ROOT
HETATM    1  C2  UNL     1      10.173  14.001  26.946  1.00  0.00     0.166 A 
HETATM    2  N3  UNL     1       9.441  13.265  27.788  1.00  0.00    -0.281 N 
ATOM      3  H3  UNL     1       9.816  12.730  28.571  1.00  0.00     0.188 HD
HETATM    4  N4  UNL     1       8.169  13.328  27.463  1.00  0.00    -0.282 N 
ATOM      5  H4  UNL     1       7.414  12.850  27.955  1.00  0.00     0.188 HD
HETATM    6  C3  UNL     1       8.011  14.117  26.383  1.00  0.00     0.144 A 
HETATM    7  C10 UNL     1       9.297  14.549  26.051  1.00  0.00     0.126 A 
HETATM    8 CL1  UNL     1       9.706  15.610  24.717  1.00  0.00    -0.076 Cl
ENDROOT
BRANCH   1   9
HETATM    9  N2  UNL     1      11.456  14.133  27.012  1.00  0.00    -0.241 N 
ATOM     10  H2  UNL     1      11.991  14.142  26.143  1.00  0.00     0.196 HD
BRANCH   9  11
HETATM   11  O1  UNL     1      12.129  14.262  28.193  1.00  0.00    -0.232 OA
BRANCH  11  12
HETATM   12  C1  UNL     1      13.495  14.039  28.239  1.00  0.00     0.252 C 
HETATM   13  N1  UNL     1      13.935  13.240  29.155  1.00  0.00    -0.388 N 
ATOM     14  H12 UNL     1      13.289  12.800  29.810  1.00  0.00     0.157 HD
ATOM     15  H11 UNL     1      14.941  13.076  29.189  1.00  0.00     0.157 HD
ENDBRANCH  11  12
ENDBRANCH   9  11
ENDBRANCH   1   9
BRANCH   6  16
HETATM   16  N5  UNL     1       6.802  14.451  25.709  1.00  0.00    -0.365 N 
HETATM   17  C4  UNL     1       6.746  13.999  24.343  1.00  0.00     0.124 C 
HETATM   18  C5  UNL     1       5.649  12.961  24.256  1.00  0.00     0.020 C 
HETATM   19  C6  UNL     1       4.401  13.394  24.982  1.00  0.00     0.002 C 
HETATM   20  C7  UNL     1       4.093  14.852  24.779  1.00  0.00     0.002 C 
HETATM   21  C8  UNL     1       4.710  15.745  25.802  1.00  0.00     0.020 C 
HETATM   22  C9  UNL     1       5.877  15.173  26.520  1.00  0.00     0.124 C 
ENDBRANCH   6  16
TORSDOF 4
ENDMDL
MODEL 3
REMARK VINA RESULT: -7.112375047     10.203     11.613
REMARK  4 active torsions:
REMARK  status: ('A' for Active; 'I' for Inactive)
REMARK    1  A    between atoms: C1_4  and  O1_5 
REMARK    2  A    between atoms: O1_5  and  N2_6 
REMARK    3  A    between atoms: N2_6  and  C2_8 
REMARK    4  A    between atoms: C3_13  and  N5_14 
ROOT
HETATM    1  C2  UNL     1      -1.008  10.578  26.199  1.00  0.00     0.166 A 
HETATM    2  N3  UNL     1      -1.415  10.499  27.470  1.00  0.00    -0.281 N 
ATOM      3  H3  UNL     1      -2.113  11.108  27.897  1.00  0.00     0.188 HD
HETATM    4  N4  UNL     1      -0.786   9.527  28.092  1.00  0.00    -0.282 N 
ATOM      5  H4  UNL     1      -0.925   9.271  29.069  1.00  0.00     0.188 HD
HETATM    6  C3  UNL     1       0.068   8.919  27.247  1.00  0.00     0.144 A 
HETATM    7  C10 UNL     1      -0.074   9.593  26.032  1.00  0.00     0.126 A 
HETATM    8 CL1  UNL     1       0.798   9.233  24.554  1.00  0.00    -0.076 Cl
ENDROOT
BRANCH   1   9
HETATM    9  N2  UNL     1      -1.446  11.437  25.340  1.00  0.00    -0.241 N 
ATOM     10  H2  UNL     1      -1.404  12.429  25.576  1.00  0.00     0.196 HD
BRANCH   9  11
HETATM   11  O1  UNL     1      -1.962  11.077  24.128  1.00  0.00    -0.232 OA
BRANCH  11  12
HETATM   12  C1  UNL     1      -1.689  11.840  23.005  1.00  0.00     0.252 C 
HETATM   13  N1  UNL     1      -2.591  12.686  22.630  1.00  0.00    -0.388 N 
ATOM     14  H12 UNL     1      -3.464  12.776  23.150  1.00  0.00     0.157 HD
ATOM     15  H11 UNL     1      -2.390  13.248  21.802  1.00  0.00     0.157 HD
ENDBRANCH  11  12
ENDBRANCH   9  11
ENDBRANCH   1   9
BRANCH   6  16
HETATM   16  N5  UNL     1       0.937   7.824  27.514  1.00  0.00    -0.365 N 
HETATM   17  C4  UNL     1       2.302   8.206  27.768  1.00  0.00     0.124 C 
HETATM   18  C5  UNL     1       2.610   7.853  29.206  1.00  0.00     0.020 C 
HETATM   19  C6  UNL     1       2.107   6.479  29.573  1.00  0.00     0.002 C 
HETATM   20  C7  UNL     1       2.324   5.475  28.475  1.00  0.00     0.002 C 
HETATM   21  C8  UNL     1       1.186   5.375  27.516  1.00  0.00     0.020 C 
HETATM   22  C9  UNL     1       0.286   6.556  27.478  1.00  0.00     0.124 C 
ENDBRANCH   6  16
TORSDOF 4
ENDMDL
MODEL 4
REMARK VINA RESULT: -6.916883144      7.724     10.774
REMARK  4 active torsions:
REMARK  status: ('A' for Active; 'I' for Inactive)
REMARK    1  A    between atoms: C1_4  and  O1_5 
REMARK    2  A    between atoms: O1_5  and  N2_6 
REMARK    3  A    between atoms: N2_6  and  C2_8 
REMARK    4  A    between atoms: C3_13  and  N5_14 
ROOT
HETATM    1  C2  UNL     1      -1.489  11.960  23.535  1.00  0.00     0.166 A 
HETATM    2  N3  UNL     1      -1.506  11.463  24.775  1.00  0.00    -0.281 N 
ATOM      3  H3  UNL     1      -2.348  11.197  25.285  1.00  0.00     0.188 HD
HETATM    4  N4  UNL     1      -0.282  11.366  25.245  1.00  0.00    -0.282 N 
ATOM      5  H4  UNL     1      -0.036  11.014  26.171  1.00  0.00     0.188 HD
HETATM    6  C3  UNL     1       0.599  11.799  24.323  1.00  0.00     0.144 A 
HETATM    7  C10 UNL     1      -0.176  12.180  23.225  1.00  0.00     0.126 A 
HETATM    8 CL1  UNL     1       0.439  12.828  21.716  1.00  0.00    -0.076 Cl
ENDROOT
BRANCH   1   9
HETATM    9  N2  UNL     1      -2.540  12.171  22.814  1.00  0.00    -0.241 N 
ATOM     10  H2  UNL     1      -3.417  11.727  23.088  1.00  0.00     0.196 HD
BRANCH   9  11
HETATM   11  O1  UNL     1      -2.530  12.963  21.702  1.00  0.00    -0.232 OA
BRANCH  11  12
HETATM   12  C1  UNL     1      -3.281  14.127  21.675  1.00  0.00     0.252 C 
HETATM   13  N1  UNL     1      -4.035  14.371  22.695  1.00  0.00    -0.388 N 
ATOM     14  H12 UNL     1      -4.066  13.722  23.482  1.00  0.00     0.157 HD
ATOM     15  H11 UNL     1      -4.587  15.228  22.675  1.00  0.00     0.157 HD
ENDBRANCH  11  12
ENDBRANCH   9  11
ENDBRANCH   1   9
BRANCH   6  16
HETATM   16  N5  UNL     1       2.017  11.862  24.425  1.00  0.00    -0.365 N 
HETATM   17  C4  UNL     1       2.639  10.605  24.751  1.00  0.00     0.124 C 
HETATM   18  C5  UNL     1       3.475  10.192  23.559  1.00  0.00     0.020 C 
HETATM   19  C6  UNL     1       4.285  11.340  23.011  1.00  0.00     0.002 C 
HETATM   20  C7  UNL     1       4.870  12.202  24.095  1.00  0.00     0.002 C 
HETATM   21  C8  UNL     1       3.989  13.333  24.508  1.00  0.00     0.020 C 
HETATM   22  C9  UNL     1       2.550  13.163  24.185  1.00  0.00     0.124 C 
ENDBRANCH   6  16
TORSDOF 4
ENDMDL
MODEL 5
REMARK VINA RESULT: -6.870189977      1.535      1.726
REMARK  4 active torsions:
REMARK  status: ('A' for Active; 'I' for Inactive)
REMARK    1  A    between atoms: C1_4  and  O1_5 
REMARK    2  A    between atoms: O1_5  and  N2_6 
REMARK    3  A    between atoms: N2_6  and  C2_8 
REMARK    4  A    between atoms: C3_13  and  N5_14 
ROOT
HETATM    1  C2  UNL     1      10.443  14.530  25.942  1.00  0.00     0.166 A 
HETATM    2  N3  UNL     1      10.224  15.257  24.842  1.00  0.00    -0.281 N 
ATOM      3  H3  UNL     1      10.941  15.774  24.333  1.00  0.00     0.188 HD
HETATM    4  N4  UNL     1       8.953  15.212  24.510  1.00  0.00    -0.282 N 
ATOM      5  H4  UNL     1       8.540  15.687  23.707  1.00  0.00     0.188 HD
HETATM    6  C3  UNL     1       8.277  14.445  25.386  1.00  0.00     0.144 A 
HETATM    7  C10 UNL     1       9.233  14.008  26.306  1.00  0.00     0.126 A 
HETATM    8 CL1  UNL     1       8.925  12.968  27.684  1.00  0.00    -0.076 Cl
ENDROOT
BRANCH   1   9
HETATM    9  N2  UNL     1      11.594  14.385  26.509  1.00  0.00    -0.241 N 
ATOM     10  H2  UNL     1      11.654  14.478  27.524  1.00  0.00     0.196 HD
BRANCH   9  11
HETATM   11  O1  UNL     1      12.736  14.113  25.811  1.00  0.00    -0.232 OA
BRANCH  11  12
HETATM   12  C1  UNL     1      13.973  14.341  26.391  1.00  0.00     0.252 C 
HETATM   13  N1  UNL     1      14.296  13.611  27.406  1.00  0.00    -0.388 N 
ATOM     14  H12 UNL     1      13.655  12.899  27.756  1.00  0.00     0.157 HD
ATOM     15  H11 UNL     1      15.207  13.780  27.833  1.00  0.00     0.157 HD
ENDBRANCH  11  12
ENDBRANCH   9  11
ENDBRANCH   1   9
BRANCH   6  16
HETATM   16  N5  UNL     1       6.888  14.134  25.393  1.00  0.00    -0.365 N 
HETATM   17  C4  UNL     1       6.189  14.591  26.566  1.00  0.00     0.124 C 
HETATM   18  C5  UNL     1       5.204  15.649  26.122  1.00  0.00     0.020 C 
HETATM   19  C6  UNL     1       4.451  15.237  24.881  1.00  0.00     0.002 C 
HETATM   20  C7  UNL     1       4.059  13.786  24.900  1.00  0.00     0.002 C 
HETATM   21  C8  UNL     1       5.077  12.879  24.295  1.00  0.00     0.020 C 
HETATM   22  C9  UNL     1       6.455  13.428  24.232  1.00  0.00     0.124 C 
ENDBRANCH   6  16
TORSDOF 4
ENDMDL
