MODEL 1
REMARK VINA RESULT: -7.010542849      0.000      0.000
REMARK  3 active torsions:
REMARK  status: ('A' for Active; 'I' for Inactive)
REMARK    1  A    between atoms: C2_2  and  C3_3 
REMARK    2  A    between atoms: N3_8  and  C5_9 
REMARK    3  A    between atoms: C12_16  and  N4_17 
ROOT
HETATM    1  C3  UNL     1       5.496  12.281  23.979  1.00  0.00     0.122 A 
HETATM    2  N1  UNL     1       4.690  13.309  24.202  1.00  0.00    -0.316 N 
ATOM      3  H1  UNL     1       5.086  14.207  24.477  1.00  0.00     0.170 HD
HETATM    4  C4  UNL     1       3.356  13.183  24.072  1.00  0.00     0.211 A 
HETATM    5  N2  UNL     1       2.553  14.294  24.317  1.00  0.00    -0.062 NA
HETATM    6  N3  UNL     1       2.777  12.020  23.713  1.00  0.00    -0.150 N 
HETATM    7  C12 UNL     1       3.622  10.993  23.493  1.00  0.00     0.682 A 
HETATM    8  N5  UNL     1       4.952  11.104  23.618  1.00  0.00    -0.177 N 
ATOM      9  H5  UNL     1       5.551  10.298  23.440  1.00  0.00     0.186 HD
ENDROOT
BRANCH   6  10
HETATM   10  C5  UNL     1       1.389  11.796  23.551  1.00  0.00     0.111 C 
HETATM   11  C6  UNL     1       0.529  11.887  24.754  1.00  0.00     0.026 C 
HETATM   12  C7  UNL     1      -0.736  11.062  24.445  1.00  0.00     0.002 C 
HETATM   13  C8  UNL     1      -1.331  11.600  23.183  1.00  0.00     0.004 C 
HETATM   14  C9  UNL     1      -0.705  12.868  22.700  1.00  0.00    -0.017 C 
HETATM   15  C10 UNL     1      -1.318  13.173  21.327  1.00  0.00     0.010 C 
HETATM   16  C11 UNL     1       0.774  12.693  22.471  1.00  0.00     0.030 C 
ENDBRANCH   6  10
BRANCH   7  17
HETATM   17  N4  UNL     1       3.153   9.825  23.141  1.00  0.00    -0.234 N 
ATOM     18  H42 UNL     1       3.236   9.068  23.819  1.00  0.00     0.174 HD
ATOM     19  H41 UNL     1       2.727   9.703  22.222  1.00  0.00     0.174 HD
ENDBRANCH   7  17
BRANCH   1  20
HETATM   20  C2  UNL     1       6.951  12.414  24.119  1.00  0.00     0.039 C 
HETATM   21  C1  UNL     1       7.531  13.594  24.096  1.00  0.00     0.015 C 
ENDBRANCH   1  20
TORSDOF 3
ENDMDL
MODEL 2
REMARK VINA RESULT: -6.964256314      3.737      5.593
REMARK  3 active torsions:
REMARK  status: ('A' for Active; 'I' for Inactive)
REMARK    1  A    between atoms: C2_2  and  C3_3 
REMARK    2  A    between atoms: N3_8  and  C5_9 
REMARK    3  A    between atoms: C12_16  and  N4_17 
ROOT
HETATM    1  C3  UNL     1       0.295   7.208  27.052  1.00  0.00     0.122 A 
HETATM    2  N1  UNL     1      -0.070   8.390  27.527  1.00  0.00    -0.316 N 
ATOM      3  H1  UNL     1      -0.264   8.494  28.523  1.00  0.00     0.170 HD
HETATM    4  C4  UNL     1      -0.188   9.456  26.713  1.00  0.00     0.211 A 
HETATM    5  N2  UNL     1      -0.574  10.677  27.262  1.00  0.00    -0.062 NA
HETATM    6  N3  UNL     1       0.055   9.378  25.390  1.00  0.00    -0.150 N 
HETATM    7  C12 UNL     1       0.423   8.163  24.937  1.00  0.00     0.682 A 
HETATM    8  N5  UNL     1       0.545   7.094  25.735  1.00  0.00    -0.177 N 
ATOM      9  H5  UNL     1       0.828   6.195  25.346  1.00  0.00     0.186 HD
ENDROOT
BRANCH   6  10
HETATM   10  C5  UNL     1      -0.043  10.442  24.461  1.00  0.00     0.111 C 
HETATM   11  C6  UNL     1      -1.326  11.177  24.385  1.00  0.00     0.026 C 
HETATM   12  C7  UNL     1      -1.372  11.824  22.986  1.00  0.00     0.002 C 
HETATM   13  C8  UNL     1      -0.139  12.656  22.831  1.00  0.00     0.004 C 
HETATM   14  C9  UNL     1       0.657  12.813  24.084  1.00  0.00    -0.017 C 
HETATM   15  C10 UNL     1       1.953  13.542  23.701  1.00  0.00     0.010 C 
HETATM   16  C11 UNL     1       1.075  11.475  24.636  1.00  0.00     0.030 C 
ENDBRANCH   6  10
BRANCH   7  17
HETATM   17  N4  UNL     1       0.679   7.990  23.667  1.00  0.00    -0.234 N 
ATOM     18  H42 UNL     1       1.656   7.863  23.403  1.00  0.00     0.174 HD
ATOM     19  H41 UNL     1      -0.083   7.987  22.989  1.00  0.00     0.174 HD
ENDBRANCH   7  17
BRANCH   1  20
HETATM   20  C2  UNL     1       0.425   6.044  27.937  1.00  0.00     0.039 C 
HETATM   21  C1  UNL     1       1.203   6.079  28.996  1.00  0.00     0.015 C 
ENDBRANCH   1  20
TORSDOF 3
ENDMDL
MODEL 3
REMARK VINA RESULT: -6.959136116      3.555      5.655
REMARK  3 active torsions:
REMARK  status: ('A' for Active; 'I' for Inactive)
REMARK    1  A    between atoms: C2_2  and  C3_3 
REMARK    2  A    between atoms: N3_8  and  C5_9 
REMARK    3  A    between atoms: C12_16  and  N4_17 
ROOT
HETATM    1  C3  UNL     1       6.012  13.406  24.400  1.00  0.00     0.122 A 
HETATM    2  N1  UNL     1       7.061  12.665  24.073  1.00  0.00    -0.316 N 
ATOM      3  H1  UNL     1       7.992  13.081  24.080  1.00  0.00     0.170 HD
HETATM    4  C4  UNL     1       6.914  11.371  23.732  1.00  0.00     0.211 A 
HETATM    5  N2  UNL     1       8.048  10.635  23.397  1.00  0.00    -0.062 NA
HETATM    6  N3  UNL     1       5.708  10.769  23.704  1.00  0.00    -0.150 N 
HETATM    7  C12 UNL     1       4.661  11.548  24.041  1.00  0.00     0.682 A 
HETATM    8  N5  UNL     1       4.793  12.838  24.383  1.00  0.00    -0.177 N 
ATOM      9  H5  UNL     1       3.970  13.387  24.631  1.00  0.00     0.186 HD
ENDROOT
BRANCH   6  10
HETATM   10  C5  UNL     1       5.460   9.419  23.359  1.00  0.00     0.111 C 
HETATM   11  C6  UNL     1       5.488   9.055  21.924  1.00  0.00     0.026 C 
HETATM   12  C7  UNL     1       4.647   7.770  21.786  1.00  0.00     0.002 C 
HETATM   13  C8  UNL     1       5.217   6.753  22.722  1.00  0.00     0.004 C 
HETATM   14  C9  UNL     1       6.514   7.151  23.346  1.00  0.00    -0.017 C 
HETATM   15  C10 UNL     1       6.855   6.078  24.389  1.00  0.00     0.010 C 
HETATM   16  C11 UNL     1       6.381   8.446  24.103  1.00  0.00     0.030 C 
ENDBRANCH   6  10
BRANCH   7  17
HETATM   17  N4  UNL     1       3.452  11.052  24.043  1.00  0.00    -0.234 N 
ATOM     18  H42 UNL     1       2.678  11.717  24.028  1.00  0.00     0.174 HD
ATOM     19  H41 UNL     1       3.315  10.042  24.058  1.00  0.00     0.174 HD
ENDBRANCH   7  17
BRANCH   1  20
HETATM   20  C2  UNL     1       6.168  14.817  24.773  1.00  0.00     0.039 C 
HETATM   21  C1  UNL     1       5.271  15.427  25.516  1.00  0.00     0.015 C 
ENDBRANCH   1  20
TORSDOF 3
ENDMDL
MODEL 4
REMARK VINA RESULT: -6.901394435      0.183      1.952
REMARK  3 active torsions:
REMARK  status: ('A' for Active; 'I' for Inactive)
REMARK    1  A    between atoms: C2_2  and  C3_3 
REMARK    2  A    between atoms: N3_8  and  C5_9 
REMARK    3  A    between atoms: C12_16  and  N4_17 
ROOT
HETATM    1  C3  UNL     1       5.467  12.290  23.899  1.00  0.00     0.122 A 
HETATM    2  N1  UNL     1       5.006  11.123  23.472  1.00  0.00    -0.316 N 
ATOM      3  H1  UNL     1       5.661  10.370  23.263  1.00  0.00     0.170 HD
HETATM    4  C4  UNL     1       3.685  10.920  23.309  1.00  0.00     0.211 A 
HETATM    5  N2  UNL     1       3.252   9.675  22.857  1.00  0.00    -0.062 NA
HETATM    6  N3  UNL     1       2.775  11.879  23.567  1.00  0.00    -0.150 N 
HETATM    7  C12 UNL     1       3.274  13.054  24.000  1.00  0.00     0.682 A 
HETATM    8  N5  UNL     1       4.586  13.270  24.168  1.00  0.00    -0.177 N 
ATOM      9  H5  UNL     1       4.916  14.176  24.498  1.00  0.00     0.186 HD
ENDROOT
BRANCH   6  10
HETATM   10  C5  UNL     1       1.372  11.755  23.425  1.00  0.00     0.111 C 
HETATM   11  C6  UNL     1       0.536  11.927  24.635  1.00  0.00     0.026 C 
HETATM   12  C7  UNL     1      -0.790  11.192  24.354  1.00  0.00     0.002 C 
HETATM   13  C8  UNL     1      -1.359  11.752  23.090  1.00  0.00     0.004 C 
HETATM   14  C9  UNL     1      -0.649  12.963  22.580  1.00  0.00    -0.017 C 
HETATM   15  C10 UNL     1      -1.254  13.291  21.209  1.00  0.00     0.010 C 
HETATM   16  C11 UNL     1       0.810  12.677  22.338  1.00  0.00     0.030 C 
ENDBRANCH   6  10
BRANCH   7  17
HETATM   17  N4  UNL     1       2.467  14.044  24.277  1.00  0.00    -0.234 N 
ATOM     18  H42 UNL     1       1.468  13.843  24.276  1.00  0.00     0.174 HD
ATOM     19  H41 UNL     1       2.847  14.969  24.481  1.00  0.00     0.174 HD
ENDBRANCH   7  17
BRANCH   1  20
HETATM   20  C2  UNL     1       6.907  12.515  24.079  1.00  0.00     0.039 C 
HETATM   21  C1  UNL     1       7.400  13.731  24.151  1.00  0.00     0.015 C 
ENDBRANCH   1  20
TORSDOF 3
ENDMDL
MODEL 5
REMARK VINA RESULT: -6.858595129      4.123      6.341
REMARK  3 active torsions:
REMARK  status: ('A' for Active; 'I' for Inactive)
REMARK    1  A    between atoms: C2_2  and  C3_3 
REMARK    2  A    between atoms: N3_8  and  C5_9 
REMARK    3  A    between atoms: C12_16  and  N4_17 
ROOT
HETATM    1  C3  UNL     1       0.141  11.701  24.160  1.00  0.00     0.122 A 
HETATM    2  N1  UNL     1       0.871  10.668  23.765  1.00  0.00    -0.316 N 
ATOM      3  H1  UNL     1       1.345  10.704  22.862  1.00  0.00     0.170 HD
HETATM    4  C4  UNL     1       0.996   9.573  24.537  1.00  0.00     0.211 A 
HETATM    5  N2  UNL     1       1.776   8.514  24.076  1.00  0.00    -0.062 NA
HETATM    6  N3  UNL     1       0.392   9.470  25.738  1.00  0.00    -0.150 N 
HETATM    7  C12 UNL     1      -0.344  10.535  26.112  1.00  0.00     0.682 A 
HETATM    8  N5  UNL     1      -0.476  11.632  25.354  1.00  0.00    -0.177 N 
ATOM      9  H5  UNL     1      -1.043  12.414  25.681  1.00  0.00     0.186 HD
ENDROOT
BRANCH   6  10
HETATM   10  C5  UNL     1       0.467   8.361  26.614  1.00  0.00     0.111 C 
HETATM   11  C6  UNL     1       0.260   7.011  26.042  1.00  0.00     0.026 C 
HETATM   12  C7  UNL     1      -0.186   6.109  27.210  1.00  0.00     0.002 C 
HETATM   13  C8  UNL     1       0.855   6.205  28.280  1.00  0.00     0.004 C 
HETATM   14  C9  UNL     1       2.093   6.932  27.868  1.00  0.00    -0.017 C 
HETATM   15  C10 UNL     1       2.963   7.079  29.124  1.00  0.00     0.010 C 
HETATM   16  C11 UNL     1       1.776   8.332  27.411  1.00  0.00     0.030 C 
ENDBRANCH   6  10
BRANCH   7  17
HETATM   17  N4  UNL     1      -0.967  10.527  27.261  1.00  0.00    -0.234 N 
ATOM     18  H42 UNL     1      -1.759   9.891  27.355  1.00  0.00     0.174 HD
ATOM     19  H41 UNL     1      -0.655  11.140  28.014  1.00  0.00     0.174 HD
ENDBRANCH   7  17
BRANCH   1  20
HETATM   20  C2  UNL     1       0.003  12.897  23.321  1.00  0.00     0.039 C 
HETATM   21  C1  UNL     1       0.479  12.926  22.096  1.00  0.00     0.015 C 
ENDBRANCH   1  20
TORSDOF 3
ENDMDL
