MODEL 1
REMARK VINA RESULT: -6.179227860      0.000      0.000
REMARK  3 active torsions:
REMARK  status: ('A' for Active; 'I' for Inactive)
REMARK    1  A    between atoms: N1_1  and  C1_5 
REMARK    2  A    between atoms: C5_9  and  N2_10 
REMARK    3  A    between atoms: C7_13  and  C8_14 
ROOT
HETATM    1  C1  UNL     1       6.555  13.620  25.106  1.00  0.00     0.207 C 
HETATM    2  C2  UNL     1       5.993  15.036  25.158  1.00  0.00     0.035 C 
HETATM    3  C3  UNL     1       4.507  14.776  25.178  1.00  0.00     0.004 C 
HETATM    4  C4  UNL     1       4.319  13.494  24.386  1.00  0.00     0.028 C 
HETATM    5  C5  UNL     1       5.704  13.029  24.019  1.00  0.00     0.131 C 
ENDROOT
BRANCH   5   6
HETATM    6  N2  UNL     1       5.758  11.588  23.953  1.00  0.00    -0.277 N 
HETATM    7  S1  UNL     1       4.437  10.543  24.148  1.00  0.00    -0.020 SA
HETATM    8  C6  UNL     1       5.235   9.049  23.914  1.00  0.00     0.081 A 
HETATM    9  C7  UNL     1       6.518   9.447  23.688  1.00  0.00     0.028 A 
HETATM   10  C9  UNL     1       6.768  10.765  23.714  1.00  0.00     0.261 A 
HETATM   11  O1  UNL     1       7.936  11.260  23.513  1.00  0.00    -0.267 OA
BRANCH   9  12
HETATM   12  C8  UNL     1       7.629   8.408  23.497  1.00  0.00     0.131 C 
HETATM   13  S2  UNL     1       7.018   6.787  24.130  1.00  0.00    -0.092 SA
ENDBRANCH   9  12
ENDBRANCH   5   6
BRANCH   1  14
HETATM   14  N1  UNL     1       6.348  12.991  26.382  1.00  0.00    -0.073 N 
ATOM     15  H13 UNL     1       6.898  13.425  27.123  1.00  0.00     0.274 HD
ATOM     16  H12 UNL     1       5.421  13.180  26.764  1.00  0.00     0.274 HD
ATOM     17  H11 UNL     1       6.536  11.993  26.292  1.00  0.00     0.274 HD
ENDBRANCH   1  14
TORSDOF 3
ENDMDL
MODEL 2
REMARK VINA RESULT: -5.618322322      2.103      5.409
REMARK  3 active torsions:
REMARK  status: ('A' for Active; 'I' for Inactive)
REMARK    1  A    between atoms: N1_1  and  C1_5 
REMARK    2  A    between atoms: C5_9  and  N2_10 
REMARK    3  A    between atoms: C7_13  and  C8_14 
ROOT
HETATM    1  C1  UNL     1       7.616   8.058  22.823  1.00  0.00     0.207 C 
HETATM    2  C2  UNL     1       7.563   6.553  23.052  1.00  0.00     0.035 C 
HETATM    3  C3  UNL     1       6.122   6.353  23.451  1.00  0.00     0.004 C 
HETATM    4  C4  UNL     1       5.727   7.637  24.159  1.00  0.00     0.028 C 
HETATM    5  C5  UNL     1       6.924   8.547  24.063  1.00  0.00     0.131 C 
ENDROOT
BRANCH   5   6
HETATM    6  N2  UNL     1       6.510   9.928  23.996  1.00  0.00    -0.277 N 
HETATM    7  S1  UNL     1       4.922  10.472  23.763  1.00  0.00    -0.020 SA
HETATM    8  C6  UNL     1       5.198  12.158  23.827  1.00  0.00     0.081 A 
HETATM    9  C7  UNL     1       6.543  12.215  24.035  1.00  0.00     0.028 A 
HETATM   10  C9  UNL     1       7.204  11.051  24.117  1.00  0.00     0.261 A 
HETATM   11  O1  UNL     1       8.471  10.978  24.313  1.00  0.00    -0.267 OA
BRANCH   9  12
HETATM   12  C8  UNL     1       7.262  13.569  24.084  1.00  0.00     0.131 C 
HETATM   13  S2  UNL     1       6.195  14.756  25.008  1.00  0.00    -0.092 SA
ENDBRANCH   9  12
ENDBRANCH   5   6
BRANCH   1  14
HETATM   14  N1  UNL     1       6.895   8.372  21.620  1.00  0.00    -0.073 N 
ATOM     15  H13 UNL     1       5.955   7.978  21.616  1.00  0.00     0.274 HD
ATOM     16  H12 UNL     1       6.636   9.357  21.566  1.00  0.00     0.274 HD
ATOM     17  H11 UNL     1       7.447   8.071  20.817  1.00  0.00     0.274 HD
ENDBRANCH   1  14
TORSDOF 3
ENDMDL
MODEL 3
REMARK VINA RESULT: -5.448768685      5.995      7.463
REMARK  3 active torsions:
REMARK  status: ('A' for Active; 'I' for Inactive)
REMARK    1  A    between atoms: N1_1  and  C1_5 
REMARK    2  A    between atoms: C5_9  and  N2_10 
REMARK    3  A    between atoms: C7_13  and  C8_14 
ROOT
HETATM    1  C1  UNL     1       1.220   7.982  25.052  1.00  0.00     0.207 C 
HETATM    2  C2  UNL     1       1.515   7.082  26.245  1.00  0.00     0.035 C 
HETATM    3  C3  UNL     1       0.463   7.525  27.232  1.00  0.00     0.004 C 
HETATM    4  C4  UNL     1       0.234   8.996  26.931  1.00  0.00     0.028 C 
HETATM    5  C5  UNL     1       1.097   9.312  25.737  1.00  0.00     0.131 C 
ENDROOT
BRANCH   5   6
HETATM    6  N2  UNL     1       0.486  10.335  24.923  1.00  0.00    -0.277 N 
HETATM    7  S1  UNL     1      -1.104  10.901  25.080  1.00  0.00    -0.020 SA
HETATM    8  C6  UNL     1      -1.097  12.082  23.844  1.00  0.00     0.081 A 
HETATM    9  C7  UNL     1       0.172  11.978  23.362  1.00  0.00     0.028 A 
HETATM   10  C9  UNL     1       0.975  11.067  23.932  1.00  0.00     0.261 A 
HETATM   11  O1  UNL     1       2.191  10.878  23.566  1.00  0.00    -0.267 OA
BRANCH   9  12
HETATM   12  C8  UNL     1       0.616  12.818  22.159  1.00  0.00     0.131 C 
HETATM   13  S2  UNL     1      -0.860  13.128  21.096  1.00  0.00    -0.092 SA
ENDBRANCH   9  12
ENDBRANCH   5   6
BRANCH   1  14
HETATM   14  N1  UNL     1      -0.007   7.553  24.438  1.00  0.00    -0.073 N 
ATOM     15  H13 UNL     1      -0.825   7.996  24.855  1.00  0.00     0.274 HD
ATOM     16  H12 UNL     1      -0.116   7.916  23.491  1.00  0.00     0.274 HD
ATOM     17  H11 UNL     1      -0.055   6.536  24.473  1.00  0.00     0.274 HD
ENDBRANCH   1  14
TORSDOF 3
ENDMDL
MODEL 4
REMARK VINA RESULT: -5.366504638      2.117      2.515
REMARK  3 active torsions:
REMARK  status: ('A' for Active; 'I' for Inactive)
REMARK    1  A    between atoms: N1_1  and  C1_5 
REMARK    2  A    between atoms: C5_9  and  N2_10 
REMARK    3  A    between atoms: C7_13  and  C8_14 
ROOT
HETATM    1  C1  UNL     1       6.522  13.801  24.380  1.00  0.00     0.207 C 
HETATM    2  C2  UNL     1       6.509  14.690  25.617  1.00  0.00     0.035 C 
HETATM    3  C3  UNL     1       7.357  13.894  26.578  1.00  0.00     0.004 C 
HETATM    4  C4  UNL     1       7.117  12.441  26.205  1.00  0.00     0.028 C 
HETATM    5  C5  UNL     1       6.214  12.469  24.999  1.00  0.00     0.131 C 
ENDROOT
BRANCH   5   6
HETATM    6  N2  UNL     1       6.485  11.345  24.134  1.00  0.00    -0.277 N 
HETATM    7  S1  UNL     1       7.943  10.484  24.064  1.00  0.00    -0.020 SA
HETATM    8  C6  UNL     1       7.519   9.324  22.882  1.00  0.00     0.081 A 
HETATM    9  C7  UNL     1       6.233   9.670  22.596  1.00  0.00     0.028 A 
HETATM   10  C9  UNL     1       5.717  10.720  23.253  1.00  0.00     0.261 A 
HETATM   11  O1  UNL     1       4.517  11.139  23.071  1.00  0.00    -0.267 OA
BRANCH   9  12
HETATM   12  C8  UNL     1       5.455   8.929  21.502  1.00  0.00     0.131 C 
HETATM   13  S2  UNL     1       4.503   7.564  22.297  1.00  0.00    -0.092 SA
ENDBRANCH   9  12
ENDBRANCH   5   6
BRANCH   1  14
HETATM   14  N1  UNL     1       7.830  13.852  23.785  1.00  0.00    -0.073 N 
ATOM     15  H13 UNL     1       7.804  14.165  22.815  1.00  0.00     0.274 HD
ATOM     16  H12 UNL     1       8.401  14.609  24.163  1.00  0.00     0.274 HD
ATOM     17  H11 UNL     1       8.275  12.941  23.888  1.00  0.00     0.274 HD
ENDBRANCH   1  14
TORSDOF 3
ENDMDL
MODEL 5
REMARK VINA RESULT: -5.355426219      3.256      4.209
REMARK  3 active torsions:
REMARK  status: ('A' for Active; 'I' for Inactive)
REMARK    1  A    between atoms: N1_1  and  C1_5 
REMARK    2  A    between atoms: C5_9  and  N2_10 
REMARK    3  A    between atoms: C7_13  and  C8_14 
ROOT
HETATM    1  C1  UNL     1       7.245  12.239  25.719  1.00  0.00     0.207 C 
HETATM    2  C2  UNL     1       8.730  12.562  25.621  1.00  0.00     0.035 C 
HETATM    3  C3  UNL     1       8.703  13.987  25.124  1.00  0.00     0.004 C 
HETATM    4  C4  UNL     1       7.447  14.085  24.275  1.00  0.00     0.028 C 
HETATM    5  C5  UNL     1       6.767  12.745  24.389  1.00  0.00     0.131 C 
ENDROOT
BRANCH   5   6
HETATM    6  N2  UNL     1       5.334  12.892  24.300  1.00  0.00    -0.277 N 
HETATM    7  S1  UNL     1       4.461  14.295  24.678  1.00  0.00    -0.020 SA
HETATM    8  C6  UNL     1       2.885  13.744  24.311  1.00  0.00     0.081 A 
HETATM    9  C7  UNL     1       3.122  12.467  23.900  1.00  0.00     0.028 A 
HETATM   10  C9  UNL     1       4.395  12.044  23.903  1.00  0.00     0.261 A 
HETATM   11  O1  UNL     1       4.742  10.864  23.536  1.00  0.00    -0.267 OA
BRANCH   9  12
HETATM   12  C8  UNL     1       1.955  11.541  23.535  1.00  0.00     0.131 C 
HETATM   13  S2  UNL     1       0.392  12.516  23.639  1.00  0.00    -0.092 SA
ENDBRANCH   9  12
ENDBRANCH   5   6
BRANCH   1  14
HETATM   14  N1  UNL     1       6.684  12.963  26.827  1.00  0.00    -0.073 N 
ATOM     15  H13 UNL     1       6.048  13.701  26.528  1.00  0.00     0.274 HD
ATOM     16  H12 UNL     1       6.015  12.406  27.358  1.00  0.00     0.274 HD
ATOM     17  H11 UNL     1       7.444  13.317  27.408  1.00  0.00     0.274 HD
ENDBRANCH   1  14
TORSDOF 3
ENDMDL
