MODEL 1
REMARK VINA RESULT: -5.135302558      0.000      0.000
REMARK  4 active torsions:
REMARK  status: ('A' for Active; 'I' for Inactive)
REMARK    1  A    between atoms: O1_1  and  C1_3 
REMARK    2  A    between atoms: C2_4  and  N1_5 
REMARK    3  A    between atoms: N1_5  and  C3_7 
REMARK    4  A    between atoms: C6_11  and  C7_12 
ROOT
HETATM    1  C1  UNL     1      -0.776  10.987  24.657  1.00  0.00     0.155 C 
HETATM    2  C2  UNL     1      -0.828  12.251  23.878  1.00  0.00     0.111 C 
HETATM    3  C4  UNL     1       0.503  12.837  23.535  1.00  0.00     0.028 C 
HETATM    4  C5  UNL     1       1.540  11.828  23.141  1.00  0.00     0.009 C 
HETATM    5  C6  UNL     1       1.661  10.831  24.299  1.00  0.00     0.013 C 
HETATM    6  C8  UNL     1       0.366  10.089  24.344  1.00  0.00     0.094 C 
HETATM    7  S3  UNL     1       0.411   8.766  25.582  1.00  0.00    -0.089 SA
ENDROOT
BRANCH   2   8
HETATM    8  N1  UNL     1      -1.691  12.152  22.698  1.00  0.00    -0.383 N 
ATOM      9  H1  UNL     1      -2.438  11.462  22.629  1.00  0.00     0.160 HD
BRANCH   8  10
HETATM   10  C3  UNL     1      -1.447  12.984  21.767  1.00  0.00     0.166 C 
HETATM   11  S1  UNL     1      -1.907  14.098  20.692  1.00  0.00    -0.075 SA
ENDBRANCH   8  10
ENDBRANCH   2   8
BRANCH   1  12
HETATM   12  O1  UNL     1      -0.889  11.261  26.031  1.00  0.00    -0.392 OA
ATOM     13  H1  UNL     1      -0.160  11.797  26.319  1.00  0.00     0.210 HD
ENDBRANCH   1  12
BRANCH   5  14
HETATM   14  C7  UNL     1       2.813   9.919  23.951  1.00  0.00     0.092 C 
HETATM   15  S2  UNL     1       4.210  10.886  23.314  1.00  0.00    -0.097 SA
ENDBRANCH   5  14
TORSDOF 4
ENDMDL
MODEL 2
REMARK VINA RESULT: -5.064860919      1.189      1.246
REMARK  4 active torsions:
REMARK  status: ('A' for Active; 'I' for Inactive)
REMARK    1  A    between atoms: O1_1  and  C1_3 
REMARK    2  A    between atoms: C2_4  and  N1_5 
REMARK    3  A    between atoms: N1_5  and  C3_7 
REMARK    4  A    between atoms: C6_11  and  C7_12 
ROOT
HETATM    1  C1  UNL     1      -0.611  10.562  25.575  1.00  0.00     0.155 C 
HETATM    2  C2  UNL     1      -0.493  11.714  24.643  1.00  0.00     0.111 C 
HETATM    3  C4  UNL     1       0.889  11.983  24.144  1.00  0.00     0.028 C 
HETATM    4  C5  UNL     1       1.680  10.752  23.820  1.00  0.00     0.009 C 
HETATM    5  C6  UNL     1       1.713   9.890  25.087  1.00  0.00     0.013 C 
HETATM    6  C8  UNL     1       0.311   9.427  25.309  1.00  0.00     0.094 C 
HETATM    7  S3  UNL     1       0.215   8.272  26.703  1.00  0.00    -0.089 SA
ENDROOT
BRANCH   2   8
HETATM    8  N1  UNL     1      -1.458  11.652  23.543  1.00  0.00    -0.383 N 
ATOM      9  H1  UNL     1      -2.156  10.911  23.475  1.00  0.00     0.160 HD
BRANCH   8  10
HETATM   10  C3  UNL     1      -1.369  12.582  22.680  1.00  0.00     0.166 C 
HETATM   11  S1  UNL     1      -1.017  13.127  21.201  1.00  0.00    -0.075 SA
ENDBRANCH   8  10
ENDBRANCH   2   8
BRANCH   1  12
HETATM   12  O1  UNL     1      -0.551  11.009  26.906  1.00  0.00    -0.392 OA
ATOM     13  H1  UNL     1      -0.184  10.331  27.462  1.00  0.00     0.210 HD
ENDBRANCH   1  12
BRANCH   5  14
HETATM   14  C7  UNL     1       2.639   8.736  24.788  1.00  0.00     0.092 C 
HETATM   15  S2  UNL     1       3.577   9.059  23.268  1.00  0.00    -0.097 SA
ENDBRANCH   5  14
TORSDOF 4
ENDMDL
MODEL 3
REMARK VINA RESULT: -4.924112797      5.213      7.078
REMARK  4 active torsions:
REMARK  status: ('A' for Active; 'I' for Inactive)
REMARK    1  A    between atoms: O1_1  and  C1_3 
REMARK    2  A    between atoms: C2_4  and  N1_5 
REMARK    3  A    between atoms: N1_5  and  C3_7 
REMARK    4  A    between atoms: C6_11  and  C7_12 
ROOT
HETATM    1  C1  UNL     1       5.040   9.706  23.221  1.00  0.00     0.155 C 
HETATM    2  C2  UNL     1       6.500   9.757  22.949  1.00  0.00     0.111 C 
HETATM    3  C4  UNL     1       7.068  11.131  22.804  1.00  0.00     0.028 C 
HETATM    4  C5  UNL     1       6.513  12.134  23.769  1.00  0.00     0.009 C 
HETATM    5  C6  UNL     1       4.992  12.147  23.581  1.00  0.00     0.013 C 
HETATM    6  C8  UNL     1       4.504  10.816  24.052  1.00  0.00     0.094 C 
HETATM    7  S3  UNL     1       2.694  10.733  24.023  1.00  0.00    -0.089 SA
ENDROOT
BRANCH   2   8
HETATM    8  N1  UNL     1       7.278   8.950  23.892  1.00  0.00    -0.383 N 
ATOM      9  H1  UNL     1       7.858   9.372  24.617  1.00  0.00     0.160 HD
BRANCH   8  10
HETATM   10  C3  UNL     1       7.184   7.690  23.747  1.00  0.00     0.166 C 
HETATM   11  S1  UNL     1       7.779   6.256  23.305  1.00  0.00    -0.075 SA
ENDBRANCH   8  10
ENDBRANCH   2   8
BRANCH   1  12
HETATM   12  O1  UNL     1       4.329   9.537  22.019  1.00  0.00    -0.392 OA
ATOM     13  H1  UNL     1       3.715  10.252  21.900  1.00  0.00     0.210 HD
ENDBRANCH   1  12
BRANCH   5  14
HETATM   14  C7  UNL     1       4.470  13.268  24.447  1.00  0.00     0.092 C 
HETATM   15  S2  UNL     1       5.824  14.377  24.925  1.00  0.00    -0.097 SA
ENDBRANCH   5  14
TORSDOF 4
ENDMDL
MODEL 4
REMARK VINA RESULT: -4.870167370      5.356      7.311
REMARK  4 active torsions:
REMARK  status: ('A' for Active; 'I' for Inactive)
REMARK    1  A    between atoms: O1_1  and  C1_3 
REMARK    2  A    between atoms: C2_4  and  N1_5 
REMARK    3  A    between atoms: N1_5  and  C3_7 
REMARK    4  A    between atoms: C6_11  and  C7_12 
ROOT
HETATM    1  C1  UNL     1       4.810   9.740  23.276  1.00  0.00     0.155 C 
HETATM    2  C2  UNL     1       6.128   9.060  23.186  1.00  0.00     0.111 C 
HETATM    3  C4  UNL     1       7.302   9.974  23.055  1.00  0.00     0.028 C 
HETATM    4  C5  UNL     1       7.221  11.211  23.899  1.00  0.00     0.009 C 
HETATM    5  C6  UNL     1       5.921  11.929  23.521  1.00  0.00     0.013 C 
HETATM    6  C8  UNL     1       4.810  11.046  23.984  1.00  0.00     0.094 C 
HETATM    7  S3  UNL     1       3.197  11.835  23.732  1.00  0.00    -0.089 SA
ENDROOT
BRANCH   2   8
HETATM    8  N1  UNL     1       6.330   8.077  24.254  1.00  0.00    -0.383 N 
ATOM      9  H1  UNL     1       5.774   8.083  25.109  1.00  0.00     0.160 HD
BRANCH   8  10
HETATM   10  C3  UNL     1       7.243   7.217  24.044  1.00  0.00     0.166 C 
HETATM   11  S1  UNL     1       7.970   6.101  23.131  1.00  0.00    -0.075 SA
ENDBRANCH   8  10
ENDBRANCH   2   8
BRANCH   1  12
HETATM   12  O1  UNL     1       4.217   9.813  22.003  1.00  0.00    -0.392 OA
ATOM     13  H1  UNL     1       3.309  10.081  22.081  1.00  0.00     0.210 HD
ENDBRANCH   1  12
BRANCH   5  14
HETATM   14  C7  UNL     1       5.934  13.243  24.266  1.00  0.00     0.092 C 
HETATM   15  S2  UNL     1       7.615  13.925  24.308  1.00  0.00    -0.097 SA
ENDBRANCH   5  14
TORSDOF 4
ENDMDL
MODEL 5
REMARK VINA RESULT: -4.729953020      6.416      7.499
REMARK  4 active torsions:
REMARK  status: ('A' for Active; 'I' for Inactive)
REMARK    1  A    between atoms: O1_1  and  C1_3 
REMARK    2  A    between atoms: C2_4  and  N1_5 
REMARK    3  A    between atoms: N1_5  and  C3_7 
REMARK    4  A    between atoms: C6_11  and  C7_12 
ROOT
HETATM    1  C1  UNL     1       7.684   9.097  22.745  1.00  0.00     0.155 C 
HETATM    2  C2  UNL     1       7.081  10.455  22.766  1.00  0.00     0.111 C 
HETATM    3  C4  UNL     1       5.604  10.487  22.993  1.00  0.00     0.028 C 
HETATM    4  C5  UNL     1       5.114   9.501  24.011  1.00  0.00     0.009 C 
HETATM    5  C6  UNL     1       5.568   8.112  23.547  1.00  0.00     0.013 C 
HETATM    6  C8  UNL     1       7.057   8.104  23.657  1.00  0.00     0.094 C 
HETATM    7  S3  UNL     1       7.735   6.467  23.275  1.00  0.00    -0.089 SA
ENDROOT
BRANCH   2   8
HETATM    8  N1  UNL     1       7.783  11.371  23.667  1.00  0.00    -0.383 N 
ATOM      9  H1  UNL     1       8.646  11.110  24.142  1.00  0.00     0.160 HD
BRANCH   8  10
HETATM   10  C3  UNL     1       7.246  12.515  23.818  1.00  0.00     0.166 C 
HETATM   11  S1  UNL     1       7.159  13.970  24.512  1.00  0.00    -0.075 SA
ENDBRANCH   8  10
ENDBRANCH   2   8
BRANCH   1  12
HETATM   12  O1  UNL     1       7.782   8.631  21.423  1.00  0.00    -0.392 OA
ATOM     13  H1  UNL     1       7.037   8.930  20.915  1.00  0.00     0.210 HD
ENDBRANCH   1  12
BRANCH   5  14
HETATM   14  C7  UNL     1       4.936   7.124  24.497  1.00  0.00     0.092 C 
HETATM   15  S2  UNL     1       3.320   7.732  25.054  1.00  0.00    -0.097 SA
ENDBRANCH   5  14
TORSDOF 4
ENDMDL
