MODEL 1
REMARK VINA RESULT: -6.691381037      0.000      0.000
REMARK  4 active torsions:
REMARK  status: ('A' for Active; 'I' for Inactive)
REMARK    1  A    between atoms: C2_7  and  N3_8 
REMARK    2  A    between atoms: N3_8  and  C3_10 
REMARK    3  A    between atoms: C9_17  and  C10_18 
REMARK    4  A    between atoms: C10_18  and  N4_19 
ROOT
HETATM    1  N1  UNL     1       0.473   8.423  24.157  1.00  0.00    -0.388 N 
ATOM      2  H11 UNL     1      -0.508   8.153  24.228  1.00  0.00     0.157 HD
ATOM      3  H12 UNL     1       1.144   7.655  24.160  1.00  0.00     0.157 HD
HETATM    4  C1  UNL     1       0.849   9.677  24.065  1.00  0.00     0.092 C 
HETATM    5  N2  UNL     1       2.183  10.045  23.968  1.00  0.00    -0.326 N 
ATOM      6  H2  UNL     1       2.922   9.403  24.253  1.00  0.00     0.169 HD
HETATM    7  C2  UNL     1       2.464  11.189  23.519  1.00  0.00     0.142 C 
HETATM    8  S1  UNL     1       0.924  12.008  23.148  1.00  0.00    -0.080 SA
HETATM    9  C9  UNL     1      -0.127  10.793  24.061  1.00  0.00     0.147 C 
ENDROOT
BRANCH   7  10
HETATM   10  N3  UNL     1       3.738  11.757  23.338  1.00  0.00    -0.366 N 
ATOM     11  H3  UNL     1       4.230  11.570  22.464  1.00  0.00     0.162 HD
BRANCH  10  12
HETATM   12  C3  UNL     1       4.386  12.590  24.321  1.00  0.00     0.083 C 
HETATM   13  C4  UNL     1       3.810  13.992  24.344  1.00  0.00     0.025 C 
HETATM   14  C5  UNL     1       4.497  14.733  25.475  1.00  0.00     0.002 C 
HETATM   15  C6  UNL     1       5.951  14.912  25.073  1.00  0.00     0.000 C 
HETATM   16  C7  UNL     1       6.572  13.541  25.023  1.00  0.00     0.002 C 
HETATM   17  C8  UNL     1       5.849  12.723  23.968  1.00  0.00     0.025 C 
ENDBRANCH  10  12
ENDBRANCH   7  10
BRANCH   9  18
HETATM   18  C10 UNL     1      -0.423  11.314  25.441  1.00  0.00     0.253 C 
BRANCH  18  19
HETATM   19  N4  UNL     1      -1.809  11.265  25.782  1.00  0.00    -0.078 N 
ATOM     20  H43 UNL     1      -2.380  11.108  24.951  1.00  0.00     0.274 HD
ATOM     21  H42 UNL     1      -2.024  10.413  26.300  1.00  0.00     0.274 HD
ATOM     22  H41 UNL     1      -2.131  12.088  26.291  1.00  0.00     0.274 HD
ENDBRANCH  18  19
ENDBRANCH   9  18
TORSDOF 4
ENDMDL
MODEL 2
REMARK VINA RESULT: -6.644489550      4.246      5.393
REMARK  4 active torsions:
REMARK  status: ('A' for Active; 'I' for Inactive)
REMARK    1  A    between atoms: C2_7  and  N3_8 
REMARK    2  A    between atoms: N3_8  and  C3_10 
REMARK    3  A    between atoms: C9_17  and  C10_18 
REMARK    4  A    between atoms: C10_18  and  N4_19 
ROOT
HETATM    1  N1  UNL     1       7.962   6.980  23.880  1.00  0.00    -0.388 N 
ATOM      2  H11 UNL     1       7.776   6.119  23.367  1.00  0.00     0.157 HD
ATOM      3  H12 UNL     1       8.511   6.878  24.733  1.00  0.00     0.157 HD
HETATM    4  C1  UNL     1       7.527   8.148  23.467  1.00  0.00     0.092 C 
HETATM    5  N2  UNL     1       7.782   9.321  24.164  1.00  0.00    -0.326 N 
ATOM      6  H2  UNL     1       8.052   9.294  25.147  1.00  0.00     0.169 HD
HETATM    7  C2  UNL     1       7.672  10.421  23.557  1.00  0.00     0.142 C 
HETATM    8  S1  UNL     1       7.175  10.058  21.884  1.00  0.00    -0.080 SA
HETATM    9  C9  UNL     1       6.730   8.298  22.227  1.00  0.00     0.147 C 
ENDROOT
BRANCH   7  10
HETATM   10  N3  UNL     1       7.883  11.714  24.069  1.00  0.00    -0.366 N 
ATOM     11  H3  UNL     1       8.783  11.921  24.502  1.00  0.00     0.162 HD
BRANCH  10  12
HETATM   12  C3  UNL     1       6.894  12.763  24.014  1.00  0.00     0.083 C 
HETATM   13  C4  UNL     1       7.215  13.896  24.968  1.00  0.00     0.025 C 
HETATM   14  C5  UNL     1       6.168  14.970  24.747  1.00  0.00     0.002 C 
HETATM   15  C6  UNL     1       4.843  14.410  25.234  1.00  0.00     0.000 C 
HETATM   16  C7  UNL     1       4.481  13.267  24.322  1.00  0.00     0.002 C 
HETATM   17  C8  UNL     1       5.556  12.202  24.434  1.00  0.00     0.025 C 
ENDBRANCH  10  12
ENDBRANCH   7  10
BRANCH   9  18
HETATM   18  C10 UNL     1       5.249   8.187  22.469  1.00  0.00     0.253 C 
BRANCH  18  19
HETATM   19  N4  UNL     1       4.526   7.677  21.349  1.00  0.00    -0.078 N 
ATOM     20  H43 UNL     1       3.557   7.997  21.368  1.00  0.00     0.274 HD
ATOM     21  H42 UNL     1       4.835   8.123  20.485  1.00  0.00     0.274 HD
ATOM     22  H41 UNL     1       4.569   6.661  21.266  1.00  0.00     0.274 HD
ENDBRANCH  18  19
ENDBRANCH   9  18
TORSDOF 4
ENDMDL
MODEL 3
REMARK VINA RESULT: -6.536969726      4.278      5.222
REMARK  4 active torsions:
REMARK  status: ('A' for Active; 'I' for Inactive)
REMARK    1  A    between atoms: C2_7  and  N3_8 
REMARK    2  A    between atoms: N3_8  and  C3_10 
REMARK    3  A    between atoms: C9_17  and  C10_18 
REMARK    4  A    between atoms: C10_18  and  N4_19 
ROOT
HETATM    1  N1  UNL     1       7.603   7.037  24.284  1.00  0.00    -0.388 N 
ATOM      2  H11 UNL     1       7.445   6.082  23.961  1.00  0.00     0.157 HD
ATOM      3  H12 UNL     1       8.078   7.128  25.182  1.00  0.00     0.157 HD
HETATM    4  C1  UNL     1       7.223   8.083  23.587  1.00  0.00     0.092 C 
HETATM    5  N2  UNL     1       7.440   9.382  24.026  1.00  0.00    -0.326 N 
ATOM      6  H2  UNL     1       7.628   9.575  25.009  1.00  0.00     0.169 HD
HETATM    7  C2  UNL     1       7.399  10.319  23.182  1.00  0.00     0.142 C 
HETATM    8  S1  UNL     1       7.036   9.592  21.595  1.00  0.00    -0.080 SA
HETATM    9  C9  UNL     1       6.534   7.952  22.283  1.00  0.00     0.147 C 
ENDROOT
BRANCH   7  10
HETATM   10  N3  UNL     1       7.589  11.694  23.410  1.00  0.00    -0.366 N 
ATOM     11  H3  UNL     1       8.358  12.161  22.928  1.00  0.00     0.162 HD
BRANCH  10  12
HETATM   12  C3  UNL     1       6.755  12.479  24.287  1.00  0.00     0.083 C 
HETATM   13  C4  UNL     1       5.325  12.555  23.791  1.00  0.00     0.025 C 
HETATM   14  C5  UNL     1       4.534  13.314  24.839  1.00  0.00     0.002 C 
HETATM   15  C6  UNL     1       5.032  14.749  24.822  1.00  0.00     0.000 C 
HETATM   16  C7  UNL     1       6.461  14.729  25.298  1.00  0.00     0.002 C 
HETATM   17  C8  UNL     1       7.280  13.895  24.330  1.00  0.00     0.025 C 
ENDBRANCH  10  12
ENDBRANCH   7  10
BRANCH   9  18
HETATM   18  C10 UNL     1       5.036   7.895  22.418  1.00  0.00     0.253 C 
BRANCH  18  19
HETATM   19  N4  UNL     1       4.385   7.312  21.289  1.00  0.00    -0.078 N 
ATOM     20  H43 UNL     1       3.776   6.546  21.579  1.00  0.00     0.274 HD
ATOM     21  H42 UNL     1       3.686   7.948  20.906  1.00  0.00     0.274 HD
ATOM     22  H41 UNL     1       5.030   7.005  20.561  1.00  0.00     0.274 HD
ENDBRANCH  18  19
ENDBRANCH   9  18
TORSDOF 4
ENDMDL
MODEL 4
REMARK VINA RESULT: -6.465194327      4.758      5.867
REMARK  4 active torsions:
REMARK  status: ('A' for Active; 'I' for Inactive)
REMARK    1  A    between atoms: C2_7  and  N3_8 
REMARK    2  A    between atoms: N3_8  and  C3_10 
REMARK    3  A    between atoms: C9_17  and  C10_18 
REMARK    4  A    between atoms: C10_18  and  N4_19 
ROOT
HETATM    1  N1  UNL     1       7.928   8.742  20.881  1.00  0.00    -0.388 N 
ATOM      2  H11 UNL     1       7.620   7.915  20.370  1.00  0.00     0.157 HD
ATOM      3  H12 UNL     1       8.540   9.376  20.368  1.00  0.00     0.157 HD
HETATM    4  C1  UNL     1       7.559   8.979  22.118  1.00  0.00     0.092 C 
HETATM    5  N2  UNL     1       7.977  10.106  22.812  1.00  0.00    -0.326 N 
ATOM      6  H2  UNL     1       8.798  10.629  22.509  1.00  0.00     0.169 HD
HETATM    7  C2  UNL     1       7.321  10.469  23.826  1.00  0.00     0.142 C 
HETATM    8  S1  UNL     1       5.985   9.308  24.040  1.00  0.00    -0.080 SA
HETATM    9  C9  UNL     1       6.670   8.058  22.864  1.00  0.00     0.147 C 
ENDROOT
BRANCH   7  10
HETATM   10  N3  UNL     1       7.568  11.571  24.665  1.00  0.00    -0.366 N 
ATOM     11  H3  UNL     1       8.523  11.727  24.987  1.00  0.00     0.162 HD
BRANCH  10  12
HETATM   12  C3  UNL     1       6.543  12.491  25.094  1.00  0.00     0.083 C 
HETATM   13  C4  UNL     1       5.599  12.855  23.965  1.00  0.00     0.025 C 
HETATM   14  C5  UNL     1       4.520  13.739  24.560  1.00  0.00     0.002 C 
HETATM   15  C6  UNL     1       5.182  15.047  24.956  1.00  0.00     0.000 C 
HETATM   16  C7  UNL     1       6.143  14.739  26.074  1.00  0.00     0.002 C 
HETATM   17  C8  UNL     1       7.194  13.775  25.553  1.00  0.00     0.025 C 
ENDBRANCH  10  12
ENDBRANCH   7  10
BRANCH   9  18
HETATM   18  C10 UNL     1       7.428   7.006  23.627  1.00  0.00     0.253 C 
BRANCH  18  19
HETATM   19  N4  UNL     1       7.956   5.971  22.798  1.00  0.00    -0.078 N 
ATOM     20  H43 UNL     1       7.262   5.667  22.114  1.00  0.00     0.274 HD
ATOM     21  H42 UNL     1       8.666   6.341  22.166  1.00  0.00     0.274 HD
ATOM     22  H41 UNL     1       8.319   5.175  23.322  1.00  0.00     0.274 HD
ENDBRANCH  18  19
ENDBRANCH   9  18
TORSDOF 4
ENDMDL
MODEL 5
REMARK VINA RESULT: -6.449949915      4.143      4.806
REMARK  4 active torsions:
REMARK  status: ('A' for Active; 'I' for Inactive)
REMARK    1  A    between atoms: C2_7  and  N3_8 
REMARK    2  A    between atoms: N3_8  and  C3_10 
REMARK    3  A    between atoms: C9_17  and  C10_18 
REMARK    4  A    between atoms: C10_18  and  N4_19 
ROOT
HETATM    1  N1  UNL     1       4.949   8.382  20.129  1.00  0.00    -0.388 N 
ATOM      2  H11 UNL     1       4.299   7.715  19.714  1.00  0.00     0.157 HD
ATOM      3  H12 UNL     1       5.490   8.942  19.470  1.00  0.00     0.157 HD
HETATM    4  C1  UNL     1       5.081   8.516  21.429  1.00  0.00     0.092 C 
HETATM    5  N2  UNL     1       5.964   9.425  21.993  1.00  0.00    -0.326 N 
ATOM      6  H2  UNL     1       6.738   9.805  21.450  1.00  0.00     0.169 HD
HETATM    7  C2  UNL     1       5.790   9.771  23.194  1.00  0.00     0.142 C 
HETATM    8  S1  UNL     1       4.363   8.891  23.800  1.00  0.00    -0.080 SA
HETATM    9  C9  UNL     1       4.296   7.702  22.386  1.00  0.00     0.147 C 
ENDROOT
BRANCH   7  10
HETATM   10  N3  UNL     1       6.559  10.671  23.953  1.00  0.00    -0.366 N 
ATOM     11  H3  UNL     1       7.258  10.289  24.592  1.00  0.00     0.162 HD
BRANCH  10  12
HETATM   12  C3  UNL     1       6.414  12.104  23.877  1.00  0.00     0.083 C 
HETATM   13  C4  UNL     1       7.586  12.826  24.512  1.00  0.00     0.025 C 
HETATM   14  C5  UNL     1       7.367  14.310  24.282  1.00  0.00     0.002 C 
HETATM   15  C6  UNL     1       6.159  14.716  25.109  1.00  0.00     0.000 C 
HETATM   16  C7  UNL     1       4.962  14.013  24.525  1.00  0.00     0.002 C 
HETATM   17  C8  UNL     1       5.178  12.515  24.643  1.00  0.00     0.025 C 
ENDBRANCH  10  12
ENDBRANCH   7  10
BRANCH   9  18
HETATM   18  C10 UNL     1       4.987   6.421  22.768  1.00  0.00     0.253 C 
BRANCH  18  19
HETATM   19  N4  UNL     1       4.817   5.376  21.810  1.00  0.00    -0.078 N 
ATOM     20  H43 UNL     1       4.059   4.752  22.088  1.00  0.00     0.274 HD
ATOM     21  H42 UNL     1       4.425   5.742  20.941  1.00  0.00     0.274 HD
ATOM     22  H41 UNL     1       5.670   4.850  21.627  1.00  0.00     0.274 HD
ENDBRANCH  18  19
ENDBRANCH   9  18
TORSDOF 4
ENDMDL
