MODEL 1
REMARK VINA RESULT: -6.960320395      0.000      0.000
REMARK  3 active torsions:
REMARK  status: ('A' for Active; 'I' for Inactive)
REMARK    1  A    between atoms: C8_8  and  C9_9 
REMARK    2  A    between atoms: C9_9  and  O1_10 
REMARK    3  A    between atoms: C10_13  and  N1_14 
ROOT
HETATM    1  N1  UNL     1       3.471  12.723  24.196  1.00  0.00    -0.273 N 
ATOM      2  H1  UNL     1       3.314  13.393  24.948  1.00  0.00     0.180 HD
HETATM    3  C11 UNL     1       2.352  12.317  23.443  1.00  0.00     0.183 C 
HETATM    4  N2  UNL     1       1.432  11.961  22.797  1.00  0.00    -0.172 NA
ENDROOT
BRANCH   1   5
HETATM    5  C10 UNL     1       4.775  12.280  23.993  1.00  0.00     0.166 A 
HETATM    6  O2  UNL     1       5.127  11.286  23.142  1.00  0.00    -0.294 OA
HETATM    7  C8  UNL     1       6.403  11.106  23.158  1.00  0.00     0.086 A 
HETATM    8  C7  UNL     1       6.909  12.004  24.063  1.00  0.00    -0.010 A 
HETATM    9  C6  UNL     1       8.293  11.937  24.716  1.00  0.00     0.074 C 
HETATM   10  C12 UNL     1       5.928  12.773  24.576  1.00  0.00     0.037 A 
HETATM   11  C5  UNL     1       8.368  13.089  25.675  1.00  0.00     0.127 C 
HETATM   12  C4  UNL     1       7.534  12.790  26.894  1.00  0.00     0.035 C 
HETATM   13  O3  UNL     1       7.738  14.147  25.016  1.00  0.00    -0.370 OA
HETATM   14  C3  UNL     1       6.426  13.864  26.783  1.00  0.00     0.045 C 
HETATM   15  C2  UNL     1       6.330  13.982  25.332  1.00  0.00     0.089 C 
HETATM   16  C1  UNL     1       5.688  15.239  24.766  1.00  0.00     0.051 C 
BRANCH   7  17
HETATM   17  C9  UNL     1       7.260  10.164  22.357  1.00  0.00     0.229 C 
BRANCH  17  18
HETATM   18  O1  UNL     1       7.349   8.974  22.996  1.00  0.00    -0.394 OA
ATOM     19  H1  UNL     1       8.247   8.665  22.972  1.00  0.00     0.209 HD
ENDBRANCH  17  18
ENDBRANCH   7  17
ENDBRANCH   1   5
TORSDOF 3
ENDMDL
MODEL 2
REMARK VINA RESULT: -6.720006040      2.947      5.207
REMARK  3 active torsions:
REMARK  status: ('A' for Active; 'I' for Inactive)
REMARK    1  A    between atoms: C8_8  and  C9_9 
REMARK    2  A    between atoms: C9_9  and  O1_10 
REMARK    3  A    between atoms: C10_13  and  N1_14 
ROOT
HETATM    1  N1  UNL     1       7.959   8.790  23.388  1.00  0.00    -0.273 N 
ATOM      2  H1  UNL     1       8.829   8.804  22.856  1.00  0.00     0.180 HD
HETATM    3  C11 UNL     1       7.534   7.550  23.906  1.00  0.00     0.183 C 
HETATM    4  N2  UNL     1       7.155   6.526  24.350  1.00  0.00    -0.172 NA
ENDROOT
BRANCH   1   5
HETATM    5  C10 UNL     1       7.284   9.996  23.545  1.00  0.00     0.166 A 
HETATM    6  O2  UNL     1       7.874  11.172  23.873  1.00  0.00    -0.294 OA
HETATM    7  C8  UNL     1       7.000  12.117  23.935  1.00  0.00     0.086 A 
HETATM    8  C7  UNL     1       5.788  11.541  23.652  1.00  0.00    -0.010 A 
HETATM    9  C6  UNL     1       4.413  12.142  23.964  1.00  0.00     0.074 C 
HETATM   10  C12 UNL     1       5.932  10.230  23.371  1.00  0.00     0.037 A 
HETATM   11  C5  UNL     1       3.396  11.126  23.532  1.00  0.00     0.127 C 
HETATM   12  C4  UNL     1       3.367   9.986  24.518  1.00  0.00     0.035 C 
HETATM   13  O3  UNL     1       3.895  10.603  22.338  1.00  0.00    -0.370 OA
HETATM   14  C3  UNL     1       3.877   8.812  23.648  1.00  0.00     0.045 C 
HETATM   15  C2  UNL     1       4.781   9.530  22.755  1.00  0.00     0.089 C 
HETATM   16  C1  UNL     1       5.166   8.856  21.448  1.00  0.00     0.051 C 
BRANCH   7  17
HETATM   17  C9  UNL     1       7.176  13.585  24.209  1.00  0.00     0.229 C 
BRANCH  17  18
HETATM   18  O1  UNL     1       8.423  13.969  23.848  1.00  0.00    -0.394 OA
ATOM     19  H1  UNL     1       8.462  14.917  23.792  1.00  0.00     0.209 HD
ENDBRANCH  17  18
ENDBRANCH   7  17
ENDBRANCH   1   5
TORSDOF 3
ENDMDL
MODEL 3
REMARK VINA RESULT: -6.695088633      1.690      4.082
REMARK  3 active torsions:
REMARK  status: ('A' for Active; 'I' for Inactive)
REMARK    1  A    between atoms: C8_8  and  C9_9 
REMARK    2  A    between atoms: C9_9  and  O1_10 
REMARK    3  A    between atoms: C10_13  and  N1_14 
ROOT
HETATM    1  N1  UNL     1       2.425  11.552  23.231  1.00  0.00    -0.273 N 
ATOM      2  H1  UNL     1       2.349  11.050  22.347  1.00  0.00     0.180 HD
HETATM    3  C11 UNL     1       1.241  11.757  23.966  1.00  0.00     0.183 C 
HETATM    4  N2  UNL     1       0.265  11.942  24.601  1.00  0.00    -0.172 NA
ENDROOT
BRANCH   1   5
HETATM    5  C10 UNL     1       3.691  11.982  23.616  1.00  0.00     0.166 A 
HETATM    6  O2  UNL     1       3.967  13.211  24.119  1.00  0.00    -0.294 OA
HETATM    7  C8  UNL     1       5.221  13.316  24.396  1.00  0.00     0.086 A 
HETATM    8  C7  UNL     1       5.795  12.119  24.050  1.00  0.00    -0.010 A 
HETATM    9  C6  UNL     1       7.291  11.871  23.830  1.00  0.00     0.074 C 
HETATM   10  C12 UNL     1       4.867  11.255  23.594  1.00  0.00     0.037 A 
HETATM   11  C5  UNL     1       7.428  10.438  23.407  1.00  0.00     0.127 C 
HETATM   12  C4  UNL     1       6.966  10.284  21.981  1.00  0.00     0.035 C 
HETATM   13  O3  UNL     1       6.511   9.741  24.196  1.00  0.00    -0.370 OA
HETATM   14  C3  UNL     1       5.720   9.382  22.155  1.00  0.00     0.045 C 
HETATM   15  C2  UNL     1       5.260   9.833  23.464  1.00  0.00     0.089 C 
HETATM   16  C1  UNL     1       4.325   8.917  24.238  1.00  0.00     0.051 C 
BRANCH   7  17
HETATM   17  C9  UNL     1       5.986  14.455  25.013  1.00  0.00     0.229 C 
BRANCH  17  18
HETATM   18  O1  UNL     1       5.132  15.454  25.339  1.00  0.00    -0.394 OA
ATOM     19  H1  UNL     1       4.997  16.016  24.585  1.00  0.00     0.209 HD
ENDBRANCH  17  18
ENDBRANCH   7  17
ENDBRANCH   1   5
TORSDOF 3
ENDMDL
MODEL 4
REMARK VINA RESULT: -6.689132490      2.307      3.916
REMARK  3 active torsions:
REMARK  status: ('A' for Active; 'I' for Inactive)
REMARK    1  A    between atoms: C8_8  and  C9_9 
REMARK    2  A    between atoms: C9_9  and  O1_10 
REMARK    3  A    between atoms: C10_13  and  N1_14 
ROOT
HETATM    1  N1  UNL     1       7.183  10.424  22.529  1.00  0.00    -0.273 N 
ATOM      2  H1  UNL     1       7.803  10.936  21.901  1.00  0.00     0.180 HD
HETATM    3  C11 UNL     1       7.440   9.052  22.718  1.00  0.00     0.183 C 
HETATM    4  N2  UNL     1       7.633   7.902  22.894  1.00  0.00    -0.172 NA
ENDROOT
BRANCH   1   5
HETATM    5  C10 UNL     1       6.149  11.134  23.130  1.00  0.00     0.166 A 
HETATM    6  O2  UNL     1       4.831  10.878  22.949  1.00  0.00    -0.294 OA
HETATM    7  C8  UNL     1       4.110  11.690  23.643  1.00  0.00     0.086 A 
HETATM    8  C7  UNL     1       4.985  12.522  24.294  1.00  0.00    -0.010 A 
HETATM    9  C6  UNL     1       4.636  13.873  24.928  1.00  0.00     0.074 C 
HETATM   10  C12 UNL     1       6.261  12.183  24.024  1.00  0.00     0.037 A 
HETATM   11  C5  UNL     1       5.921  14.439  25.459  1.00  0.00     0.127 C 
HETATM   12  C4  UNL     1       6.764  14.943  24.316  1.00  0.00     0.035 C 
HETATM   13  O3  UNL     1       6.600  13.345  25.998  1.00  0.00    -0.370 OA
HETATM   14  C3  UNL     1       7.977  13.983  24.379  1.00  0.00     0.045 C 
HETATM   15  C2  UNL     1       7.322  12.776  24.872  1.00  0.00     0.089 C 
HETATM   16  C1  UNL     1       8.196  11.709  25.510  1.00  0.00     0.051 C 
BRANCH   7  17
HETATM   17  C9  UNL     1       2.617  11.765  23.808  1.00  0.00     0.229 C 
BRANCH  17  18
HETATM   18  O1  UNL     1       2.020  11.677  22.595  1.00  0.00    -0.394 OA
ATOM     19  H1  UNL     1       2.100  10.790  22.265  1.00  0.00     0.209 HD
ENDBRANCH  17  18
ENDBRANCH   7  17
ENDBRANCH   1   5
TORSDOF 3
ENDMDL
MODEL 5
REMARK VINA RESULT: -6.535753358      2.502      5.207
REMARK  3 active torsions:
REMARK  status: ('A' for Active; 'I' for Inactive)
REMARK    1  A    between atoms: C8_8  and  C9_9 
REMARK    2  A    between atoms: C9_9  and  O1_10 
REMARK    3  A    between atoms: C10_13  and  N1_14 
ROOT
HETATM    1  N1  UNL     1       6.747  12.920  24.450  1.00  0.00    -0.273 N 
ATOM      2  H1  UNL     1       7.495  12.717  23.787  1.00  0.00     0.180 HD
HETATM    3  C11 UNL     1       7.086  13.644  25.610  1.00  0.00     0.183 C 
HETATM    4  N2  UNL     1       7.342  14.248  26.589  1.00  0.00    -0.172 NA
ENDROOT
BRANCH   1   5
HETATM    5  C10 UNL     1       5.472  12.460  24.138  1.00  0.00     0.166 A 
HETATM    6  O2  UNL     1       4.340  13.200  24.237  1.00  0.00    -0.294 OA
HETATM    7  C8  UNL     1       3.314  12.513  23.868  1.00  0.00     0.086 A 
HETATM    8  C7  UNL     1       3.784  11.270  23.528  1.00  0.00    -0.010 A 
HETATM    9  C6  UNL     1       2.942   9.997  23.393  1.00  0.00     0.074 C 
HETATM   10  C12 UNL     1       5.126  11.213  23.651  1.00  0.00     0.037 A 
HETATM   11  C5  UNL     1       3.898   8.886  23.071  1.00  0.00     0.127 C 
HETATM   12  C4  UNL     1       4.673   8.508  24.307  1.00  0.00     0.035 C 
HETATM   13  O3  UNL     1       4.818   9.448  22.185  1.00  0.00    -0.370 OA
HETATM   14  C3  UNL     1       6.111   8.917  23.907  1.00  0.00     0.045 C 
HETATM   15  C2  UNL     1       5.821  10.055  23.042  1.00  0.00     0.089 C 
HETATM   16  C1  UNL     1       6.903  10.497  22.069  1.00  0.00     0.051 C 
BRANCH   7  17
HETATM   17  C9  UNL     1       1.868  12.911  23.757  1.00  0.00     0.229 C 
BRANCH  17  18
HETATM   18  O1  UNL     1       1.739  14.234  24.013  1.00  0.00    -0.394 OA
ATOM     19  H1  UNL     1       1.038  14.595  23.484  1.00  0.00     0.209 HD
ENDBRANCH  17  18
ENDBRANCH   7  17
ENDBRANCH   1   5
TORSDOF 3
ENDMDL
