MODEL 1
REMARK VINA RESULT: -5.186961025      0.000      0.000
REMARK  5 active torsions:
REMARK  status: ('A' for Active; 'I' for Inactive)
REMARK    1  A    between atoms: C2_2  and  C3_3 
REMARK    2  A    between atoms: C3_3  and  N1_4 
REMARK    3  A    between atoms: C3_3  and  C4_8 
REMARK    4  A    between atoms: C3_3  and  C6_12 
REMARK    5  A    between atoms: C4_8  and  O2_10 
ROOT
HETATM    1  C3  UNL     1      -5.202   2.606  15.600  1.00  0.00     0.230 C 
ENDROOT
BRANCH   1   2
HETATM    2  C2  UNL     1      -5.773   3.044  14.296  1.00  0.00     0.047 C 
HETATM    3  C1  UNL     1      -5.322   4.333  13.737  1.00  0.00     0.008 C 
ENDBRANCH   1   2
BRANCH   1   4
HETATM    4  N1  UNL     1      -4.197   3.646  15.915  1.00  0.00    -0.059 N 
ATOM      5  H13 UNL     1      -4.419   4.210  16.735  1.00  0.00     0.275 HD
ATOM      6  H12 UNL     1      -3.312   3.282  16.268  1.00  0.00     0.275 HD
ATOM      7  H11 UNL     1      -4.116   4.179  15.048  1.00  0.00     0.275 HD
ENDBRANCH   1   4
BRANCH   1   8
HETATM    8  C4  UNL     1      -4.453   1.333  15.510  1.00  0.00     0.296 C 
HETATM    9  O1  UNL     1      -3.468   1.124  16.241  1.00  0.00    -0.262 OA
BRANCH   8  10
HETATM   10  O2  UNL     1      -4.814   0.334  14.621  1.00  0.00    -0.324 OA
HETATM   11  C5  UNL     1      -4.183   0.172  13.361  1.00  0.00     0.213 C 
ENDBRANCH   8  10
ENDBRANCH   1   8
BRANCH   1  12
HETATM   12  C6  UNL     1      -6.183   2.551  16.735  1.00  0.00     0.072 C 
HETATM   13  C7  UNL     1      -7.340   1.617  16.454  1.00  0.00     0.035 C 
HETATM   14  C8  UNL     1      -5.552   2.121  18.033  1.00  0.00     0.035 C 
HETATM   15 CL1  UNL     1      -6.893   4.163  16.975  1.00  0.00    -0.117 Cl
ENDBRANCH   1  12
TORSDOF 5
ENDMDL
MODEL 2
REMARK VINA RESULT: -4.971138930      2.447      3.551
REMARK  5 active torsions:
REMARK  status: ('A' for Active; 'I' for Inactive)
REMARK    1  A    between atoms: C2_2  and  C3_3 
REMARK    2  A    between atoms: C3_3  and  N1_4 
REMARK    3  A    between atoms: C3_3  and  C4_8 
REMARK    4  A    between atoms: C3_3  and  C6_12 
REMARK    5  A    between atoms: C4_8  and  O2_10 
ROOT
HETATM    1  C3  UNL     1      -4.410   3.056  14.509  1.00  0.00     0.230 C 
ENDROOT
BRANCH   1   2
HETATM    2  C2  UNL     1      -3.562   4.214  14.907  1.00  0.00     0.047 C 
HETATM    3  C1  UNL     1      -4.127   5.570  14.773  1.00  0.00     0.008 C 
ENDBRANCH   1   2
BRANCH   1   4
HETATM    4  N1  UNL     1      -5.789   3.592  14.562  1.00  0.00    -0.059 N 
ATOM      5  H13 UNL     1      -5.855   4.548  14.914  1.00  0.00     0.275 HD
ATOM      6  H12 UNL     1      -6.202   3.782  13.649  1.00  0.00     0.275 HD
ATOM      7  H11 UNL     1      -6.297   2.904  15.118  1.00  0.00     0.275 HD
ENDBRANCH   1   4
BRANCH   1   8
HETATM    8  C4  UNL     1      -4.371   1.943  15.483  1.00  0.00     0.296 C 
HETATM    9  O1  UNL     1      -3.325   1.677  16.103  1.00  0.00    -0.262 OA
BRANCH   8  10
HETATM   10  O2  UNL     1      -5.485   1.160  15.743  1.00  0.00    -0.324 OA
HETATM   11  C5  UNL     1      -6.030   1.021  17.045  1.00  0.00     0.213 C 
ENDBRANCH   8  10
ENDBRANCH   1   8
BRANCH   1  12
HETATM   12  C6  UNL     1      -4.167   2.539  13.121  1.00  0.00     0.072 C 
HETATM   13  C7  UNL     1      -5.248   2.963  12.150  1.00  0.00     0.035 C 
HETATM   14  C8  UNL     1      -2.844   2.981  12.555  1.00  0.00     0.035 C 
HETATM   15 CL1  UNL     1      -4.190   0.762  13.146  1.00  0.00    -0.117 Cl
ENDBRANCH   1  12
TORSDOF 5
ENDMDL
MODEL 3
REMARK VINA RESULT: -4.919838222      1.324      2.850
REMARK  5 active torsions:
REMARK  status: ('A' for Active; 'I' for Inactive)
REMARK    1  A    between atoms: C2_2  and  C3_3 
REMARK    2  A    between atoms: C3_3  and  N1_4 
REMARK    3  A    between atoms: C3_3  and  C4_8 
REMARK    4  A    between atoms: C3_3  and  C6_12 
REMARK    5  A    between atoms: C4_8  and  O2_10 
ROOT
HETATM    1  C3  UNL     1      -5.458   2.600  16.051  1.00  0.00     0.230 C 
ENDROOT
BRANCH   1   2
HETATM    2  C2  UNL     1      -5.417   2.967  17.494  1.00  0.00     0.047 C 
HETATM    3  C1  UNL     1      -6.219   2.169  18.439  1.00  0.00     0.008 C 
ENDBRANCH   1   2
BRANCH   1   4
HETATM    4  N1  UNL     1      -6.823   2.058  15.862  1.00  0.00    -0.059 N 
ATOM      5  H13 UNL     1      -7.270   1.736  16.721  1.00  0.00     0.275 HD
ATOM      6  H12 UNL     1      -7.526   2.760  15.629  1.00  0.00     0.275 HD
ATOM      7  H11 UNL     1      -6.702   1.333  15.154  1.00  0.00     0.275 HD
ENDBRANCH   1   4
BRANCH   1   8
HETATM    8  C4  UNL     1      -4.534   1.499  15.703  1.00  0.00     0.296 C 
HETATM    9  O1  UNL     1      -3.444   1.375  16.291  1.00  0.00    -0.262 OA
BRANCH   8  10
HETATM   10  O2  UNL     1      -4.840   0.571  14.720  1.00  0.00    -0.324 OA
HETATM   11  C5  UNL     1      -4.116   0.483  13.504  1.00  0.00     0.213 C 
ENDBRANCH   8  10
ENDBRANCH   1   8
BRANCH   1  12
HETATM   12  C6  UNL     1      -5.280   3.747  15.099  1.00  0.00     0.072 C 
HETATM   13  C7  UNL     1      -3.825   4.113  14.902  1.00  0.00     0.035 C 
HETATM   14  C8  UNL     1      -5.873   3.478  13.741  1.00  0.00     0.035 C 
HETATM   15 CL1  UNL     1      -6.069   5.192  15.768  1.00  0.00    -0.117 Cl
ENDBRANCH   1  12
TORSDOF 5
ENDMDL
MODEL 4
REMARK VINA RESULT: -4.908750963      1.669      2.707
REMARK  5 active torsions:
REMARK  status: ('A' for Active; 'I' for Inactive)
REMARK    1  A    between atoms: C2_2  and  C3_3 
REMARK    2  A    between atoms: C3_3  and  N1_4 
REMARK    3  A    between atoms: C3_3  and  C4_8 
REMARK    4  A    between atoms: C3_3  and  C6_12 
REMARK    5  A    between atoms: C4_8  and  O2_10 
ROOT
HETATM    1  C3  UNL     1      -4.505   2.978  14.389  1.00  0.00     0.230 C 
ENDROOT
BRANCH   1   2
HETATM    2  C2  UNL     1      -4.701   2.319  13.068  1.00  0.00     0.047 C 
HETATM    3  C1  UNL     1      -3.946   1.084  12.787  1.00  0.00     0.008 C 
ENDBRANCH   1   2
BRANCH   1   4
HETATM    4  N1  UNL     1      -3.133   3.529  14.311  1.00  0.00    -0.059 N 
ATOM      5  H13 UNL     1      -2.818   3.995  15.162  1.00  0.00     0.275 HD
ATOM      6  H12 UNL     1      -2.397   2.824  14.294  1.00  0.00     0.275 HD
ATOM      7  H11 UNL     1      -3.158   4.131  13.488  1.00  0.00     0.275 HD
ENDBRANCH   1   4
BRANCH   1   8
HETATM    8  C4  UNL     1      -4.494   2.024  15.520  1.00  0.00     0.296 C 
HETATM    9  O1  UNL     1      -3.500   1.933  16.264  1.00  0.00    -0.262 OA
BRANCH   8  10
HETATM   10  O2  UNL     1      -5.576   1.204  15.795  1.00  0.00    -0.324 OA
HETATM   11  C5  UNL     1      -5.915   0.808  17.114  1.00  0.00     0.213 C 
ENDBRANCH   8  10
ENDBRANCH   1   8
BRANCH   1  12
HETATM   12  C6  UNL     1      -5.444   4.113  14.678  1.00  0.00     0.072 C 
HETATM   13  C7  UNL     1      -6.441   4.336  13.561  1.00  0.00     0.035 C 
HETATM   14  C8  UNL     1      -6.221   3.920  15.954  1.00  0.00     0.035 C 
HETATM   15 CL1  UNL     1      -4.514   5.621  14.822  1.00  0.00    -0.117 Cl
ENDBRANCH   1  12
TORSDOF 5
ENDMDL
MODEL 5
REMARK VINA RESULT: -4.888040564      1.322      3.001
REMARK  5 active torsions:
REMARK  status: ('A' for Active; 'I' for Inactive)
REMARK    1  A    between atoms: C2_2  and  C3_3 
REMARK    2  A    between atoms: C3_3  and  N1_4 
REMARK    3  A    between atoms: C3_3  and  C4_8 
REMARK    4  A    between atoms: C3_3  and  C6_12 
REMARK    5  A    between atoms: C4_8  and  O2_10 
ROOT
HETATM    1  C3  UNL     1      -4.701   3.127  14.782  1.00  0.00     0.230 C 
ENDROOT
BRANCH   1   2
HETATM    2  C2  UNL     1      -4.592   2.458  13.456  1.00  0.00     0.047 C 
HETATM    3  C1  UNL     1      -4.065   1.081  13.412  1.00  0.00     0.008 C 
ENDBRANCH   1   2
BRANCH   1   4
HETATM    4  N1  UNL     1      -3.308   3.521  15.096  1.00  0.00    -0.059 N 
ATOM      5  H13 UNL     1      -2.626   3.252  14.387  1.00  0.00     0.275 HD
ATOM      6  H12 UNL     1      -3.133   4.524  15.043  1.00  0.00     0.275 HD
ATOM      7  H11 UNL     1      -3.141   3.113  16.016  1.00  0.00     0.275 HD
ENDBRANCH   1   4
BRANCH   1   8
HETATM    8  C4  UNL     1      -5.115   2.209  15.866  1.00  0.00     0.296 C 
HETATM    9  O1  UNL     1      -4.383   2.023  16.855  1.00  0.00    -0.262 OA
BRANCH   8  10
HETATM   10  O2  UNL     1      -6.322   1.528  15.826  1.00  0.00    -0.324 OA
HETATM   11  C5  UNL     1      -7.096   1.282  16.988  1.00  0.00     0.213 C 
ENDBRANCH   8  10
ENDBRANCH   1   8
BRANCH   1  12
HETATM   12  C6  UNL     1      -5.547   4.366  14.800  1.00  0.00     0.072 C 
HETATM   13  C7  UNL     1      -4.720   5.632  14.734  1.00  0.00     0.035 C 
HETATM   14  C8  UNL     1      -6.544   4.411  13.672  1.00  0.00     0.035 C 
HETATM   15 CL1  UNL     1      -6.446   4.439  16.332  1.00  0.00    -0.117 Cl
ENDBRANCH   1  12
TORSDOF 5
ENDMDL
