MODEL 1
REMARK VINA RESULT: -5.545644432      0.000      0.000
REMARK  4 active torsions:
REMARK  status: ('A' for Active; 'I' for Inactive)
REMARK    1  A    between atoms: C2_2  and  N1_4 
REMARK    2  A    between atoms: C3_6  and  O1_8 
REMARK    3  A    between atoms: O1_8  and  C5_9 
REMARK    4  A    between atoms: C5_9  and  C6_10 
ROOT
HETATM    1  N1  UNL     1      -3.588   1.934  13.104  1.00  0.00    -0.335 N 
ATOM      2  H1  UNL     1      -3.506   2.565  13.902  1.00  0.00     0.168 HD
HETATM    3  C3  UNL     1      -4.137   0.784  13.231  1.00  0.00     0.115 C 
HETATM    4  C4  UNL     1      -4.241  -0.101  12.065  1.00  0.00     0.097 C 
ENDROOT
BRANCH   3   5
HETATM    5  O1  UNL     1      -4.595   0.476  14.502  1.00  0.00    -0.329 OA
BRANCH   5   6
HETATM    6  C5  UNL     1      -4.468   1.328  15.598  1.00  0.00     0.290 C 
BRANCH   6   7
HETATM    7  C6  UNL     1      -5.484   1.050  16.646  1.00  0.00     0.198 C 
HETATM    8  O2  UNL     1      -5.073   0.985  17.843  1.00  0.00    -0.646 OA
HETATM    9  O3  UNL     1      -6.827   0.868  16.345  1.00  0.00    -0.646 OA
ENDBRANCH   6   7
ENDBRANCH   5   6
ENDBRANCH   3   5
BRANCH   1  10
HETATM   10  C2  UNL     1      -3.098   2.310  11.830  1.00  0.00     0.075 C 
HETATM   11  C1  UNL     1      -1.751   1.810  11.431  1.00  0.00     0.081 C 
HETATM   12  S1  UNL     1      -3.918   3.248  10.790  1.00  0.00    -0.066 SA
ENDBRANCH   1  10
TORSDOF 4
ENDMDL
MODEL 2
REMARK VINA RESULT: -5.537116511      1.021      1.270
REMARK  4 active torsions:
REMARK  status: ('A' for Active; 'I' for Inactive)
REMARK    1  A    between atoms: C2_2  and  N1_4 
REMARK    2  A    between atoms: C3_6  and  O1_8 
REMARK    3  A    between atoms: O1_8  and  C5_9 
REMARK    4  A    between atoms: C5_9  and  C6_10 
ROOT
HETATM    1  N1  UNL     1      -3.225   2.149  12.903  1.00  0.00    -0.335 N 
ATOM      2  H1  UNL     1      -2.962   2.582  13.789  1.00  0.00     0.168 HD
HETATM    3  C3  UNL     1      -4.059   1.177  12.870  1.00  0.00     0.115 C 
HETATM    4  C4  UNL     1      -4.418   0.576  11.581  1.00  0.00     0.097 C 
ENDROOT
BRANCH   3   5
HETATM    5  O1  UNL     1      -4.556   0.773  14.098  1.00  0.00    -0.329 OA
BRANCH   5   6
HETATM    6  C5  UNL     1      -5.047   1.652  15.062  1.00  0.00     0.290 C 
BRANCH   6   7
HETATM    7  C6  UNL     1      -4.287   1.572  16.336  1.00  0.00     0.198 C 
HETATM    8  O2  UNL     1      -3.050   1.842  16.286  1.00  0.00    -0.646 OA
HETATM    9  O3  UNL     1      -4.888   1.217  17.536  1.00  0.00    -0.646 OA
ENDBRANCH   6   7
ENDBRANCH   5   6
ENDBRANCH   3   5
BRANCH   1  10
HETATM   10  C2  UNL     1      -2.679   2.610  11.681  1.00  0.00     0.075 C 
HETATM   11  C1  UNL     1      -1.461   1.922  11.165  1.00  0.00     0.081 C 
HETATM   12  S1  UNL     1      -3.302   3.836  10.821  1.00  0.00    -0.066 SA
ENDBRANCH   1  10
TORSDOF 4
ENDMDL
MODEL 3
REMARK VINA RESULT: -5.521426468      2.016      2.595
REMARK  4 active torsions:
REMARK  status: ('A' for Active; 'I' for Inactive)
REMARK    1  A    between atoms: C2_2  and  N1_4 
REMARK    2  A    between atoms: C3_6  and  O1_8 
REMARK    3  A    between atoms: O1_8  and  C5_9 
REMARK    4  A    between atoms: C5_9  and  C6_10 
ROOT
HETATM    1  N1  UNL     1      -4.232   0.989  12.470  1.00  0.00    -0.335 N 
ATOM      2  H1  UNL     1      -5.000   0.844  13.126  1.00  0.00     0.168 HD
HETATM    3  C3  UNL     1      -3.399   1.948  12.637  1.00  0.00     0.115 C 
HETATM    4  C4  UNL     1      -2.304   2.130  11.677  1.00  0.00     0.097 C 
ENDROOT
BRANCH   3   5
HETATM    5  O1  UNL     1      -3.620   2.748  13.746  1.00  0.00    -0.329 OA
BRANCH   5   6
HETATM    6  C5  UNL     1      -4.589   2.480  14.712  1.00  0.00     0.290 C 
BRANCH   6   7
HETATM    7  C6  UNL     1      -4.248   1.293  15.537  1.00  0.00     0.198 C 
HETATM    8  O2  UNL     1      -3.353   1.444  16.421  1.00  0.00    -0.646 OA
HETATM    9  O3  UNL     1      -4.871   0.064  15.361  1.00  0.00    -0.646 OA
ENDBRANCH   6   7
ENDBRANCH   5   6
ENDBRANCH   3   5
BRANCH   1  10
HETATM   10  C2  UNL     1      -4.061   0.135  11.353  1.00  0.00     0.075 C 
HETATM   11  C1  UNL     1      -4.640   0.575  10.051  1.00  0.00     0.081 C 
HETATM   12  S1  UNL     1      -3.278  -1.284  11.417  1.00  0.00    -0.066 SA
ENDBRANCH   1  10
TORSDOF 4
ENDMDL
MODEL 4
REMARK VINA RESULT: -5.516074129      0.932      1.141
REMARK  4 active torsions:
REMARK  status: ('A' for Active; 'I' for Inactive)
REMARK    1  A    between atoms: C2_2  and  N1_4 
REMARK    2  A    between atoms: C3_6  and  O1_8 
REMARK    3  A    between atoms: O1_8  and  C5_9 
REMARK    4  A    between atoms: C5_9  and  C6_10 
ROOT
HETATM    1  N1  UNL     1      -3.674   1.925  13.016  1.00  0.00    -0.335 N 
ATOM      2  H1  UNL     1      -3.669   2.601  13.780  1.00  0.00     0.168 HD
HETATM    3  C3  UNL     1      -4.132   0.741  13.189  1.00  0.00     0.115 C 
HETATM    4  C4  UNL     1      -4.126  -0.208  12.070  1.00  0.00     0.097 C 
ENDROOT
BRANCH   3   5
HETATM    5  O1  UNL     1      -4.606   0.463  14.461  1.00  0.00    -0.329 OA
BRANCH   5   6
HETATM    6  C5  UNL     1      -4.445   1.317  15.550  1.00  0.00     0.290 C 
BRANCH   6   7
HETATM    7  C6  UNL     1      -5.459   1.073  16.610  1.00  0.00     0.198 C 
HETATM    8  O2  UNL     1      -5.037   0.992  17.801  1.00  0.00    -0.646 OA
HETATM    9  O3  UNL     1      -6.811   0.938  16.324  1.00  0.00    -0.646 OA
ENDBRANCH   6   7
ENDBRANCH   5   6
ENDBRANCH   3   5
BRANCH   1  10
HETATM   10  C2  UNL     1      -3.173   2.273  11.737  1.00  0.00     0.075 C 
HETATM   11  C1  UNL     1      -4.097   2.974  10.800  1.00  0.00     0.081 C 
HETATM   12  S1  UNL     1      -1.662   1.949  11.243  1.00  0.00    -0.066 SA
ENDBRANCH   1  10
TORSDOF 4
ENDMDL
MODEL 5
REMARK VINA RESULT: -5.452399092      1.375      1.725
REMARK  4 active torsions:
REMARK  status: ('A' for Active; 'I' for Inactive)
REMARK    1  A    between atoms: C2_2  and  N1_4 
REMARK    2  A    between atoms: C3_6  and  O1_8 
REMARK    3  A    between atoms: O1_8  and  C5_9 
REMARK    4  A    between atoms: C5_9  and  C6_10 
ROOT
HETATM    1  N1  UNL     1      -3.953   0.394  12.725  1.00  0.00    -0.335 N 
ATOM      2  H1  UNL     1      -3.974  -0.603  12.940  1.00  0.00     0.168 HD
HETATM    3  C3  UNL     1      -4.320   1.262  13.594  1.00  0.00     0.115 C 
HETATM    4  C4  UNL     1      -4.276   2.689  13.255  1.00  0.00     0.097 C 
ENDROOT
BRANCH   3   5
HETATM    5  O1  UNL     1      -4.736   0.750  14.812  1.00  0.00    -0.329 OA
BRANCH   5   6
HETATM    6  C5  UNL     1      -4.687   1.462  16.009  1.00  0.00     0.290 C 
BRANCH   6   7
HETATM    7  C6  UNL     1      -5.734   1.024  16.968  1.00  0.00     0.198 C 
HETATM    8  O2  UNL     1      -5.364   0.795  18.158  1.00  0.00    -0.646 OA
HETATM    9  O3  UNL     1      -7.062   0.868  16.594  1.00  0.00    -0.646 OA
ENDBRANCH   6   7
ENDBRANCH   5   6
ENDBRANCH   3   5
BRANCH   1  10
HETATM   10  C2  UNL     1      -3.517   0.854  11.458  1.00  0.00     0.075 C 
HETATM   11  C1  UNL     1      -4.517   0.890  10.353  1.00  0.00     0.081 C 
HETATM   12  S1  UNL     1      -1.999   1.336  11.149  1.00  0.00    -0.066 SA
ENDBRANCH   1  10
TORSDOF 4
ENDMDL
