MODEL 1
REMARK VINA RESULT: -5.932057932      0.000      0.000
REMARK  3 active torsions:
REMARK  status: ('A' for Active; 'I' for Inactive)
REMARK    1  A    between atoms: C2_2  and  C3_3 
REMARK    2  A    between atoms: C6_9  and  N1_10 
REMARK    3  A    between atoms: N1_10  and  N2_12 
ROOT
HETATM    1  C1  UNL     1      -4.840   2.918  12.559  1.00  0.00     0.058 C 
HETATM    2  C2  UNL     1      -3.999   1.684  12.839  1.00  0.00     0.150 C 
HETATM    3  C4  UNL     1      -4.425   0.647  11.805  1.00  0.00     0.091 C 
HETATM    4  C5  UNL     1      -3.621   1.188  10.612  1.00  0.00     0.223 C 
HETATM    5  F1  UNL     1      -3.430   0.229   9.664  1.00  0.00    -0.245 F 
HETATM    6  C6  UNL     1      -2.341   1.554  11.341  1.00  0.00     0.273 C 
HETATM    7  O3  UNL     1      -2.683   1.975  12.599  1.00  0.00    -0.341 OA
ENDROOT
BRANCH   6   8
HETATM    8  N1  UNL     1      -1.500   2.438  10.620  1.00  0.00    -0.291 N 
ATOM      9  H1  UNL     1      -1.541   2.429   9.601  1.00  0.00     0.184 HD
BRANCH   8  10
HETATM   10  N2  UNL     1      -0.723   3.213  11.172  1.00  0.00    -0.251 N 
HETATM   11  N3  UNL     1      -0.178   3.734  12.158  1.00  0.00    -0.331 N 
ATOM     12  H32 UNL     1      -0.641   3.230  12.915  1.00  0.00     0.178 HD
ATOM     13  H31 UNL     1       0.467   4.378  12.616  1.00  0.00     0.178 HD
ATOM     14  H2  UNL     1      -0.283   3.694  10.387  1.00  0.00     0.207 HD
ENDBRANCH   8  10
ENDBRANCH   6   8
BRANCH   2  15
HETATM   15  C3  UNL     1      -4.235   1.248  14.210  1.00  0.00     0.209 C 
HETATM   16  O1  UNL     1      -4.788   0.171  14.481  1.00  0.00    -0.646 OA
HETATM   17  O2  UNL     1      -3.820   2.077  15.242  1.00  0.00    -0.646 OA
ENDBRANCH   2  15
TORSDOF 3
ENDMDL
MODEL 2
REMARK VINA RESULT: -5.931411666      2.532      3.321
REMARK  3 active torsions:
REMARK  status: ('A' for Active; 'I' for Inactive)
REMARK    1  A    between atoms: C2_2  and  C3_3 
REMARK    2  A    between atoms: C6_9  and  N1_10 
REMARK    3  A    between atoms: N1_10  and  N2_12 
ROOT
HETATM    1  C1  UNL     1      -3.654   2.305  16.313  1.00  0.00     0.058 C 
HETATM    2  C2  UNL     1      -4.904   1.807  15.607  1.00  0.00     0.150 C 
HETATM    3  C4  UNL     1      -5.533   3.035  14.957  1.00  0.00     0.091 C 
HETATM    4  C5  UNL     1      -4.614   3.124  13.729  1.00  0.00     0.223 C 
HETATM    5  F1  UNL     1      -5.194   3.837  12.724  1.00  0.00    -0.245 F 
HETATM    6  C6  UNL     1      -4.508   1.644  13.410  1.00  0.00     0.273 C 
HETATM    7  O3  UNL     1      -4.540   0.959  14.596  1.00  0.00    -0.341 OA
ENDROOT
BRANCH   6   8
HETATM    8  N1  UNL     1      -3.426   1.315  12.555  1.00  0.00    -0.291 N 
ATOM      9  H1  UNL     1      -3.347   0.358  12.214  1.00  0.00     0.184 HD
BRANCH   8  10
HETATM   10  N2  UNL     1      -2.581   2.136  12.209  1.00  0.00    -0.251 N 
HETATM   11  N3  UNL     1      -1.447   2.485  11.842  1.00  0.00    -0.331 N 
ATOM     12  H32 UNL     1      -0.972   1.582  11.821  1.00  0.00     0.178 HD
ATOM     13  H31 UNL     1      -0.746   3.167  11.555  1.00  0.00     0.178 HD
ATOM     14  H2  UNL     1      -3.092   3.019  12.242  1.00  0.00     0.207 HD
ENDBRANCH   8  10
ENDBRANCH   6   8
BRANCH   2  15
HETATM   15  C3  UNL     1      -5.780   1.169  16.583  1.00  0.00     0.209 C 
HETATM   16  O1  UNL     1      -6.975   0.928  16.348  1.00  0.00    -0.646 OA
HETATM   17  O2  UNL     1      -5.247   0.825  17.816  1.00  0.00    -0.646 OA
ENDBRANCH   2  15
TORSDOF 3
ENDMDL
MODEL 3
REMARK VINA RESULT: -5.895747760      2.969      3.825
REMARK  3 active torsions:
REMARK  status: ('A' for Active; 'I' for Inactive)
REMARK    1  A    between atoms: C2_2  and  C3_3 
REMARK    2  A    between atoms: C6_9  and  N1_10 
REMARK    3  A    between atoms: N1_10  and  N2_12 
ROOT
HETATM    1  C1  UNL     1      -2.650   1.788  11.664  1.00  0.00     0.058 C 
HETATM    2  C2  UNL     1      -4.140   1.703  11.950  1.00  0.00     0.150 C 
HETATM    3  C4  UNL     1      -4.347   0.388  12.695  1.00  0.00     0.091 C 
HETATM    4  C5  UNL     1      -3.889   0.855  14.086  1.00  0.00     0.223 C 
HETATM    5  F1  UNL     1      -4.378   0.048  15.068  1.00  0.00    -0.245 F 
HETATM    6  C6  UNL     1      -4.524   2.234  14.090  1.00  0.00     0.273 C 
HETATM    7  O3  UNL     1      -4.491   2.711  12.806  1.00  0.00    -0.341 OA
ENDROOT
BRANCH   6   8
HETATM    8  N1  UNL     1      -3.993   3.109  15.070  1.00  0.00    -0.291 N 
ATOM      9  H1  UNL     1      -4.440   3.146  15.986  1.00  0.00     0.184 HD
BRANCH   8  10
HETATM   10  N2  UNL     1      -3.017   3.825  14.862  1.00  0.00    -0.251 N 
HETATM   11  N3  UNL     1      -2.292   4.548  14.158  1.00  0.00    -0.331 N 
ATOM     12  H32 UNL     1      -2.802   4.520  13.275  1.00  0.00     0.178 HD
ATOM     13  H31 UNL     1      -1.482   5.143  13.986  1.00  0.00     0.178 HD
ATOM     14  H2  UNL     1      -2.538   3.828  15.762  1.00  0.00     0.207 HD
ENDBRANCH   8  10
ENDBRANCH   6   8
BRANCH   2  15
HETATM   15  C3  UNL     1      -4.871   1.761  10.689  1.00  0.00     0.209 C 
HETATM   16  O1  UNL     1      -5.937   2.386  10.564  1.00  0.00    -0.646 OA
HETATM   17  O2  UNL     1      -4.346   1.088   9.595  1.00  0.00    -0.646 OA
ENDBRANCH   2  15
TORSDOF 3
ENDMDL
MODEL 4
REMARK VINA RESULT: -5.880916189      4.211      4.849
REMARK  3 active torsions:
REMARK  status: ('A' for Active; 'I' for Inactive)
REMARK    1  A    between atoms: C2_2  and  C3_3 
REMARK    2  A    between atoms: C6_9  and  N1_10 
REMARK    3  A    between atoms: N1_10  and  N2_12 
ROOT
HETATM    1  C1  UNL     1      -4.072   2.260  13.203  1.00  0.00     0.058 C 
HETATM    2  C2  UNL     1      -4.473   2.520  14.645  1.00  0.00     0.150 C 
HETATM    3  C4  UNL     1      -3.588   3.666  15.124  1.00  0.00     0.091 C 
HETATM    4  C5  UNL     1      -4.365   4.823  14.475  1.00  0.00     0.223 C 
HETATM    5  F1  UNL     1      -4.092   6.010  15.085  1.00  0.00    -0.245 F 
HETATM    6  C6  UNL     1      -5.777   4.337  14.745  1.00  0.00     0.273 C 
HETATM    7  O3  UNL     1      -5.766   2.968  14.678  1.00  0.00    -0.341 OA
ENDROOT
BRANCH   6   8
HETATM    8  N1  UNL     1      -6.765   4.969  13.951  1.00  0.00    -0.291 N 
ATOM      9  H1  UNL     1      -7.744   4.874  14.221  1.00  0.00     0.184 HD
BRANCH   8  10
HETATM   10  N2  UNL     1      -6.492   5.626  12.950  1.00  0.00    -0.251 N 
HETATM   11  N3  UNL     1      -6.618   6.591  12.178  1.00  0.00    -0.331 N 
ATOM     12  H32 UNL     1      -7.358   7.112  12.650  1.00  0.00     0.178 HD
ATOM     13  H31 UNL     1      -6.390   7.137  11.347  1.00  0.00     0.178 HD
ATOM     14  H2  UNL     1      -5.754   5.077  12.509  1.00  0.00     0.207 HD
ENDBRANCH   8  10
ENDBRANCH   6   8
BRANCH   2  15
HETATM   15  C3  UNL     1      -4.286   1.297  15.419  1.00  0.00     0.209 C 
HETATM   16  O1  UNL     1      -4.911   0.253  15.176  1.00  0.00    -0.646 OA
HETATM   17  O2  UNL     1      -3.373   1.316  16.463  1.00  0.00    -0.646 OA
ENDBRANCH   2  15
TORSDOF 3
ENDMDL
MODEL 5
REMARK VINA RESULT: -5.810039103      2.743      3.360
REMARK  3 active torsions:
REMARK  status: ('A' for Active; 'I' for Inactive)
REMARK    1  A    between atoms: C2_2  and  C3_3 
REMARK    2  A    between atoms: C6_9  and  N1_10 
REMARK    3  A    between atoms: N1_10  and  N2_12 
ROOT
HETATM    1  C1  UNL     1      -3.508   3.709  15.249  1.00  0.00     0.058 C 
HETATM    2  C2  UNL     1      -4.483   2.659  14.743  1.00  0.00     0.150 C 
HETATM    3  C4  UNL     1      -5.871   3.273  14.894  1.00  0.00     0.091 C 
HETATM    4  C5  UNL     1      -5.850   4.166  13.643  1.00  0.00     0.223 C 
HETATM    5  F1  UNL     1      -7.110   4.500  13.248  1.00  0.00    -0.245 F 
HETATM    6  C6  UNL     1      -5.170   3.206  12.684  1.00  0.00     0.273 C 
HETATM    7  O3  UNL     1      -4.275   2.461  13.405  1.00  0.00    -0.341 OA
ENDROOT
BRANCH   6   8
HETATM    8  N1  UNL     1      -4.640   3.828  11.527  1.00  0.00    -0.291 N 
ATOM      9  H1  UNL     1      -5.272   4.349  10.919  1.00  0.00     0.184 HD
BRANCH   8  10
HETATM   10  N2  UNL     1      -3.450   3.765  11.225  1.00  0.00    -0.251 N 
HETATM   11  N3  UNL     1      -2.260   3.476  11.430  1.00  0.00    -0.331 N 
ATOM     12  H32 UNL     1      -2.325   3.069  12.363  1.00  0.00     0.178 HD
ATOM     13  H31 UNL     1      -1.273   3.424  11.180  1.00  0.00     0.178 HD
ATOM     14  H2  UNL     1      -3.428   4.179  10.293  1.00  0.00     0.207 HD
ENDBRANCH   8  10
ENDBRANCH   6   8
BRANCH   2  15
HETATM   15  C3  UNL     1      -4.315   1.438  15.522  1.00  0.00     0.209 C 
HETATM   16  O1  UNL     1      -5.035   0.440  15.360  1.00  0.00    -0.646 OA
HETATM   17  O2  UNL     1      -3.310   1.403  16.477  1.00  0.00    -0.646 OA
ENDBRANCH   2  15
TORSDOF 3
ENDMDL
