MODEL 1
REMARK VINA RESULT: -8.567134056      0.000      0.000
REMARK  4 active torsions:
REMARK  status: ('A' for Active; 'I' for Inactive)
REMARK    1  A    between atoms: N2_4  and  C2_5 
REMARK    2  A    between atoms: C13_19  and  C14_20 
REMARK    3  A    between atoms: C14_20  and  N5_21 
REMARK    4  A    between atoms: N5_21  and  C15_24 
ROOT
HETATM    1  C1  UNL     1      18.078  62.968  35.108  1.00  0.00     0.137 A 
HETATM    2  N1  UNL     1      18.680  62.209  36.034  1.00  0.00    -0.291 N 
ATOM      3  H1  UNL     1      18.249  61.461  36.576  1.00  0.00     0.188 HD
HETATM    4  N2  UNL     1      19.951  62.615  36.119  1.00  0.00    -0.193 N 
HETATM    5  N4  UNL     1      20.126  63.603  35.260  1.00  0.00    -0.283 N 
ATOM      6  H4  UNL     1      21.006  64.099  35.119  1.00  0.00     0.188 HD
HETATM    7  C13 UNL     1      18.987  63.866  34.600  1.00  0.00     0.070 A 
ENDROOT
BRANCH   4   8
HETATM    8  C2  UNL     1      20.986  62.098  36.980  1.00  0.00     0.267 C 
HETATM    9  C3  UNL     1      22.053  63.117  37.202  1.00  0.00     0.069 C 
HETATM   10  C4  UNL     1      23.280  62.625  37.858  1.00  0.00     0.011 C 
HETATM   11  C5  UNL     1      23.417  61.163  38.018  1.00  0.00     0.019 C 
HETATM   12  C6  UNL     1      24.601  60.568  37.276  1.00  0.00     0.007 C 
HETATM   13  C10 UNL     1      22.206  60.357  37.659  1.00  0.00     0.230 C 
HETATM   14  C7  UNL     1      24.561  60.839  35.806  1.00  0.00     0.002 C 
HETATM   15  C8  UNL     1      23.413  60.030  35.196  1.00  0.00     0.030 C 
HETATM   16  C9  UNL     1      22.186  60.872  35.293  1.00  0.00     0.276 C 
HETATM   17  N3  UNL     1      21.490  60.821  36.529  1.00  0.00     0.126 N 
HETATM   18  C11 UNL     1      21.203  60.521  38.794  1.00  0.00     0.041 C 
HETATM   19  C12 UNL     1      20.381  61.723  38.314  1.00  0.00     0.070 C 
ENDBRANCH   4   8
BRANCH   7  20
HETATM   20  C14 UNL     1      18.783  64.906  33.559  1.00  0.00     0.292 C 
BRANCH  20  21
HETATM   21  N5  UNL     1      19.248  64.462  32.263  1.00  0.00    -0.066 N 
ATOM     22  H52 UNL     1      19.728  65.199  31.746  1.00  0.00     0.278 HD
ATOM     23  H51 UNL     1      20.027  63.807  32.330  1.00  0.00     0.278 HD
BRANCH  21  24
HETATM   24  C15 UNL     1      18.114  63.911  31.528  1.00  0.00     0.186 A 
HETATM   25  C16 UNL     1      17.807  64.441  30.169  1.00  0.00     0.035 A 
HETATM   26  C17 UNL     1      16.972  64.813  31.342  1.00  0.00     0.035 A 
ENDBRANCH  21  24
ENDBRANCH  20  21
ENDBRANCH   7  20
TORSDOF 4
ENDMDL
MODEL 2
REMARK VINA RESULT: -8.463243070      1.424      1.837
REMARK  4 active torsions:
REMARK  status: ('A' for Active; 'I' for Inactive)
REMARK    1  A    between atoms: N2_4  and  C2_5 
REMARK    2  A    between atoms: C13_19  and  C14_20 
REMARK    3  A    between atoms: C14_20  and  N5_21 
REMARK    4  A    between atoms: N5_21  and  C15_24 
ROOT
HETATM    1  C1  UNL     1      19.977  65.158  34.674  1.00  0.00     0.137 A 
HETATM    2  N1  UNL     1      20.442  64.596  35.799  1.00  0.00    -0.291 N 
ATOM      3  H1  UNL     1      20.580  65.063  36.694  1.00  0.00     0.188 HD
HETATM    4  N2  UNL     1      20.692  63.311  35.530  1.00  0.00    -0.193 N 
HETATM    5  N4  UNL     1      20.387  63.087  34.265  1.00  0.00    -0.283 N 
ATOM      6  H4  UNL     1      20.482  62.186  33.796  1.00  0.00     0.188 HD
HETATM    7  C13 UNL     1      19.934  64.208  33.681  1.00  0.00     0.070 A 
ENDROOT
BRANCH   4   8
HETATM    8  C2  UNL     1      21.207  62.307  36.428  1.00  0.00     0.267 C 
HETATM    9  C3  UNL     1      21.215  62.803  37.835  1.00  0.00     0.069 C 
HETATM   10  C4  UNL     1      21.947  61.964  38.805  1.00  0.00     0.011 C 
HETATM   11  C5  UNL     1      22.769  60.866  38.257  1.00  0.00     0.019 C 
HETATM   12  C6  UNL     1      24.253  60.999  38.552  1.00  0.00     0.007 C 
HETATM   13  C10 UNL     1      22.619  60.616  36.788  1.00  0.00     0.230 C 
HETATM   14  C7  UNL     1      24.836  62.274  38.032  1.00  0.00     0.002 C 
HETATM   15  C8  UNL     1      24.859  62.208  36.502  1.00  0.00     0.030 C 
HETATM   16  C9  UNL     1      23.543  62.720  36.024  1.00  0.00     0.276 C 
HETATM   17  N3  UNL     1      22.480  61.780  35.992  1.00  0.00     0.126 N 
HETATM   18  C11 UNL     1      21.290  59.900  36.586  1.00  0.00     0.041 C 
HETATM   19  C12 UNL     1      20.334  61.075  36.348  1.00  0.00     0.070 C 
ENDBRANCH   4   8
BRANCH   7  20
HETATM   20  C14 UNL     1      19.493  64.358  32.270  1.00  0.00     0.292 C 
BRANCH  20  21
HETATM   21  N5  UNL     1      18.223  63.707  32.035  1.00  0.00    -0.066 N 
ATOM     22  H52 UNL     1      18.325  62.713  31.832  1.00  0.00     0.278 HD
ATOM     23  H51 UNL     1      17.665  63.620  32.884  1.00  0.00     0.278 HD
BRANCH  21  24
HETATM   24  C15 UNL     1      17.523  64.426  30.975  1.00  0.00     0.186 A 
HETATM   25  C16 UNL     1      16.996  63.662  29.808  1.00  0.00     0.035 A 
HETATM   26  C17 UNL     1      18.217  64.501  29.686  1.00  0.00     0.035 A 
ENDBRANCH  21  24
ENDBRANCH  20  21
ENDBRANCH   7  20
TORSDOF 4
ENDMDL
MODEL 3
REMARK VINA RESULT: -8.378642973      0.819      1.159
REMARK  4 active torsions:
REMARK  status: ('A' for Active; 'I' for Inactive)
REMARK    1  A    between atoms: N2_4  and  C2_5 
REMARK    2  A    between atoms: C13_19  and  C14_20 
REMARK    3  A    between atoms: C14_20  and  N5_21 
REMARK    4  A    between atoms: N5_21  and  C15_24 
ROOT
HETATM    1  C1  UNL     1      19.646  65.098  34.580  1.00  0.00     0.137 A 
HETATM    2  N1  UNL     1      20.548  64.732  35.502  1.00  0.00    -0.291 N 
ATOM      3  H1  UNL     1      21.250  65.334  35.931  1.00  0.00     0.188 HD
HETATM    4  N2  UNL     1      20.359  63.434  35.754  1.00  0.00    -0.193 N 
HETATM    5  N4  UNL     1      19.360  63.008  35.002  1.00  0.00    -0.283 N 
ATOM      6  H4  UNL     1      19.005  62.052  34.996  1.00  0.00     0.188 HD
HETATM    7  C13 UNL     1      18.876  64.009  34.248  1.00  0.00     0.070 A 
ENDROOT
BRANCH   4   8
HETATM    8  C2  UNL     1      21.092  62.598  36.674  1.00  0.00     0.267 C 
HETATM    9  C3  UNL     1      22.275  63.321  37.225  1.00  0.00     0.069 C 
HETATM   10  C4  UNL     1      23.236  62.493  37.979  1.00  0.00     0.011 C 
HETATM   11  C5  UNL     1      23.052  61.029  37.921  1.00  0.00     0.019 C 
HETATM   12  C6  UNL     1      24.216  60.284  37.291  1.00  0.00     0.007 C 
HETATM   13  C10 UNL     1      21.798  60.560  37.249  1.00  0.00     0.230 C 
HETATM   14  C7  UNL     1      24.509  60.737  35.896  1.00  0.00     0.002 C 
HETATM   15  C8  UNL     1      23.362  60.283  34.989  1.00  0.00     0.030 C 
HETATM   16  C9  UNL     1      22.327  61.356  35.024  1.00  0.00     0.276 C 
HETATM   17  N3  UNL     1      21.413  61.307  36.109  1.00  0.00     0.126 N 
HETATM   18  C11 UNL     1      20.649  60.800  38.221  1.00  0.00     0.041 C 
HETATM   19  C12 UNL     1      20.184  62.203  37.817  1.00  0.00     0.070 C 
ENDBRANCH   4   8
BRANCH   7  20
HETATM   20  C14 UNL     1      17.755  63.925  33.276  1.00  0.00     0.292 C 
BRANCH  20  21
HETATM   21  N5  UNL     1      17.969  64.790  32.138  1.00  0.00    -0.066 N 
ATOM     22  H52 UNL     1      17.423  65.650  32.192  1.00  0.00     0.278 HD
ATOM     23  H51 UNL     1      18.897  65.213  32.137  1.00  0.00     0.278 HD
BRANCH  21  24
HETATM   24  C15 UNL     1      17.698  64.031  30.921  1.00  0.00     0.186 A 
HETATM   25  C16 UNL     1      18.055  64.628  29.602  1.00  0.00     0.035 A 
HETATM   26  C17 UNL     1      16.641  64.564  30.056  1.00  0.00     0.035 A 
ENDBRANCH  21  24
ENDBRANCH  20  21
ENDBRANCH   7  20
TORSDOF 4
ENDMDL
MODEL 4
REMARK VINA RESULT: -8.220744355      1.527      3.011
REMARK  4 active torsions:
REMARK  status: ('A' for Active; 'I' for Inactive)
REMARK    1  A    between atoms: N2_4  and  C2_5 
REMARK    2  A    between atoms: C13_19  and  C14_20 
REMARK    3  A    between atoms: C14_20  and  N5_21 
REMARK    4  A    between atoms: N5_21  and  C15_24 
ROOT
HETATM    1  C1  UNL     1      20.656  64.405  32.808  1.00  0.00     0.137 A 
HETATM    2  N1  UNL     1      21.648  63.905  33.559  1.00  0.00    -0.291 N 
ATOM      3  H1  UNL     1      22.597  64.271  33.626  1.00  0.00     0.188 HD
HETATM    4  N2  UNL     1      21.165  62.838  34.202  1.00  0.00    -0.193 N 
HETATM    5  N4  UNL     1      19.900  62.685  33.854  1.00  0.00    -0.283 N 
ATOM      6  H4  UNL     1      19.289  61.944  34.199  1.00  0.00     0.188 HD
HETATM    7  C13 UNL     1      19.529  63.638  32.984  1.00  0.00     0.070 A 
ENDROOT
BRANCH   4   8
HETATM    8  C2  UNL     1      21.861  61.973  35.123  1.00  0.00     0.267 C 
HETATM    9  C3  UNL     1      21.201  60.638  35.203  1.00  0.00     0.069 C 
HETATM   10  C4  UNL     1      21.670  59.757  36.291  1.00  0.00     0.011 C 
HETATM   11  C5  UNL     1      22.562  60.357  37.303  1.00  0.00     0.019 C 
HETATM   12  C6  UNL     1      21.989  60.357  38.710  1.00  0.00     0.007 C 
HETATM   13  C10 UNL     1      23.036  61.747  37.007  1.00  0.00     0.230 C 
HETATM   14  C7  UNL     1      20.683  61.080  38.804  1.00  0.00     0.002 C 
HETATM   15  C8  UNL     1      20.942  62.576  38.607  1.00  0.00     0.030 C 
HETATM   16  C9  UNL     1      20.879  62.840  37.141  1.00  0.00     0.276 C 
HETATM   17  N3  UNL     1      22.071  62.595  36.410  1.00  0.00     0.126 N 
HETATM   18  C11 UNL     1      24.110  61.636  35.932  1.00  0.00     0.041 C 
HETATM   19  C12 UNL     1      23.285  61.786  34.648  1.00  0.00     0.070 C 
ENDBRANCH   4   8
BRANCH   7  20
HETATM   20  C14 UNL     1      18.188  63.800  32.364  1.00  0.00     0.292 C 
BRANCH  20  21
HETATM   21  N5  UNL     1      18.214  64.754  31.278  1.00  0.00    -0.066 N 
ATOM     22  H52 UNL     1      17.575  65.535  31.428  1.00  0.00     0.278 HD
ATOM     23  H51 UNL     1      19.083  65.288  31.247  1.00  0.00     0.278 HD
BRANCH  21  24
HETATM   24  C15 UNL     1      17.948  64.045  30.031  1.00  0.00     0.186 A 
HETATM   25  C16 UNL     1      18.020  64.793  28.743  1.00  0.00     0.035 A 
HETATM   26  C17 UNL     1      16.711  64.414  29.336  1.00  0.00     0.035 A 
ENDBRANCH  21  24
ENDBRANCH  20  21
ENDBRANCH   7  20
TORSDOF 4
ENDMDL
MODEL 5
REMARK VINA RESULT: -8.208209725      1.049      1.912
REMARK  4 active torsions:
REMARK  status: ('A' for Active; 'I' for Inactive)
REMARK    1  A    between atoms: N2_4  and  C2_5 
REMARK    2  A    between atoms: C13_19  and  C14_20 
REMARK    3  A    between atoms: C14_20  and  N5_21 
REMARK    4  A    between atoms: N5_21  and  C15_24 
ROOT
HETATM    1  C1  UNL     1      18.933  64.116  35.672  1.00  0.00     0.137 A 
HETATM    2  N1  UNL     1      19.442  63.254  36.563  1.00  0.00    -0.291 N 
ATOM      3  H1  UNL     1      19.109  63.102  37.514  1.00  0.00     0.188 HD
HETATM    4  N2  UNL     1      20.467  62.630  35.975  1.00  0.00    -0.193 N 
HETATM    5  N4  UNL     1      20.587  63.099  34.746  1.00  0.00    -0.283 N 
ATOM      6  H4  UNL     1      21.292  62.795  34.075  1.00  0.00     0.188 HD
HETATM    7  C13 UNL     1      19.652  64.032  34.503  1.00  0.00     0.070 A 
ENDROOT
BRANCH   4   8
HETATM    8  C2  UNL     1      21.325  61.617  36.541  1.00  0.00     0.267 C 
HETATM    9  C3  UNL     1      21.043  61.431  37.994  1.00  0.00     0.069 C 
HETATM   10  C4  UNL     1      22.018  60.606  38.734  1.00  0.00     0.011 C 
HETATM   11  C5  UNL     1      23.265  60.246  38.029  1.00  0.00     0.019 C 
HETATM   12  C6  UNL     1      24.524  60.791  38.681  1.00  0.00     0.007 C 
HETATM   13  C10 UNL     1      23.315  60.607  36.576  1.00  0.00     0.230 C 
HETATM   14  C7  UNL     1      24.515  62.282  38.805  1.00  0.00     0.002 C 
HETATM   15  C8  UNL     1      24.641  62.885  37.403  1.00  0.00     0.030 C 
HETATM   16  C9  UNL     1      23.260  63.012  36.857  1.00  0.00     0.276 C 
HETATM   17  N3  UNL     1      22.720  61.849  36.246  1.00  0.00     0.126 N 
HETATM   18  C11 UNL     1      22.445  59.601  35.832  1.00  0.00     0.041 C 
HETATM   19  C12 UNL     1      21.085  60.307  35.824  1.00  0.00     0.070 C 
ENDBRANCH   4   8
BRANCH   7  20
HETATM   20  C14 UNL     1      19.462  64.790  33.239  1.00  0.00     0.292 C 
BRANCH  20  21
HETATM   21  N5  UNL     1      19.483  63.919  32.085  1.00  0.00    -0.066 N 
ATOM     22  H52 UNL     1      20.055  64.289  31.325  1.00  0.00     0.278 HD
ATOM     23  H51 UNL     1      20.010  63.061  32.252  1.00  0.00     0.278 HD
BRANCH  21  24
HETATM   24  C15 UNL     1      18.107  63.659  31.675  1.00  0.00     0.186 A 
HETATM   25  C16 UNL     1      17.571  64.345  30.464  1.00  0.00     0.035 A 
HETATM   26  C17 UNL     1      17.171  64.778  31.829  1.00  0.00     0.035 A 
ENDBRANCH  21  24
ENDBRANCH  20  21
ENDBRANCH   7  20
TORSDOF 4
ENDMDL
