MODEL 1
REMARK VINA RESULT: -7.051533800      0.000      0.000
REMARK  5 active torsions:
REMARK  status: ('A' for Active; 'I' for Inactive)
REMARK    1  A    between atoms: C1_2  and  C2_3 
REMARK    2  A    between atoms: C1_2  and  O2_7 
REMARK    3  A    between atoms: C2_3  and  C3_4 
REMARK    4  A    between atoms: C3_4  and  C4_5 
REMARK    5  A    between atoms: O2_7  and  N1_8 
ROOT
HETATM    1  N1  UNL     1      20.753  64.294  35.620  1.00  0.00    -0.263 N 
ATOM      2  H1  UNL     1      20.940  64.664  36.552  1.00  0.00     0.194 HD
HETATM    3  C5  UNL     1      21.208  63.141  35.271  1.00  0.00     0.048 C 
HETATM    4  C6  UNL     1      21.079  62.389  33.994  1.00  0.00     0.084 C 
HETATM    5  C7  UNL     1      22.456  61.747  33.885  1.00  0.00     0.239 C 
HETATM    6  N2  UNL     1      23.115  61.933  35.153  1.00  0.00    -0.061 N 
ATOM      7  H21 UNL     1      23.841  62.650  35.137  1.00  0.00     0.278 HD
ATOM      8  H22 UNL     1      23.720  61.156  35.419  1.00  0.00     0.278 HD
HETATM    9  C8  UNL     1      22.040  62.202  36.115  1.00  0.00     0.165 C 
HETATM   10  C9  UNL     1      22.597  62.875  37.287  1.00  0.00     0.045 C 
HETATM   11  C10 UNL     1      22.566  62.122  38.581  1.00  0.00     0.003 C 
HETATM   12  C11 UNL     1      21.330  61.246  38.701  1.00  0.00     0.000 C 
HETATM   13  C12 UNL     1      21.485  60.222  37.569  1.00  0.00     0.003 C 
HETATM   14  C13 UNL     1      21.267  60.966  36.296  1.00  0.00     0.045 C 
ENDROOT
BRANCH   1  15
HETATM   15  O2  UNL     1      20.013  65.015  34.717  1.00  0.00    -0.200 OA
BRANCH  15  16
HETATM   16  C1  UNL     1      18.663  64.811  34.470  1.00  0.00     0.281 C 
HETATM   17  O1  UNL     1      17.957  64.419  35.440  1.00  0.00    -0.263 OA
BRANCH  16  18
HETATM   18  C2  UNL     1      18.027  65.022  33.166  1.00  0.00     0.114 C 
BRANCH  18  19
HETATM   19  C3  UNL     1      18.680  64.484  31.964  1.00  0.00     0.020 C 
BRANCH  19  20
HETATM   20  C4  UNL     1      17.771  63.870  30.952  1.00  0.00     0.085 C 
HETATM   21 BR1  UNL     1      18.109  64.615  29.216  1.00  0.00    -0.097 Br
ENDBRANCH  19  20
ENDBRANCH  18  19
ENDBRANCH  16  18
ENDBRANCH  15  16
ENDBRANCH   1  15
TORSDOF 5
ENDMDL
MODEL 2
REMARK VINA RESULT: -7.037564232      2.088      2.961
REMARK  5 active torsions:
REMARK  status: ('A' for Active; 'I' for Inactive)
REMARK    1  A    between atoms: C1_2  and  C2_3 
REMARK    2  A    between atoms: C1_2  and  O2_7 
REMARK    3  A    between atoms: C2_3  and  C3_4 
REMARK    4  A    between atoms: C3_4  and  C4_5 
REMARK    5  A    between atoms: O2_7  and  N1_8 
ROOT
HETATM    1  N1  UNL     1      20.840  61.141  34.454  1.00  0.00    -0.263 N 
ATOM      2  H1  UNL     1      21.596  60.662  33.966  1.00  0.00     0.194 HD
HETATM    3  C5  UNL     1      20.952  61.442  35.701  1.00  0.00     0.048 C 
HETATM    4  C6  UNL     1      20.012  62.128  36.626  1.00  0.00     0.084 C 
HETATM    5  C7  UNL     1      20.246  61.356  37.918  1.00  0.00     0.239 C 
HETATM    6  N2  UNL     1      21.419  60.542  37.721  1.00  0.00    -0.061 N 
ATOM      7  H21 UNL     1      21.215  59.552  37.585  1.00  0.00     0.278 HD
ATOM      8  H22 UNL     1      21.988  60.432  38.561  1.00  0.00     0.278 HD
HETATM    9  C8  UNL     1      22.136  61.157  36.598  1.00  0.00     0.165 C 
HETATM   10  C9  UNL     1      23.042  60.174  36.006  1.00  0.00     0.045 C 
HETATM   11  C10 UNL     1      24.510  60.442  36.131  1.00  0.00     0.003 C 
HETATM   12  C11 UNL     1      24.826  61.927  36.070  1.00  0.00     0.000 C 
HETATM   13  C12 UNL     1      24.138  62.508  37.312  1.00  0.00     0.003 C 
HETATM   14  C13 UNL     1      22.672  62.449  37.048  1.00  0.00     0.045 C 
ENDROOT
BRANCH   1  15
HETATM   15  O2  UNL     1      19.685  61.477  33.793  1.00  0.00    -0.200 OA
BRANCH  15  16
HETATM   16  C1  UNL     1      19.437  62.721  33.231  1.00  0.00     0.281 C 
HETATM   17  O1  UNL     1      20.296  63.162  32.419  1.00  0.00    -0.263 OA
BRANCH  16  18
HETATM   18  C2  UNL     1      18.253  63.533  33.526  1.00  0.00     0.114 C 
BRANCH  18  19
HETATM   19  C3  UNL     1      18.066  64.802  32.806  1.00  0.00     0.020 C 
BRANCH  19  20
HETATM   20  C4  UNL     1      17.004  64.802  31.759  1.00  0.00     0.085 C 
HETATM   21 BR1  UNL     1      17.755  64.363  30.049  1.00  0.00    -0.097 Br
ENDBRANCH  19  20
ENDBRANCH  18  19
ENDBRANCH  16  18
ENDBRANCH  15  16
ENDBRANCH   1  15
TORSDOF 5
ENDMDL
MODEL 3
REMARK VINA RESULT: -7.034788568      1.386      1.660
REMARK  5 active torsions:
REMARK  status: ('A' for Active; 'I' for Inactive)
REMARK    1  A    between atoms: C1_2  and  C2_3 
REMARK    2  A    between atoms: C1_2  and  O2_7 
REMARK    3  A    between atoms: C2_3  and  C3_4 
REMARK    4  A    between atoms: C3_4  and  C4_5 
REMARK    5  A    between atoms: O2_7  and  N1_8 
ROOT
HETATM    1  N1  UNL     1      18.893  63.245  34.792  1.00  0.00    -0.263 N 
ATOM      2  H1  UNL     1      18.717  63.565  35.745  1.00  0.00     0.194 HD
HETATM    3  C5  UNL     1      20.003  62.667  34.490  1.00  0.00     0.048 C 
HETATM    4  C6  UNL     1      20.495  62.118  33.198  1.00  0.00     0.084 C 
HETATM    5  C7  UNL     1      21.971  62.490  33.258  1.00  0.00     0.239 C 
HETATM    6  N2  UNL     1      22.244  62.931  34.603  1.00  0.00    -0.061 N 
ATOM      7  H21 UNL     1      22.353  63.942  34.689  1.00  0.00     0.278 HD
ATOM      8  H22 UNL     1      23.177  62.683  34.935  1.00  0.00     0.278 HD
HETATM    9  C8  UNL     1      21.158  62.382  35.422  1.00  0.00     0.165 C 
HETATM   10  C9  UNL     1      21.055  63.146  36.664  1.00  0.00     0.045 C 
HETATM   11  C10 UNL     1      21.388  62.425  37.935  1.00  0.00     0.003 C 
HETATM   12  C11 UNL     1      20.977  60.963  37.884  1.00  0.00     0.000 C 
HETATM   13  C12 UNL     1      21.847  60.368  36.769  1.00  0.00     0.003 C 
HETATM   14  C13 UNL     1      21.326  60.923  35.487  1.00  0.00     0.045 C 
ENDROOT
BRANCH   1  15
HETATM   15  O2  UNL     1      17.950  63.424  33.810  1.00  0.00    -0.200 OA
BRANCH  15  16
HETATM   16  C1  UNL     1      17.922  64.504  32.938  1.00  0.00     0.281 C 
HETATM   17  O1  UNL     1      18.544  65.543  33.295  1.00  0.00    -0.263 OA
BRANCH  16  18
HETATM   18  C2  UNL     1      17.221  64.500  31.651  1.00  0.00     0.114 C 
BRANCH  18  19
HETATM   19  C3  UNL     1      18.005  64.338  30.418  1.00  0.00     0.020 C 
BRANCH  19  20
HETATM   20  C4  UNL     1      17.271  64.593  29.145  1.00  0.00     0.085 C 
HETATM   21 BR1  UNL     1      18.476  65.242  27.801  1.00  0.00    -0.097 Br
ENDBRANCH  19  20
ENDBRANCH  18  19
ENDBRANCH  16  18
ENDBRANCH  15  16
ENDBRANCH   1  15
TORSDOF 5
ENDMDL
MODEL 4
REMARK VINA RESULT: -6.946417104      2.256      2.438
REMARK  5 active torsions:
REMARK  status: ('A' for Active; 'I' for Inactive)
REMARK    1  A    between atoms: C1_2  and  C2_3 
REMARK    2  A    between atoms: C1_2  and  O2_7 
REMARK    3  A    between atoms: C2_3  and  C3_4 
REMARK    4  A    between atoms: C3_4  and  C4_5 
REMARK    5  A    between atoms: O2_7  and  N1_8 
ROOT
HETATM    1  N1  UNL     1      18.909  63.294  34.887  1.00  0.00    -0.263 N 
ATOM      2  H1  UNL     1      18.803  63.646  35.838  1.00  0.00     0.194 HD
HETATM    3  C5  UNL     1      19.987  62.688  34.530  1.00  0.00     0.048 C 
HETATM    4  C6  UNL     1      20.383  62.090  33.226  1.00  0.00     0.084 C 
HETATM    5  C7  UNL     1      21.865  62.438  33.176  1.00  0.00     0.239 C 
HETATM    6  N2  UNL     1      22.235  62.916  34.484  1.00  0.00    -0.061 N 
ATOM      7  H21 UNL     1      22.365  63.927  34.531  1.00  0.00     0.278 HD
ATOM      8  H22 UNL     1      23.184  62.662  34.761  1.00  0.00     0.278 HD
HETATM    9  C8  UNL     1      21.198  62.411  35.392  1.00  0.00     0.165 C 
HETATM   10  C9  UNL     1      21.191  63.215  36.612  1.00  0.00     0.045 C 
HETATM   11  C10 UNL     1      21.597  62.528  37.880  1.00  0.00     0.003 C 
HETATM   12  C11 UNL     1      21.162  61.073  37.904  1.00  0.00     0.000 C 
HETATM   13  C12 UNL     1      21.945  60.428  36.753  1.00  0.00     0.003 C 
HETATM   14  C13 UNL     1      21.348  60.953  35.492  1.00  0.00     0.045 C 
ENDROOT
BRANCH   1  15
HETATM   15  O2  UNL     1      17.905  63.459  33.965  1.00  0.00    -0.200 OA
BRANCH  15  16
HETATM   16  C1  UNL     1      17.776  64.565  33.136  1.00  0.00     0.281 C 
HETATM   17  O1  UNL     1      18.661  65.460  33.236  1.00  0.00    -0.263 OA
BRANCH  16  18
HETATM   18  C2  UNL     1      16.688  64.744  32.172  1.00  0.00     0.114 C 
BRANCH  18  19
HETATM   19  C3  UNL     1      15.703  65.811  32.404  1.00  0.00     0.020 C 
BRANCH  19  20
HETATM   20  C4  UNL     1      14.399  65.656  31.696  1.00  0.00     0.085 C 
HETATM   21 BR1  UNL     1      12.947  66.071  32.880  1.00  0.00    -0.097 Br
ENDBRANCH  19  20
ENDBRANCH  18  19
ENDBRANCH  16  18
ENDBRANCH  15  16
ENDBRANCH   1  15
TORSDOF 5
ENDMDL
MODEL 5
REMARK VINA RESULT: -6.906157376      1.810      2.828
REMARK  5 active torsions:
REMARK  status: ('A' for Active; 'I' for Inactive)
REMARK    1  A    between atoms: C1_2  and  C2_3 
REMARK    2  A    between atoms: C1_2  and  O2_7 
REMARK    3  A    between atoms: C2_3  and  C3_4 
REMARK    4  A    between atoms: C3_4  and  C4_5 
REMARK    5  A    between atoms: O2_7  and  N1_8 
ROOT
HETATM    1  N1  UNL     1      20.430  61.906  35.374  1.00  0.00    -0.263 N 
ATOM      2  H1  UNL     1      20.972  61.523  34.600  1.00  0.00     0.194 HD
HETATM    3  C5  UNL     1      20.862  61.815  36.584  1.00  0.00     0.048 C 
HETATM    4  C6  UNL     1      20.273  62.284  37.867  1.00  0.00     0.084 C 
HETATM    5  C7  UNL     1      20.658  61.148  38.805  1.00  0.00     0.239 C 
HETATM    6  N2  UNL     1      21.611  60.324  38.107  1.00  0.00    -0.061 N 
ATOM      7  H21 UNL     1      21.225  59.440  37.774  1.00  0.00     0.278 HD
ATOM      8  H22 UNL     1      22.326  59.919  38.713  1.00  0.00     0.278 HD
HETATM    9  C8  UNL     1      22.152  61.172  37.038  1.00  0.00     0.165 C 
HETATM   10  C9  UNL     1      22.733  60.326  35.997  1.00  0.00     0.045 C 
HETATM   11  C10 UNL     1      24.217  60.408  35.805  1.00  0.00     0.003 C 
HETATM   12  C11 UNL     1      24.747  61.809  36.056  1.00  0.00     0.000 C 
HETATM   13  C12 UNL     1      24.454  62.061  37.540  1.00  0.00     0.003 C 
HETATM   14  C13 UNL     1      22.977  62.219  37.657  1.00  0.00     0.045 C 
ENDROOT
BRANCH   1  15
HETATM   15  O2  UNL     1      19.227  62.527  35.145  1.00  0.00    -0.200 OA
BRANCH  15  16
HETATM   16  C1  UNL     1      19.072  63.894  34.968  1.00  0.00     0.281 C 
HETATM   17  O1  UNL     1      18.230  64.474  35.708  1.00  0.00    -0.263 OA
BRANCH  16  18
HETATM   18  C2  UNL     1      19.820  64.684  33.986  1.00  0.00     0.114 C 
BRANCH  18  19
HETATM   19  C3  UNL     1      19.583  64.444  32.555  1.00  0.00     0.020 C 
BRANCH  19  20
HETATM   20  C4  UNL     1      18.158  64.250  32.158  1.00  0.00     0.085 C 
HETATM   21 BR1  UNL     1      17.979  64.359  30.250  1.00  0.00    -0.097 Br
ENDBRANCH  19  20
ENDBRANCH  18  19
ENDBRANCH  16  18
ENDBRANCH  15  16
ENDBRANCH   1  15
TORSDOF 5
ENDMDL
