MODEL 1
REMARK VINA RESULT: -7.732913544      0.000      0.000
REMARK  5 active torsions:
REMARK  status: ('A' for Active; 'I' for Inactive)
REMARK    1  A    between atoms: C2_5  and  C3_6 
REMARK    2  A    between atoms: C3_6  and  N4_9 
REMARK    3  A    between atoms: C3_6  and  C11_17 
REMARK    4  A    between atoms: N4_9  and  C5_11 
REMARK    5  A    between atoms: C13_21  and  C14_22 
ROOT
HETATM    1  C3  UNL     1      16.051  63.997  28.326  1.00  0.00     0.220 C 
HETATM    2  C4  UNL     1      16.909  64.936  27.524  1.00  0.00     0.103 C 
HETATM    3  N3  UNL     1      17.579  65.658  26.929  1.00  0.00    -0.194 NA
ENDROOT
BRANCH   1   4
HETATM    4  C2  UNL     1      16.315  64.456  29.760  1.00  0.00     0.075 A 
HETATM    5  N2  UNL     1      15.422  65.128  30.480  1.00  0.00    -0.299 N 
HETATM    6  N1  UNL     1      15.920  65.390  31.678  1.00  0.00    -0.300 N 
ATOM      7  H2  UNL     1      14.493  65.401  30.158  1.00  0.00     0.187 HD
HETATM    8  C1  UNL     1      15.179  66.102  32.671  1.00  0.00     0.177 C 
HETATM    9  C13 UNL     1      17.165  64.884  31.771  1.00  0.00     0.034 A 
HETATM   10  C12 UNL     1      17.400  64.286  30.521  1.00  0.00     0.057 A 
BRANCH   9  11
HETATM   11  C14 UNL     1      18.082  64.910  32.888  1.00  0.00     0.037 C 
HETATM   12  C15 UNL     1      19.534  64.600  32.585  1.00  0.00     0.011 C 
HETATM   13  C16 UNL     1      19.587  63.671  33.793  1.00  0.00     0.001 C 
HETATM   14  C17 UNL     1      18.082  63.832  33.894  1.00  0.00     0.011 C 
ENDBRANCH   9  11
ENDBRANCH   1   4
BRANCH   1  15
HETATM   15  N4  UNL     1      14.712  64.192  27.981  1.00  0.00    -0.388 N 
ATOM     16  H4  UNL     1      14.026  64.204  28.735  1.00  0.00     0.155 HD
BRANCH  15  17
HETATM   17  C5  UNL     1      14.253  64.369  26.689  1.00  0.00     0.078 C 
HETATM   18  C6  UNL     1      12.784  64.841  26.691  1.00  0.00     0.024 C 
HETATM   19  C7  UNL     1      11.967  63.725  27.225  1.00  0.00     0.002 C 
HETATM   20  C8  UNL     1      12.128  62.402  26.571  1.00  0.00     0.000 C 
HETATM   21  C9  UNL     1      13.327  62.194  25.762  1.00  0.00     0.002 C 
HETATM   22  C10 UNL     1      14.297  63.318  25.653  1.00  0.00     0.024 C 
ENDBRANCH  15  17
ENDBRANCH   1  15
BRANCH   1  23
HETATM   23  C11 UNL     1      16.572  62.596  28.303  1.00  0.00     0.401 C 
HETATM   24  F1  UNL     1      17.038  62.331  27.023  1.00  0.00    -0.210 F 
HETATM   25  F2  UNL     1      15.449  61.760  28.481  1.00  0.00    -0.210 F 
ENDBRANCH   1  23
TORSDOF 5
ENDMDL
MODEL 2
REMARK VINA RESULT: -7.536870205      1.247      2.972
REMARK  5 active torsions:
REMARK  status: ('A' for Active; 'I' for Inactive)
REMARK    1  A    between atoms: C2_5  and  C3_6 
REMARK    2  A    between atoms: C3_6  and  N4_9 
REMARK    3  A    between atoms: C3_6  and  C11_17 
REMARK    4  A    between atoms: N4_9  and  C5_11 
REMARK    5  A    between atoms: C13_21  and  C14_22 
ROOT
HETATM    1  C3  UNL     1      16.086  63.926  28.036  1.00  0.00     0.220 C 
HETATM    2  C4  UNL     1      16.807  65.035  27.320  1.00  0.00     0.103 C 
HETATM    3  N3  UNL     1      17.367  65.891  26.792  1.00  0.00    -0.194 NA
ENDROOT
BRANCH   1   4
HETATM    4  C2  UNL     1      16.022  64.450  29.471  1.00  0.00     0.075 A 
HETATM    5  N2  UNL     1      17.048  64.376  30.314  1.00  0.00    -0.299 N 
HETATM    6  N1  UNL     1      16.708  64.905  31.478  1.00  0.00    -0.300 N 
ATOM      7  H2  UNL     1      17.959  63.972  30.096  1.00  0.00     0.187 HD
HETATM    8  C1  UNL     1      17.616  64.967  32.580  1.00  0.00     0.177 C 
HETATM    9  C13 UNL     1      15.437  65.347  31.421  1.00  0.00     0.034 A 
HETATM   10  C12 UNL     1      15.012  65.042  30.116  1.00  0.00     0.057 A 
BRANCH   9  11
HETATM   11  C14 UNL     1      14.650  66.008  32.438  1.00  0.00     0.037 C 
HETATM   12  C15 UNL     1      13.185  65.631  32.518  1.00  0.00     0.011 C 
HETATM   13  C16 UNL     1      12.813  67.106  32.623  1.00  0.00     0.001 C 
HETATM   14  C17 UNL     1      14.259  67.422  32.294  1.00  0.00     0.011 C 
ENDBRANCH   9  11
ENDBRANCH   1   4
BRANCH   1  15
HETATM   15  N4  UNL     1      14.805  63.790  27.499  1.00  0.00    -0.388 N 
ATOM     16  H4  UNL     1      14.429  64.575  26.967  1.00  0.00     0.155 HD
BRANCH  15  17
HETATM   17  C5  UNL     1      14.012  62.667  27.638  1.00  0.00     0.078 C 
HETATM   18  C6  UNL     1      13.775  61.992  26.270  1.00  0.00     0.024 C 
HETATM   19  C7  UNL     1      12.958  62.925  25.459  1.00  0.00     0.002 C 
HETATM   20  C8  UNL     1      11.694  63.415  26.067  1.00  0.00     0.000 C 
HETATM   21  C9  UNL     1      11.553  63.287  27.515  1.00  0.00     0.002 C 
HETATM   22  C10 UNL     1      12.679  62.680  28.274  1.00  0.00     0.024 C 
ENDBRANCH  15  17
ENDBRANCH   1  15
BRANCH   1  23
HETATM   23  C11 UNL     1      16.921  62.691  28.149  1.00  0.00     0.401 C 
HETATM   24  F1  UNL     1      17.086  62.164  26.876  1.00  0.00    -0.210 F 
HETATM   25  F2  UNL     1      16.134  61.753  28.851  1.00  0.00    -0.210 F 
ENDBRANCH   1  23
TORSDOF 5
ENDMDL
MODEL 3
REMARK VINA RESULT: -7.528831708      2.835      4.342
REMARK  5 active torsions:
REMARK  status: ('A' for Active; 'I' for Inactive)
REMARK    1  A    between atoms: C2_5  and  C3_6 
REMARK    2  A    between atoms: C3_6  and  N4_9 
REMARK    3  A    between atoms: C3_6  and  C11_17 
REMARK    4  A    between atoms: N4_9  and  C5_11 
REMARK    5  A    between atoms: C13_21  and  C14_22 
ROOT
HETATM    1  C3  UNL     1      12.839  64.468  28.818  1.00  0.00     0.220 C 
HETATM    2  C4  UNL     1      12.854  64.492  27.315  1.00  0.00     0.103 C 
HETATM    3  N3  UNL     1      12.886  64.503  26.164  1.00  0.00    -0.194 NA
ENDROOT
BRANCH   1   4
HETATM    4  C2  UNL     1      14.326  64.571  29.162  1.00  0.00     0.075 A 
HETATM    5  N2  UNL     1      15.284  64.553  28.240  1.00  0.00    -0.299 N 
HETATM    6  N1  UNL     1      16.467  64.660  28.824  1.00  0.00    -0.300 N 
ATOM      7  H2  UNL     1      15.130  64.469  27.235  1.00  0.00     0.187 HD
HETATM    8  C1  UNL     1      17.685  64.671  28.077  1.00  0.00     0.177 C 
HETATM    9  C13 UNL     1      16.307  64.757  30.158  1.00  0.00     0.034 A 
HETATM   10  C12 UNL     1      14.916  64.696  30.355  1.00  0.00     0.057 A 
BRANCH   9  11
HETATM   11  C14 UNL     1      17.306  64.908  31.191  1.00  0.00     0.037 C 
HETATM   12  C15 UNL     1      18.112  63.675  31.545  1.00  0.00     0.011 C 
HETATM   13  C16 UNL     1      17.909  63.969  33.028  1.00  0.00     0.001 C 
HETATM   14  C17 UNL     1      16.918  65.037  32.608  1.00  0.00     0.011 C 
ENDBRANCH   9  11
ENDBRANCH   1   4
BRANCH   1  15
HETATM   15  N4  UNL     1      12.142  65.582  29.288  1.00  0.00    -0.388 N 
ATOM     16  H4  UNL     1      12.209  66.445  28.748  1.00  0.00     0.155 HD
BRANCH  15  17
HETATM   17  C5  UNL     1      11.368  65.597  30.433  1.00  0.00     0.078 C 
HETATM   18  C6  UNL     1       9.907  65.966  30.100  1.00  0.00     0.024 C 
HETATM   19  C7  UNL     1       9.907  67.374  29.634  1.00  0.00     0.002 C 
HETATM   20  C8  UNL     1      10.549  68.376  30.523  1.00  0.00     0.000 C 
HETATM   21  C9  UNL     1      11.463  67.876  31.548  1.00  0.00     0.002 C 
HETATM   22  C10 UNL     1      11.687  66.407  31.626  1.00  0.00     0.024 C 
ENDBRANCH  15  17
ENDBRANCH   1  15
BRANCH   1  23
HETATM   23  C11 UNL     1      12.446  63.130  29.358  1.00  0.00     0.401 C 
HETATM   24  F1  UNL     1      13.298  62.179  28.817  1.00  0.00    -0.210 F 
HETATM   25  F2  UNL     1      11.171  62.852  28.817  1.00  0.00    -0.210 F 
ENDBRANCH   1  23
TORSDOF 5
ENDMDL
MODEL 4
REMARK VINA RESULT: -7.464530191      1.090      2.755
REMARK  5 active torsions:
REMARK  status: ('A' for Active; 'I' for Inactive)
REMARK    1  A    between atoms: C2_5  and  C3_6 
REMARK    2  A    between atoms: C3_6  and  N4_9 
REMARK    3  A    between atoms: C3_6  and  C11_17 
REMARK    4  A    between atoms: N4_9  and  C5_11 
REMARK    5  A    between atoms: C13_21  and  C14_22 
ROOT
HETATM    1  C3  UNL     1      16.156  63.996  28.114  1.00  0.00     0.220 C 
HETATM    2  C4  UNL     1      17.011  65.039  27.448  1.00  0.00     0.103 C 
HETATM    3  N3  UNL     1      17.674  65.842  26.959  1.00  0.00    -0.194 NA
ENDROOT
BRANCH   1   4
HETATM    4  C2  UNL     1      16.080  64.505  29.553  1.00  0.00     0.075 A 
HETATM    5  N2  UNL     1      17.095  64.414  30.407  1.00  0.00    -0.299 N 
HETATM    6  N1  UNL     1      16.745  64.935  31.573  1.00  0.00    -0.300 N 
ATOM      7  H2  UNL     1      18.006  64.006  30.196  1.00  0.00     0.187 HD
HETATM    8  C1  UNL     1      17.641  64.979  32.686  1.00  0.00     0.177 C 
HETATM    9  C13 UNL     1      15.478  65.387  31.505  1.00  0.00     0.034 A 
HETATM   10  C12 UNL     1      15.067  65.099  30.192  1.00  0.00     0.057 A 
BRANCH   9  11
HETATM   11  C14 UNL     1      14.685  66.044  32.520  1.00  0.00     0.037 C 
HETATM   12  C15 UNL     1      13.233  65.628  32.625  1.00  0.00     0.011 C 
HETATM   13  C16 UNL     1      12.820  67.093  32.708  1.00  0.00     0.001 C 
HETATM   14  C17 UNL     1      14.253  67.444  32.356  1.00  0.00     0.011 C 
ENDBRANCH   9  11
ENDBRANCH   1   4
BRANCH   1  15
HETATM   15  N4  UNL     1      14.893  63.991  27.521  1.00  0.00    -0.388 N 
ATOM     16  H4  UNL     1      14.127  64.429  28.033  1.00  0.00     0.155 HD
BRANCH  15  17
HETATM   17  C5  UNL     1      14.607  63.435  26.288  1.00  0.00     0.078 C 
HETATM   18  C6  UNL     1      13.797  64.420  25.418  1.00  0.00     0.024 C 
HETATM   19  C7  UNL     1      12.473  64.586  26.066  1.00  0.00     0.002 C 
HETATM   20  C8  UNL     1      11.712  63.347  26.366  1.00  0.00     0.000 C 
HETATM   21  C9  UNL     1      12.456  62.090  26.389  1.00  0.00     0.002 C 
HETATM   22  C10 UNL     1      13.918  62.141  26.113  1.00  0.00     0.024 C 
ENDBRANCH  15  17
ENDBRANCH   1  15
BRANCH   1  23
HETATM   23  C11 UNL     1      16.863  62.684  28.242  1.00  0.00     0.401 C 
HETATM   24  F1  UNL     1      17.199  62.250  26.968  1.00  0.00    -0.210 F 
HETATM   25  F2  UNL     1      15.899  61.768  28.716  1.00  0.00    -0.210 F 
ENDBRANCH   1  23
TORSDOF 5
ENDMDL
MODEL 5
REMARK VINA RESULT: -7.446572958      2.603      5.147
REMARK  5 active torsions:
REMARK  status: ('A' for Active; 'I' for Inactive)
REMARK    1  A    between atoms: C2_5  and  C3_6 
REMARK    2  A    between atoms: C3_6  and  N4_9 
REMARK    3  A    between atoms: C3_6  and  C11_17 
REMARK    4  A    between atoms: N4_9  and  C5_11 
REMARK    5  A    between atoms: C13_21  and  C14_22 
ROOT
HETATM    1  C3  UNL     1      16.294  64.115  27.918  1.00  0.00     0.220 C 
HETATM    2  C4  UNL     1      17.374  64.349  28.938  1.00  0.00     0.103 C 
HETATM    3  N3  UNL     1      18.186  64.524  29.734  1.00  0.00    -0.194 NA
ENDROOT
BRANCH   1   4
HETATM    4  C2  UNL     1      15.022  64.404  28.716  1.00  0.00     0.075 A 
HETATM    5  N2  UNL     1      15.039  64.911  29.945  1.00  0.00    -0.299 N 
HETATM    6  N1  UNL     1      13.800  65.054  30.386  1.00  0.00    -0.300 N 
ATOM      7  H2  UNL     1      15.881  65.153  30.469  1.00  0.00     0.187 HD
HETATM    8  C1  UNL     1      13.509  65.583  31.682  1.00  0.00     0.177 C 
HETATM    9  C13 UNL     1      12.932  64.643  29.441  1.00  0.00     0.034 A 
HETATM   10  C12 UNL     1      13.743  64.226  28.371  1.00  0.00     0.057 A 
BRANCH   9  11
HETATM   11  C14 UNL     1      11.487  64.631  29.468  1.00  0.00     0.037 C 
HETATM   12  C15 UNL     1      10.820  63.288  29.681  1.00  0.00     0.011 C 
HETATM   13  C16 UNL     1       9.846  63.592  28.548  1.00  0.00     0.001 C 
HETATM   14  C17 UNL     1      10.704  64.802  28.230  1.00  0.00     0.011 C 
ENDBRANCH   9  11
ENDBRANCH   1   4
BRANCH   1  15
HETATM   15  N4  UNL     1      16.443  65.030  26.874  1.00  0.00    -0.388 N 
ATOM     16  H4  UNL     1      16.751  65.972  27.110  1.00  0.00     0.155 HD
BRANCH  15  17
HETATM   17  C5  UNL     1      16.202  64.746  25.543  1.00  0.00     0.078 C 
HETATM   18  C6  UNL     1      17.528  64.569  24.773  1.00  0.00     0.024 C 
HETATM   19  C7  UNL     1      18.201  65.890  24.754  1.00  0.00     0.002 C 
HETATM   20  C8  UNL     1      17.410  67.041  24.249  1.00  0.00     0.000 C 
HETATM   21  C9  UNL     1      15.958  66.888  24.201  1.00  0.00     0.002 C 
HETATM   22  C10 UNL     1      15.378  65.596  24.661  1.00  0.00     0.024 C 
ENDBRANCH  15  17
ENDBRANCH   1  15
BRANCH   1  23
HETATM   23  C11 UNL     1      16.162  62.671  27.556  1.00  0.00     0.401 C 
HETATM   24  F1  UNL     1      16.050  61.941  28.730  1.00  0.00    -0.210 F 
HETATM   25  F2  UNL     1      17.400  62.297  26.990  1.00  0.00    -0.210 F 
ENDBRANCH   1  23
TORSDOF 5
ENDMDL
