MODEL 1
REMARK VINA RESULT: -7.097862732      0.000      0.000
REMARK  4 active torsions:
REMARK  status: ('A' for Active; 'I' for Inactive)
REMARK    1  A    between atoms: C2_2  and  N1_3 
REMARK    2  A    between atoms: C2_2  and  C6_15 
REMARK    3  A    between atoms: N1_3  and  S1_5 
REMARK    4  A    between atoms: S1_5  and  C3_8 
ROOT
HETATM    1  N1  UNL     1      19.378  63.900  32.531  1.00  0.00    -0.310 N 
ATOM      2  H1  UNL     1      19.947  64.704  32.265  1.00  0.00     0.172 HD
ENDROOT
BRANCH   1   3
HETATM    3  C2  UNL     1      17.983  63.943  32.358  1.00  0.00     0.093 C 
HETATM    4  C1  UNL     1      17.366  65.156  33.084  1.00  0.00     0.033 C 
BRANCH   3   5
HETATM    5  C6  UNL     1      17.621  63.973  30.909  1.00  0.00     0.009 C 
HETATM    6  C7  UNL     1      16.389  64.814  30.641  1.00  0.00     0.007 C 
HETATM    7  C8  UNL     1      15.896  64.463  29.255  1.00  0.00     0.000 C 
HETATM    8  C9  UNL     1      16.953  64.734  28.204  1.00  0.00     0.000 C 
HETATM    9  C10 UNL     1      18.288  64.185  28.569  1.00  0.00     0.000 C 
HETATM   10  C11 UNL     1      18.710  64.463  30.000  1.00  0.00     0.007 C 
ENDBRANCH   3   5
ENDBRANCH   1   3
BRANCH   1  11
HETATM   11  S1  UNL     1      20.109  62.544  33.169  1.00  0.00     0.268 S 
HETATM   12  O1  UNL     1      19.233  61.308  33.059  1.00  0.00    -0.200 OA
HETATM   13  O2  UNL     1      21.412  62.160  32.531  1.00  0.00    -0.200 OA
BRANCH  11  14
HETATM   14  C3  UNL     1      20.434  62.750  34.872  1.00  0.00     0.159 A 
HETATM   15  S2  UNL     1      21.945  62.916  35.697  1.00  0.00    -0.068 SA
HETATM   16  C4  UNL     1      21.354  63.053  37.290  1.00  0.00     0.140 A 
HETATM   17  N2  UNL     1      20.043  62.967  37.114  1.00  0.00    -0.349 N 
HETATM   18  C5  UNL     1      19.558  62.817  35.927  1.00  0.00     0.134 A 
ATOM     19  H2  UNL     1      19.417  63.019  37.917  1.00  0.00     0.166 HD
HETATM   20 CL1  UNL     1      17.803  62.695  35.634  1.00  0.00    -0.062 Cl
ENDBRANCH  11  14
ENDBRANCH   1  11
TORSDOF 4
ENDMDL
MODEL 2
REMARK VINA RESULT: -6.915186080      3.786      4.789
REMARK  4 active torsions:
REMARK  status: ('A' for Active; 'I' for Inactive)
REMARK    1  A    between atoms: C2_2  and  N1_3 
REMARK    2  A    between atoms: C2_2  and  C6_15 
REMARK    3  A    between atoms: N1_3  and  S1_5 
REMARK    4  A    between atoms: S1_5  and  C3_8 
ROOT
HETATM    1  N1  UNL     1      20.976  60.876  34.912  1.00  0.00    -0.310 N 
ATOM      2  H1  UNL     1      20.624  60.129  34.313  1.00  0.00     0.172 HD
ENDROOT
BRANCH   1   3
HETATM    3  C2  UNL     1      21.329  62.115  34.350  1.00  0.00     0.093 C 
HETATM    4  C1  UNL     1      21.954  61.937  32.951  1.00  0.00     0.033 C 
BRANCH   3   5
HETATM    5  C6  UNL     1      20.148  63.027  34.272  1.00  0.00     0.009 C 
HETATM    6  C7  UNL     1      20.407  64.229  33.387  1.00  0.00     0.007 C 
HETATM    7  C8  UNL     1      19.333  65.252  33.687  1.00  0.00     0.000 C 
HETATM    8  C9  UNL     1      17.948  64.696  33.424  1.00  0.00     0.000 C 
HETATM    9  C10 UNL     1      17.740  63.349  34.024  1.00  0.00     0.000 C 
HETATM   10  C11 UNL     1      18.883  62.377  33.795  1.00  0.00     0.007 C 
ENDBRANCH   3   5
ENDBRANCH   1   3
BRANCH   1  11
HETATM   11  S1  UNL     1      21.129  60.619  36.552  1.00  0.00     0.268 S 
HETATM   12  O1  UNL     1      20.026  61.293  37.351  1.00  0.00    -0.200 OA
HETATM   13  O2  UNL     1      21.101  59.180  36.979  1.00  0.00    -0.200 OA
BRANCH  11  14
HETATM   14  C3  UNL     1      22.628  61.283  37.153  1.00  0.00     0.159 A 
HETATM   15  S2  UNL     1      22.905  62.387  38.455  1.00  0.00    -0.068 SA
HETATM   16  C4  UNL     1      24.603  62.500  38.339  1.00  0.00     0.140 A 
HETATM   17  N2  UNL     1      24.870  61.695  37.321  1.00  0.00    -0.349 N 
HETATM   18  C5  UNL     1      23.913  61.078  36.714  1.00  0.00     0.134 A 
ATOM     19  H2  UNL     1      25.835  61.563  37.016  1.00  0.00     0.166 HD
HETATM   20 CL1  UNL     1      24.218  59.986  35.337  1.00  0.00    -0.062 Cl
ENDBRANCH  11  14
ENDBRANCH   1  11
TORSDOF 4
ENDMDL
MODEL 3
REMARK VINA RESULT: -6.892710662      3.267      4.432
REMARK  4 active torsions:
REMARK  status: ('A' for Active; 'I' for Inactive)
REMARK    1  A    between atoms: C2_2  and  N1_3 
REMARK    2  A    between atoms: C2_2  and  C6_15 
REMARK    3  A    between atoms: N1_3  and  S1_5 
REMARK    4  A    between atoms: S1_5  and  C3_8 
ROOT
HETATM    1  N1  UNL     1      20.938  61.220  35.008  1.00  0.00    -0.310 N 
ATOM      2  H1  UNL     1      19.947  60.982  34.967  1.00  0.00     0.172 HD
ENDROOT
BRANCH   1   3
HETATM    3  C2  UNL     1      21.418  62.336  34.299  1.00  0.00     0.093 C 
HETATM    4  C1  UNL     1      21.991  61.924  32.928  1.00  0.00     0.033 C 
BRANCH   3   5
HETATM    5  C6  UNL     1      20.346  63.361  34.120  1.00  0.00     0.009 C 
HETATM    6  C7  UNL     1      19.823  63.405  32.699  1.00  0.00     0.007 C 
HETATM    7  C8  UNL     1      19.057  64.699  32.538  1.00  0.00     0.000 C 
HETATM    8  C9  UNL     1      17.908  64.789  33.522  1.00  0.00     0.000 C 
HETATM    9  C10 UNL     1      18.308  64.447  34.914  1.00  0.00     0.000 C 
HETATM   10  C11 UNL     1      19.165  63.201  35.032  1.00  0.00     0.007 C 
ENDBRANCH   3   5
ENDBRANCH   1   3
BRANCH   1  11
HETATM   11  S1  UNL     1      21.978  60.284  35.914  1.00  0.00     0.268 S 
HETATM   12  O1  UNL     1      21.247  59.251  36.754  1.00  0.00    -0.200 OA
HETATM   13  O2  UNL     1      22.989  59.505  35.125  1.00  0.00    -0.200 OA
BRANCH  11  14
HETATM   14  C3  UNL     1      22.882  61.265  37.042  1.00  0.00     0.159 A 
HETATM   15  S2  UNL     1      24.585  61.545  37.146  1.00  0.00    -0.068 SA
HETATM   16  C4  UNL     1      24.593  62.580  38.501  1.00  0.00     0.140 A 
HETATM   17  N2  UNL     1      23.305  62.659  38.803  1.00  0.00    -0.349 N 
HETATM   18  C5  UNL     1      22.433  62.019  38.099  1.00  0.00     0.134 A 
ATOM     19  H2  UNL     1      23.001  63.227  39.594  1.00  0.00     0.166 HD
HETATM   20 CL1  UNL     1      20.689  62.090  38.463  1.00  0.00    -0.062 Cl
ENDBRANCH  11  14
ENDBRANCH   1  11
TORSDOF 4
ENDMDL
MODEL 4
REMARK VINA RESULT: -6.804211508      4.710      6.522
REMARK  4 active torsions:
REMARK  status: ('A' for Active; 'I' for Inactive)
REMARK    1  A    between atoms: C2_2  and  N1_3 
REMARK    2  A    between atoms: C2_2  and  C6_15 
REMARK    3  A    between atoms: N1_3  and  S1_5 
REMARK    4  A    between atoms: S1_5  and  C3_8 
ROOT
HETATM    1  N1  UNL     1      15.013  63.126  28.438  1.00  0.00    -0.310 N 
ATOM      2  H1  UNL     1      14.855  62.384  29.120  1.00  0.00     0.172 HD
ENDROOT
BRANCH   1   3
HETATM    3  C2  UNL     1      14.076  63.342  27.412  1.00  0.00     0.093 C 
HETATM    4  C1  UNL     1      14.032  62.151  26.434  1.00  0.00     0.033 C 
BRANCH   3   5
HETATM    5  C6  UNL     1      12.714  63.597  27.973  1.00  0.00     0.009 C 
HETATM    6  C7  UNL     1      11.619  63.363  26.952  1.00  0.00     0.007 C 
HETATM    7  C8  UNL     1      10.360  64.011  27.484  1.00  0.00     0.000 C 
HETATM    8  C9  UNL     1       9.959  63.429  28.824  1.00  0.00     0.000 C 
HETATM    9  C10 UNL     1      11.094  63.346  29.783  1.00  0.00     0.000 C 
HETATM   10  C11 UNL     1      12.376  62.789  29.192  1.00  0.00     0.007 C 
ENDBRANCH   3   5
ENDBRANCH   1   3
BRANCH   1  11
HETATM   11  S1  UNL     1      16.380  64.073  28.547  1.00  0.00     0.268 S 
HETATM   12  O1  UNL     1      17.620  63.365  28.028  1.00  0.00    -0.200 OA
HETATM   13  O2  UNL     1      16.323  65.368  27.790  1.00  0.00    -0.200 OA
BRANCH  11  14
HETATM   14  C3  UNL     1      16.726  64.487  30.208  1.00  0.00     0.159 A 
HETATM   15  S2  UNL     1      18.162  64.226  31.136  1.00  0.00    -0.068 SA
HETATM   16  C4  UNL     1      17.641  64.906  32.611  1.00  0.00     0.140 A 
HETATM   17  N2  UNL     1      16.408  65.295  32.322  1.00  0.00    -0.349 N 
HETATM   18  C5  UNL     1      15.927  65.101  31.140  1.00  0.00     0.134 A 
ATOM     19  H2  UNL     1      15.837  65.749  33.035  1.00  0.00     0.166 HD
HETATM   20 CL1  UNL     1      14.274  65.604  30.700  1.00  0.00    -0.062 Cl
ENDBRANCH  11  14
ENDBRANCH   1  11
TORSDOF 4
ENDMDL
MODEL 5
REMARK VINA RESULT: -6.721399905      2.488      3.116
REMARK  4 active torsions:
REMARK  status: ('A' for Active; 'I' for Inactive)
REMARK    1  A    between atoms: C2_2  and  N1_3 
REMARK    2  A    between atoms: C2_2  and  C6_15 
REMARK    3  A    between atoms: N1_3  and  S1_5 
REMARK    4  A    between atoms: S1_5  and  C3_8 
ROOT
HETATM    1  N1  UNL     1      18.011  63.741  33.174  1.00  0.00    -0.310 N 
ATOM      2  H1  UNL     1      17.582  62.816  33.130  1.00  0.00     0.172 HD
ENDROOT
BRANCH   1   3
HETATM    3  C2  UNL     1      17.825  64.647  32.114  1.00  0.00     0.093 C 
HETATM    4  C1  UNL     1      18.588  64.196  30.852  1.00  0.00     0.033 C 
BRANCH   3   5
HETATM    5  C6  UNL     1      16.374  64.821  31.803  1.00  0.00     0.009 C 
HETATM    6  C7  UNL     1      15.761  65.987  32.551  1.00  0.00     0.007 C 
HETATM    7  C8  UNL     1      14.258  65.832  32.476  1.00  0.00     0.000 C 
HETATM    8  C9  UNL     1      13.773  65.818  31.041  1.00  0.00     0.000 C 
HETATM    9  C10 UNL     1      14.558  64.899  30.172  1.00  0.00     0.000 C 
HETATM   10  C11 UNL     1      16.062  65.003  30.346  1.00  0.00     0.007 C 
ENDBRANCH   3   5
ENDBRANCH   1   3
BRANCH   1  11
HETATM   11  S1  UNL     1      18.927  64.168  34.499  1.00  0.00     0.268 S 
HETATM   12  O1  UNL     1      19.848  65.342  34.214  1.00  0.00    -0.200 OA
HETATM   13  O2  UNL     1      18.144  64.570  35.715  1.00  0.00    -0.200 OA
BRANCH  11  14
HETATM   14  C3  UNL     1      19.966  62.853  34.992  1.00  0.00     0.159 A 
HETATM   15  S2  UNL     1      20.127  62.091  36.536  1.00  0.00    -0.068 SA
HETATM   16  C4  UNL     1      21.333  60.954  36.136  1.00  0.00     0.140 A 
HETATM   17  N2  UNL     1      21.549  61.211  34.854  1.00  0.00    -0.349 N 
HETATM   18  C5  UNL     1      20.887  62.146  34.260  1.00  0.00     0.134 A 
ATOM     19  H2  UNL     1      22.241  60.669  34.336  1.00  0.00     0.166 HD
HETATM   20 CL1  UNL     1      21.140  62.533  32.538  1.00  0.00    -0.062 Cl
ENDBRANCH  11  14
ENDBRANCH   1  11
TORSDOF 4
ENDMDL
