MODEL 1
REMARK VINA RESULT: -9.367542457      0.000      0.000
REMARK  7 active torsions:
REMARK  status: ('A' for Active; 'I' for Inactive)
REMARK    1  A    between atoms: N1_7  and  C7_8 
REMARK    2  A    between atoms: C7_8  and  C8_9 
REMARK    3  A    between atoms: C8_9  and  C9_10 
REMARK    4  A    between atoms: C9_10  and  N2_11 
REMARK    5  A    between atoms: C13_17  and  C14_18 
REMARK    6  A    between atoms: C14_18  and  N4_19 
REMARK    7  A    between atoms: N6_27  and  C19_28 
ROOT
HETATM    1  N2  UNL     1      15.197  65.543  28.769  1.00  0.00    -0.373 N 
ATOM      2  H2  UNL     1      14.254  65.916  28.873  1.00  0.00     0.161 HD
HETATM    3  C10 UNL     1      15.840  65.339  29.879  1.00  0.00     0.146 A 
HETATM    4  C11 UNL     1      17.101  64.846  30.062  1.00  0.00     0.119 A 
HETATM    5  C12 UNL     1      18.025  64.392  29.065  1.00  0.00     0.106 C 
HETATM    6  N3  UNL     1      18.775  63.992  28.279  1.00  0.00    -0.191 NA
HETATM    7  C13 UNL     1      17.357  64.809  31.418  1.00  0.00     0.088 A 
HETATM    8  N5  UNL     1      16.242  65.277  31.984  1.00  0.00    -0.289 N 
ATOM      9  H5  UNL     1      16.117  65.366  32.992  1.00  0.00     0.188 HD
HETATM   10  N6  UNL     1      15.322  65.610  31.106  1.00  0.00    -0.235 N 
ENDROOT
BRANCH   7  11
HETATM   11  C14 UNL     1      18.674  64.509  32.058  1.00  0.00     0.122 C 
BRANCH  11  12
HETATM   12  N4  UNL     1      18.773  63.374  32.833  1.00  0.00    -0.364 N 
HETATM   13  C15 UNL     1      18.069  63.215  34.018  1.00  0.00     0.089 C 
HETATM   14  C16 UNL     1      19.006  63.604  35.162  1.00  0.00     0.212 C 
HETATM   15  O1  UNL     1      19.980  62.666  35.311  1.00  0.00    -0.385 OA
HETATM   16  C17 UNL     1      20.384  62.079  34.160  1.00  0.00     0.188 C 
HETATM   17  C18 UNL     1      20.079  62.778  32.874  1.00  0.00     0.153 C 
ENDBRANCH  11  12
ENDBRANCH   7  11
BRANCH   1  18
HETATM   18  C9  UNL     1      15.618  65.321  27.440  1.00  0.00     0.123 C 
BRANCH  18  19
HETATM   19  C8  UNL     1      14.668  64.430  26.657  1.00  0.00     0.050 C 
BRANCH  19  20
HETATM   20  C7  UNL     1      13.270  64.963  26.888  1.00  0.00     0.275 C 
BRANCH  20  21
HETATM   21  N1  UNL     1      12.309  63.959  27.163  1.00  0.00     0.097 N 
HETATM   22  C2  UNL     1      11.275  64.203  28.079  1.00  0.00     0.219 C 
HETATM   23  C1  UNL     1       9.884  64.183  27.474  1.00  0.00     0.043 C 
HETATM   24  C3  UNL     1      11.274  63.026  29.094  1.00  0.00     0.037 C 
HETATM   25  C4  UNL     1      12.588  62.345  28.882  1.00  0.00     0.037 C 
HETATM   26  C5  UNL     1      12.906  62.671  27.445  1.00  0.00     0.219 C 
HETATM   27  C6  UNL     1      12.400  61.677  26.447  1.00  0.00     0.043 C 
ENDBRANCH  20  21
ENDBRANCH  19  20
ENDBRANCH  18  19
ENDBRANCH   1  18
BRANCH  10  28
HETATM   28  C19 UNL     1      14.032  66.232  31.323  1.00  0.00     0.097 A 
HETATM   29  C20 UNL     1      12.841  65.573  31.220  1.00  0.00     0.035 A 
HETATM   30  C21 UNL     1      11.628  66.250  31.374  1.00  0.00     0.002 A 
HETATM   31  C22 UNL     1      11.650  67.597  31.634  1.00  0.00     0.003 A 
HETATM   32  C23 UNL     1      12.823  68.300  31.749  1.00  0.00     0.045 A 
HETATM   33  C24 UNL     1      14.014  67.590  31.587  1.00  0.00     0.145 A 
HETATM   34  F1  UNL     1      15.165  68.304  31.691  1.00  0.00    -0.204 F 
ENDBRANCH  10  28
TORSDOF 7
ENDMDL
MODEL 2
REMARK VINA RESULT: -9.357770588      1.066      1.481
REMARK  7 active torsions:
REMARK  status: ('A' for Active; 'I' for Inactive)
REMARK    1  A    between atoms: N1_7  and  C7_8 
REMARK    2  A    between atoms: C7_8  and  C8_9 
REMARK    3  A    between atoms: C8_9  and  C9_10 
REMARK    4  A    between atoms: C9_10  and  N2_11 
REMARK    5  A    between atoms: C13_17  and  C14_18 
REMARK    6  A    between atoms: C14_18  and  N4_19 
REMARK    7  A    between atoms: N6_27  and  C19_28 
ROOT
HETATM    1  N2  UNL     1      15.210  65.600  28.377  1.00  0.00    -0.373 N 
ATOM      2  H2  UNL     1      14.286  66.030  28.420  1.00  0.00     0.161 HD
HETATM    3  C10 UNL     1      15.784  65.399  29.524  1.00  0.00     0.146 A 
HETATM    4  C11 UNL     1      17.003  64.841  29.787  1.00  0.00     0.119 A 
HETATM    5  C12 UNL     1      17.946  64.301  28.853  1.00  0.00     0.106 C 
HETATM    6  N3  UNL     1      18.710  63.831  28.120  1.00  0.00    -0.191 NA
HETATM    7  C13 UNL     1      17.190  64.837  31.155  1.00  0.00     0.088 A 
HETATM    8  N5  UNL     1      16.078  65.387  31.648  1.00  0.00    -0.289 N 
ATOM      9  H5  UNL     1      15.908  65.518  32.645  1.00  0.00     0.188 HD
HETATM   10  N6  UNL     1      15.223  65.741  30.714  1.00  0.00    -0.235 N 
ENDROOT
BRANCH   7  11
HETATM   11  C14 UNL     1      18.454  64.485  31.870  1.00  0.00     0.122 C 
BRANCH  11  12
HETATM   12  N4  UNL     1      18.454  64.536  33.247  1.00  0.00    -0.364 N 
HETATM   13  C15 UNL     1      19.495  65.096  33.974  1.00  0.00     0.089 C 
HETATM   14  C16 UNL     1      20.415  63.953  34.407  1.00  0.00     0.212 C 
HETATM   15  O1  UNL     1      19.809  63.198  35.362  1.00  0.00    -0.385 OA
HETATM   16  C17 UNL     1      18.467  63.087  35.231  1.00  0.00     0.188 C 
HETATM   17  C18 UNL     1      17.866  63.399  33.897  1.00  0.00     0.153 C 
ENDBRANCH  11  12
ENDBRANCH   7  11
BRANCH   1  18
HETATM   18  C9  UNL     1      15.681  65.308  27.079  1.00  0.00     0.123 C 
BRANCH  18  19
HETATM   19  C8  UNL     1      14.808  64.306  26.341  1.00  0.00     0.050 C 
BRANCH  19  20
HETATM   20  C7  UNL     1      13.398  64.857  26.350  1.00  0.00     0.275 C 
BRANCH  20  21
HETATM   21  N1  UNL     1      12.405  63.892  26.653  1.00  0.00     0.097 N 
HETATM   22  C2  UNL     1      11.323  64.229  27.480  1.00  0.00     0.219 C 
HETATM   23  C1  UNL     1       9.971  64.172  26.795  1.00  0.00     0.043 C 
HETATM   24  C3  UNL     1      11.242  63.149  28.592  1.00  0.00     0.037 C 
HETATM   25  C4  UNL     1      12.554  62.436  28.522  1.00  0.00     0.037 C 
HETATM   26  C5  UNL     1      12.963  62.628  27.085  1.00  0.00     0.219 C 
HETATM   27  C6  UNL     1      12.500  61.554  26.150  1.00  0.00     0.043 C 
ENDBRANCH  20  21
ENDBRANCH  19  20
ENDBRANCH  18  19
ENDBRANCH   1  18
BRANCH  10  28
HETATM   28  C19 UNL     1      13.962  66.443  30.845  1.00  0.00     0.097 A 
HETATM   29  C20 UNL     1      13.836  67.800  30.770  1.00  0.00     0.035 A 
HETATM   30  C21 UNL     1      12.600  68.419  30.975  1.00  0.00     0.002 A 
HETATM   31  C22 UNL     1      11.506  67.640  31.253  1.00  0.00     0.003 A 
HETATM   32  C23 UNL     1      11.586  66.272  31.335  1.00  0.00     0.045 A 
HETATM   33  C24 UNL     1      12.837  65.689  31.126  1.00  0.00     0.145 A 
HETATM   34  F1  UNL     1      12.901  64.336  31.225  1.00  0.00    -0.204 F 
ENDBRANCH  10  28
TORSDOF 7
ENDMDL
MODEL 3
REMARK VINA RESULT: -9.297866338      0.832      1.578
REMARK  7 active torsions:
REMARK  status: ('A' for Active; 'I' for Inactive)
REMARK    1  A    between atoms: N1_7  and  C7_8 
REMARK    2  A    between atoms: C7_8  and  C8_9 
REMARK    3  A    between atoms: C8_9  and  C9_10 
REMARK    4  A    between atoms: C9_10  and  N2_11 
REMARK    5  A    between atoms: C13_17  and  C14_18 
REMARK    6  A    between atoms: C14_18  and  N4_19 
REMARK    7  A    between atoms: N6_27  and  C19_28 
ROOT
HETATM    1  N2  UNL     1      15.251  65.745  28.790  1.00  0.00    -0.373 N 
ATOM      2  H2  UNL     1      14.315  66.139  28.892  1.00  0.00     0.161 HD
HETATM    3  C10 UNL     1      15.851  65.444  29.902  1.00  0.00     0.146 A 
HETATM    4  C11 UNL     1      17.091  64.900  30.087  1.00  0.00     0.119 A 
HETATM    5  C12 UNL     1      18.033  64.491  29.088  1.00  0.00     0.106 C 
HETATM    6  N3  UNL     1      18.797  64.125  28.298  1.00  0.00    -0.191 NA
HETATM    7  C13 UNL     1      17.302  64.759  31.444  1.00  0.00     0.088 A 
HETATM    8  N5  UNL     1      16.182  65.219  32.008  1.00  0.00    -0.289 N 
ATOM      9  H5  UNL     1      16.027  65.240  33.016  1.00  0.00     0.188 HD
HETATM   10  N6  UNL     1      15.301  65.642  31.128  1.00  0.00    -0.235 N 
ENDROOT
BRANCH   7  11
HETATM   11  C14 UNL     1      18.589  64.375  32.100  1.00  0.00     0.122 C 
BRANCH  11  12
HETATM   12  N4  UNL     1      18.659  64.444  33.474  1.00  0.00    -0.364 N 
HETATM   13  C15 UNL     1      19.770  64.944  34.141  1.00  0.00     0.089 C 
HETATM   14  C16 UNL     1      20.634  63.750  34.547  1.00  0.00     0.212 C 
HETATM   15  O1  UNL     1      20.029  63.048  35.542  1.00  0.00    -0.385 OA
HETATM   16  C17 UNL     1      18.677  63.024  35.478  1.00  0.00     0.188 C 
HETATM   17  C18 UNL     1      18.032  63.356  34.171  1.00  0.00     0.153 C 
ENDBRANCH  11  12
ENDBRANCH   7  11
BRANCH   1  18
HETATM   18  C9  UNL     1      15.707  65.606  27.462  1.00  0.00     0.123 C 
BRANCH  18  19
HETATM   19  C8  UNL     1      14.756  64.806  26.587  1.00  0.00     0.050 C 
BRANCH  19  20
HETATM   20  C7  UNL     1      14.794  63.376  27.084  1.00  0.00     0.275 C 
BRANCH  20  21
HETATM   21  N1  UNL     1      13.516  62.781  27.222  1.00  0.00     0.097 N 
HETATM   22  C2  UNL     1      12.695  62.604  26.098  1.00  0.00     0.219 C 
HETATM   23  C1  UNL     1      12.403  61.155  25.758  1.00  0.00     0.043 C 
HETATM   24  C3  UNL     1      11.307  63.209  26.445  1.00  0.00     0.037 C 
HETATM   25  C4  UNL     1      11.551  64.036  27.666  1.00  0.00     0.037 C 
HETATM   26  C5  UNL     1      12.739  63.358  28.298  1.00  0.00     0.219 C 
HETATM   27  C6  UNL     1      12.400  62.280  29.279  1.00  0.00     0.043 C 
ENDBRANCH  20  21
ENDBRANCH  19  20
ENDBRANCH  18  19
ENDBRANCH   1  18
BRANCH  10  28
HETATM   28  C19 UNL     1      14.022  66.286  31.351  1.00  0.00     0.097 A 
HETATM   29  C20 UNL     1      12.819  65.658  31.211  1.00  0.00     0.035 A 
HETATM   30  C21 UNL     1      11.620  66.357  31.373  1.00  0.00     0.002 A 
HETATM   31  C22 UNL     1      11.668  67.694  31.678  1.00  0.00     0.003 A 
HETATM   32  C23 UNL     1      12.855  68.365  31.832  1.00  0.00     0.045 A 
HETATM   33  C24 UNL     1      14.032  67.635  31.661  1.00  0.00     0.145 A 
HETATM   34  F1  UNL     1      15.197  68.318  31.802  1.00  0.00    -0.204 F 
ENDBRANCH  10  28
TORSDOF 7
ENDMDL
MODEL 4
REMARK VINA RESULT: -9.295130240      1.933      3.924
REMARK  7 active torsions:
REMARK  status: ('A' for Active; 'I' for Inactive)
REMARK    1  A    between atoms: N1_7  and  C7_8 
REMARK    2  A    between atoms: C7_8  and  C8_9 
REMARK    3  A    between atoms: C8_9  and  C9_10 
REMARK    4  A    between atoms: C9_10  and  N2_11 
REMARK    5  A    between atoms: C13_17  and  C14_18 
REMARK    6  A    between atoms: C14_18  and  N4_19 
REMARK    7  A    between atoms: N6_27  and  C19_28 
ROOT
HETATM    1  N2  UNL     1      14.715  65.880  29.491  1.00  0.00    -0.373 N 
ATOM      2  H2  UNL     1      14.841  65.690  28.496  1.00  0.00     0.161 HD
HETATM    3  C10 UNL     1      15.702  65.524  30.255  1.00  0.00     0.146 A 
HETATM    4  C11 UNL     1      15.828  65.653  31.609  1.00  0.00     0.119 A 
HETATM    5  C12 UNL     1      14.907  66.251  32.529  1.00  0.00     0.106 C 
HETATM    6  N3  UNL     1      14.191  66.757  33.286  1.00  0.00    -0.191 NA
HETATM    7  C13 UNL     1      17.052  65.131  31.980  1.00  0.00     0.088 A 
HETATM    8  N5  UNL     1      17.602  64.718  30.836  1.00  0.00    -0.289 N 
ATOM      9  H5  UNL     1      18.525  64.287  30.778  1.00  0.00     0.188 HD
HETATM   10  N6  UNL     1      16.831  64.926  29.791  1.00  0.00    -0.235 N 
ENDROOT
BRANCH   7  11
HETATM   11  C14 UNL     1      17.524  64.903  33.379  1.00  0.00     0.122 C 
BRANCH  11  12
HETATM   12  N4  UNL     1      18.611  64.077  33.568  1.00  0.00    -0.364 N 
HETATM   13  C15 UNL     1      18.481  62.750  33.956  1.00  0.00     0.089 C 
HETATM   14  C16 UNL     1      18.671  62.696  35.472  1.00  0.00     0.212 C 
HETATM   15  O1  UNL     1      19.972  62.934  35.791  1.00  0.00    -0.385 OA
HETATM   16  C17 UNL     1      20.607  63.806  34.974  1.00  0.00     0.188 C 
HETATM   17  C18 UNL     1      19.768  64.713  34.131  1.00  0.00     0.153 C 
ENDBRANCH  11  12
ENDBRANCH   7  11
BRANCH   1  18
HETATM   18  C9  UNL     1      13.492  66.491  29.839  1.00  0.00     0.123 C 
BRANCH  18  19
HETATM   19  C8  UNL     1      12.514  66.570  28.678  1.00  0.00     0.050 C 
BRANCH  19  20
HETATM   20  C7  UNL     1      12.985  65.578  27.635  1.00  0.00     0.275 C 
BRANCH  20  21
HETATM   21  N1  UNL     1      12.263  64.359  27.634  1.00  0.00     0.097 N 
HETATM   22  C2  UNL     1      11.072  64.242  28.365  1.00  0.00     0.219 C 
HETATM   23  C1  UNL     1       9.837  63.998  27.518  1.00  0.00     0.043 C 
HETATM   24  C3  UNL     1      11.197  62.969  29.245  1.00  0.00     0.037 C 
HETATM   25  C4  UNL     1      12.652  62.629  29.213  1.00  0.00     0.037 C 
HETATM   26  C5  UNL     1      13.102  63.209  27.896  1.00  0.00     0.219 C 
HETATM   27  C6  UNL     1      13.010  62.271  26.732  1.00  0.00     0.043 C 
ENDBRANCH  20  21
ENDBRANCH  19  20
ENDBRANCH  18  19
ENDBRANCH   1  18
BRANCH  10  28
HETATM   28  C19 UNL     1      17.036  64.537  28.411  1.00  0.00     0.097 A 
HETATM   29  C20 UNL     1      17.407  65.402  27.423  1.00  0.00     0.035 A 
HETATM   30  C21 UNL     1      17.520  64.975  26.097  1.00  0.00     0.002 A 
HETATM   31  C22 UNL     1      17.251  63.663  25.798  1.00  0.00     0.003 A 
HETATM   32  C23 UNL     1      16.878  62.757  26.760  1.00  0.00     0.045 A 
HETATM   33  C24 UNL     1      16.774  63.221  28.072  1.00  0.00     0.145 A 
HETATM   34  F1  UNL     1      16.390  62.315  29.008  1.00  0.00    -0.204 F 
ENDBRANCH  10  28
TORSDOF 7
ENDMDL
MODEL 5
REMARK VINA RESULT: -9.268988188      1.184      1.957
REMARK  7 active torsions:
REMARK  status: ('A' for Active; 'I' for Inactive)
REMARK    1  A    between atoms: N1_7  and  C7_8 
REMARK    2  A    between atoms: C7_8  and  C8_9 
REMARK    3  A    between atoms: C8_9  and  C9_10 
REMARK    4  A    between atoms: C9_10  and  N2_11 
REMARK    5  A    between atoms: C13_17  and  C14_18 
REMARK    6  A    between atoms: C14_18  and  N4_19 
REMARK    7  A    between atoms: N6_27  and  C19_28 
ROOT
HETATM    1  N2  UNL     1      15.376  65.787  28.460  1.00  0.00    -0.373 N 
ATOM      2  H2  UNL     1      14.473  66.259  28.516  1.00  0.00     0.161 HD
HETATM    3  C10 UNL     1      15.921  65.493  29.602  1.00  0.00     0.146 A 
HETATM    4  C11 UNL     1      17.108  64.861  29.848  1.00  0.00     0.119 A 
HETATM    5  C12 UNL     1      18.038  64.329  28.898  1.00  0.00     0.106 C 
HETATM    6  N3  UNL     1      18.790  63.865  28.148  1.00  0.00    -0.191 NA
HETATM    7  C13 UNL     1      17.271  64.769  31.216  1.00  0.00     0.088 A 
HETATM    8  N5  UNL     1      16.179  65.344  31.725  1.00  0.00    -0.289 N 
ATOM      9  H5  UNL     1      16.000  65.427  32.726  1.00  0.00     0.188 HD
HETATM   10  N6  UNL     1      15.358  65.793  30.801  1.00  0.00    -0.235 N 
ENDROOT
BRANCH   7  11
HETATM   11  C14 UNL     1      18.505  64.315  31.927  1.00  0.00     0.122 C 
BRANCH  11  12
HETATM   12  N4  UNL     1      18.541  64.432  33.299  1.00  0.00    -0.364 N 
HETATM   13  C15 UNL     1      19.613  65.002  33.973  1.00  0.00     0.089 C 
HETATM   14  C16 UNL     1      20.518  63.860  34.438  1.00  0.00     0.212 C 
HETATM   15  O1  UNL     1      19.920  63.166  35.443  1.00  0.00    -0.385 OA
HETATM   16  C17 UNL     1      18.572  63.080  35.350  1.00  0.00     0.188 C 
HETATM   17  C18 UNL     1      17.945  63.341  34.018  1.00  0.00     0.153 C 
ENDBRANCH  11  12
ENDBRANCH   7  11
BRANCH   1  18
HETATM   18  C9  UNL     1      15.854  65.547  27.154  1.00  0.00     0.123 C 
BRANCH  18  19
HETATM   19  C8  UNL     1      14.938  64.646  26.342  1.00  0.00     0.050 C 
BRANCH  19  20
HETATM   20  C7  UNL     1      14.859  63.322  27.073  1.00  0.00     0.275 C 
BRANCH  20  21
HETATM   21  N1  UNL     1      13.547  62.796  27.171  1.00  0.00     0.097 N 
HETATM   22  C2  UNL     1      12.738  62.697  26.029  1.00  0.00     0.219 C 
HETATM   23  C1  UNL     1      12.372  61.278  25.641  1.00  0.00     0.043 C 
HETATM   24  C3  UNL     1      11.381  63.371  26.369  1.00  0.00     0.037 C 
HETATM   25  C4  UNL     1      11.647  64.148  27.618  1.00  0.00     0.037 C 
HETATM   26  C5  UNL     1      12.784  63.386  28.250  1.00  0.00     0.219 C 
HETATM   27  C6  UNL     1      12.366  62.301  29.193  1.00  0.00     0.043 C 
ENDBRANCH  20  21
ENDBRANCH  19  20
ENDBRANCH  18  19
ENDBRANCH   1  18
BRANCH  10  28
HETATM   28  C19 UNL     1      14.131  66.548  30.956  1.00  0.00     0.097 A 
HETATM   29  C20 UNL     1      14.055  67.907  30.850  1.00  0.00     0.035 A 
HETATM   30  C21 UNL     1      12.852  68.580  31.080  1.00  0.00     0.002 A 
HETATM   31  C22 UNL     1      11.739  67.851  31.414  1.00  0.00     0.003 A 
HETATM   32  C23 UNL     1      11.768  66.484  31.528  1.00  0.00     0.045 A 
HETATM   33  C24 UNL     1      12.987  65.847  31.293  1.00  0.00     0.145 A 
HETATM   34  F1  UNL     1      13.001  64.495  31.424  1.00  0.00    -0.204 F 
ENDBRANCH  10  28
TORSDOF 7
ENDMDL
