MODEL 1
REMARK VINA RESULT: -8.919705324      0.000      0.000
REMARK  8 active torsions:
REMARK  status: ('A' for Active; 'I' for Inactive)
REMARK    1  A    between atoms: C3_3  and  C4_4 
REMARK       I    between atoms: C4_4  and  N1_6 
REMARK    2  A    between atoms: C8_10  and  C9_11 
REMARK    3  A    between atoms: C9_11  and  N2_12 
REMARK    4  A    between atoms: C12_15  and  C13_16 
REMARK       I    between atoms: C13_16  and  N3_18 
REMARK    5  A    between atoms: N3_18  and  C14_20 
REMARK    6  A    between atoms: C14_20  and  C15_21 
REMARK    7  A    between atoms: C15_21  and  C16_22 
REMARK    8  A    between atoms: N5_29  and  C20_30 
ROOT
HETATM    1  C4  UNL     1      21.209  63.537  33.456  1.00  0.00     0.257 C 
HETATM    2  O1  UNL     1      21.972  64.383  32.870  1.00  0.00    -0.267 OA
HETATM    3  N1  UNL     1      19.838  63.555  33.237  1.00  0.00    -0.339 N 
HETATM    4  C5  UNL     1      18.834  62.715  33.787  1.00  0.00     0.127 C 
HETATM    5  C6  UNL     1      17.650  63.659  33.981  1.00  0.00     0.022 C 
HETATM    6  C7  UNL     1      18.131  64.989  33.369  1.00  0.00     0.032 C 
HETATM    7  C8  UNL     1      19.133  64.506  32.345  1.00  0.00     0.126 C 
ENDROOT
BRANCH   7   8
HETATM    8  C9  UNL     1      18.475  63.773  31.239  1.00  0.00     0.088 C 
BRANCH   8   9
HETATM    9  N2  UNL     1      17.876  64.519  30.223  1.00  0.00    -0.368 N 
HETATM   10  C10 UNL     1      16.538  64.900  30.274  1.00  0.00     0.090 C 
HETATM   11  C11 UNL     1      15.863  64.984  28.966  1.00  0.00     0.030 C 
HETATM   12  C12 UNL     1      16.265  64.332  27.914  1.00  0.00     0.012 C 
HETATM   13  C17 UNL     1      17.488  63.467  28.053  1.00  0.00     0.064 C 
HETATM   14  C18 UNL     1      18.448  64.296  28.908  1.00  0.00     0.132 C 
BRANCH  12  15
HETATM   15  C13 UNL     1      15.562  64.437  26.617  1.00  0.00     0.247 C 
HETATM   16  O2  UNL     1      16.146  65.120  25.735  1.00  0.00    -0.268 OA
HETATM   17  N3  UNL     1      14.334  63.841  26.335  1.00  0.00    -0.357 N 
ATOM     18  H3  UNL     1      13.910  63.298  27.087  1.00  0.00     0.162 HD
BRANCH  17  19
HETATM   19  C14 UNL     1      13.605  63.907  25.110  1.00  0.00     0.125 C 
BRANCH  19  20
HETATM   20  C15 UNL     1      12.704  62.709  24.960  1.00  0.00     0.051 C 
BRANCH  20  21
HETATM   21  C16 UNL     1      12.704  61.856  26.217  1.00  0.00     0.224 C 
HETATM   22  F1  UNL     1      12.746  60.527  25.777  1.00  0.00    -0.255 F 
ENDBRANCH  20  21
ENDBRANCH  19  20
ENDBRANCH  17  19
ENDBRANCH  12  15
ENDBRANCH   8   9
ENDBRANCH   7   8
BRANCH   1  23
HETATM   23  C3  UNL     1      21.871  62.569  34.354  1.00  0.00     0.072 A 
HETATM   24  C2  UNL     1      21.840  62.595  35.730  1.00  0.00     0.042 A 
HETATM   25  C1  UNL     1      21.123  63.615  36.531  1.00  0.00     0.071 C 
HETATM   26  N5  UNL     1      22.549  61.566  36.231  1.00  0.00    -0.287 N 
HETATM   27  N4  UNL     1      23.035  60.881  35.184  1.00  0.00    -0.308 N 
HETATM   28  C19 UNL     1      22.636  61.472  34.028  1.00  0.00     0.126 A 
ATOM     29  H4  UNL     1      23.615  60.044  35.247  1.00  0.00     0.186 HD
BRANCH  26  30
HETATM   30  C20 UNL     1      22.796  61.191  37.604  1.00  0.00     0.043 C 
HETATM   31  C21 UNL     1      21.558  60.557  38.220  1.00  0.00     0.039 C 
HETATM   32  C22 UNL     1      23.280  62.309  38.471  1.00  0.00     0.039 C 
HETATM   33  C23 UNL     1      23.876  60.102  37.643  1.00  0.00     0.039 C 
ENDBRANCH  26  30
ENDBRANCH   1  23
TORSDOF 8
ENDMDL
MODEL 2
REMARK VINA RESULT: -8.737747254      4.139     10.737
REMARK  8 active torsions:
REMARK  status: ('A' for Active; 'I' for Inactive)
REMARK    1  A    between atoms: C3_3  and  C4_4 
REMARK       I    between atoms: C4_4  and  N1_6 
REMARK    2  A    between atoms: C8_10  and  C9_11 
REMARK    3  A    between atoms: C9_11  and  N2_12 
REMARK    4  A    between atoms: C12_15  and  C13_16 
REMARK       I    between atoms: C13_16  and  N3_18 
REMARK    5  A    between atoms: N3_18  and  C14_20 
REMARK    6  A    between atoms: C14_20  and  C15_21 
REMARK    7  A    between atoms: C15_21  and  C16_22 
REMARK    8  A    between atoms: N5_29  and  C20_30 
ROOT
HETATM    1  C4  UNL     1      15.582  65.653  31.510  1.00  0.00     0.257 C 
HETATM    2  O1  UNL     1      15.993  66.499  32.379  1.00  0.00    -0.267 OA
HETATM    3  N1  UNL     1      16.483  64.841  30.835  1.00  0.00    -0.339 N 
HETATM    4  C5  UNL     1      16.231  63.855  29.846  1.00  0.00     0.127 C 
HETATM    5  C6  UNL     1      17.419  63.995  28.897  1.00  0.00     0.022 C 
HETATM    6  C7  UNL     1      18.317  65.045  29.577  1.00  0.00     0.032 C 
HETATM    7  C8  UNL     1      17.952  64.857  31.033  1.00  0.00     0.126 C 
ENDROOT
BRANCH   7   8
HETATM    8  C9  UNL     1      18.411  63.546  31.546  1.00  0.00     0.088 C 
BRANCH   8   9
HETATM    9  N2  UNL     1      18.466  63.365  32.929  1.00  0.00    -0.368 N 
HETATM   10  C10 UNL     1      18.533  64.438  33.813  1.00  0.00     0.090 C 
HETATM   11  C11 UNL     1      19.296  64.183  35.048  1.00  0.00     0.030 C 
HETATM   12  C12 UNL     1      20.216  63.266  35.140  1.00  0.00     0.012 C 
HETATM   13  C17 UNL     1      20.490  62.428  33.922  1.00  0.00     0.064 C 
HETATM   14  C18 UNL     1      19.108  62.131  33.341  1.00  0.00     0.132 C 
BRANCH  12  15
HETATM   15  C13 UNL     1      20.964  63.038  36.395  1.00  0.00     0.247 C 
HETATM   16  O2  UNL     1      22.215  62.958  36.276  1.00  0.00    -0.268 OA
HETATM   17  N3  UNL     1      20.377  62.912  37.653  1.00  0.00    -0.357 N 
ATOM     18  H3  UNL     1      19.360  62.988  37.688  1.00  0.00     0.162 HD
BRANCH  17  19
HETATM   19  C14 UNL     1      21.041  62.689  38.896  1.00  0.00     0.125 C 
BRANCH  19  20
HETATM   20  C15 UNL     1      20.871  61.259  39.342  1.00  0.00     0.051 C 
BRANCH  20  21
HETATM   21  C16 UNL     1      22.028  60.393  38.876  1.00  0.00     0.224 C 
HETATM   22  F1  UNL     1      21.684  59.955  37.591  1.00  0.00    -0.255 F 
ENDBRANCH  20  21
ENDBRANCH  19  20
ENDBRANCH  17  19
ENDBRANCH  12  15
ENDBRANCH   8   9
ENDBRANCH   7   8
BRANCH   1  23
HETATM   23  C3  UNL     1      14.123  65.603  31.283  1.00  0.00     0.072 A 
HETATM   24  C2  UNL     1      13.433  66.301  30.318  1.00  0.00     0.042 A 
HETATM   25  C1  UNL     1      14.063  67.222  29.343  1.00  0.00     0.071 C 
HETATM   26  N5  UNL     1      12.118  66.022  30.392  1.00  0.00    -0.287 N 
HETATM   27  N4  UNL     1      11.961  65.150  31.400  1.00  0.00    -0.308 N 
HETATM   28  C19 UNL     1      13.168  64.878  31.959  1.00  0.00     0.126 A 
ATOM     29  H4  UNL     1      11.070  64.752  31.699  1.00  0.00     0.186 HD
BRANCH  26  30
HETATM   30  C20 UNL     1      11.020  66.513  29.593  1.00  0.00     0.043 C 
HETATM   31  C21 UNL     1      11.384  66.508  28.116  1.00  0.00     0.039 C 
HETATM   32  C22 UNL     1      10.524  67.866  29.990  1.00  0.00     0.039 C 
HETATM   33  C23 UNL     1       9.832  65.551  29.725  1.00  0.00     0.039 C 
ENDBRANCH  26  30
ENDBRANCH   1  23
TORSDOF 8
ENDMDL
MODEL 3
REMARK VINA RESULT: -8.543102550      3.536     10.925
REMARK  8 active torsions:
REMARK  status: ('A' for Active; 'I' for Inactive)
REMARK    1  A    between atoms: C3_3  and  C4_4 
REMARK       I    between atoms: C4_4  and  N1_6 
REMARK    2  A    between atoms: C8_10  and  C9_11 
REMARK    3  A    between atoms: C9_11  and  N2_12 
REMARK    4  A    between atoms: C12_15  and  C13_16 
REMARK       I    between atoms: C13_16  and  N3_18 
REMARK    5  A    between atoms: N3_18  and  C14_20 
REMARK    6  A    between atoms: C14_20  and  C15_21 
REMARK    7  A    between atoms: C15_21  and  C16_22 
REMARK    8  A    between atoms: N5_29  and  C20_30 
ROOT
HETATM    1  C4  UNL     1      14.917  65.217  30.246  1.00  0.00     0.257 C 
HETATM    2  O1  UNL     1      15.019  66.296  30.928  1.00  0.00    -0.267 OA
HETATM    3  N1  UNL     1      16.050  64.491  29.903  1.00  0.00    -0.339 N 
HETATM    4  C5  UNL     1      16.148  63.286  29.159  1.00  0.00     0.127 C 
HETATM    5  C6  UNL     1      17.433  63.470  28.357  1.00  0.00     0.022 C 
HETATM    6  C7  UNL     1      18.003  64.807  28.867  1.00  0.00     0.032 C 
HETATM    7  C8  UNL     1      17.438  64.861  30.269  1.00  0.00     0.126 C 
ENDROOT
BRANCH   7   8
HETATM    8  C9  UNL     1      18.031  63.817  31.137  1.00  0.00     0.088 C 
BRANCH   8   9
HETATM    9  N2  UNL     1      18.567  64.211  32.363  1.00  0.00    -0.368 N 
HETATM   10  C10 UNL     1      19.867  64.694  32.481  1.00  0.00     0.090 C 
HETATM   11  C11 UNL     1      20.539  64.375  33.754  1.00  0.00     0.030 C 
HETATM   12  C12 UNL     1      20.199  63.369  34.506  1.00  0.00     0.012 C 
HETATM   13  C17 UNL     1      19.054  62.509  34.045  1.00  0.00     0.064 C 
HETATM   14  C18 UNL     1      18.023  63.500  33.505  1.00  0.00     0.132 C 
BRANCH  12  15
HETATM   15  C13 UNL     1      20.897  63.075  35.777  1.00  0.00     0.247 C 
HETATM   16  O2  UNL     1      22.127  62.827  35.677  1.00  0.00    -0.268 OA
HETATM   17  N3  UNL     1      20.284  63.061  37.028  1.00  0.00    -0.357 N 
ATOM     18  H3  UNL     1      19.286  63.273  37.047  1.00  0.00     0.162 HD
BRANCH  17  19
HETATM   19  C14 UNL     1      20.899  62.784  38.286  1.00  0.00     0.125 C 
BRANCH  19  20
HETATM   20  C15 UNL     1      20.590  61.378  38.732  1.00  0.00     0.051 C 
BRANCH  20  21
HETATM   21  C16 UNL     1      21.650  60.401  38.256  1.00  0.00     0.224 C 
HETATM   22  F1  UNL     1      21.142  59.826  37.085  1.00  0.00    -0.255 F 
ENDBRANCH  20  21
ENDBRANCH  19  20
ENDBRANCH  17  19
ENDBRANCH  12  15
ENDBRANCH   8   9
ENDBRANCH   7   8
BRANCH   1  23
HETATM   23  C3  UNL     1      13.551  64.811  29.861  1.00  0.00     0.072 A 
HETATM   24  C2  UNL     1      13.004  64.910  28.601  1.00  0.00     0.042 A 
HETATM   25  C1  UNL     1      13.721  65.446  27.420  1.00  0.00     0.071 C 
HETATM   26  N5  UNL     1      11.739  64.450  28.604  1.00  0.00    -0.287 N 
HETATM   27  N4  UNL     1      11.470  64.057  29.860  1.00  0.00    -0.308 N 
HETATM   28  C19 UNL     1      12.558  64.267  30.645  1.00  0.00     0.126 A 
ATOM     29  H4  UNL     1      10.584  63.662  30.175  1.00  0.00     0.186 HD
BRANCH  26  30
HETATM   30  C20 UNL     1      10.784  64.357  27.526  1.00  0.00     0.043 C 
HETATM   31  C21 UNL     1      11.246  63.351  26.483  1.00  0.00     0.039 C 
HETATM   32  C22 UNL     1      10.466  65.662  26.869  1.00  0.00     0.039 C 
HETATM   33  C23 UNL     1       9.461  63.803  28.071  1.00  0.00     0.039 C 
ENDBRANCH  26  30
ENDBRANCH   1  23
TORSDOF 8
ENDMDL
MODEL 4
REMARK VINA RESULT: -8.480258269      4.187     10.743
REMARK  8 active torsions:
REMARK  status: ('A' for Active; 'I' for Inactive)
REMARK    1  A    between atoms: C3_3  and  C4_4 
REMARK       I    between atoms: C4_4  and  N1_6 
REMARK    2  A    between atoms: C8_10  and  C9_11 
REMARK    3  A    between atoms: C9_11  and  N2_12 
REMARK    4  A    between atoms: C12_15  and  C13_16 
REMARK       I    between atoms: C13_16  and  N3_18 
REMARK    5  A    between atoms: N3_18  and  C14_20 
REMARK    6  A    between atoms: C14_20  and  C15_21 
REMARK    7  A    between atoms: C15_21  and  C16_22 
REMARK    8  A    between atoms: N5_29  and  C20_30 
ROOT
HETATM    1  C4  UNL     1      15.634  65.649  31.430  1.00  0.00     0.257 C 
HETATM    2  O1  UNL     1      16.082  66.510  32.265  1.00  0.00    -0.267 OA
HETATM    3  N1  UNL     1      16.506  64.816  30.741  1.00  0.00    -0.339 N 
HETATM    4  C5  UNL     1      16.212  63.811  29.783  1.00  0.00     0.127 C 
HETATM    5  C6  UNL     1      17.365  63.922  28.789  1.00  0.00     0.022 C 
HETATM    6  C7  UNL     1      18.294  64.980  29.413  1.00  0.00     0.032 C 
HETATM    7  C8  UNL     1      17.981  64.826  30.885  1.00  0.00     0.126 C 
ENDROOT
BRANCH   7   8
HETATM    8  C9  UNL     1      18.450  63.523  31.410  1.00  0.00     0.088 C 
BRANCH   8   9
HETATM    9  N2  UNL     1      18.642  63.401  32.786  1.00  0.00    -0.368 N 
HETATM   10  C10 UNL     1      18.876  64.505  33.602  1.00  0.00     0.090 C 
HETATM   11  C11 UNL     1      19.750  64.251  34.762  1.00  0.00     0.030 C 
HETATM   12  C12 UNL     1      20.612  63.277  34.804  1.00  0.00     0.012 C 
HETATM   13  C17 UNL     1      20.697  62.368  33.609  1.00  0.00     0.064 C 
HETATM   14  C18 UNL     1      19.243  62.144  33.193  1.00  0.00     0.132 C 
BRANCH  12  15
HETATM   15  C13 UNL     1      21.476  63.052  35.983  1.00  0.00     0.247 C 
HETATM   16  O2  UNL     1      20.876  62.739  37.045  1.00  0.00    -0.268 OA
HETATM   17  N3  UNL     1      22.865  63.166  35.977  1.00  0.00    -0.357 N 
ATOM     18  H3  UNL     1      23.295  63.420  35.087  1.00  0.00     0.162 HD
BRANCH  17  19
HETATM   19  C14 UNL     1      23.751  62.966  37.077  1.00  0.00     0.125 C 
BRANCH  19  20
HETATM   20  C15 UNL     1      24.774  61.909  36.752  1.00  0.00     0.051 C 
BRANCH  20  21
HETATM   21  C16 UNL     1      24.138  60.534  36.653  1.00  0.00     0.224 C 
HETATM   22  F1  UNL     1      24.501  60.034  35.397  1.00  0.00    -0.255 F 
ENDBRANCH  20  21
ENDBRANCH  19  20
ENDBRANCH  17  19
ENDBRANCH  12  15
ENDBRANCH   8   9
ENDBRANCH   7   8
BRANCH   1  23
HETATM   23  C3  UNL     1      14.168  65.604  31.257  1.00  0.00     0.072 A 
HETATM   24  C2  UNL     1      13.448  66.289  30.304  1.00  0.00     0.042 A 
HETATM   25  C1  UNL     1      14.048  67.186  29.289  1.00  0.00     0.071 C 
HETATM   26  N5  UNL     1      12.135  66.020  30.431  1.00  0.00    -0.287 N 
HETATM   27  N4  UNL     1      12.009  65.168  31.461  1.00  0.00    -0.308 N 
HETATM   28  C19 UNL     1      13.234  64.899  31.981  1.00  0.00     0.126 A 
ATOM     29  H4  UNL     1      11.127  64.782  31.800  1.00  0.00     0.186 HD
BRANCH  26  30
HETATM   30  C20 UNL     1      11.011  66.502  29.663  1.00  0.00     0.043 C 
HETATM   31  C21 UNL     1      11.326  66.477  28.175  1.00  0.00     0.039 C 
HETATM   32  C22 UNL     1      10.531  67.862  30.058  1.00  0.00     0.039 C 
HETATM   33  C23 UNL     1       9.827  65.545  29.847  1.00  0.00     0.039 C 
ENDBRANCH  26  30
ENDBRANCH   1  23
TORSDOF 8
ENDMDL
MODEL 5
REMARK VINA RESULT: -8.477519595      1.258      1.318
REMARK  8 active torsions:
REMARK  status: ('A' for Active; 'I' for Inactive)
REMARK    1  A    between atoms: C3_3  and  C4_4 
REMARK       I    between atoms: C4_4  and  N1_6 
REMARK    2  A    between atoms: C8_10  and  C9_11 
REMARK    3  A    between atoms: C9_11  and  N2_12 
REMARK    4  A    between atoms: C12_15  and  C13_16 
REMARK       I    between atoms: C13_16  and  N3_18 
REMARK    5  A    between atoms: N3_18  and  C14_20 
REMARK    6  A    between atoms: C14_20  and  C15_21 
REMARK    7  A    between atoms: C15_21  and  C16_22 
REMARK    8  A    between atoms: N5_29  and  C20_30 
ROOT
HETATM    1  C4  UNL     1      21.192  62.690  34.121  1.00  0.00     0.257 C 
HETATM    2  O1  UNL     1      22.085  62.887  33.225  1.00  0.00    -0.267 OA
HETATM    3  N1  UNL     1      19.943  63.288  34.015  1.00  0.00    -0.339 N 
HETATM    4  C5  UNL     1      18.831  63.198  34.893  1.00  0.00     0.127 C 
HETATM    5  C6  UNL     1      18.227  64.599  34.843  1.00  0.00     0.022 C 
HETATM    6  C7  UNL     1      19.069  65.329  33.780  1.00  0.00     0.032 C 
HETATM    7  C8  UNL     1      19.520  64.178  32.908  1.00  0.00     0.126 C 
ENDROOT
BRANCH   7   8
HETATM    8  C9  UNL     1      18.385  63.573  32.173  1.00  0.00     0.088 C 
BRANCH   8   9
HETATM    9  N2  UNL     1      17.808  64.307  31.137  1.00  0.00    -0.368 N 
HETATM   10  C10 UNL     1      16.586  64.957  31.282  1.00  0.00     0.090 C 
HETATM   11  C11 UNL     1      15.769  65.032  30.057  1.00  0.00     0.030 C 
HETATM   12  C12 UNL     1      15.895  64.199  29.065  1.00  0.00     0.012 C 
HETATM   13  C17 UNL     1      16.939  63.123  29.186  1.00  0.00     0.064 C 
HETATM   14  C18 UNL     1      18.145  63.827  29.809  1.00  0.00     0.132 C 
BRANCH  12  15
HETATM   15  C13 UNL     1      15.057  64.301  27.851  1.00  0.00     0.247 C 
HETATM   16  O2  UNL     1      14.668  65.461  27.554  1.00  0.00    -0.268 OA
HETATM   17  N3  UNL     1      14.691  63.219  27.052  1.00  0.00    -0.357 N 
ATOM     18  H3  UNL     1      15.037  62.304  27.340  1.00  0.00     0.162 HD
BRANCH  17  19
HETATM   19  C14 UNL     1      13.885  63.251  25.875  1.00  0.00     0.125 C 
BRANCH  19  20
HETATM   20  C15 UNL     1      13.087  61.980  25.740  1.00  0.00     0.051 C 
BRANCH  20  21
HETATM   21  C16 UNL     1      11.679  62.259  25.244  1.00  0.00     0.224 C 
HETATM   22  F1  UNL     1      11.668  61.885  23.895  1.00  0.00    -0.255 F 
ENDBRANCH  20  21
ENDBRANCH  19  20
ENDBRANCH  17  19
ENDBRANCH  12  15
ENDBRANCH   8   9
ENDBRANCH   7   8
BRANCH   1  23
HETATM   23  C3  UNL     1      21.571  61.806  35.242  1.00  0.00     0.072 A 
HETATM   24  C2  UNL     1      21.861  62.212  36.526  1.00  0.00     0.042 A 
HETATM   25  C1  UNL     1      21.831  63.621  36.983  1.00  0.00     0.071 C 
HETATM   26  N5  UNL     1      22.168  61.149  37.292  1.00  0.00    -0.287 N 
HETATM   27  N4  UNL     1      22.078  60.063  36.507  1.00  0.00    -0.308 N 
HETATM   28  C19 UNL     1      21.716  60.437  35.252  1.00  0.00     0.126 A 
ATOM     29  H4  UNL     1      22.255  59.104  36.807  1.00  0.00     0.186 HD
BRANCH  26  30
HETATM   30  C20 UNL     1      22.534  61.086  38.687  1.00  0.00     0.043 C 
HETATM   31  C21 UNL     1      21.314  60.815  39.553  1.00  0.00     0.039 C 
HETATM   32  C22 UNL     1      23.257  62.295  39.190  1.00  0.00     0.039 C 
HETATM   33  C23 UNL     1      23.468  59.889  38.910  1.00  0.00     0.039 C 
ENDBRANCH  26  30
ENDBRANCH   1  23
TORSDOF 8
ENDMDL
