MODEL 1
REMARK VINA RESULT: -9.727462096      0.000      0.000
REMARK  7 active torsions:
REMARK  status: ('A' for Active; 'I' for Inactive)
REMARK       I    between atoms: C2_2  and  N1_4 
REMARK    1  A    between atoms: N1_4  and  C3_6 
REMARK    2  A    between atoms: C3_6  and  C5_8 
REMARK    3  A    between atoms: C7_12  and  O2_13 
REMARK    4  A    between atoms: O2_13  and  C8_14 
REMARK       I    between atoms: N3_17  and  C11_18 
REMARK    5  A    between atoms: C11_18  and  C12_20 
REMARK    6  A    between atoms: C12_20  and  C13_21 
REMARK    7  A    between atoms: C18_27  and  N4_28 
ROOT
HETATM    1  C5  UNL     1      16.531  64.228  28.633  1.00  0.00     0.049 A 
HETATM    2  C6  UNL     1      17.800  64.047  29.142  1.00  0.00     0.117 A 
HETATM    3  N2  UNL     1      18.135  64.484  30.371  1.00  0.00    -0.342 N 
ATOM      4  H2  UNL     1      19.084  64.332  30.714  1.00  0.00     0.167 HD
HETATM    5  C7  UNL     1      17.246  65.117  31.154  1.00  0.00     0.188 A 
HETATM    6  C18 UNL     1      15.975  65.303  30.654  1.00  0.00     0.156 A 
HETATM    7  N5  UNL     1      15.635  64.863  29.416  1.00  0.00    -0.340 N 
ATOM      8  H5  UNL     1      14.687  65.014  29.073  1.00  0.00     0.167 HD
ENDROOT
BRANCH   5   9
HETATM    9  O2  UNL     1      17.523  65.590  32.421  1.00  0.00    -0.327 OA
BRANCH   9  10
HETATM   10  C8  UNL     1      18.427  64.984  33.312  1.00  0.00     0.133 C 
HETATM   11  C9  UNL     1      19.785  64.754  32.694  1.00  0.00     0.052 C 
HETATM   12  C10 UNL     1      20.132  63.281  32.628  1.00  0.00     0.128 C 
HETATM   13  N3  UNL     1      20.024  62.762  33.975  1.00  0.00    -0.352 N 
HETATM   14  C11 UNL     1      21.156  62.167  34.570  1.00  0.00     0.222 C 
HETATM   15  C16 UNL     1      18.744  62.886  34.640  1.00  0.00     0.128 C 
HETATM   16  O3  UNL     1      22.244  62.078  33.966  1.00  0.00    -0.273 OA
HETATM   17  C17 UNL     1      17.809  63.683  33.771  1.00  0.00     0.052 C 
BRANCH  14  18
HETATM   18  C12 UNL     1      21.086  61.622  35.952  1.00  0.00     0.145 C 
BRANCH  18  19
HETATM   19  C13 UNL     1      21.679  62.570  36.954  1.00  0.00     0.104 C 
HETATM   20  C14 UNL     1      20.929  62.417  38.258  1.00  0.00     0.051 C 
HETATM   21  C15 UNL     1      23.162  62.377  37.141  1.00  0.00     0.051 C 
HETATM   22  F1  UNL     1      21.420  63.858  36.499  1.00  0.00    -0.243 F 
ENDBRANCH  18  19
ENDBRANCH  14  18
ENDBRANCH   9  10
ENDBRANCH   5   9
BRANCH   6  23
HETATM   23  N4  UNL     1      15.007  65.964  31.447  1.00  0.00    -0.364 N 
HETATM   24  C19 UNL     1      14.099  65.324  32.369  1.00  0.00     0.124 C 
HETATM   25  C20 UNL     1      12.951  66.305  32.434  1.00  0.00     0.021 C 
HETATM   26  C21 UNL     1      13.674  67.632  32.453  1.00  0.00     0.021 C 
HETATM   27  C22 UNL     1      14.788  67.394  31.446  1.00  0.00     0.124 C 
ENDBRANCH   6  23
BRANCH   1  28
HETATM   28  C3  UNL     1      16.199  63.730  27.273  1.00  0.00     0.132 C 
HETATM   29  C4  UNL     1      15.969  62.240  27.286  1.00  0.00     0.039 C 
BRANCH  28  30
HETATM   30  N1  UNL     1      17.258  64.104  26.386  1.00  0.00    -0.352 N 
HETATM   31  C2  UNL     1      17.260  65.306  25.629  1.00  0.00     0.214 C 
HETATM   32  C1  UNL     1      18.359  65.678  24.720  1.00  0.00     0.117 C 
HETATM   33  O1  UNL     1      16.277  66.079  25.747  1.00  0.00    -0.274 OA
ATOM     34  H1  UNL     1      18.054  63.474  26.292  1.00  0.00     0.163 HD
ENDBRANCH  28  30
ENDBRANCH   1  28
TORSDOF 7
ENDMDL
MODEL 2
REMARK VINA RESULT: -9.686831262      1.945      4.372
REMARK  7 active torsions:
REMARK  status: ('A' for Active; 'I' for Inactive)
REMARK       I    between atoms: C2_2  and  N1_4 
REMARK    1  A    between atoms: N1_4  and  C3_6 
REMARK    2  A    between atoms: C3_6  and  C5_8 
REMARK    3  A    between atoms: C7_12  and  O2_13 
REMARK    4  A    between atoms: O2_13  and  C8_14 
REMARK       I    between atoms: N3_17  and  C11_18 
REMARK    5  A    between atoms: C11_18  and  C12_20 
REMARK    6  A    between atoms: C12_20  and  C13_21 
REMARK    7  A    between atoms: C18_27  and  N4_28 
ROOT
HETATM    1  C5  UNL     1      14.176  65.943  31.390  1.00  0.00     0.049 A 
HETATM    2  C6  UNL     1      14.842  66.067  32.592  1.00  0.00     0.117 A 
HETATM    3  N2  UNL     1      16.124  65.683  32.730  1.00  0.00    -0.342 N 
ATOM      4  H2  UNL     1      16.584  65.790  33.635  1.00  0.00     0.167 HD
HETATM    5  C7  UNL     1      16.813  65.161  31.701  1.00  0.00     0.188 A 
HETATM    6  C18 UNL     1      16.156  65.032  30.496  1.00  0.00     0.156 A 
HETATM    7  N5  UNL     1      14.864  65.419  30.355  1.00  0.00    -0.340 N 
ATOM      8  H5  UNL     1      14.404  65.312  29.451  1.00  0.00     0.167 HD
ENDROOT
BRANCH   5   9
HETATM    9  O2  UNL     1      18.128  64.747  31.775  1.00  0.00    -0.327 OA
BRANCH   9  10
HETATM   10  C8  UNL     1      18.829  64.546  32.977  1.00  0.00     0.133 C 
HETATM   11  C9  UNL     1      20.326  64.586  32.789  1.00  0.00     0.052 C 
HETATM   12  C10 UNL     1      20.973  63.263  33.147  1.00  0.00     0.128 C 
HETATM   13  N3  UNL     1      20.578  62.953  34.504  1.00  0.00    -0.352 N 
HETATM   14  C11 UNL     1      21.577  62.777  35.483  1.00  0.00     0.222 C 
HETATM   15  C16 UNL     1      19.161  62.840  34.779  1.00  0.00     0.128 C 
HETATM   16  O3  UNL     1      22.790  62.881  35.209  1.00  0.00    -0.273 OA
HETATM   17  C17 UNL     1      18.385  63.218  33.545  1.00  0.00     0.052 C 
BRANCH  14  18
HETATM   18  C12 UNL     1      21.211  62.456  36.889  1.00  0.00     0.145 C 
BRANCH  18  19
HETATM   19  C13 UNL     1      21.764  61.127  37.317  1.00  0.00     0.104 C 
HETATM   20  C14 UNL     1      21.102  60.731  38.617  1.00  0.00     0.051 C 
HETATM   21  C15 UNL     1      21.608  60.058  36.266  1.00  0.00     0.051 C 
HETATM   22  F1  UNL     1      23.111  61.320  37.603  1.00  0.00    -0.243 F 
ENDBRANCH  18  19
ENDBRANCH  14  18
ENDBRANCH   9  10
ENDBRANCH   5   9
BRANCH   6  23
HETATM   23  N4  UNL     1      16.845  64.487  29.386  1.00  0.00    -0.364 N 
HETATM   24  C19 UNL     1      17.919  65.131  28.667  1.00  0.00     0.124 C 
HETATM   25  C20 UNL     1      17.840  64.481  27.305  1.00  0.00     0.021 C 
HETATM   26  C21 UNL     1      17.556  63.039  27.663  1.00  0.00     0.021 C 
HETATM   27  C22 UNL     1      16.566  63.191  28.806  1.00  0.00     0.124 C 
ENDBRANCH   6  23
BRANCH   1  28
HETATM   28  C3  UNL     1      12.760  66.379  31.277  1.00  0.00     0.132 C 
HETATM   29  C4  UNL     1      12.387  67.292  32.417  1.00  0.00     0.039 C 
BRANCH  28  30
HETATM   30  N1  UNL     1      11.933  65.213  31.227  1.00  0.00    -0.352 N 
HETATM   31  C2  UNL     1      11.587  64.548  30.020  1.00  0.00     0.214 C 
HETATM   32  C1  UNL     1      10.734  63.347  29.984  1.00  0.00     0.117 C 
HETATM   33  O1  UNL     1      12.032  65.013  28.941  1.00  0.00    -0.274 OA
ATOM     34  H1  UNL     1      11.572  64.839  32.104  1.00  0.00     0.163 HD
ENDBRANCH  28  30
ENDBRANCH   1  28
TORSDOF 7
ENDMDL
MODEL 3
REMARK VINA RESULT: -9.648478919      1.990      4.214
REMARK  7 active torsions:
REMARK  status: ('A' for Active; 'I' for Inactive)
REMARK       I    between atoms: C2_2  and  N1_4 
REMARK    1  A    between atoms: N1_4  and  C3_6 
REMARK    2  A    between atoms: C3_6  and  C5_8 
REMARK    3  A    between atoms: C7_12  and  O2_13 
REMARK    4  A    between atoms: O2_13  and  C8_14 
REMARK       I    between atoms: N3_17  and  C11_18 
REMARK    5  A    between atoms: C11_18  and  C12_20 
REMARK    6  A    between atoms: C12_20  and  C13_21 
REMARK    7  A    between atoms: C18_27  and  N4_28 
ROOT
HETATM    1  C5  UNL     1      14.505  66.798  31.194  1.00  0.00     0.049 A 
HETATM    2  C6  UNL     1      14.963  66.618  32.483  1.00  0.00     0.117 A 
HETATM    3  N2  UNL     1      15.973  65.773  32.761  1.00  0.00    -0.342 N 
ATOM      4  H2  UNL     1      16.285  65.666  33.726  1.00  0.00     0.167 HD
HETATM    5  C7  UNL     1      16.581  65.067  31.792  1.00  0.00     0.188 A 
HETATM    6  C18 UNL     1      16.130  65.239  30.500  1.00  0.00     0.156 A 
HETATM    7  N5  UNL     1      15.112  66.091  30.219  1.00  0.00    -0.340 N 
ATOM      8  H5  UNL     1      14.800  66.198  29.254  1.00  0.00     0.167 HD
ENDROOT
BRANCH   5   9
HETATM    9  O2  UNL     1      17.621  64.185  32.007  1.00  0.00    -0.327 OA
BRANCH   9  10
HETATM   10  C8  UNL     1      18.526  64.276  33.079  1.00  0.00     0.133 C 
HETATM   11  C9  UNL     1      19.946  63.970  32.666  1.00  0.00     0.052 C 
HETATM   12  C10 UNL     1      20.490  62.750  33.381  1.00  0.00     0.128 C 
HETATM   13  N3  UNL     1      20.351  62.995  34.800  1.00  0.00    -0.352 N 
HETATM   14  C11 UNL     1      21.503  62.978  35.613  1.00  0.00     0.222 C 
HETATM   15  C16 UNL     1      19.018  63.248  35.308  1.00  0.00     0.128 C 
HETATM   16  O3  UNL     1      22.636  62.757  35.140  1.00  0.00    -0.273 OA
HETATM   17  C17 UNL     1      18.055  63.324  34.155  1.00  0.00     0.052 C 
BRANCH  14  18
HETATM   18  C12 UNL     1      21.401  63.225  37.076  1.00  0.00     0.145 C 
BRANCH  18  19
HETATM   19  C13 UNL     1      21.693  61.984  37.870  1.00  0.00     0.104 C 
HETATM   20  C14 UNL     1      21.259  62.219  39.299  1.00  0.00     0.051 C 
HETATM   21  C15 UNL     1      21.051  60.750  37.291  1.00  0.00     0.051 C 
HETATM   22  F1  UNL     1      23.075  61.833  37.898  1.00  0.00    -0.243 F 
ENDBRANCH  18  19
ENDBRANCH  14  18
ENDBRANCH   9  10
ENDBRANCH   5   9
BRANCH   6  23
HETATM   23  N4  UNL     1      16.743  64.515  29.450  1.00  0.00    -0.364 N 
HETATM   24  C19 UNL     1      17.996  64.853  28.818  1.00  0.00     0.124 C 
HETATM   25  C20 UNL     1      17.861  64.215  27.455  1.00  0.00     0.021 C 
HETATM   26  C21 UNL     1      17.197  62.898  27.792  1.00  0.00     0.021 C 
HETATM   27  C22 UNL     1      16.192  63.319  28.852  1.00  0.00     0.124 C 
ENDBRANCH   6  23
BRANCH   1  28
HETATM   28  C3  UNL     1      13.388  67.740  30.928  1.00  0.00     0.132 C 
HETATM   29  C4  UNL     1      12.089  66.996  30.746  1.00  0.00     0.039 C 
BRANCH  28  30
HETATM   30  N1  UNL     1      13.725  68.526  29.781  1.00  0.00    -0.352 N 
HETATM   31  C2  UNL     1      14.058  69.906  29.845  1.00  0.00     0.214 C 
HETATM   32  C1  UNL     1      14.404  70.701  28.654  1.00  0.00     0.117 C 
HETATM   33  O1  UNL     1      14.055  70.461  30.971  1.00  0.00    -0.274 OA
ATOM     34  H1  UNL     1      13.726  68.072  28.868  1.00  0.00     0.163 HD
ENDBRANCH  28  30
ENDBRANCH   1  28
TORSDOF 7
ENDMDL
MODEL 4
REMARK VINA RESULT: -9.646904581      1.341      1.792
REMARK  7 active torsions:
REMARK  status: ('A' for Active; 'I' for Inactive)
REMARK       I    between atoms: C2_2  and  N1_4 
REMARK    1  A    between atoms: N1_4  and  C3_6 
REMARK    2  A    between atoms: C3_6  and  C5_8 
REMARK    3  A    between atoms: C7_12  and  O2_13 
REMARK    4  A    between atoms: O2_13  and  C8_14 
REMARK       I    between atoms: N3_17  and  C11_18 
REMARK    5  A    between atoms: C11_18  and  C12_20 
REMARK    6  A    between atoms: C12_20  and  C13_21 
REMARK    7  A    between atoms: C18_27  and  N4_28 
ROOT
HETATM    1  C5  UNL     1      16.106  64.251  28.292  1.00  0.00     0.049 A 
HETATM    2  C6  UNL     1      17.333  63.793  28.725  1.00  0.00     0.117 A 
HETATM    3  N2  UNL     1      17.758  63.999  29.986  1.00  0.00    -0.342 N 
ATOM      4  H2  UNL     1      18.672  63.646  30.270  1.00  0.00     0.167 HD
HETATM    5  C7  UNL     1      17.002  64.661  30.879  1.00  0.00     0.188 A 
HETATM    6  C18 UNL     1      15.774  65.123  30.456  1.00  0.00     0.156 A 
HETATM    7  N5  UNL     1      15.345  64.916  29.186  1.00  0.00    -0.340 N 
ATOM      8  H5  UNL     1      14.431  65.269  28.901  1.00  0.00     0.167 HD
ENDROOT
BRANCH   5   9
HETATM    9  O2  UNL     1      17.377  64.906  32.185  1.00  0.00    -0.327 OA
BRANCH   9  10
HETATM   10  C8  UNL     1      18.301  64.127  32.903  1.00  0.00     0.133 C 
HETATM   11  C9  UNL     1      17.839  63.828  34.308  1.00  0.00     0.052 C 
HETATM   12  C10 UNL     1      18.773  64.418  35.346  1.00  0.00     0.128 C 
HETATM   13  N3  UNL     1      20.097  63.907  35.061  1.00  0.00    -0.352 N 
HETATM   14  C11 UNL     1      20.773  63.172  36.056  1.00  0.00     0.222 C 
HETATM   15  C16 UNL     1      20.654  64.186  33.754  1.00  0.00     0.128 C 
HETATM   16  O3  UNL     1      20.261  62.951  37.171  1.00  0.00    -0.273 OA
HETATM   17  C17 UNL     1      19.616  64.872  32.908  1.00  0.00     0.052 C 
BRANCH  14  18
HETATM   18  C12 UNL     1      22.136  62.631  35.802  1.00  0.00     0.145 C 
BRANCH  18  19
HETATM   19  C13 UNL     1      22.119  61.138  35.644  1.00  0.00     0.104 C 
HETATM   20  C14 UNL     1      23.247  60.743  34.718  1.00  0.00     0.051 C 
HETATM   21  C15 UNL     1      22.199  60.406  36.960  1.00  0.00     0.051 C 
HETATM   22  F1  UNL     1      20.938  60.810  34.989  1.00  0.00    -0.243 F 
ENDBRANCH  18  19
ENDBRANCH  14  18
ENDBRANCH   9  10
ENDBRANCH   5   9
BRANCH   6  23
HETATM   23  N4  UNL     1      14.947  65.824  31.365  1.00  0.00    -0.364 N 
HETATM   24  C19 UNL     1      13.954  65.228  32.227  1.00  0.00     0.124 C 
HETATM   25  C20 UNL     1      12.994  66.371  32.463  1.00  0.00     0.021 C 
HETATM   26  C21 UNL     1      13.937  67.541  32.631  1.00  0.00     0.021 C 
HETATM   27  C22 UNL     1      14.978  67.257  31.560  1.00  0.00     0.124 C 
ENDBRANCH   6  23
BRANCH   1  28
HETATM   28  C3  UNL     1      15.673  64.003  26.893  1.00  0.00     0.132 C 
HETATM   29  C4  UNL     1      15.087  62.621  26.748  1.00  0.00     0.039 C 
BRANCH  28  30
HETATM   30  N1  UNL     1      16.796  64.206  26.031  1.00  0.00    -0.352 N 
HETATM   31  C2  UNL     1      17.079  65.441  25.388  1.00  0.00     0.214 C 
HETATM   32  C1  UNL     1      18.241  65.634  24.503  1.00  0.00     0.117 C 
HETATM   33  O1  UNL     1      16.298  66.403  25.589  1.00  0.00    -0.274 OA
ATOM     34  H1  UNL     1      17.428  63.422  25.869  1.00  0.00     0.163 HD
ENDBRANCH  28  30
ENDBRANCH   1  28
TORSDOF 7
ENDMDL
MODEL 5
REMARK VINA RESULT: -9.568796469      1.419      2.036
REMARK  7 active torsions:
REMARK  status: ('A' for Active; 'I' for Inactive)
REMARK       I    between atoms: C2_2  and  N1_4 
REMARK    1  A    between atoms: N1_4  and  C3_6 
REMARK    2  A    between atoms: C3_6  and  C5_8 
REMARK    3  A    between atoms: C7_12  and  O2_13 
REMARK    4  A    between atoms: O2_13  and  C8_14 
REMARK       I    between atoms: N3_17  and  C11_18 
REMARK    5  A    between atoms: C11_18  and  C12_20 
REMARK    6  A    between atoms: C12_20  and  C13_21 
REMARK    7  A    between atoms: C18_27  and  N4_28 
ROOT
HETATM    1  C5  UNL     1      16.284  63.818  28.677  1.00  0.00     0.049 A 
HETATM    2  C6  UNL     1      17.573  63.656  29.139  1.00  0.00     0.117 A 
HETATM    3  N2  UNL     1      17.985  64.216  30.291  1.00  0.00    -0.342 N 
ATOM      4  H2  UNL     1      18.947  64.074  30.601  1.00  0.00     0.167 HD
HETATM    5  C7  UNL     1      17.155  64.960  31.042  1.00  0.00     0.188 A 
HETATM    6  C18 UNL     1      15.864  65.129  30.589  1.00  0.00     0.156 A 
HETATM    7  N5  UNL     1      15.448  64.564  29.428  1.00  0.00    -0.340 N 
ATOM      8  H5  UNL     1      14.487  64.705  29.118  1.00  0.00     0.167 HD
ENDROOT
BRANCH   5   9
HETATM    9  O2  UNL     1      17.513  65.563  32.232  1.00  0.00    -0.327 OA
BRANCH   9  10
HETATM   10  C8  UNL     1      18.391  64.998  33.173  1.00  0.00     0.133 C 
HETATM   11  C9  UNL     1      19.770  64.756  32.608  1.00  0.00     0.052 C 
HETATM   12  C10 UNL     1      20.130  63.285  32.608  1.00  0.00     0.128 C 
HETATM   13  N3  UNL     1      19.982  62.815  33.969  1.00  0.00    -0.352 N 
HETATM   14  C11 UNL     1      21.099  62.252  34.621  1.00  0.00     0.222 C 
HETATM   15  C16 UNL     1      18.680  62.952  34.587  1.00  0.00     0.128 C 
HETATM   16  O3  UNL     1      22.206  62.150  34.056  1.00  0.00    -0.273 OA
HETATM   17  C17 UNL     1      17.768  63.709  33.660  1.00  0.00     0.052 C 
BRANCH  14  18
HETATM   18  C12 UNL     1      20.988  61.757  36.020  1.00  0.00     0.145 C 
BRANCH  18  19
HETATM   19  C13 UNL     1      21.608  62.712  36.998  1.00  0.00     0.104 C 
HETATM   20  C14 UNL     1      20.871  62.596  38.313  1.00  0.00     0.051 C 
HETATM   21  C15 UNL     1      23.090  62.498  37.171  1.00  0.00     0.051 C 
HETATM   22  F1  UNL     1      21.366  63.996  36.523  1.00  0.00    -0.243 F 
ENDBRANCH  18  19
ENDBRANCH  14  18
ENDBRANCH   9  10
ENDBRANCH   5   9
BRANCH   6  23
HETATM   23  N4  UNL     1      14.958  65.904  31.350  1.00  0.00    -0.364 N 
HETATM   24  C19 UNL     1      14.758  67.328  31.219  1.00  0.00     0.124 C 
HETATM   25  C20 UNL     1      14.236  67.714  32.584  1.00  0.00     0.021 C 
HETATM   26  C21 UNL     1      13.304  66.566  32.899  1.00  0.00     0.021 C 
HETATM   27  C22 UNL     1      14.093  65.374  32.382  1.00  0.00     0.124 C 
ENDBRANCH   6  23
BRANCH   1  28
HETATM   28  C3  UNL     1      15.867  63.182  27.401  1.00  0.00     0.132 C 
HETATM   29  C4  UNL     1      16.796  63.571  26.278  1.00  0.00     0.039 C 
BRANCH  28  30
HETATM   30  N1  UNL     1      14.512  63.555  27.133  1.00  0.00    -0.352 N 
HETATM   31  C2  UNL     1      13.520  62.641  26.686  1.00  0.00     0.214 C 
HETATM   32  C1  UNL     1      12.128  63.040  26.415  1.00  0.00     0.117 C 
HETATM   33  O1  UNL     1      13.856  61.442  26.517  1.00  0.00    -0.274 OA
ATOM     34  H1  UNL     1      14.243  64.528  27.271  1.00  0.00     0.163 HD
ENDBRANCH  28  30
ENDBRANCH   1  28
TORSDOF 7
ENDMDL
