MODEL 1
REMARK VINA RESULT: -8.352106383      0.000      0.000
REMARK  7 active torsions:
REMARK  status: ('A' for Active; 'I' for Inactive)
REMARK    1  A    between atoms: C3_3  and  C4_4 
REMARK    2  A    between atoms: C4_4  and  C5_5 
REMARK    3  A    between atoms: C5_5  and  C6_6 
REMARK       I    between atoms: C6_6  and  N1_8 
REMARK       I    between atoms: N1_8  and  C7_10 
REMARK    4  A    between atoms: C7_10  and  C8_12 
REMARK    5  A    between atoms: C8_12  and  O3_13 
REMARK    6  A    between atoms: O3_13  and  C9_14 
REMARK    7  A    between atoms: C9_14  and  C10_16 
ROOT
HETATM    1  C1  UNL     1      11.591  65.819  31.281  1.00  0.00     0.012 C 
HETATM    2  C2  UNL     1      11.297  64.844  30.639  1.00  0.00    -0.117 C 
HETATM    3  C3  UNL     1      10.949  63.627  29.863  1.00  0.00     0.093 C 
ENDROOT
BRANCH   3   4
HETATM    4  C4  UNL     1      11.428  63.822  28.469  1.00  0.00     0.021 C 
BRANCH   4   5
HETATM    5  C5  UNL     1      12.004  62.583  27.885  1.00  0.00     0.104 C 
BRANCH   5   6
HETATM    6  C6  UNL     1      13.447  62.722  27.525  1.00  0.00     0.224 C 
HETATM    7  O1  UNL     1      13.796  63.395  26.525  1.00  0.00    -0.273 OA
HETATM    8  N1  UNL     1      14.446  62.097  28.305  1.00  0.00    -0.296 N 
HETATM    9  C7  UNL     1      15.808  62.176  28.040  1.00  0.00     0.248 C 
ATOM     10  H1  UNL     1      14.148  61.552  29.115  1.00  0.00     0.171 HD
HETATM   11  O2  UNL     1      16.622  61.544  28.818  1.00  0.00    -0.271 OA
BRANCH   9  12
HETATM   12  C8  UNL     1      16.343  62.954  26.904  1.00  0.00     0.282 C 
BRANCH  12  13
HETATM   13  O3  UNL     1      17.563  63.629  27.260  1.00  0.00    -0.308 OA
BRANCH  13  14
HETATM   14  C9  UNL     1      17.481  64.803  27.945  1.00  0.00     0.295 C 
HETATM   15  O4  UNL     1      17.379  65.916  27.370  1.00  0.00    -0.259 OA
BRANCH  14  16
HETATM   16  C10 UNL     1      17.506  64.853  29.427  1.00  0.00     0.060 A 
HETATM   17  C11 UNL     1      18.632  64.510  30.138  1.00  0.00     0.058 A 
HETATM   18  C12 UNL     1      18.623  64.567  31.510  1.00  0.00     0.103 A 
HETATM   19  C13 UNL     1      17.485  64.969  32.189  1.00  0.00     0.109 A 
HETATM   20  O6  UNL     1      19.849  64.187  32.098  1.00  0.00    -0.348 OA
HETATM   21  C14 UNL     1      16.330  65.323  31.490  1.00  0.00    -0.007 A 
HETATM   22  O5  UNL     1      17.367  65.062  33.569  1.00  0.00    -0.348 OA
HETATM   23  C15 UNL     1      15.151  65.742  32.244  1.00  0.00     0.052 C 
HETATM   24  C16 UNL     1      16.383  65.252  30.127  1.00  0.00     0.036 A 
HETATM   25 BR1  UNL     1      14.838  65.722  29.120  1.00  0.00    -0.049 Br
HETATM   26  C17 UNL     1      18.072  64.292  34.503  1.00  0.00     0.178 C 
HETATM   27  C18 UNL     1      19.526  64.362  34.526  1.00  0.00     0.053 C 
HETATM   28  C19 UNL     1      20.306  64.691  33.328  1.00  0.00     0.178 C 
ENDBRANCH  14  16
ENDBRANCH  13  14
ENDBRANCH  12  13
ENDBRANCH   9  12
ENDBRANCH   5   6
ENDBRANCH   4   5
ENDBRANCH   3   4
TORSDOF 7
ENDMDL
MODEL 2
REMARK VINA RESULT: -8.161639269      3.686      8.464
REMARK  7 active torsions:
REMARK  status: ('A' for Active; 'I' for Inactive)
REMARK    1  A    between atoms: C3_3  and  C4_4 
REMARK    2  A    between atoms: C4_4  and  C5_5 
REMARK    3  A    between atoms: C5_5  and  C6_6 
REMARK       I    between atoms: C6_6  and  N1_8 
REMARK       I    between atoms: N1_8  and  C7_10 
REMARK    4  A    between atoms: C7_10  and  C8_12 
REMARK    5  A    between atoms: C8_12  and  O3_13 
REMARK    6  A    between atoms: O3_13  and  C9_14 
REMARK    7  A    between atoms: C9_14  and  C10_16 
ROOT
HETATM    1  C1  UNL     1      24.230  60.376  36.383  1.00  0.00     0.012 C 
HETATM    2  C2  UNL     1      23.532  60.382  37.363  1.00  0.00    -0.117 C 
HETATM    3  C3  UNL     1      22.675  60.365  38.577  1.00  0.00     0.093 C 
ENDROOT
BRANCH   3   4
HETATM    4  C4  UNL     1      21.295  60.733  38.166  1.00  0.00     0.021 C 
BRANCH   4   5
HETATM    5  C5  UNL     1      21.172  62.168  37.798  1.00  0.00     0.104 C 
BRANCH   5   6
HETATM    6  C6  UNL     1      20.635  62.376  36.420  1.00  0.00     0.224 C 
HETATM    7  O1  UNL     1      21.412  62.516  35.444  1.00  0.00    -0.273 OA
HETATM    8  N1  UNL     1      19.241  62.417  36.191  1.00  0.00    -0.296 N 
HETATM    9  C7  UNL     1      18.660  62.606  34.942  1.00  0.00     0.248 C 
ATOM     10  H1  UNL     1      18.622  62.302  36.993  1.00  0.00     0.171 HD
HETATM   11  O2  UNL     1      17.371  62.643  34.864  1.00  0.00    -0.271 OA
BRANCH   9  12
HETATM   12  C8  UNL     1      19.468  62.762  33.715  1.00  0.00     0.282 C 
BRANCH  12  13
HETATM   13  O3  UNL     1      18.637  63.015  32.569  1.00  0.00    -0.308 OA
BRANCH  13  14
HETATM   14  C9  UNL     1      18.512  64.296  32.126  1.00  0.00     0.295 C 
HETATM   15  O4  UNL     1      19.475  65.104  32.110  1.00  0.00    -0.259 OA
BRANCH  14  16
HETATM   16  C10 UNL     1      17.222  64.834  31.626  1.00  0.00     0.060 A 
HETATM   17  C11 UNL     1      16.289  65.371  32.482  1.00  0.00     0.058 A 
HETATM   18  C12 UNL     1      15.105  65.861  31.988  1.00  0.00     0.103 A 
HETATM   19  C13 UNL     1      14.840  65.820  30.629  1.00  0.00     0.109 A 
HETATM   20  O6  UNL     1      14.250  66.379  32.984  1.00  0.00    -0.348 OA
HETATM   21  C14 UNL     1      15.771  65.281  29.741  1.00  0.00    -0.007 A 
HETATM   22  O5  UNL     1      13.680  66.286  30.025  1.00  0.00    -0.348 OA
HETATM   23  C15 UNL     1      15.454  65.257  28.315  1.00  0.00     0.052 C 
HETATM   24  C16 UNL     1      16.936  64.805  30.274  1.00  0.00     0.036 A 
HETATM   25 BR1  UNL     1      18.244  64.058  29.112  1.00  0.00    -0.049 Br
HETATM   26  C17 UNL     1      12.414  66.340  30.622  1.00  0.00     0.178 C 
HETATM   27  C18 UNL     1      12.229  67.148  31.819  1.00  0.00     0.053 C 
HETATM   28  C19 UNL     1      13.330  67.417  32.751  1.00  0.00     0.178 C 
ENDBRANCH  14  16
ENDBRANCH  13  14
ENDBRANCH  12  13
ENDBRANCH   9  12
ENDBRANCH   5   6
ENDBRANCH   4   5
ENDBRANCH   3   4
TORSDOF 7
ENDMDL
MODEL 3
REMARK VINA RESULT: -8.121265517      3.031      6.000
REMARK  7 active torsions:
REMARK  status: ('A' for Active; 'I' for Inactive)
REMARK    1  A    between atoms: C3_3  and  C4_4 
REMARK    2  A    between atoms: C4_4  and  C5_5 
REMARK    3  A    between atoms: C5_5  and  C6_6 
REMARK       I    between atoms: C6_6  and  N1_8 
REMARK       I    between atoms: N1_8  and  C7_10 
REMARK    4  A    between atoms: C7_10  and  C8_12 
REMARK    5  A    between atoms: C8_12  and  O3_13 
REMARK    6  A    between atoms: O3_13  and  C9_14 
REMARK    7  A    between atoms: C9_14  and  C10_16 
ROOT
HETATM    1  C1  UNL     1      11.140  63.281  29.612  1.00  0.00     0.012 C 
HETATM    2  C2  UNL     1      11.041  64.340  30.175  1.00  0.00    -0.117 C 
HETATM    3  C3  UNL     1      10.899  65.638  30.883  1.00  0.00     0.093 C 
ENDROOT
BRANCH   3   4
HETATM    4  C4  UNL     1      10.555  66.674  29.874  1.00  0.00     0.021 C 
BRANCH   4   5
HETATM    5  C5  UNL     1      10.525  68.044  30.450  1.00  0.00     0.104 C 
BRANCH   5   6
HETATM    6  C6  UNL     1      11.818  68.442  31.081  1.00  0.00     0.224 C 
HETATM    7  O1  UNL     1      11.991  68.320  32.318  1.00  0.00    -0.273 OA
HETATM    8  N1  UNL     1      12.870  68.965  30.295  1.00  0.00    -0.296 N 
HETATM    9  C7  UNL     1      14.103  69.359  30.803  1.00  0.00     0.248 C 
ATOM     10  H1  UNL     1      12.715  69.060  29.292  1.00  0.00     0.171 HD
HETATM   11  O2  UNL     1      14.978  69.840  29.985  1.00  0.00    -0.271 OA
BRANCH   9  12
HETATM   12  C8  UNL     1      14.434  69.244  32.238  1.00  0.00     0.282 C 
BRANCH  12  13
HETATM   13  O3  UNL     1      15.400  68.204  32.472  1.00  0.00    -0.308 OA
BRANCH  13  14
HETATM   14  C9  UNL     1      14.982  66.909  32.437  1.00  0.00     0.295 C 
HETATM   15  O4  UNL     1      14.275  66.402  33.345  1.00  0.00    -0.259 OA
BRANCH  14  16
HETATM   16  C10 UNL     1      15.332  65.998  31.320  1.00  0.00     0.060 A 
HETATM   17  C11 UNL     1      14.506  65.848  30.230  1.00  0.00     0.058 A 
HETATM   18  C12 UNL     1      14.859  64.997  29.212  1.00  0.00     0.103 A 
HETATM   19  C13 UNL     1      16.044  64.284  29.272  1.00  0.00     0.109 A 
HETATM   20  O6  UNL     1      13.914  64.949  28.165  1.00  0.00    -0.348 OA
HETATM   21  C14 UNL     1      16.899  64.419  30.366  1.00  0.00    -0.007 A 
HETATM   22  O5  UNL     1      16.496  63.399  28.301  1.00  0.00    -0.348 OA
HETATM   23  C15 UNL     1      18.141  63.650  30.390  1.00  0.00     0.052 C 
HETATM   24  C16 UNL     1      16.510  65.276  31.356  1.00  0.00     0.036 A 
HETATM   25 BR1  UNL     1      17.635  65.502  32.874  1.00  0.00    -0.049 Br
HETATM   26  C17 UNL     1      15.686  62.651  27.438  1.00  0.00     0.178 C 
HETATM   27  C18 UNL     1      14.792  63.347  26.524  1.00  0.00     0.053 C 
HETATM   28  C19 UNL     1      14.254  64.678  26.828  1.00  0.00     0.178 C 
ENDBRANCH  14  16
ENDBRANCH  13  14
ENDBRANCH  12  13
ENDBRANCH   9  12
ENDBRANCH   5   6
ENDBRANCH   4   5
ENDBRANCH   3   4
TORSDOF 7
ENDMDL
MODEL 4
REMARK VINA RESULT: -8.010269474      1.206      1.664
REMARK  7 active torsions:
REMARK  status: ('A' for Active; 'I' for Inactive)
REMARK    1  A    between atoms: C3_3  and  C4_4 
REMARK    2  A    between atoms: C4_4  and  C5_5 
REMARK    3  A    between atoms: C5_5  and  C6_6 
REMARK       I    between atoms: C6_6  and  N1_8 
REMARK       I    between atoms: N1_8  and  C7_10 
REMARK    4  A    between atoms: C7_10  and  C8_12 
REMARK    5  A    between atoms: C8_12  and  O3_13 
REMARK    6  A    between atoms: O3_13  and  C9_14 
REMARK    7  A    between atoms: C9_14  and  C10_16 
ROOT
HETATM    1  C1  UNL     1       8.706  63.792  27.539  1.00  0.00     0.012 C 
HETATM    2  C2  UNL     1       9.547  63.616  28.382  1.00  0.00    -0.117 C 
HETATM    3  C3  UNL     1      10.573  63.417  29.438  1.00  0.00     0.093 C 
ENDROOT
BRANCH   3   4
HETATM    4  C4  UNL     1      11.902  63.726  28.846  1.00  0.00     0.021 C 
BRANCH   4   5
HETATM    5  C5  UNL     1      12.388  62.650  27.942  1.00  0.00     0.104 C 
BRANCH   5   6
HETATM    6  C6  UNL     1      13.877  62.600  27.840  1.00  0.00     0.224 C 
HETATM    7  O1  UNL     1      14.561  62.033  28.726  1.00  0.00    -0.273 OA
HETATM    8  N1  UNL     1      14.542  63.191  26.741  1.00  0.00    -0.296 N 
HETATM    9  C7  UNL     1      15.922  63.188  26.570  1.00  0.00     0.248 C 
ATOM     10  H1  UNL     1      13.973  63.648  26.029  1.00  0.00     0.171 HD
HETATM   11  O2  UNL     1      16.412  63.779  25.532  1.00  0.00    -0.271 OA
BRANCH   9  12
HETATM   12  C8  UNL     1      16.831  62.536  27.534  1.00  0.00     0.282 C 
BRANCH  12  13
HETATM   13  O3  UNL     1      18.048  63.285  27.696  1.00  0.00    -0.308 OA
BRANCH  13  14
HETATM   14  C9  UNL     1      17.997  64.474  28.357  1.00  0.00     0.295 C 
HETATM   15  O4  UNL     1      17.991  65.580  27.760  1.00  0.00    -0.259 OA
BRANCH  14  16
HETATM   16  C10 UNL     1      17.944  64.551  29.838  1.00  0.00     0.060 A 
HETATM   17  C11 UNL     1      19.000  64.135  30.616  1.00  0.00     0.058 A 
HETATM   18  C12 UNL     1      18.920  64.220  31.985  1.00  0.00     0.103 A 
HETATM   19  C13 UNL     1      17.781  64.722  32.592  1.00  0.00     0.109 A 
HETATM   20  O6  UNL     1      20.077  63.757  32.646  1.00  0.00    -0.348 OA
HETATM   21  C14 UNL     1      16.697  65.150  31.824  1.00  0.00    -0.007 A 
HETATM   22  O5  UNL     1      17.595  64.850  33.962  1.00  0.00    -0.348 OA
HETATM   23  C15 UNL     1      15.515  65.674  32.503  1.00  0.00     0.052 C 
HETATM   24  C16 UNL     1      16.819  65.049  30.467  1.00  0.00     0.036 A 
HETATM   25 BR1  UNL     1      15.374  65.617  29.368  1.00  0.00    -0.049 Br
HETATM   26  C17 UNL     1      18.185  64.046  34.945  1.00  0.00     0.178 C 
HETATM   27  C18 UNL     1      19.636  64.004  35.049  1.00  0.00     0.053 C 
HETATM   28  C19 UNL     1      20.505  64.249  33.892  1.00  0.00     0.178 C 
ENDBRANCH  14  16
ENDBRANCH  13  14
ENDBRANCH  12  13
ENDBRANCH   9  12
ENDBRANCH   5   6
ENDBRANCH   4   5
ENDBRANCH   3   4
TORSDOF 7
ENDMDL
MODEL 5
REMARK VINA RESULT: -7.994607300      2.653      5.537
REMARK  7 active torsions:
REMARK  status: ('A' for Active; 'I' for Inactive)
REMARK    1  A    between atoms: C3_3  and  C4_4 
REMARK    2  A    between atoms: C4_4  and  C5_5 
REMARK    3  A    between atoms: C5_5  and  C6_6 
REMARK       I    between atoms: C6_6  and  N1_8 
REMARK       I    between atoms: N1_8  and  C7_10 
REMARK    4  A    between atoms: C7_10  and  C8_12 
REMARK    5  A    between atoms: C8_12  and  O3_13 
REMARK    6  A    between atoms: O3_13  and  C9_14 
REMARK    7  A    between atoms: C9_14  and  C10_16 
ROOT
HETATM    1  C1  UNL     1      12.774  61.527  26.124  1.00  0.00     0.012 C 
HETATM    2  C2  UNL     1      12.228  62.473  26.627  1.00  0.00    -0.117 C 
HETATM    3  C3  UNL     1      11.572  63.657  27.240  1.00  0.00     0.093 C 
ENDROOT
BRANCH   3   4
HETATM    4  C4  UNL     1      11.436  63.399  28.698  1.00  0.00     0.021 C 
BRANCH   4   5
HETATM    5  C5  UNL     1      10.768  64.516  29.415  1.00  0.00     0.104 C 
BRANCH   5   6
HETATM    6  C6  UNL     1      11.519  64.969  30.624  1.00  0.00     0.224 C 
HETATM    7  O1  UNL     1      12.194  64.155  31.300  1.00  0.00    -0.273 OA
HETATM    8  N1  UNL     1      11.482  66.323  31.028  1.00  0.00    -0.296 N 
HETATM    9  C7  UNL     1      12.152  66.825  32.138  1.00  0.00     0.248 C 
ATOM     10  H1  UNL     1      10.929  66.973  30.470  1.00  0.00     0.171 HD
HETATM   11  O2  UNL     1      12.024  68.080  32.415  1.00  0.00    -0.271 OA
BRANCH   9  12
HETATM   12  C8  UNL     1      12.994  65.971  33.000  1.00  0.00     0.282 C 
BRANCH  12  13
HETATM   13  O3  UNL     1      14.269  66.584  33.260  1.00  0.00    -0.308 OA
BRANCH  13  14
HETATM   14  C9  UNL     1      15.024  66.988  32.201  1.00  0.00     0.295 C 
HETATM   15  O4  UNL     1      15.303  68.196  31.990  1.00  0.00    -0.259 OA
BRANCH  14  16
HETATM   16  C10 UNL     1      15.577  66.027  31.215  1.00  0.00     0.060 A 
HETATM   17  C11 UNL     1      15.002  65.860  29.977  1.00  0.00     0.058 A 
HETATM   18  C12 UNL     1      15.538  64.962  29.086  1.00  0.00     0.103 A 
HETATM   19  C13 UNL     1      16.657  64.219  29.425  1.00  0.00     0.109 A 
HETATM   20  O6  UNL     1      14.842  64.901  27.860  1.00  0.00    -0.348 OA
HETATM   21  C14 UNL     1      17.257  64.371  30.674  1.00  0.00    -0.007 A 
HETATM   22  O5  UNL     1      17.276  63.287  28.603  1.00  0.00    -0.348 OA
HETATM   23  C15 UNL     1      18.437  63.569  30.993  1.00  0.00     0.052 C 
HETATM   24  C16 UNL     1      16.693  65.275  31.530  1.00  0.00     0.036 A 
HETATM   25 BR1  UNL     1      17.468  65.525  33.249  1.00  0.00    -0.049 Br
HETATM   26  C17 UNL     1      16.648  62.530  27.607  1.00  0.00     0.178 C 
HETATM   27  C18 UNL     1      15.999  63.215  26.499  1.00  0.00     0.053 C 
HETATM   28  C19 UNL     1      15.455  64.571  26.638  1.00  0.00     0.178 C 
ENDBRANCH  14  16
ENDBRANCH  13  14
ENDBRANCH  12  13
ENDBRANCH   9  12
ENDBRANCH   5   6
ENDBRANCH   4   5
ENDBRANCH   3   4
TORSDOF 7
ENDMDL
