MODEL 1
REMARK VINA RESULT: -10.181321126      0.000      0.000
REMARK  9 active torsions:
REMARK  status: ('A' for Active; 'I' for Inactive)
REMARK    1  A    between atoms: C2_2  and  O1_3 
REMARK    2  A    between atoms: O1_3  and  C3_4 
REMARK    3  A    between atoms: C6_7  and  N1_8 
REMARK       I    between atoms: N2_11  and  C9_12 
REMARK    4  A    between atoms: C9_12  and  C10_14 
REMARK    5  A    between atoms: C10_14  and  C11_15 
REMARK    6  A    between atoms: C11_15  and  C12_16 
REMARK       I    between atoms: C12_16  and  N3_18 
REMARK       I    between atoms: N3_18  and  C13_20 
REMARK    7  A    between atoms: C13_20  and  C14_22 
REMARK    8  A    between atoms: C25_33  and  O5_34 
REMARK    9  A    between atoms: O5_34  and  C26_35 
ROOT
HETATM    1  N1  UNL     1      20.046  63.968  34.291  1.00  0.00    -0.378 N 
HETATM    2  C7  UNL     1      20.270  64.306  32.901  1.00  0.00     0.143 C 
HETATM    3  C8  UNL     1      19.113  63.675  32.128  1.00  0.00     0.145 C 
HETATM    4  N2  UNL     1      17.880  64.122  32.714  1.00  0.00    -0.349 N 
HETATM    5  C9  UNL     1      16.870  64.665  31.897  1.00  0.00     0.220 C 
HETATM    6  O2  UNL     1      17.048  64.763  30.638  1.00  0.00    -0.273 OA
HETATM    7  C22 UNL     1      17.675  64.008  34.138  1.00  0.00     0.145 C 
HETATM    8  C23 UNL     1      18.851  64.570  34.876  1.00  0.00     0.143 C 
ENDROOT
BRANCH   5   9
HETATM    9  C10 UNL     1      15.573  65.139  32.465  1.00  0.00     0.112 C 
BRANCH   9  10
HETATM   10  C11 UNL     1      15.468  66.630  32.306  1.00  0.00     0.112 C 
BRANCH  10  11
HETATM   11  C12 UNL     1      14.065  67.109  32.302  1.00  0.00     0.224 C 
HETATM   12  O3  UNL     1      13.869  68.281  32.729  1.00  0.00    -0.273 OA
HETATM   13  N3  UNL     1      12.996  66.277  31.835  1.00  0.00    -0.297 N 
HETATM   14  C13 UNL     1      11.644  66.688  31.816  1.00  0.00     0.232 C 
ATOM     15  H3  UNL     1      13.222  65.341  31.499  1.00  0.00     0.171 HD
HETATM   16  O4  UNL     1      11.337  67.822  32.204  1.00  0.00    -0.272 OA
BRANCH  14  17
HETATM   17  C14 UNL     1      10.627  65.707  31.315  1.00  0.00     0.111 C 
HETATM   18  C15 UNL     1      11.352  64.630  30.644  1.00  0.00    -0.012 C 
HETATM   19  C16 UNL     1      10.883  63.356  30.163  1.00  0.00    -0.007 C 
HETATM   20  C17 UNL     1       9.721  63.084  29.328  1.00  0.00    -0.026 C 
HETATM   21  C18 UNL     1       9.380  63.753  28.064  1.00  0.00     0.038 C 
HETATM   22  C19 UNL     1       8.719  65.170  28.212  1.00  0.00     0.083 C 
HETATM   23  C20 UNL     1       9.316  65.684  29.377  1.00  0.00    -0.182 C 
HETATM   24  C21 UNL     1       9.679  66.567  30.409  1.00  0.00     0.097 C 
ENDBRANCH  14  17
ENDBRANCH  10  11
ENDBRANCH   9  10
ENDBRANCH   5   9
BRANCH   1  25
HETATM   25  C6  UNL     1      20.936  63.124  34.987  1.00  0.00     0.033 A 
HETATM   26  C5  UNL     1      21.704  62.184  34.350  1.00  0.00     0.032 A 
HETATM   27  C4  UNL     1      22.541  61.365  35.071  1.00  0.00     0.042 A 
HETATM   28  C3  UNL     1      22.657  61.439  36.475  1.00  0.00     0.102 A 
HETATM   29  C25 UNL     1      21.859  62.413  37.106  1.00  0.00     0.104 A 
HETATM   30  C24 UNL     1      21.042  63.205  36.360  1.00  0.00     0.069 A 
BRANCH  28  31
HETATM   31  O1  UNL     1      23.463  60.642  37.105  1.00  0.00    -0.349 OA
BRANCH  31  32
HETATM   32  C2  UNL     1      24.256  59.788  37.647  1.00  0.00     0.171 C 
HETATM   33  C1  UNL     1      24.033  59.716  39.179  1.00  0.00     0.034 C 
ENDBRANCH  31  32
ENDBRANCH  28  31
BRANCH  29  34
HETATM   34  O5  UNL     1      21.980  62.480  38.496  1.00  0.00    -0.349 OA
BRANCH  34  35
HETATM   35  C26 UNL     1      20.871  62.249  39.349  1.00  0.00     0.171 C 
HETATM   36  C27 UNL     1      20.478  60.795  39.206  1.00  0.00     0.034 C 
ENDBRANCH  34  35
ENDBRANCH  29  34
ENDBRANCH   1  25
TORSDOF 9
ENDMDL
MODEL 2
REMARK VINA RESULT: -10.180707407      1.925      2.373
REMARK  9 active torsions:
REMARK  status: ('A' for Active; 'I' for Inactive)
REMARK    1  A    between atoms: C2_2  and  O1_3 
REMARK    2  A    between atoms: O1_3  and  C3_4 
REMARK    3  A    between atoms: C6_7  and  N1_8 
REMARK       I    between atoms: N2_11  and  C9_12 
REMARK    4  A    between atoms: C9_12  and  C10_14 
REMARK    5  A    between atoms: C10_14  and  C11_15 
REMARK    6  A    between atoms: C11_15  and  C12_16 
REMARK       I    between atoms: C12_16  and  N3_18 
REMARK       I    between atoms: N3_18  and  C13_20 
REMARK    7  A    between atoms: C13_20  and  C14_22 
REMARK    8  A    between atoms: C25_33  and  O5_34 
REMARK    9  A    between atoms: O5_34  and  C26_35 
ROOT
HETATM    1  N1  UNL     1      20.255  63.890  34.262  1.00  0.00    -0.378 N 
HETATM    2  C7  UNL     1      20.410  64.025  32.828  1.00  0.00     0.143 C 
HETATM    3  C8  UNL     1      19.140  63.436  32.216  1.00  0.00     0.145 C 
HETATM    4  N2  UNL     1      18.006  64.088  32.811  1.00  0.00    -0.349 N 
HETATM    5  C9  UNL     1      17.001  64.635  31.991  1.00  0.00     0.220 C 
HETATM    6  O2  UNL     1      17.094  64.555  30.722  1.00  0.00    -0.273 OA
HETATM    7  C22 UNL     1      17.896  64.176  34.247  1.00  0.00     0.145 C 
HETATM    8  C23 UNL     1      19.176  64.690  34.832  1.00  0.00     0.143 C 
ENDROOT
BRANCH   5   9
HETATM    9  C10 UNL     1      15.805  65.319  32.569  1.00  0.00     0.112 C 
BRANCH   9  10
HETATM   10  C11 UNL     1      14.933  65.834  31.458  1.00  0.00     0.112 C 
BRANCH  10  11
HETATM   11  C12 UNL     1      13.637  65.121  31.368  1.00  0.00     0.224 C 
HETATM   12  O3  UNL     1      12.810  65.337  32.297  1.00  0.00    -0.273 OA
HETATM   13  N3  UNL     1      13.350  64.234  30.279  1.00  0.00    -0.297 N 
HETATM   14  C13 UNL     1      12.131  63.529  30.153  1.00  0.00     0.232 C 
ATOM     15  H3  UNL     1      14.060  64.105  29.559  1.00  0.00     0.171 HD
HETATM   16  O4  UNL     1      11.244  63.673  31.003  1.00  0.00    -0.272 OA
BRANCH  14  17
HETATM   17  C14 UNL     1      11.973  62.623  28.970  1.00  0.00     0.111 C 
HETATM   18  C15 UNL     1      13.172  62.766  28.146  1.00  0.00    -0.012 C 
HETATM   19  C16 UNL     1      13.619  61.991  27.017  1.00  0.00    -0.007 C 
HETATM   20  C17 UNL     1      12.860  61.609  25.834  1.00  0.00    -0.026 C 
HETATM   21  C18 UNL     1      12.068  62.506  24.980  1.00  0.00     0.038 C 
HETATM   22  C19 UNL     1      10.652  62.892  25.543  1.00  0.00     0.083 C 
HETATM   23  C20 UNL     1      10.854  62.909  26.935  1.00  0.00    -0.182 C 
HETATM   24  C21 UNL     1      10.627  63.085  28.311  1.00  0.00     0.097 C 
ENDBRANCH  14  17
ENDBRANCH  10  11
ENDBRANCH   9  10
ENDBRANCH   5   9
BRANCH   1  25
HETATM   25  C6  UNL     1      21.102  63.045  35.008  1.00  0.00     0.033 A 
HETATM   26  C5  UNL     1      21.891  62.092  34.418  1.00  0.00     0.032 A 
HETATM   27  C4  UNL     1      22.684  61.272  35.187  1.00  0.00     0.042 A 
HETATM   28  C3  UNL     1      22.733  61.359  36.594  1.00  0.00     0.102 A 
HETATM   29  C25 UNL     1      21.914  62.346  37.176  1.00  0.00     0.104 A 
HETATM   30  C24 UNL     1      21.142  63.138  36.384  1.00  0.00     0.069 A 
BRANCH  28  31
HETATM   31  O1  UNL     1      23.499  60.560  37.270  1.00  0.00    -0.349 OA
BRANCH  31  32
HETATM   32  C2  UNL     1      24.339  59.819  37.899  1.00  0.00     0.171 C 
HETATM   33  C1  UNL     1      24.012  59.766  39.413  1.00  0.00     0.034 C 
ENDBRANCH  31  32
ENDBRANCH  28  31
BRANCH  29  34
HETATM   34  O5  UNL     1      21.967  62.426  38.570  1.00  0.00    -0.349 OA
BRANCH  34  35
HETATM   35  C26 UNL     1      20.806  62.264  39.367  1.00  0.00     0.171 C 
HETATM   36  C27 UNL     1      20.465  60.791  39.386  1.00  0.00     0.034 C 
ENDBRANCH  34  35
ENDBRANCH  29  34
ENDBRANCH   1  25
TORSDOF 9
ENDMDL
MODEL 3
REMARK VINA RESULT: -9.668787185      1.224      1.815
REMARK  9 active torsions:
REMARK  status: ('A' for Active; 'I' for Inactive)
REMARK    1  A    between atoms: C2_2  and  O1_3 
REMARK    2  A    between atoms: O1_3  and  C3_4 
REMARK    3  A    between atoms: C6_7  and  N1_8 
REMARK       I    between atoms: N2_11  and  C9_12 
REMARK    4  A    between atoms: C9_12  and  C10_14 
REMARK    5  A    between atoms: C10_14  and  C11_15 
REMARK    6  A    between atoms: C11_15  and  C12_16 
REMARK       I    between atoms: C12_16  and  N3_18 
REMARK       I    between atoms: N3_18  and  C13_20 
REMARK    7  A    between atoms: C13_20  and  C14_22 
REMARK    8  A    between atoms: C25_33  and  O5_34 
REMARK    9  A    between atoms: O5_34  and  C26_35 
ROOT
HETATM    1  N1  UNL     1      20.232  63.877  34.256  1.00  0.00    -0.378 N 
HETATM    2  C7  UNL     1      20.360  63.984  32.818  1.00  0.00     0.143 C 
HETATM    3  C8  UNL     1      19.078  63.384  32.240  1.00  0.00     0.145 C 
HETATM    4  N2  UNL     1      17.956  64.048  32.844  1.00  0.00    -0.349 N 
HETATM    5  C9  UNL     1      16.935  64.580  32.033  1.00  0.00     0.220 C 
HETATM    6  O2  UNL     1      17.005  64.475  30.764  1.00  0.00    -0.273 OA
HETATM    7  C22 UNL     1      17.873  64.164  34.280  1.00  0.00     0.145 C 
HETATM    8  C23 UNL     1      19.164  64.689  34.831  1.00  0.00     0.143 C 
ENDROOT
BRANCH   5   9
HETATM    9  C10 UNL     1      15.751  65.276  32.620  1.00  0.00     0.112 C 
BRANCH   9  10
HETATM   10  C11 UNL     1      14.858  65.769  31.516  1.00  0.00     0.112 C 
BRANCH  10  11
HETATM   11  C12 UNL     1      13.474  65.248  31.622  1.00  0.00     0.224 C 
HETATM   12  O3  UNL     1      13.182  64.639  32.688  1.00  0.00    -0.273 OA
HETATM   13  N3  UNL     1      12.527  65.433  30.562  1.00  0.00    -0.297 N 
HETATM   14  C13 UNL     1      11.200  64.951  30.616  1.00  0.00     0.232 C 
ATOM     15  H3  UNL     1      12.825  65.937  29.728  1.00  0.00     0.171 HD
HETATM   16  O4  UNL     1      10.802  64.346  31.619  1.00  0.00    -0.272 OA
BRANCH  14  17
HETATM   17  C14 UNL     1      10.322  65.203  29.427  1.00  0.00     0.111 C 
HETATM   18  C15 UNL     1       9.142  65.924  29.900  1.00  0.00    -0.012 C 
HETATM   19  C16 UNL     1       8.093  66.575  29.157  1.00  0.00    -0.007 C 
HETATM   20  C17 UNL     1       7.314  66.040  28.049  1.00  0.00    -0.026 C 
HETATM   21  C18 UNL     1       6.613  64.748  28.020  1.00  0.00     0.038 C 
HETATM   22  C19 UNL     1       7.523  63.497  27.749  1.00  0.00     0.083 C 
HETATM   23  C20 UNL     1       8.746  63.852  28.348  1.00  0.00    -0.182 C 
HETATM   24  C21 UNL     1      10.063  63.775  28.833  1.00  0.00     0.097 C 
ENDBRANCH  14  17
ENDBRANCH  10  11
ENDBRANCH   9  10
ENDBRANCH   5   9
BRANCH   1  25
HETATM   25  C6  UNL     1      21.092  63.045  35.002  1.00  0.00     0.033 A 
HETATM   26  C5  UNL     1      21.890  62.099  34.413  1.00  0.00     0.032 A 
HETATM   27  C4  UNL     1      22.696  61.293  35.182  1.00  0.00     0.042 A 
HETATM   28  C3  UNL     1      22.750  61.387  36.589  1.00  0.00     0.102 A 
HETATM   29  C25 UNL     1      21.922  62.368  37.170  1.00  0.00     0.104 A 
HETATM   30  C24 UNL     1      21.137  63.146  36.378  1.00  0.00     0.069 A 
BRANCH  28  31
HETATM   31  O1  UNL     1      23.530  60.601  37.265  1.00  0.00    -0.349 OA
BRANCH  31  32
HETATM   32  C2  UNL     1      24.271  59.745  37.873  1.00  0.00     0.171 C 
HETATM   33  C1  UNL     1      23.979  59.737  39.395  1.00  0.00     0.034 C 
ENDBRANCH  31  32
ENDBRANCH  28  31
BRANCH  29  34
HETATM   34  O5  UNL     1      21.981  62.454  38.563  1.00  0.00    -0.349 OA
BRANCH  34  35
HETATM   35  C26 UNL     1      20.836  62.233  39.369  1.00  0.00     0.171 C 
HETATM   36  C27 UNL     1      20.442  60.781  39.216  1.00  0.00     0.034 C 
ENDBRANCH  34  35
ENDBRANCH  29  34
ENDBRANCH   1  25
TORSDOF 9
ENDMDL
MODEL 4
REMARK VINA RESULT: -9.559487556      2.777      5.442
REMARK  9 active torsions:
REMARK  status: ('A' for Active; 'I' for Inactive)
REMARK    1  A    between atoms: C2_2  and  O1_3 
REMARK    2  A    between atoms: O1_3  and  C3_4 
REMARK    3  A    between atoms: C6_7  and  N1_8 
REMARK       I    between atoms: N2_11  and  C9_12 
REMARK    4  A    between atoms: C9_12  and  C10_14 
REMARK    5  A    between atoms: C10_14  and  C11_15 
REMARK    6  A    between atoms: C11_15  and  C12_16 
REMARK       I    between atoms: C12_16  and  N3_18 
REMARK       I    between atoms: N3_18  and  C13_20 
REMARK    7  A    between atoms: C13_20  and  C14_22 
REMARK    8  A    between atoms: C25_33  and  O5_34 
REMARK    9  A    between atoms: O5_34  and  C26_35 
ROOT
HETATM    1  N1  UNL     1      14.850  65.350  32.275  1.00  0.00    -0.378 N 
HETATM    2  C7  UNL     1      14.216  66.111  33.332  1.00  0.00     0.143 C 
HETATM    3  C8  UNL     1      13.895  67.476  32.725  1.00  0.00     0.145 C 
HETATM    4  N2  UNL     1      13.132  67.270  31.525  1.00  0.00    -0.349 N 
HETATM    5  C9  UNL     1      11.924  67.969  31.332  1.00  0.00     0.220 C 
HETATM    6  O2  UNL     1      11.505  68.782  32.220  1.00  0.00    -0.273 OA
HETATM    7  C22 UNL     1      13.607  66.354  30.517  1.00  0.00     0.145 C 
HETATM    8  C23 UNL     1      13.981  65.045  31.143  1.00  0.00     0.143 C 
ENDROOT
BRANCH   5   9
HETATM    9  C10 UNL     1      11.103  67.785  30.099  1.00  0.00     0.112 C 
BRANCH   9  10
HETATM   10  C11 UNL     1       9.883  66.968  30.422  1.00  0.00     0.112 C 
BRANCH  10  11
HETATM   11  C12 UNL     1      10.189  65.530  30.610  1.00  0.00     0.224 C 
HETATM   12  O3  UNL     1      10.085  65.082  31.786  1.00  0.00    -0.273 OA
HETATM   13  N3  UNL     1      10.582  64.703  29.508  1.00  0.00    -0.297 N 
HETATM   14  C13 UNL     1      10.887  63.329  29.639  1.00  0.00     0.232 C 
ATOM     15  H3  UNL     1      10.644  65.126  28.582  1.00  0.00     0.171 HD
HETATM   16  O4  UNL     1      10.809  62.782  30.745  1.00  0.00    -0.272 OA
BRANCH  14  17
HETATM   17  C14 UNL     1      11.299  62.589  28.403  1.00  0.00     0.111 C 
HETATM   18  C15 UNL     1      12.717  62.862  28.180  1.00  0.00    -0.012 C 
HETATM   19  C16 UNL     1      13.646  62.255  27.262  1.00  0.00    -0.007 C 
HETATM   20  C17 UNL     1      13.474  62.023  25.835  1.00  0.00    -0.026 C 
HETATM   21  C18 UNL     1      13.044  63.013  24.836  1.00  0.00     0.038 C 
HETATM   22  C19 UNL     1      11.499  63.294  24.794  1.00  0.00     0.083 C 
HETATM   23  C20 UNL     1      11.104  63.127  26.134  1.00  0.00    -0.182 C 
HETATM   24  C21 UNL     1      10.316  63.112  27.298  1.00  0.00     0.097 C 
ENDBRANCH  14  17
ENDBRANCH  10  11
ENDBRANCH   9  10
ENDBRANCH   5   9
BRANCH   1  25
HETATM   25  C6  UNL     1      16.199  64.953  32.375  1.00  0.00     0.033 A 
HETATM   26  C5  UNL     1      16.996  64.783  31.274  1.00  0.00     0.032 A 
HETATM   27  C4  UNL     1      18.301  64.370  31.416  1.00  0.00     0.042 A 
HETATM   28  C3  UNL     1      18.884  64.103  32.673  1.00  0.00     0.102 A 
HETATM   29  C25 UNL     1      18.044  64.287  33.789  1.00  0.00     0.104 A 
HETATM   30  C24 UNL     1      16.760  64.695  33.610  1.00  0.00     0.069 A 
BRANCH  28  31
HETATM   31  O1  UNL     1      20.119  63.717  32.748  1.00  0.00    -0.349 OA
BRANCH  31  32
HETATM   32  C2  UNL     1      21.345  63.371  32.920  1.00  0.00     0.171 C 
HETATM   33  C1  UNL     1      21.489  61.828  32.950  1.00  0.00     0.034 C 
ENDBRANCH  31  32
ENDBRANCH  28  31
BRANCH  29  34
HETATM   34  O5  UNL     1      18.629  64.021  35.030  1.00  0.00    -0.349 OA
BRANCH  34  35
HETATM   35  C26 UNL     1      18.506  62.752  35.651  1.00  0.00     0.171 C 
HETATM   36  C27 UNL     1      19.841  62.417  36.277  1.00  0.00     0.034 C 
ENDBRANCH  34  35
ENDBRANCH  29  34
ENDBRANCH   1  25
TORSDOF 9
ENDMDL
MODEL 5
REMARK VINA RESULT: -9.550045846      2.197      2.768
REMARK  9 active torsions:
REMARK  status: ('A' for Active; 'I' for Inactive)
REMARK    1  A    between atoms: C2_2  and  O1_3 
REMARK    2  A    between atoms: O1_3  and  C3_4 
REMARK    3  A    between atoms: C6_7  and  N1_8 
REMARK       I    between atoms: N2_11  and  C9_12 
REMARK    4  A    between atoms: C9_12  and  C10_14 
REMARK    5  A    between atoms: C10_14  and  C11_15 
REMARK    6  A    between atoms: C11_15  and  C12_16 
REMARK       I    between atoms: C12_16  and  N3_18 
REMARK       I    between atoms: N3_18  and  C13_20 
REMARK    7  A    between atoms: C13_20  and  C14_22 
REMARK    8  A    between atoms: C25_33  and  O5_34 
REMARK    9  A    between atoms: O5_34  and  C26_35 
ROOT
HETATM    1  N1  UNL     1      19.408  64.132  33.160  1.00  0.00    -0.378 N 
HETATM    2  C7  UNL     1      19.334  64.219  31.717  1.00  0.00     0.143 C 
HETATM    3  C8  UNL     1      17.932  63.738  31.343  1.00  0.00     0.145 C 
HETATM    4  N2  UNL     1      16.975  64.507  32.091  1.00  0.00    -0.349 N 
HETATM    5  C9  UNL     1      15.900  65.128  31.426  1.00  0.00     0.220 C 
HETATM    6  O2  UNL     1      15.773  65.010  30.163  1.00  0.00    -0.273 OA
HETATM    7  C22 UNL     1      17.115  64.638  33.521  1.00  0.00     0.145 C 
HETATM    8  C23 UNL     1      18.514  65.043  33.869  1.00  0.00     0.143 C 
ENDROOT
BRANCH   5   9
HETATM    9  C10 UNL     1      14.883  65.934  32.166  1.00  0.00     0.112 C 
BRANCH   9  10
HETATM   10  C11 UNL     1      13.716  66.223  31.264  1.00  0.00     0.112 C 
BRANCH  10  11
HETATM   11  C12 UNL     1      12.740  65.109  31.212  1.00  0.00     0.224 C 
HETATM   12  O3  UNL     1      12.068  64.900  32.260  1.00  0.00    -0.273 OA
HETATM   13  N3  UNL     1      12.578  64.316  30.029  1.00  0.00    -0.297 N 
HETATM   14  C13 UNL     1      11.665  63.242  29.934  1.00  0.00     0.232 C 
ATOM     15  H3  UNL     1      13.150  64.539  29.215  1.00  0.00     0.171 HD
HETATM   16  O4  UNL     1      10.947  62.954  30.899  1.00  0.00    -0.272 OA
BRANCH  14  17
HETATM   17  C14 UNL     1      11.611  62.490  28.639  1.00  0.00     0.111 C 
HETATM   18  C15 UNL     1      12.908  62.652  27.984  1.00  0.00    -0.012 C 
HETATM   19  C16 UNL     1      13.454  61.986  26.830  1.00  0.00    -0.007 C 
HETATM   20  C17 UNL     1      12.830  61.790  25.529  1.00  0.00    -0.026 C 
HETATM   21  C18 UNL     1      12.192  62.826  24.703  1.00  0.00     0.038 C 
HETATM   22  C19 UNL     1      10.738  63.231  25.139  1.00  0.00     0.083 C 
HETATM   23  C20 UNL     1      10.767  63.076  26.537  1.00  0.00    -0.182 C 
HETATM   24  C21 UNL     1      10.380  63.106  27.888  1.00  0.00     0.097 C 
ENDBRANCH  14  17
ENDBRANCH  10  11
ENDBRANCH   9  10
ENDBRANCH   5   9
BRANCH   1  25
HETATM   25  C6  UNL     1      20.289  63.228  33.789  1.00  0.00     0.033 A 
HETATM   26  C5  UNL     1      21.316  62.618  33.118  1.00  0.00     0.032 A 
HETATM   27  C4  UNL     1      22.137  61.724  33.764  1.00  0.00     0.042 A 
HETATM   28  C3  UNL     1      21.975  61.387  35.125  1.00  0.00     0.102 A 
HETATM   29  C25 UNL     1      20.913  62.027  35.793  1.00  0.00     0.104 A 
HETATM   30  C24 UNL     1      20.122  62.905  35.120  1.00  0.00     0.069 A 
BRANCH  28  31
HETATM   31  O1  UNL     1      22.779  60.537  35.685  1.00  0.00    -0.349 OA
BRANCH  31  32
HETATM   32  C2  UNL     1      23.589  59.764  36.315  1.00  0.00     0.171 C 
HETATM   33  C1  UNL     1      24.274  60.511  37.488  1.00  0.00     0.034 C 
ENDBRANCH  31  32
ENDBRANCH  28  31
BRANCH  29  34
HETATM   34  O5  UNL     1      20.760  61.688  37.140  1.00  0.00    -0.349 OA
BRANCH  34  35
HETATM   35  C26 UNL     1      20.902  62.653  38.169  1.00  0.00     0.171 C 
HETATM   36  C27 UNL     1      21.309  61.923  39.429  1.00  0.00     0.034 C 
ENDBRANCH  34  35
ENDBRANCH  29  34
ENDBRANCH   1  25
TORSDOF 9
ENDMDL
