MODEL 1
REMARK VINA RESULT: -9.566950156      0.000      0.000
REMARK  8 active torsions:
REMARK  status: ('A' for Active; 'I' for Inactive)
REMARK    1  A    between atoms: C2_2  and  N1_3 
REMARK    2  A    between atoms: C4_5  and  C5_6 
REMARK       I    between atoms: C5_6  and  N2_8 
REMARK    3  A    between atoms: N2_8  and  C6_10 
REMARK    4  A    between atoms: C16_21  and  O2_22 
REMARK    5  A    between atoms: C18_24  and  O3_25 
REMARK    6  A    between atoms: O3_25  and  C19_26 
REMARK    7  A    between atoms: C19_26  and  C20_27 
REMARK    8  A    between atoms: C20_27  and  N4_28 
ROOT
HETATM    1  N1  UNL     1      16.689  64.018  29.339  1.00  0.00    -0.353 N 
HETATM    2  C3  UNL     1      15.395  64.307  28.990  1.00  0.00     0.112 A 
HETATM    3  C4  UNL     1      14.492  64.797  29.880  1.00  0.00     0.089 A 
HETATM    4  C12 UNL     1      14.848  65.031  31.213  1.00  0.00     0.135 A 
HETATM    5  N3  UNL     1      14.110  65.457  32.048  1.00  0.00    -0.427 NA
HETATM    6  C13 UNL     1      13.376  65.925  33.055  1.00  0.00     0.229 C 
HETATM    7  C14 UNL     1      16.191  64.725  31.546  1.00  0.00     0.038 A 
HETATM    8  C15 UNL     1      16.606  64.952  32.841  1.00  0.00     0.057 A 
HETATM    9  C16 UNL     1      17.916  64.699  33.259  1.00  0.00     0.105 A 
HETATM   10  C18 UNL     1      18.804  64.210  32.350  1.00  0.00     0.143 A 
HETATM   11  C27 UNL     1      18.370  63.984  31.044  1.00  0.00     0.180 A 
HETATM   12  F1  UNL     1      19.273  63.511  30.149  1.00  0.00    -0.201 F 
HETATM   13  C28 UNL     1      17.084  64.230  30.621  1.00  0.00     0.090 A 
ENDROOT
BRANCH   3  14
HETATM   14  C5  UNL     1      13.156  65.030  29.384  1.00  0.00     0.256 C 
HETATM   15  O1  UNL     1      13.011  65.918  28.484  1.00  0.00    -0.267 OA
HETATM   16  N2  UNL     1      11.981  64.343  29.807  1.00  0.00    -0.352 N 
ATOM     17  H2  UNL     1      12.044  63.623  30.526  1.00  0.00     0.163 HD
BRANCH  16  18
HETATM   18  C6  UNL     1      10.683  64.668  29.212  1.00  0.00     0.084 C 
HETATM   19  C7  UNL     1       9.816  65.257  30.260  1.00  0.00     0.025 C 
HETATM   20  C8  UNL     1       8.482  65.705  29.691  1.00  0.00     0.002 C 
HETATM   21  C9  UNL     1       8.166  65.005  28.383  1.00  0.00     0.000 C 
HETATM   22  C10 UNL     1       8.599  63.542  28.398  1.00  0.00     0.002 C 
HETATM   23  C11 UNL     1      10.087  63.416  28.567  1.00  0.00     0.025 C 
ENDBRANCH  16  18
ENDBRANCH   3  14
BRANCH   1  24
HETATM   24  C2  UNL     1      17.531  63.495  28.319  1.00  0.00     0.124 C 
HETATM   25  C1  UNL     1      16.787  62.397  27.588  1.00  0.00     0.027 C 
ENDBRANCH   1  24
BRANCH   9  26
HETATM   26  O2  UNL     1      18.290  64.945  34.566  1.00  0.00    -0.353 OA
HETATM   27  C17 UNL     1      18.161  63.946  35.550  1.00  0.00     0.210 C 
ENDBRANCH   9  26
BRANCH  10  28
HETATM   28  O3  UNL     1      20.141  63.905  32.587  1.00  0.00    -0.344 OA
BRANCH  28  29
HETATM   29  C19 UNL     1      20.661  62.697  33.010  1.00  0.00     0.206 C 
BRANCH  29  30
HETATM   30  C20 UNL     1      21.639  62.664  34.114  1.00  0.00     0.299 C 
BRANCH  30  31
HETATM   31  N4  UNL     1      21.167  62.080  35.353  1.00  0.00     0.090 N 
HETATM   32  C21 UNL     1      21.708  62.885  36.442  1.00  0.00     0.273 C 
HETATM   33  C22 UNL     1      22.165  62.037  37.614  1.00  0.00     0.034 C 
HETATM   34  C23 UNL     1      23.304  61.139  37.263  1.00  0.00    -0.015 C 
HETATM   35  C24 UNL     1      23.397  60.022  38.295  1.00  0.00     0.010 C 
HETATM   36  C25 UNL     1      23.061  60.583  35.895  1.00  0.00     0.034 C 
HETATM   37  C26 UNL     1      21.604  60.720  35.548  1.00  0.00     0.273 C 
ENDBRANCH  30  31
ENDBRANCH  29  30
ENDBRANCH  28  29
ENDBRANCH  10  28
TORSDOF 8
ENDMDL
MODEL 2
REMARK VINA RESULT: -9.566437000      0.824      1.010
REMARK  8 active torsions:
REMARK  status: ('A' for Active; 'I' for Inactive)
REMARK    1  A    between atoms: C2_2  and  N1_3 
REMARK    2  A    between atoms: C4_5  and  C5_6 
REMARK       I    between atoms: C5_6  and  N2_8 
REMARK    3  A    between atoms: N2_8  and  C6_10 
REMARK    4  A    between atoms: C16_21  and  O2_22 
REMARK    5  A    between atoms: C18_24  and  O3_25 
REMARK    6  A    between atoms: O3_25  and  C19_26 
REMARK    7  A    between atoms: C19_26  and  C20_27 
REMARK    8  A    between atoms: C20_27  and  N4_28 
ROOT
HETATM    1  N1  UNL     1      16.750  64.381  29.488  1.00  0.00    -0.353 N 
HETATM    2  C3  UNL     1      15.512  64.884  29.181  1.00  0.00     0.112 A 
HETATM    3  C4  UNL     1      14.685  65.410  30.124  1.00  0.00     0.089 A 
HETATM    4  C12 UNL     1      15.066  65.463  31.468  1.00  0.00     0.135 A 
HETATM    5  N3  UNL     1      14.394  65.908  32.348  1.00  0.00    -0.427 NA
HETATM    6  C13 UNL     1      13.730  66.377  33.403  1.00  0.00     0.229 C 
HETATM    7  C14 UNL     1      16.351  64.938  31.757  1.00  0.00     0.038 A 
HETATM    8  C15 UNL     1      16.790  64.980  33.063  1.00  0.00     0.057 A 
HETATM    9  C16 UNL     1      18.049  64.504  33.442  1.00  0.00     0.105 A 
HETATM   10  C18 UNL     1      18.862  63.983  32.481  1.00  0.00     0.143 A 
HETATM   11  C27 UNL     1      18.403  63.947  31.164  1.00  0.00     0.180 A 
HETATM   12  F1  UNL     1      19.233  63.438  30.219  1.00  0.00    -0.201 F 
HETATM   13  C28 UNL     1      17.167  64.413  30.780  1.00  0.00     0.090 A 
ENDROOT
BRANCH   3  14
HETATM   14  C5  UNL     1      13.398  65.877  29.665  1.00  0.00     0.256 C 
HETATM   15  O1  UNL     1      13.366  66.536  28.577  1.00  0.00    -0.267 OA
HETATM   16  N2  UNL     1      12.152  65.654  30.321  1.00  0.00    -0.352 N 
ATOM     17  H2  UNL     1      12.124  65.131  31.196  1.00  0.00     0.163 HD
BRANCH  16  18
HETATM   18  C6  UNL     1      10.911  66.174  29.741  1.00  0.00     0.084 C 
HETATM   19  C7  UNL     1      10.487  67.362  30.520  1.00  0.00     0.025 C 
HETATM   20  C8  UNL     1       9.254  68.010  29.917  1.00  0.00     0.002 C 
HETATM   21  C9  UNL     1       8.487  67.043  29.033  1.00  0.00     0.000 C 
HETATM   22  C10 UNL     1       8.469  65.632  29.611  1.00  0.00     0.002 C 
HETATM   23  C11 UNL     1       9.858  65.066  29.708  1.00  0.00     0.025 C 
ENDBRANCH  16  18
ENDBRANCH   3  14
BRANCH   1  24
HETATM   24  C2  UNL     1      17.513  63.844  28.414  1.00  0.00     0.124 C 
HETATM   25  C1  UNL     1      16.836  62.582  27.920  1.00  0.00     0.027 C 
ENDBRANCH   1  24
BRANCH   9  26
HETATM   26  O2  UNL     1      18.450  64.569  34.763  1.00  0.00    -0.353 OA
HETATM   27  C17 UNL     1      18.194  63.501  35.644  1.00  0.00     0.210 C 
ENDBRANCH   9  26
BRANCH  10  28
HETATM   28  O3  UNL     1      20.140  63.470  32.675  1.00  0.00    -0.344 OA
BRANCH  28  29
HETATM   29  C19 UNL     1      20.478  62.185  33.055  1.00  0.00     0.206 C 
BRANCH  29  30
HETATM   30  C20 UNL     1      21.587  61.966  34.002  1.00  0.00     0.299 C 
BRANCH  30  31
HETATM   31  N4  UNL     1      21.198  61.603  35.350  1.00  0.00     0.090 N 
HETATM   32  C21 UNL     1      21.821  62.566  36.251  1.00  0.00     0.273 C 
HETATM   33  C22 UNL     1      22.352  61.914  37.514  1.00  0.00     0.034 C 
HETATM   34  C23 UNL     1      23.457  60.949  37.239  1.00  0.00    -0.015 C 
HETATM   35  C24 UNL     1      23.614  60.014  38.434  1.00  0.00     0.010 C 
HETATM   36  C25 UNL     1      23.114  60.180  36.002  1.00  0.00     0.034 C 
HETATM   37  C26 UNL     1      21.637  60.286  35.737  1.00  0.00     0.273 C 
ENDBRANCH  30  31
ENDBRANCH  29  30
ENDBRANCH  28  29
ENDBRANCH  10  28
TORSDOF 8
ENDMDL
MODEL 3
REMARK VINA RESULT: -9.005235390      1.554      1.967
REMARK  8 active torsions:
REMARK  status: ('A' for Active; 'I' for Inactive)
REMARK    1  A    between atoms: C2_2  and  N1_3 
REMARK    2  A    between atoms: C4_5  and  C5_6 
REMARK       I    between atoms: C5_6  and  N2_8 
REMARK    3  A    between atoms: N2_8  and  C6_10 
REMARK    4  A    between atoms: C16_21  and  O2_22 
REMARK    5  A    between atoms: C18_24  and  O3_25 
REMARK    6  A    between atoms: O3_25  and  C19_26 
REMARK    7  A    between atoms: C19_26  and  C20_27 
REMARK    8  A    between atoms: C20_27  and  N4_28 
ROOT
HETATM    1  N1  UNL     1      16.060  64.168  29.280  1.00  0.00    -0.353 N 
HETATM    2  C3  UNL     1      14.760  64.562  29.092  1.00  0.00     0.112 A 
HETATM    3  C4  UNL     1      14.018  65.122  30.083  1.00  0.00     0.089 A 
HETATM    4  C12 UNL     1      14.555  65.326  31.359  1.00  0.00     0.135 A 
HETATM    5  N3  UNL     1      13.963  65.810  32.275  1.00  0.00    -0.427 NA
HETATM    6  C13 UNL     1      13.400  66.335  33.361  1.00  0.00     0.229 C 
HETATM    7  C14 UNL     1      15.900  64.913  31.525  1.00  0.00     0.038 A 
HETATM    8  C15 UNL     1      16.491  65.106  32.756  1.00  0.00     0.057 A 
HETATM    9  C16 UNL     1      17.818  64.748  33.010  1.00  0.00     0.105 A 
HETATM   10  C18 UNL     1      18.544  64.189  32.002  1.00  0.00     0.143 A 
HETATM   11  C27 UNL     1      17.933  63.999  30.762  1.00  0.00     0.180 A 
HETATM   12  F1  UNL     1      18.677  63.455  29.767  1.00  0.00    -0.201 F 
HETATM   13  C28 UNL     1      16.628  64.348  30.501  1.00  0.00     0.090 A 
ENDROOT
BRANCH   3  14
HETATM   14  C5  UNL     1      12.653  65.462  29.755  1.00  0.00     0.256 C 
HETATM   15  O1  UNL     1      11.873  64.511  29.430  1.00  0.00    -0.267 OA
HETATM   16  N2  UNL     1      12.097  66.774  29.772  1.00  0.00    -0.352 N 
ATOM     17  H2  UNL     1      12.681  67.571  30.025  1.00  0.00     0.163 HD
BRANCH  16  18
HETATM   18  C6  UNL     1      10.689  66.982  29.427  1.00  0.00     0.084 C 
HETATM   19  C7  UNL     1      10.591  67.236  27.969  1.00  0.00     0.025 C 
HETATM   20  C8  UNL     1       9.146  67.369  27.524  1.00  0.00     0.002 C 
HETATM   21  C9  UNL     1       8.231  67.719  28.683  1.00  0.00     0.000 C 
HETATM   22  C10 UNL     1       8.883  68.703  29.648  1.00  0.00     0.002 C 
HETATM   23  C11 UNL     1      10.114  68.116  30.278  1.00  0.00     0.025 C 
ENDBRANCH  16  18
ENDBRANCH   3  14
BRANCH   1  24
HETATM   24  C2  UNL     1      16.724  63.580  28.168  1.00  0.00     0.124 C 
HETATM   25  C1  UNL     1      16.202  62.171  27.980  1.00  0.00     0.027 C 
ENDBRANCH   1  24
BRANCH   9  26
HETATM   26  O2  UNL     1      18.371  64.962  34.258  1.00  0.00    -0.353 OA
HETATM   27  C17 UNL     1      18.088  64.092  35.328  1.00  0.00     0.210 C 
ENDBRANCH   9  26
BRANCH  10  28
HETATM   28  O3  UNL     1      19.871  63.777  32.074  1.00  0.00    -0.344 OA
BRANCH  28  29
HETATM   29  C19 UNL     1      20.384  62.735  32.821  1.00  0.00     0.206 C 
BRANCH  29  30
HETATM   30  C20 UNL     1      21.557  62.959  33.687  1.00  0.00     0.299 C 
BRANCH  30  31
HETATM   31  N4  UNL     1      21.826  61.920  34.660  1.00  0.00     0.090 N 
HETATM   32  C21 UNL     1      20.538  61.487  35.192  1.00  0.00     0.273 C 
HETATM   33  C22 UNL     1      20.588  61.234  36.688  1.00  0.00     0.034 C 
HETATM   34  C23 UNL     1      20.875  62.473  37.470  1.00  0.00    -0.015 C 
HETATM   35  C24 UNL     1      21.367  62.085  38.859  1.00  0.00     0.010 C 
HETATM   36  C25 UNL     1      21.914  63.262  36.737  1.00  0.00     0.034 C 
HETATM   37  C26 UNL     1      22.634  62.367  35.767  1.00  0.00     0.273 C 
ENDBRANCH  30  31
ENDBRANCH  29  30
ENDBRANCH  28  29
ENDBRANCH  10  28
TORSDOF 8
ENDMDL
MODEL 4
REMARK VINA RESULT: -8.981516828      2.024      9.844
REMARK  8 active torsions:
REMARK  status: ('A' for Active; 'I' for Inactive)
REMARK    1  A    between atoms: C2_2  and  N1_3 
REMARK    2  A    between atoms: C4_5  and  C5_6 
REMARK       I    between atoms: C5_6  and  N2_8 
REMARK    3  A    between atoms: N2_8  and  C6_10 
REMARK    4  A    between atoms: C16_21  and  O2_22 
REMARK    5  A    between atoms: C18_24  and  O3_25 
REMARK    6  A    between atoms: O3_25  and  C19_26 
REMARK    7  A    between atoms: C19_26  and  C20_27 
REMARK    8  A    between atoms: C20_27  and  N4_28 
ROOT
HETATM    1  N1  UNL     1      17.745  63.797  30.338  1.00  0.00    -0.353 N 
HETATM    2  C3  UNL     1      18.767  63.194  31.027  1.00  0.00     0.112 A 
HETATM    3  C4  UNL     1      18.903  63.306  32.375  1.00  0.00     0.089 A 
HETATM    4  C12 UNL     1      17.994  64.052  33.132  1.00  0.00     0.135 A 
HETATM    5  N3  UNL     1      18.051  64.194  34.315  1.00  0.00    -0.427 NA
HETATM    6  C13 UNL     1      18.019  64.419  35.627  1.00  0.00     0.229 C 
HETATM    7  C14 UNL     1      16.947  64.662  32.396  1.00  0.00     0.038 A 
HETATM    8  C15 UNL     1      16.008  65.396  33.090  1.00  0.00     0.057 A 
HETATM    9  C16 UNL     1      14.930  66.019  32.455  1.00  0.00     0.105 A 
HETATM   10  C18 UNL     1      14.813  65.893  31.104  1.00  0.00     0.143 A 
HETATM   11  C27 UNL     1      15.770  65.149  30.415  1.00  0.00     0.180 A 
HETATM   12  F1  UNL     1      15.628  65.022  29.071  1.00  0.00    -0.201 F 
HETATM   13  C28 UNL     1      16.835  64.530  31.030  1.00  0.00     0.090 A 
ENDROOT
BRANCH   3  14
HETATM   14  C5  UNL     1      20.041  62.643  32.966  1.00  0.00     0.256 C 
HETATM   15  O1  UNL     1      21.059  62.453  32.226  1.00  0.00    -0.267 OA
HETATM   16  N2  UNL     1      20.131  62.190  34.314  1.00  0.00    -0.352 N 
ATOM     17  H2  UNL     1      19.342  62.317  34.947  1.00  0.00     0.163 HD
BRANCH  16  18
HETATM   18  C6  UNL     1      21.353  61.540  34.793  1.00  0.00     0.084 C 
HETATM   19  C7  UNL     1      20.974  60.426  35.696  1.00  0.00     0.025 C 
HETATM   20  C8  UNL     1      22.192  59.647  36.159  1.00  0.00     0.002 C 
HETATM   21  C9  UNL     1      23.465  60.463  36.025  1.00  0.00     0.000 C 
HETATM   22  C10 UNL     1      23.245  61.928  36.388  1.00  0.00     0.002 C 
HETATM   23  C11 UNL     1      22.258  62.577  35.460  1.00  0.00     0.025 C 
ENDBRANCH  16  18
ENDBRANCH   3  14
BRANCH   1  24
HETATM   24  C2  UNL     1      17.723  63.618  28.928  1.00  0.00     0.124 C 
HETATM   25  C1  UNL     1      16.983  62.336  28.611  1.00  0.00     0.027 C 
ENDBRANCH   1  24
BRANCH   9  26
HETATM   26  O2  UNL     1      14.011  66.741  33.191  1.00  0.00    -0.353 OA
HETATM   27  C17 UNL     1      12.858  66.120  33.708  1.00  0.00     0.210 C 
ENDBRANCH   9  26
BRANCH  10  28
HETATM   28  O3  UNL     1      13.808  66.439  30.311  1.00  0.00    -0.344 OA
BRANCH  28  29
HETATM   29  C19 UNL     1      12.550  65.918  30.076  1.00  0.00     0.206 C 
BRANCH  29  30
HETATM   30  C20 UNL     1      12.096  65.690  28.692  1.00  0.00     0.299 C 
BRANCH  30  31
HETATM   31  N4  UNL     1      11.436  64.424  28.449  1.00  0.00     0.090 N 
HETATM   32  C21 UNL     1      12.235  63.391  29.101  1.00  0.00     0.273 C 
HETATM   33  C22 UNL     1      12.339  62.129  28.265  1.00  0.00     0.034 C 
HETATM   34  C23 UNL     1      13.063  62.352  26.978  1.00  0.00    -0.015 C 
HETATM   35  C24 UNL     1      12.730  61.220  26.014  1.00  0.00     0.010 C 
HETATM   36  C25 UNL     1      12.635  63.673  26.419  1.00  0.00     0.034 C 
HETATM   37  C26 UNL     1      11.335  64.088  27.051  1.00  0.00     0.273 C 
ENDBRANCH  30  31
ENDBRANCH  29  30
ENDBRANCH  28  29
ENDBRANCH  10  28
TORSDOF 8
ENDMDL
MODEL 5
REMARK VINA RESULT: -8.949765132      2.028      3.985
REMARK  8 active torsions:
REMARK  status: ('A' for Active; 'I' for Inactive)
REMARK    1  A    between atoms: C2_2  and  N1_3 
REMARK    2  A    between atoms: C4_5  and  C5_6 
REMARK       I    between atoms: C5_6  and  N2_8 
REMARK    3  A    between atoms: N2_8  and  C6_10 
REMARK    4  A    between atoms: C16_21  and  O2_22 
REMARK    5  A    between atoms: C18_24  and  O3_25 
REMARK    6  A    between atoms: O3_25  and  C19_26 
REMARK    7  A    between atoms: C19_26  and  C20_27 
REMARK    8  A    between atoms: C20_27  and  N4_28 
ROOT
HETATM    1  N1  UNL     1      13.066  65.764  31.427  1.00  0.00    -0.353 N 
HETATM    2  C3  UNL     1      11.986  65.665  30.586  1.00  0.00     0.112 A 
HETATM    3  C4  UNL     1      12.076  65.115  29.346  1.00  0.00     0.089 A 
HETATM    4  C12 UNL     1      13.291  64.616  28.865  1.00  0.00     0.135 A 
HETATM    5  N3  UNL     1      13.444  64.122  27.790  1.00  0.00    -0.427 NA
HETATM    6  C13 UNL     1      13.727  63.556  26.618  1.00  0.00     0.229 C 
HETATM    7  C14 UNL     1      14.389  64.729  29.754  1.00  0.00     0.038 A 
HETATM    8  C15 UNL     1      15.610  64.237  29.342  1.00  0.00     0.057 A 
HETATM    9  C16 UNL     1      16.746  64.286  30.156  1.00  0.00     0.105 A 
HETATM   10  C18 UNL     1      16.633  64.841  31.395  1.00  0.00     0.143 A 
HETATM   11  C27 UNL     1      15.392  65.334  31.797  1.00  0.00     0.180 A 
HETATM   12  F1  UNL     1      15.296  65.869  33.040  1.00  0.00    -0.201 F 
HETATM   13  C28 UNL     1      14.267  65.291  31.005  1.00  0.00     0.090 A 
ENDROOT
BRANCH   3  14
HETATM   14  C5  UNL     1      10.867  65.102  28.557  1.00  0.00     0.256 C 
HETATM   15  O1  UNL     1      10.269  66.211  28.382  1.00  0.00    -0.267 OA
HETATM   16  N2  UNL     1      10.287  63.953  27.944  1.00  0.00    -0.352 N 
ATOM     17  H2  UNL     1      10.727  63.040  28.055  1.00  0.00     0.163 HD
BRANCH  16  18
HETATM   18  C6  UNL     1       9.059  64.080  27.156  1.00  0.00     0.084 C 
HETATM   19  C7  UNL     1       7.938  63.493  27.930  1.00  0.00     0.025 C 
HETATM   20  C8  UNL     1       6.613  63.673  27.210  1.00  0.00     0.002 C 
HETATM   21  C9  UNL     1       6.809  63.918  25.726  1.00  0.00     0.000 C 
HETATM   22  C10 UNL     1       7.942  63.075  25.152  1.00  0.00     0.002 C 
HETATM   23  C11 UNL     1       9.258  63.424  25.789  1.00  0.00     0.025 C 
ENDBRANCH  16  18
ENDBRANCH   3  14
BRANCH   1  24
HETATM   24  C2  UNL     1      12.846  66.375  32.691  1.00  0.00     0.124 C 
HETATM   25  C1  UNL     1      11.967  67.594  32.497  1.00  0.00     0.027 C 
ENDBRANCH   1  24
BRANCH   9  26
HETATM   26  O2  UNL     1      17.949  63.778  29.704  1.00  0.00    -0.353 OA
HETATM   27  C17 UNL     1      18.279  63.825  28.337  1.00  0.00     0.210 C 
ENDBRANCH   9  26
BRANCH  10  28
HETATM   28  O3  UNL     1      17.651  64.970  32.334  1.00  0.00    -0.344 OA
BRANCH  28  29
HETATM   29  C19 UNL     1      17.987  64.076  33.333  1.00  0.00     0.206 C 
BRANCH  29  30
HETATM   30  C20 UNL     1      18.718  62.840  32.998  1.00  0.00     0.299 C 
BRANCH  30  31
HETATM   31  N4  UNL     1      19.042  61.980  34.118  1.00  0.00     0.090 N 
HETATM   32  C21 UNL     1      18.735  62.725  35.334  1.00  0.00     0.273 C 
HETATM   33  C22 UNL     1      19.777  62.514  36.417  1.00  0.00     0.034 C 
HETATM   34  C23 UNL     1      21.119  63.041  36.031  1.00  0.00    -0.015 C 
HETATM   35  C24 UNL     1      22.182  62.400  36.917  1.00  0.00     0.010 C 
HETATM   36  C25 UNL     1      21.358  62.712  34.591  1.00  0.00     0.034 C 
HETATM   37  C26 UNL     1      20.433  61.605  34.167  1.00  0.00     0.273 C 
ENDBRANCH  30  31
ENDBRANCH  29  30
ENDBRANCH  28  29
ENDBRANCH  10  28
TORSDOF 8
ENDMDL
