MODEL 1
REMARK VINA RESULT: -8.886699547      0.000      0.000
REMARK  8 active torsions:
REMARK  status: ('A' for Active; 'I' for Inactive)
REMARK    1  A    between atoms: C5_6  and  C6_7 
REMARK    2  A    between atoms: C6_7  and  C7_8 
REMARK    3  A    between atoms: C6_7  and  N2_19 
REMARK       I    between atoms: C7_8  and  N1_10 
REMARK    4  A    between atoms: N1_10  and  C8_12 
REMARK    5  A    between atoms: N2_19  and  C15_20 
REMARK    6  A    between atoms: N2_19  and  C19_24 
REMARK    7  A    between atoms: C15_20  and  C16_21 
REMARK    8  A    between atoms: C24_32  and  N3_33 
ROOT
HETATM    1  C6  UNL     1      14.281  63.853  29.142  1.00  0.00     0.116 C 
ENDROOT
BRANCH   1   2
HETATM    2  C5  UNL     1      15.206  63.759  28.003  1.00  0.00     0.037 A 
HETATM    3  C4  UNL     1      16.206  62.859  27.791  1.00  0.00     0.129 A 
HETATM    4  C3  UNL     1      17.029  62.864  26.665  1.00  0.00     0.052 A 
HETATM    5  F1  UNL     1      16.518  61.863  28.664  1.00  0.00    -0.205 F 
HETATM    6  C2  UNL     1      16.853  63.821  25.670  1.00  0.00    -0.026 A 
HETATM    7  C1  UNL     1      17.725  63.828  24.470  1.00  0.00     0.050 C 
HETATM    8  C24 UNL     1      15.861  64.743  25.837  1.00  0.00     0.109 A 
HETATM    9  C23 UNL     1      15.077  64.714  26.952  1.00  0.00     0.053 A 
BRANCH   8  10
HETATM   10  N3  UNL     1      15.681  65.734  24.809  1.00  0.00    -0.115 N 
HETATM   11  O4  UNL     1      16.335  66.796  24.954  1.00  0.00    -0.532 OA
HETATM   12  O5  UNL     1      14.856  65.569  23.735  1.00  0.00    -0.532 OA
ENDBRANCH   8  10
ENDBRANCH   1   2
BRANCH   1  13
HETATM   13  C7  UNL     1      12.969  63.165  28.851  1.00  0.00     0.269 C 
HETATM   14  O1  UNL     1      12.814  61.946  29.140  1.00  0.00    -0.266 OA
HETATM   15  N1  UNL     1      11.886  63.799  28.275  1.00  0.00    -0.351 N 
ATOM     16  H1  UNL     1      12.026  64.793  28.092  1.00  0.00     0.163 HD
BRANCH  15  17
HETATM   17  C8  UNL     1      10.601  63.296  27.892  1.00  0.00     0.084 C 
HETATM   18  C9  UNL     1       9.458  64.008  28.558  1.00  0.00     0.025 C 
HETATM   19  C10 UNL     1       8.110  63.369  28.248  1.00  0.00     0.002 C 
HETATM   20  C11 UNL     1       7.457  64.028  27.070  1.00  0.00     0.000 C 
HETATM   21  C12 UNL     1       8.080  63.292  25.848  1.00  0.00     0.000 C 
HETATM   22  C13 UNL     1       9.465  63.965  25.723  1.00  0.00     0.002 C 
HETATM   23  C14 UNL     1      10.514  63.139  26.418  1.00  0.00     0.025 C 
ENDBRANCH  15  17
ENDBRANCH   1  13
BRANCH   1  24
HETATM   24  N2  UNL     1      14.390  64.742  30.193  1.00  0.00    -0.346 N 
BRANCH  24  25
HETATM   25  C15 UNL     1      15.695  65.185  30.445  1.00  0.00     0.094 C 
BRANCH  25  26
HETATM   26  C16 UNL     1      16.749  64.485  31.151  1.00  0.00    -0.072 C 
HETATM   27  C17 UNL     1      18.074  64.255  30.533  1.00  0.00     0.044 C 
HETATM   28  C18 UNL     1      16.910  64.935  32.620  1.00  0.00     0.044 C 
ENDBRANCH  25  26
ENDBRANCH  24  25
BRANCH  24  29
HETATM   29  C19 UNL     1      13.306  65.257  30.888  1.00  0.00     0.104 C 
HETATM   30  C20 UNL     1      13.330  65.313  32.414  1.00  0.00     0.041 C 
HETATM   31  C21 UNL     1      11.893  65.639  32.782  1.00  0.00     0.142 C 
HETATM   32  S1  UNL     1      11.668  67.098  31.762  1.00  0.00     0.146 S 
HETATM   33  O2  UNL     1      11.953  68.347  32.507  1.00  0.00    -0.228 OA
HETATM   34  O3  UNL     1      10.330  67.089  31.114  1.00  0.00    -0.228 OA
HETATM   35  C22 UNL     1      12.987  66.740  30.584  1.00  0.00     0.166 C 
ENDBRANCH  24  29
ENDBRANCH   1  24
TORSDOF 8
ENDMDL
MODEL 2
REMARK VINA RESULT: -8.701422517      2.531      6.387
REMARK  8 active torsions:
REMARK  status: ('A' for Active; 'I' for Inactive)
REMARK    1  A    between atoms: C5_6  and  C6_7 
REMARK    2  A    between atoms: C6_7  and  C7_8 
REMARK    3  A    between atoms: C6_7  and  N2_19 
REMARK       I    between atoms: C7_8  and  N1_10 
REMARK    4  A    between atoms: N1_10  and  C8_12 
REMARK    5  A    between atoms: N2_19  and  C15_20 
REMARK    6  A    between atoms: N2_19  and  C19_24 
REMARK    7  A    between atoms: C15_20  and  C16_21 
REMARK    8  A    between atoms: C24_32  and  N3_33 
ROOT
HETATM    1  C6  UNL     1      16.020  64.843  30.100  1.00  0.00     0.116 C 
ENDROOT
BRANCH   1   2
HETATM    2  C5  UNL     1      16.360  64.348  28.759  1.00  0.00     0.037 A 
HETATM    3  C4  UNL     1      16.598  63.068  28.359  1.00  0.00     0.129 A 
HETATM    4  C3  UNL     1      16.916  62.710  27.049  1.00  0.00     0.052 A 
HETATM    5  F1  UNL     1      16.563  61.999  29.200  1.00  0.00    -0.205 F 
HETATM    6  C2  UNL     1      17.002  63.681  26.056  1.00  0.00    -0.026 A 
HETATM    7  C1  UNL     1      17.338  63.304  24.661  1.00  0.00     0.050 C 
HETATM    8  C24 UNL     1      16.769  64.979  26.408  1.00  0.00     0.109 A 
HETATM    9  C23 UNL     1      16.465  65.297  27.699  1.00  0.00     0.053 A 
BRANCH   8  10
HETATM   10  N3  UNL     1      16.860  65.984  25.382  1.00  0.00    -0.115 N 
HETATM   11  O4  UNL     1      15.767  66.432  24.959  1.00  0.00    -0.532 OA
HETATM   12  O5  UNL     1      18.041  66.439  24.872  1.00  0.00    -0.532 OA
ENDBRANCH   8  10
ENDBRANCH   1   2
BRANCH   1  13
HETATM   13  C7  UNL     1      17.073  64.467  31.116  1.00  0.00     0.269 C 
HETATM   14  O1  UNL     1      18.165  63.957  30.739  1.00  0.00    -0.266 OA
HETATM   15  N1  UNL     1      16.922  64.652  32.475  1.00  0.00    -0.351 N 
ATOM     16  H1  UNL     1      16.049  65.104  32.747  1.00  0.00     0.163 HD
BRANCH  15  17
HETATM   17  C8  UNL     1      17.785  64.316  33.568  1.00  0.00     0.084 C 
HETATM   18  C9  UNL     1      17.785  62.851  33.902  1.00  0.00     0.025 C 
HETATM   19  C10 UNL     1      18.597  62.535  35.151  1.00  0.00     0.002 C 
HETATM   20  C11 UNL     1      20.006  62.160  34.801  1.00  0.00     0.000 C 
HETATM   21  C12 UNL     1      20.730  63.532  34.684  1.00  0.00     0.000 C 
HETATM   22  C13 UNL     1      20.292  64.024  33.287  1.00  0.00     0.002 C 
HETATM   23  C14 UNL     1      19.115  64.957  33.406  1.00  0.00     0.025 C 
ENDBRANCH  15  17
ENDBRANCH   1  13
BRANCH   1  24
HETATM   24  N2  UNL     1      14.769  65.261  30.509  1.00  0.00    -0.346 N 
BRANCH  24  25
HETATM   25  C15 UNL     1      13.841  64.226  30.685  1.00  0.00     0.094 C 
BRANCH  25  26
HETATM   26  C16 UNL     1      12.828  63.774  29.752  1.00  0.00    -0.072 C 
HETATM   27  C17 UNL     1      13.020  62.557  28.931  1.00  0.00     0.044 C 
HETATM   28  C18 UNL     1      11.398  63.812  30.333  1.00  0.00     0.044 C 
ENDBRANCH  25  26
ENDBRANCH  24  25
BRANCH  24  29
HETATM   29  C19 UNL     1      14.457  66.572  30.832  1.00  0.00     0.104 C 
HETATM   30  C20 UNL     1      13.533  67.386  29.929  1.00  0.00     0.041 C 
HETATM   31  C21 UNL     1      13.689  68.806  30.444  1.00  0.00     0.142 C 
HETATM   32  S1  UNL     1      13.336  68.513  32.180  1.00  0.00     0.146 S 
HETATM   33  O2  UNL     1      11.909  68.743  32.504  1.00  0.00    -0.228 OA
HETATM   34  O3  UNL     1      14.269  69.280  33.046  1.00  0.00    -0.228 OA
HETATM   35  C22 UNL     1      13.717  66.749  32.178  1.00  0.00     0.166 C 
ENDBRANCH  24  29
ENDBRANCH   1  24
TORSDOF 8
ENDMDL
MODEL 3
REMARK VINA RESULT: -8.690942346      2.980      8.004
REMARK  8 active torsions:
REMARK  status: ('A' for Active; 'I' for Inactive)
REMARK    1  A    between atoms: C5_6  and  C6_7 
REMARK    2  A    between atoms: C6_7  and  C7_8 
REMARK    3  A    between atoms: C6_7  and  N2_19 
REMARK       I    between atoms: C7_8  and  N1_10 
REMARK    4  A    between atoms: N1_10  and  C8_12 
REMARK    5  A    between atoms: N2_19  and  C15_20 
REMARK    6  A    between atoms: N2_19  and  C19_24 
REMARK    7  A    between atoms: C15_20  and  C16_21 
REMARK    8  A    between atoms: C24_32  and  N3_33 
ROOT
HETATM    1  C6  UNL     1      15.305  64.306  29.641  1.00  0.00     0.116 C 
ENDROOT
BRANCH   1   2
HETATM    2  C5  UNL     1      14.336  65.195  30.299  1.00  0.00     0.037 A 
HETATM    3  C4  UNL     1      13.305  64.866  31.125  1.00  0.00     0.129 A 
HETATM    4  C3  UNL     1      12.441  65.799  31.697  1.00  0.00     0.052 A 
HETATM    5  F1  UNL     1      12.999  63.587  31.474  1.00  0.00    -0.205 F 
HETATM    6  C2  UNL     1      12.605  67.158  31.442  1.00  0.00    -0.026 A 
HETATM    7  C1  UNL     1      11.689  68.154  32.050  1.00  0.00     0.050 C 
HETATM    8  C24 UNL     1      13.627  67.536  30.621  1.00  0.00     0.109 A 
HETATM    9  C23 UNL     1      14.452  66.598  30.073  1.00  0.00     0.053 A 
BRANCH   8  10
HETATM   10  N3  UNL     1      13.795  68.940  30.355  1.00  0.00    -0.115 N 
HETATM   11  O4  UNL     1      14.565  69.555  31.133  1.00  0.00    -0.532 OA
HETATM   12  O5  UNL     1      13.170  69.598  29.336  1.00  0.00    -0.532 OA
ENDBRANCH   8  10
ENDBRANCH   1   2
BRANCH   1  13
HETATM   13  C7  UNL     1      16.681  64.436  30.250  1.00  0.00     0.269 C 
HETATM   14  O1  UNL     1      17.664  64.771  29.532  1.00  0.00    -0.266 OA
HETATM   15  N1  UNL     1      16.948  64.209  31.585  1.00  0.00    -0.351 N 
ATOM     16  H1  UNL     1      16.129  63.982  32.149  1.00  0.00     0.163 HD
BRANCH  15  17
HETATM   17  C8  UNL     1      18.182  64.241  32.312  1.00  0.00     0.084 C 
HETATM   18  C9  UNL     1      18.054  64.843  33.683  1.00  0.00     0.025 C 
HETATM   19  C10 UNL     1      19.398  64.996  34.383  1.00  0.00     0.002 C 
HETATM   20  C11 UNL     1      19.697  63.808  35.247  1.00  0.00     0.000 C 
HETATM   21  C12 UNL     1      20.336  62.790  34.258  1.00  0.00     0.000 C 
HETATM   22  C13 UNL     1      19.102  62.212  33.530  1.00  0.00     0.002 C 
HETATM   23  C14 UNL     1      18.879  62.933  32.226  1.00  0.00     0.025 C 
ENDBRANCH  15  17
ENDBRANCH   1  13
BRANCH   1  24
HETATM   24  N2  UNL     1      15.136  63.705  28.409  1.00  0.00    -0.346 N 
BRANCH  24  25
HETATM   25  C15 UNL     1      14.248  62.622  28.410  1.00  0.00     0.094 C 
BRANCH  25  26
HETATM   26  C16 UNL     1      12.941  62.545  27.790  1.00  0.00    -0.072 C 
HETATM   27  C17 UNL     1      12.702  61.716  26.587  1.00  0.00     0.044 C 
HETATM   28  C18 UNL     1      11.788  62.369  28.803  1.00  0.00     0.044 C 
ENDBRANCH  25  26
ENDBRANCH  24  25
BRANCH  24  29
HETATM   29  C19 UNL     1      15.698  64.177  27.233  1.00  0.00     0.104 C 
HETATM   30  C20 UNL     1      16.189  63.197  26.170  1.00  0.00     0.041 C 
HETATM   31  C21 UNL     1      16.985  64.071  25.218  1.00  0.00     0.142 C 
HETATM   32  S1  UNL     1      15.743  65.322  24.883  1.00  0.00     0.146 S 
HETATM   33  O2  UNL     1      14.961  65.016  23.662  1.00  0.00    -0.228 OA
HETATM   34  O3  UNL     1      16.349  66.679  24.871  1.00  0.00    -0.228 OA
HETATM   35  C22 UNL     1      14.754  65.041  26.365  1.00  0.00     0.166 C 
ENDBRANCH  24  29
ENDBRANCH   1  24
TORSDOF 8
ENDMDL
MODEL 4
REMARK VINA RESULT: -8.625122809      3.123      8.329
REMARK  8 active torsions:
REMARK  status: ('A' for Active; 'I' for Inactive)
REMARK    1  A    between atoms: C5_6  and  C6_7 
REMARK    2  A    between atoms: C6_7  and  C7_8 
REMARK    3  A    between atoms: C6_7  and  N2_19 
REMARK       I    between atoms: C7_8  and  N1_10 
REMARK    4  A    between atoms: N1_10  and  C8_12 
REMARK    5  A    between atoms: N2_19  and  C15_20 
REMARK    6  A    between atoms: N2_19  and  C19_24 
REMARK    7  A    between atoms: C15_20  and  C16_21 
REMARK    8  A    between atoms: C24_32  and  N3_33 
ROOT
HETATM    1  C6  UNL     1      15.609  64.435  29.518  1.00  0.00     0.116 C 
ENDROOT
BRANCH   1   2
HETATM    2  C5  UNL     1      14.688  65.436  30.076  1.00  0.00     0.037 A 
HETATM    3  C4  UNL     1      14.284  66.617  29.532  1.00  0.00     0.129 A 
HETATM    4  C3  UNL     1      13.399  67.497  30.155  1.00  0.00     0.052 A 
HETATM    5  F1  UNL     1      14.710  67.073  28.323  1.00  0.00    -0.205 F 
HETATM    6  C2  UNL     1      12.867  67.191  31.405  1.00  0.00    -0.026 A 
HETATM    7  C1  UNL     1      11.924  68.123  32.070  1.00  0.00     0.050 C 
HETATM    8  C24 UNL     1      13.241  66.016  31.989  1.00  0.00     0.109 A 
HETATM    9  C23 UNL     1      14.112  65.179  31.355  1.00  0.00     0.053 A 
BRANCH   8  10
HETATM   10  N3  UNL     1      12.693  65.701  33.282  1.00  0.00    -0.115 N 
HETATM   11  O4  UNL     1      13.344  66.123  34.268  1.00  0.00    -0.532 OA
HETATM   12  O5  UNL     1      11.546  64.985  33.464  1.00  0.00    -0.532 OA
ENDBRANCH   8  10
ENDBRANCH   1   2
BRANCH   1  13
HETATM   13  C7  UNL     1      16.969  64.506  30.171  1.00  0.00     0.269 C 
HETATM   14  O1  UNL     1      17.978  64.855  29.499  1.00  0.00    -0.266 OA
HETATM   15  N1  UNL     1      17.192  64.210  31.501  1.00  0.00    -0.351 N 
ATOM     16  H1  UNL     1      16.353  63.973  32.029  1.00  0.00     0.163 HD
BRANCH  15  17
HETATM   17  C8  UNL     1      18.405  64.181  32.263  1.00  0.00     0.084 C 
HETATM   18  C9  UNL     1      18.302  64.900  33.578  1.00  0.00     0.025 C 
HETATM   19  C10 UNL     1      19.637  64.979  34.308  1.00  0.00     0.002 C 
HETATM   20  C11 UNL     1      19.796  63.841  35.271  1.00  0.00     0.000 C 
HETATM   21  C12 UNL     1      20.355  62.690  34.386  1.00  0.00     0.000 C 
HETATM   22  C13 UNL     1      19.089  62.177  33.664  1.00  0.00     0.002 C 
HETATM   23  C14 UNL     1      18.971  62.809  32.302  1.00  0.00     0.025 C 
ENDBRANCH  15  17
ENDBRANCH   1  13
BRANCH   1  24
HETATM   24  N2  UNL     1      15.438  63.763  28.324  1.00  0.00    -0.346 N 
BRANCH  24  25
HETATM   25  C15 UNL     1      14.638  62.617  28.413  1.00  0.00     0.094 C 
BRANCH  25  26
HETATM   26  C16 UNL     1      13.220  62.500  28.138  1.00  0.00    -0.072 C 
HETATM   27  C17 UNL     1      12.722  61.824  26.919  1.00  0.00     0.044 C 
HETATM   28  C18 UNL     1      12.388  62.076  29.368  1.00  0.00     0.044 C 
ENDBRANCH  25  26
ENDBRANCH  24  25
BRANCH  24  29
HETATM   29  C19 UNL     1      15.913  64.219  27.104  1.00  0.00     0.104 C 
HETATM   30  C20 UNL     1      16.446  63.230  26.070  1.00  0.00     0.041 C 
HETATM   31  C21 UNL     1      17.129  64.117  25.044  1.00  0.00     0.142 C 
HETATM   32  S1  UNL     1      15.772  65.240  24.701  1.00  0.00     0.146 S 
HETATM   33  O2  UNL     1      14.974  64.807  23.530  1.00  0.00    -0.228 OA
HETATM   34  O3  UNL     1      16.259  66.641  24.598  1.00  0.00    -0.228 OA
HETATM   35  C22 UNL     1      14.867  64.955  26.235  1.00  0.00     0.166 C 
ENDBRANCH  24  29
ENDBRANCH   1  24
TORSDOF 8
ENDMDL
MODEL 5
REMARK VINA RESULT: -8.620999946      2.652      6.448
REMARK  8 active torsions:
REMARK  status: ('A' for Active; 'I' for Inactive)
REMARK    1  A    between atoms: C5_6  and  C6_7 
REMARK    2  A    between atoms: C6_7  and  C7_8 
REMARK    3  A    between atoms: C6_7  and  N2_19 
REMARK       I    between atoms: C7_8  and  N1_10 
REMARK    4  A    between atoms: N1_10  and  C8_12 
REMARK    5  A    between atoms: N2_19  and  C15_20 
REMARK    6  A    between atoms: N2_19  and  C19_24 
REMARK    7  A    between atoms: C15_20  and  C16_21 
REMARK    8  A    between atoms: C24_32  and  N3_33 
ROOT
HETATM    1  C6  UNL     1      15.976  65.028  30.123  1.00  0.00     0.116 C 
ENDROOT
BRANCH   1   2
HETATM    2  C5  UNL     1      16.399  64.800  28.733  1.00  0.00     0.037 A 
HETATM    3  C4  UNL     1      17.631  64.973  28.180  1.00  0.00     0.129 A 
HETATM    4  C3  UNL     1      17.921  64.726  26.838  1.00  0.00     0.052 A 
HETATM    5  F1  UNL     1      18.712  65.419  28.875  1.00  0.00    -0.205 F 
HETATM    6  C2  UNL     1      16.927  64.269  25.977  1.00  0.00    -0.026 A 
HETATM    7  C1  UNL     1      17.232  64.003  24.549  1.00  0.00     0.050 C 
HETATM    8  C24 UNL     1      15.676  64.079  26.487  1.00  0.00     0.109 A 
HETATM    9  C23 UNL     1      15.424  64.335  27.802  1.00  0.00     0.053 A 
BRANCH   8  10
HETATM   10  N3  UNL     1      14.648  63.609  25.596  1.00  0.00    -0.115 N 
HETATM   11  O4  UNL     1      14.219  62.451  25.820  1.00  0.00    -0.532 OA
HETATM   12  O5  UNL     1      14.151  64.344  24.560  1.00  0.00    -0.532 OA
ENDBRANCH   8  10
ENDBRANCH   1   2
BRANCH   1  13
HETATM   13  C7  UNL     1      16.948  64.418  31.106  1.00  0.00     0.269 C 
HETATM   14  O1  UNL     1      17.447  63.281  30.882  1.00  0.00    -0.266 OA
HETATM   15  N1  UNL     1      17.345  65.042  32.271  1.00  0.00    -0.351 N 
ATOM     16  H1  UNL     1      16.958  65.976  32.405  1.00  0.00     0.163 HD
BRANCH  15  17
HETATM   17  C8  UNL     1      18.208  64.597  33.324  1.00  0.00     0.084 C 
HETATM   18  C9  UNL     1      17.735  63.340  33.996  1.00  0.00     0.025 C 
HETATM   19  C10 UNL     1      18.587  62.962  35.200  1.00  0.00     0.002 C 
HETATM   20  C11 UNL     1      19.674  62.003  34.815  1.00  0.00     0.000 C 
HETATM   21  C12 UNL     1      20.815  62.931  34.306  1.00  0.00     0.000 C 
HETATM   22  C13 UNL     1      20.342  63.293  32.881  1.00  0.00     0.002 C 
HETATM   23  C14 UNL     1      19.628  64.619  32.888  1.00  0.00     0.025 C 
ENDBRANCH  15  17
ENDBRANCH   1  13
BRANCH   1  24
HETATM   24  N2  UNL     1      14.709  65.398  30.527  1.00  0.00    -0.346 N 
BRANCH  24  25
HETATM   25  C15 UNL     1      13.852  64.325  30.805  1.00  0.00     0.094 C 
BRANCH  25  26
HETATM   26  C16 UNL     1      12.688  63.901  30.054  1.00  0.00    -0.072 C 
HETATM   27  C17 UNL     1      12.609  62.555  29.443  1.00  0.00     0.044 C 
HETATM   28  C18 UNL     1      11.351  64.262  30.737  1.00  0.00     0.044 C 
ENDBRANCH  25  26
ENDBRANCH  24  25
BRANCH  24  29
HETATM   29  C19 UNL     1      14.321  66.710  30.754  1.00  0.00     0.104 C 
HETATM   30  C20 UNL     1      13.319  67.386  29.820  1.00  0.00     0.041 C 
HETATM   31  C21 UNL     1      13.395  68.850  30.214  1.00  0.00     0.142 C 
HETATM   32  S1  UNL     1      13.113  68.680  31.978  1.00  0.00     0.146 S 
HETATM   33  O2  UNL     1      11.684  68.845  32.331  1.00  0.00    -0.228 OA
HETATM   34  O3  UNL     1      14.018  69.573  32.747  1.00  0.00    -0.228 OA
HETATM   35  C22 UNL     1      13.609  66.950  32.106  1.00  0.00     0.166 C 
ENDBRANCH  24  29
ENDBRANCH   1  24
TORSDOF 8
ENDMDL
