MODEL 1
REMARK VINA RESULT: -8.151204594      0.000      0.000
REMARK  9 active torsions:
REMARK  status: ('A' for Active; 'I' for Inactive)
REMARK    1  A    between atoms: C2_2  and  C4_4 
REMARK    2  A    between atoms: C5_5  and  C6_6 
REMARK    3  A    between atoms: C6_6  and  C8_8 
REMARK    4  A    between atoms: C10_11  and  O2_12 
REMARK    5  A    between atoms: O2_12  and  C11_13 
REMARK    6  A    between atoms: C19_23  and  C20_24 
REMARK    7  A    between atoms: C20_24  and  C21_26 
REMARK    8  A    between atoms: C24_31  and  O8_32 
REMARK    9  A    between atoms: O8_32  and  C25_33 
ROOT
HETATM    1  C4  UNL     1      11.748  64.667  26.731  1.00  0.00     0.026 C 
HETATM    2  C5  UNL     1      10.512  64.230  26.047  1.00  0.00     0.034 C 
HETATM    3  C10 UNL     1       9.469  63.533  26.882  1.00  0.00     0.138 C 
HETATM    4  C13 UNL     1       9.166  64.449  28.049  1.00  0.00     0.050 C 
HETATM    5  C14 UNL     1      10.407  64.374  28.906  1.00  0.00     0.024 C 
HETATM    6  C15 UNL     1      10.293  63.084  29.654  1.00  0.00     0.024 C 
HETATM    7  C16 UNL     1      10.280  65.333  30.085  1.00  0.00     0.136 C 
HETATM    8  O4  UNL     1       9.270  65.948  30.195  1.00  0.00    -0.297 OA
HETATM    9  C17 UNL     1      11.460  65.368  30.956  1.00  0.00     0.085 C 
HETATM   10  C18 UNL     1      12.759  64.901  30.438  1.00  0.00     0.013 C 
HETATM   11  C19 UNL     1      13.749  66.023  30.713  1.00  0.00     0.078 C 
HETATM   12  C22 UNL     1      15.193  65.636  30.501  1.00  0.00     0.023 C 
HETATM   13  C23 UNL     1      15.922  65.208  31.722  1.00  0.00     0.013 C 
HETATM   14  C24 UNL     1      15.219  64.543  29.475  1.00  0.00     0.137 C 
HETATM   15  C27 UNL     1      14.115  64.968  28.472  1.00  0.00     0.042 C 
HETATM   16  C28 UNL     1      12.835  64.351  29.040  1.00  0.00    -0.032 C 
HETATM   17  C29 UNL     1      13.111  62.863  28.997  1.00  0.00     0.016 C 
HETATM   18  C30 UNL     1      11.637  64.775  28.232  1.00  0.00     0.018 C 
ENDROOT
BRANCH   2  19
HETATM   19  C6  UNL     1      10.568  63.547  24.738  1.00  0.00     0.058 C 
HETATM   20  C7  UNL     1      10.188  64.411  23.527  1.00  0.00     0.018 C 
BRANCH  19  21
HETATM   21  C8  UNL     1      11.787  62.773  24.434  1.00  0.00     0.127 C 
HETATM   22  C9  UNL     1      12.008  61.486  25.120  1.00  0.00     0.091 C 
HETATM   23  O1  UNL     1      12.604  63.147  23.654  1.00  0.00    -0.298 OA
ENDBRANCH  19  21
ENDBRANCH   2  19
BRANCH   1  24
HETATM   24  C2  UNL     1      12.132  65.987  26.137  1.00  0.00    -0.088 C 
HETATM   25  C1  UNL     1      13.068  66.205  25.233  1.00  0.00     0.014 C 
HETATM   26  C3  UNL     1      11.398  67.206  26.588  1.00  0.00     0.043 C 
ENDBRANCH   1  24
BRANCH   3  27
HETATM   27  O2  UNL     1       8.330  63.288  26.098  1.00  0.00    -0.316 OA
BRANCH  27  28
HETATM   28  C11 UNL     1       7.118  63.898  26.185  1.00  0.00     0.255 C 
HETATM   29  C12 UNL     1       6.936  65.179  25.447  1.00  0.00     0.126 C 
HETATM   30  O3  UNL     1       6.233  63.367  26.868  1.00  0.00    -0.266 OA
ENDBRANCH  27  28
ENDBRANCH   3  27
BRANCH  11  31
HETATM   31  C20 UNL     1      13.701  66.434  32.141  1.00  0.00     0.230 C 
HETATM   32  O5  UNL     1      13.755  65.627  33.111  1.00  0.00    -0.285 OA
BRANCH  31  33
HETATM   33  C21 UNL     1      13.588  67.842  32.481  1.00  0.00     0.247 C 
HETATM   34  O6  UNL     1      14.587  68.449  32.925  1.00  0.00    -0.642 OA
HETATM   35  O7  UNL     1      12.414  68.562  32.338  1.00  0.00    -0.642 OA
ENDBRANCH  31  33
ENDBRANCH  11  31
BRANCH  14  36
HETATM   36  O8  UNL     1      16.431  64.488  28.790  1.00  0.00    -0.316 OA
BRANCH  36  37
HETATM   37  C25 UNL     1      17.090  63.319  28.495  1.00  0.00     0.255 C 
HETATM   38  C26 UNL     1      16.431  62.005  28.781  1.00  0.00     0.126 C 
HETATM   39  O9  UNL     1      18.237  63.364  27.989  1.00  0.00    -0.266 OA
ENDBRANCH  36  37
ENDBRANCH  14  36
TORSDOF 9
ENDMDL
MODEL 2
REMARK VINA RESULT: -7.976333143      1.003      1.107
REMARK  9 active torsions:
REMARK  status: ('A' for Active; 'I' for Inactive)
REMARK    1  A    between atoms: C2_2  and  C4_4 
REMARK    2  A    between atoms: C5_5  and  C6_6 
REMARK    3  A    between atoms: C6_6  and  C8_8 
REMARK    4  A    between atoms: C10_11  and  O2_12 
REMARK    5  A    between atoms: O2_12  and  C11_13 
REMARK    6  A    between atoms: C19_23  and  C20_24 
REMARK    7  A    between atoms: C20_24  and  C21_26 
REMARK    8  A    between atoms: C24_31  and  O8_32 
REMARK    9  A    between atoms: O8_32  and  C25_33 
ROOT
HETATM    1  C4  UNL     1      11.923  64.338  27.073  1.00  0.00     0.026 C 
HETATM    2  C5  UNL     1      10.616  63.983  26.479  1.00  0.00     0.034 C 
HETATM    3  C10 UNL     1       9.488  63.669  27.427  1.00  0.00     0.138 C 
HETATM    4  C13 UNL     1       9.370  64.851  28.365  1.00  0.00     0.050 C 
HETATM    5  C14 UNL     1      10.598  64.750  29.238  1.00  0.00     0.024 C 
HETATM    6  C15 UNL     1      10.283  63.689  30.243  1.00  0.00     0.024 C 
HETATM    7  C16 UNL     1      10.661  65.947  30.183  1.00  0.00     0.136 C 
HETATM    8  O4  UNL     1       9.773  66.734  30.142  1.00  0.00    -0.297 OA
HETATM    9  C17 UNL     1      11.849  65.966  31.045  1.00  0.00     0.085 C 
HETATM   10  C18 UNL     1      13.038  65.183  30.660  1.00  0.00     0.013 C 
HETATM   11  C19 UNL     1      14.209  66.152  30.703  1.00  0.00     0.078 C 
HETATM   12  C22 UNL     1      15.562  65.488  30.602  1.00  0.00     0.023 C 
HETATM   13  C23 UNL     1      16.233  65.213  31.897  1.00  0.00     0.013 C 
HETATM   14  C24 UNL     1      15.380  64.214  29.834  1.00  0.00     0.137 C 
HETATM   15  C27 UNL     1      14.343  64.596  28.746  1.00  0.00     0.042 C 
HETATM   16  C28 UNL     1      12.989  64.342  29.413  1.00  0.00    -0.032 C 
HETATM   17  C29 UNL     1      13.007  62.855  29.694  1.00  0.00     0.016 C 
HETATM   18  C30 UNL     1      11.864  64.783  28.514  1.00  0.00     0.018 C 
ENDROOT
BRANCH   2  19
HETATM   19  C6  UNL     1      10.528  63.037  25.348  1.00  0.00     0.058 C 
HETATM   20  C7  UNL     1      10.016  63.632  24.029  1.00  0.00     0.018 C 
BRANCH  19  21
HETATM   21  C8  UNL     1      11.706  62.188  25.086  1.00  0.00     0.127 C 
HETATM   22  C9  UNL     1      12.063  61.137  26.059  1.00  0.00     0.091 C 
HETATM   23  O1  UNL     1      12.384  62.317  24.117  1.00  0.00    -0.298 OA
ENDBRANCH  19  21
ENDBRANCH   2  19
BRANCH   1  24
HETATM   24  C2  UNL     1      12.513  65.416  26.216  1.00  0.00    -0.088 C 
HETATM   25  C1  UNL     1      13.503  65.286  25.354  1.00  0.00     0.014 C 
HETATM   26  C3  UNL     1      11.945  66.791  26.318  1.00  0.00     0.043 C 
ENDBRANCH   1  24
BRANCH   3  27
HETATM   27  O2  UNL     1       8.308  63.460  26.695  1.00  0.00    -0.316 OA
BRANCH  27  28
HETATM   28  C11 UNL     1       7.209  64.261  26.650  1.00  0.00     0.255 C 
HETATM   29  C12 UNL     1       6.029  63.857  27.464  1.00  0.00     0.126 C 
HETATM   30  O3  UNL     1       7.242  65.275  25.942  1.00  0.00    -0.266 OA
ENDBRANCH  27  28
ENDBRANCH   3  27
BRANCH  11  31
HETATM   31  C20 UNL     1      14.263  66.861  32.009  1.00  0.00     0.230 C 
HETATM   32  O5  UNL     1      14.169  66.287  33.129  1.00  0.00    -0.285 OA
BRANCH  31  33
HETATM   33  C21 UNL     1      14.436  68.304  32.039  1.00  0.00     0.247 C 
HETATM   34  O6  UNL     1      14.433  68.900  33.138  1.00  0.00    -0.642 OA
HETATM   35  O7  UNL     1      14.608  69.068  30.897  1.00  0.00    -0.642 OA
ENDBRANCH  31  33
ENDBRANCH  11  31
BRANCH  14  36
HETATM   36  O8  UNL     1      16.550  63.807  29.197  1.00  0.00    -0.316 OA
BRANCH  36  37
HETATM   37  C25 UNL     1      16.659  62.650  28.464  1.00  0.00     0.255 C 
HETATM   38  C26 UNL     1      17.023  62.724  27.013  1.00  0.00     0.126 C 
HETATM   39  O9  UNL     1      16.455  61.543  29.017  1.00  0.00    -0.266 OA
ENDBRANCH  36  37
ENDBRANCH  14  36
TORSDOF 9
ENDMDL
MODEL 3
REMARK VINA RESULT: -7.528956161      2.665      4.251
REMARK  9 active torsions:
REMARK  status: ('A' for Active; 'I' for Inactive)
REMARK    1  A    between atoms: C2_2  and  C4_4 
REMARK    2  A    between atoms: C5_5  and  C6_6 
REMARK    3  A    between atoms: C6_6  and  C8_8 
REMARK    4  A    between atoms: C10_11  and  O2_12 
REMARK    5  A    between atoms: O2_12  and  C11_13 
REMARK    6  A    between atoms: C19_23  and  C20_24 
REMARK    7  A    between atoms: C20_24  and  C21_26 
REMARK    8  A    between atoms: C24_31  and  O8_32 
REMARK    9  A    between atoms: O8_32  and  C25_33 
ROOT
HETATM    1  C4  UNL     1      12.499  65.085  28.056  1.00  0.00     0.026 C 
HETATM    2  C5  UNL     1      11.627  64.185  27.272  1.00  0.00     0.034 C 
HETATM    3  C10 UNL     1      10.206  64.627  27.041  1.00  0.00     0.138 C 
HETATM    4  C13 UNL     1      10.277  66.008  26.425  1.00  0.00     0.050 C 
HETATM    5  C14 UNL     1      10.739  66.892  27.559  1.00  0.00     0.024 C 
HETATM    6  C15 UNL     1       9.522  67.130  28.395  1.00  0.00     0.024 C 
HETATM    7  C16 UNL     1      10.949  68.316  27.053  1.00  0.00     0.136 C 
HETATM    8  O4  UNL     1      10.701  68.542  25.913  1.00  0.00    -0.297 OA
HETATM    9  C17 UNL     1      11.444  69.246  28.073  1.00  0.00     0.085 C 
HETATM   10  C18 UNL     1      12.112  68.716  29.277  1.00  0.00     0.013 C 
HETATM   11  C19 UNL     1      13.439  69.451  29.379  1.00  0.00     0.078 C 
HETATM   12  C22 UNL     1      14.157  69.247  30.692  1.00  0.00     0.023 C 
HETATM   13  C23 UNL     1      13.927  70.302  31.712  1.00  0.00     0.013 C 
HETATM   14  C24 UNL     1      13.739  67.912  31.229  1.00  0.00     0.137 C 
HETATM   15  C27 UNL     1      13.657  67.025  29.958  1.00  0.00     0.042 C 
HETATM   16  C28 UNL     1      12.226  67.226  29.454  1.00  0.00    -0.032 C 
HETATM   17  C29 UNL     1      11.374  66.691  30.585  1.00  0.00     0.016 C 
HETATM   18  C30 UNL     1      12.021  66.514  28.143  1.00  0.00     0.018 C 
ENDROOT
BRANCH   2  19
HETATM   19  C6  UNL     1      11.608  62.730  27.532  1.00  0.00     0.058 C 
HETATM   20  C7  UNL     1      12.400  61.872  26.536  1.00  0.00     0.018 C 
BRANCH  19  21
HETATM   21  C8  UNL     1      11.897  62.287  28.909  1.00  0.00     0.127 C 
HETATM   22  C9  UNL     1      11.017  62.737  30.006  1.00  0.00     0.091 C 
HETATM   23  O1  UNL     1      12.815  61.579  29.174  1.00  0.00    -0.298 OA
ENDBRANCH  19  21
ENDBRANCH   2  19
BRANCH   1  24
HETATM   24  C2  UNL     1      13.860  65.026  27.433  1.00  0.00    -0.088 C 
HETATM   25  C1  UNL     1      14.891  64.318  27.852  1.00  0.00     0.014 C 
HETATM   26  C3  UNL     1      14.112  65.836  26.205  1.00  0.00     0.043 C 
ENDBRANCH   1  24
BRANCH   3  27
HETATM   27  O2  UNL     1       9.562  63.708  26.197  1.00  0.00    -0.316 OA
BRANCH  27  28
HETATM   28  C11 UNL     1       8.233  63.425  26.144  1.00  0.00     0.255 C 
HETATM   29  C12 UNL     1       7.406  63.770  27.334  1.00  0.00     0.126 C 
HETATM   30  O3  UNL     1       7.778  62.898  25.121  1.00  0.00    -0.266 OA
ENDBRANCH  27  28
ENDBRANCH   3  27
BRANCH  11  31
HETATM   31  C20 UNL     1      13.235  70.923  29.315  1.00  0.00     0.230 C 
HETATM   32  O5  UNL     1      12.308  71.535  29.913  1.00  0.00    -0.285 OA
BRANCH  31  33
HETATM   33  C21 UNL     1      14.142  71.741  28.526  1.00  0.00     0.247 C 
HETATM   34  O6  UNL     1      13.739  72.830  28.063  1.00  0.00    -0.642 OA
HETATM   35  O7  UNL     1      15.449  71.375  28.256  1.00  0.00    -0.642 OA
ENDBRANCH  31  33
ENDBRANCH  11  31
BRANCH  14  36
HETATM   36  O8  UNL     1      14.693  67.362  32.082  1.00  0.00    -0.316 OA
BRANCH  36  37
HETATM   37  C25 UNL     1      14.636  66.078  32.567  1.00  0.00     0.255 C 
HETATM   38  C26 UNL     1      15.815  65.170  32.401  1.00  0.00     0.126 C 
HETATM   39  O9  UNL     1      13.597  65.678  33.145  1.00  0.00    -0.266 OA
ENDBRANCH  36  37
ENDBRANCH  14  36
TORSDOF 9
ENDMDL
MODEL 4
REMARK VINA RESULT: -7.400818052      2.015      7.960
REMARK  9 active torsions:
REMARK  status: ('A' for Active; 'I' for Inactive)
REMARK    1  A    between atoms: C2_2  and  C4_4 
REMARK    2  A    between atoms: C5_5  and  C6_6 
REMARK    3  A    between atoms: C6_6  and  C8_8 
REMARK    4  A    between atoms: C10_11  and  O2_12 
REMARK    5  A    between atoms: O2_12  and  C11_13 
REMARK    6  A    between atoms: C19_23  and  C20_24 
REMARK    7  A    between atoms: C20_24  and  C21_26 
REMARK    8  A    between atoms: C24_31  and  O8_32 
REMARK    9  A    between atoms: O8_32  and  C25_33 
ROOT
HETATM    1  C4  UNL     1      13.446  65.487  29.514  1.00  0.00     0.026 C 
HETATM    2  C5  UNL     1      14.620  65.655  30.397  1.00  0.00     0.034 C 
HETATM    3  C10 UNL     1      15.701  64.609  30.316  1.00  0.00     0.138 C 
HETATM    4  C13 UNL     1      16.107  64.518  28.860  1.00  0.00     0.050 C 
HETATM    5  C14 UNL     1      14.927  63.853  28.192  1.00  0.00     0.024 C 
HETATM    6  C15 UNL     1      15.061  62.398  28.508  1.00  0.00     0.024 C 
HETATM    7  C16 UNL     1      15.159  63.781  26.686  1.00  0.00     0.136 C 
HETATM    8  O4  UNL     1      16.189  64.194  26.262  1.00  0.00    -0.297 OA
HETATM    9  C17 UNL     1      14.043  63.191  25.937  1.00  0.00     0.085 C 
HETATM   10  C18 UNL     1      12.700  63.153  26.545  1.00  0.00     0.013 C 
HETATM   11  C19 UNL     1      11.760  63.775  25.524  1.00  0.00     0.078 C 
HETATM   12  C22 UNL     1      10.296  63.588  25.842  1.00  0.00     0.023 C 
HETATM   13  C23 UNL     1       9.643  62.433  25.174  1.00  0.00     0.013 C 
HETATM   14  C24 UNL     1      10.172  63.462  27.330  1.00  0.00     0.137 C 
HETATM   15  C27 UNL     1      11.214  64.480  27.864  1.00  0.00     0.042 C 
HETATM   16  C28 UNL     1      12.514  63.678  27.943  1.00  0.00    -0.032 C 
HETATM   17  C29 UNL     1      12.200  62.593  28.951  1.00  0.00     0.016 C 
HETATM   18  C30 UNL     1      13.663  64.567  28.338  1.00  0.00     0.018 C 
ENDROOT
BRANCH   2  19
HETATM   19  C6  UNL     1      14.456  66.022  31.819  1.00  0.00     0.058 C 
HETATM   20  C7  UNL     1      14.682  67.504  32.148  1.00  0.00     0.018 C 
BRANCH  19  21
HETATM   21  C8  UNL     1      13.241  65.540  32.503  1.00  0.00     0.127 C 
HETATM   22  C9  UNL     1      12.207  66.516  32.897  1.00  0.00     0.091 C 
HETATM   23  O1  UNL     1      13.060  64.391  32.751  1.00  0.00    -0.298 OA
ENDBRANCH  19  21
ENDBRANCH   2  19
BRANCH   1  24
HETATM   24  C2  UNL     1      13.054  66.854  29.045  1.00  0.00    -0.088 C 
HETATM   25  C1  UNL     1      12.042  67.580  29.481  1.00  0.00     0.014 C 
HETATM   26  C3  UNL     1      13.872  67.497  27.975  1.00  0.00     0.043 C 
ENDBRANCH   1  24
BRANCH   3  27
HETATM   27  O2  UNL     1      16.776  64.984  31.138  1.00  0.00    -0.316 OA
BRANCH  27  28
HETATM   28  C11 UNL     1      17.579  64.168  31.873  1.00  0.00     0.255 C 
HETATM   29  C12 UNL     1      17.443  64.221  33.355  1.00  0.00     0.126 C 
HETATM   30  O3  UNL     1      18.377  63.430  31.282  1.00  0.00    -0.266 OA
ENDBRANCH  27  28
ENDBRANCH   3  27
BRANCH  11  31
HETATM   31  C20 UNL     1      11.917  63.127  24.195  1.00  0.00     0.230 C 
HETATM   32  O5  UNL     1      11.917  61.877  24.014  1.00  0.00    -0.285 OA
BRANCH  31  33
HETATM   33  C21 UNL     1      12.081  63.949  23.008  1.00  0.00     0.247 C 
HETATM   34  O6  UNL     1      12.760  64.996  23.075  1.00  0.00    -0.642 OA
HETATM   35  O7  UNL     1      11.518  63.629  21.784  1.00  0.00    -0.642 OA
ENDBRANCH  31  33
ENDBRANCH  11  31
BRANCH  14  36
HETATM   36  O8  UNL     1       8.914  63.844  27.792  1.00  0.00    -0.316 OA
BRANCH  36  37
HETATM   37  C25 UNL     1       8.549  65.147  28.026  1.00  0.00     0.255 C 
HETATM   38  C26 UNL     1       8.690  65.719  29.404  1.00  0.00     0.126 C 
HETATM   39  O9  UNL     1       8.102  65.846  27.086  1.00  0.00    -0.266 OA
ENDBRANCH  36  37
ENDBRANCH  14  36
TORSDOF 9
ENDMDL
MODEL 5
REMARK VINA RESULT: -7.346410283      2.207      5.504
REMARK  9 active torsions:
REMARK  status: ('A' for Active; 'I' for Inactive)
REMARK    1  A    between atoms: C2_2  and  C4_4 
REMARK    2  A    between atoms: C5_5  and  C6_6 
REMARK    3  A    between atoms: C6_6  and  C8_8 
REMARK    4  A    between atoms: C10_11  and  O2_12 
REMARK    5  A    between atoms: O2_12  and  C11_13 
REMARK    6  A    between atoms: C19_23  and  C20_24 
REMARK    7  A    between atoms: C20_24  and  C21_26 
REMARK    8  A    between atoms: C24_31  and  O8_32 
REMARK    9  A    between atoms: O8_32  and  C25_33 
ROOT
HETATM    1  C4  UNL     1      13.092  63.965  28.499  1.00  0.00     0.026 C 
HETATM    2  C5  UNL     1      12.643  63.689  27.118  1.00  0.00     0.034 C 
HETATM    3  C10 UNL     1      13.653  63.866  26.014  1.00  0.00     0.138 C 
HETATM    4  C13 UNL     1      14.854  63.025  26.387  1.00  0.00     0.050 C 
HETATM    5  C14 UNL     1      15.473  63.764  27.550  1.00  0.00     0.024 C 
HETATM    6  C15 UNL     1      16.231  64.898  26.938  1.00  0.00     0.024 C 
HETATM    7  C16 UNL     1      16.655  62.970  28.098  1.00  0.00     0.136 C 
HETATM    8  O4  UNL     1      16.945  61.956  27.551  1.00  0.00    -0.297 OA
HETATM    9  C17 UNL     1      17.299  63.585  29.264  1.00  0.00     0.085 C 
HETATM   10  C18 UNL     1      16.555  64.574  30.066  1.00  0.00     0.013 C 
HETATM   11  C19 UNL     1      16.645  64.098  31.508  1.00  0.00     0.078 C 
HETATM   12  C22 UNL     1      16.176  65.113  32.523  1.00  0.00     0.023 C 
HETATM   13  C23 UNL     1      17.246  65.945  33.130  1.00  0.00     0.013 C 
HETATM   14  C24 UNL     1      15.164  65.988  31.847  1.00  0.00     0.137 C 
HETATM   15  C27 UNL     1      14.376  64.997  30.951  1.00  0.00     0.042 C 
HETATM   16  C28 UNL     1      15.166  64.967  29.641  1.00  0.00    -0.032 C 
HETATM   17  C29 UNL     1      15.076  66.393  29.141  1.00  0.00     0.016 C 
HETATM   18  C30 UNL     1      14.588  63.948  28.695  1.00  0.00     0.018 C 
ENDROOT
BRANCH   2  19
HETATM   19  C6  UNL     1      11.346  64.196  26.625  1.00  0.00     0.058 C 
HETATM   20  C7  UNL     1      10.163  63.228  26.764  1.00  0.00     0.018 C 
BRANCH  19  21
HETATM   21  C8  UNL     1      10.939  65.545  27.064  1.00  0.00     0.127 C 
HETATM   22  C9  UNL     1       9.755  65.688  27.934  1.00  0.00     0.091 C 
HETATM   23  O1  UNL     1      11.528  66.527  26.744  1.00  0.00    -0.298 OA
ENDBRANCH  19  21
ENDBRANCH   2  19
BRANCH   1  24
HETATM   24  C2  UNL     1      12.437  62.947  29.382  1.00  0.00    -0.088 C 
HETATM   25  C1  UNL     1      12.759  61.673  29.494  1.00  0.00     0.014 C 
HETATM   26  C3  UNL     1      11.300  63.386  30.244  1.00  0.00     0.043 C 
ENDBRANCH   1  24
BRANCH   3  27
HETATM   27  O2  UNL     1      13.088  63.462  24.794  1.00  0.00    -0.316 OA
BRANCH  27  28
HETATM   28  C11 UNL     1      13.078  64.147  23.619  1.00  0.00     0.255 C 
HETATM   29  C12 UNL     1      13.970  65.334  23.506  1.00  0.00     0.126 C 
HETATM   30  O3  UNL     1      12.335  63.757  22.710  1.00  0.00    -0.266 OA
ENDBRANCH  27  28
ENDBRANCH   3  27
BRANCH  11  31
HETATM   31  C20 UNL     1      18.058  63.842  31.894  1.00  0.00     0.230 C 
HETATM   32  O5  UNL     1      19.047  64.455  31.404  1.00  0.00    -0.285 OA
BRANCH  31  33
HETATM   33  C21 UNL     1      18.359  62.833  32.896  1.00  0.00     0.247 C 
HETATM   34  O6  UNL     1      19.220  61.961  32.650  1.00  0.00    -0.642 OA
HETATM   35  O7  UNL     1      17.735  62.785  34.131  1.00  0.00    -0.642 OA
ENDBRANCH  31  33
ENDBRANCH  11  31
BRANCH  14  36
HETATM   36  O8  UNL     1      14.271  66.561  32.750  1.00  0.00    -0.316 OA
BRANCH  36  37
HETATM   37  C25 UNL     1      13.751  67.825  32.614  1.00  0.00     0.255 C 
HETATM   38  C26 UNL     1      12.379  68.004  32.041  1.00  0.00     0.126 C 
HETATM   39  O9  UNL     1      14.429  68.817  32.972  1.00  0.00    -0.266 OA
ENDBRANCH  36  37
ENDBRANCH  14  36
TORSDOF 9
ENDMDL
