MODEL 1
REMARK VINA RESULT: -9.346327588      0.000      0.000
REMARK  10 active torsions:
REMARK  status: ('A' for Active; 'I' for Inactive)
REMARK    1  A    between atoms: C2_2  and  O2_4 
REMARK    2  A    between atoms: O2_4  and  C3_5 
REMARK    3  A    between atoms: C11_13  and  O3_14 
REMARK    4  A    between atoms: C19_23  and  C20_24 
REMARK    5  A    between atoms: C20_24  and  C21_26 
REMARK    6  A    between atoms: C21_26  and  O5_27 
REMARK    7  A    between atoms: O5_27  and  C22_28 
REMARK    8  A    between atoms: C22_28  and  C23_30 
REMARK    9  A    between atoms: C23_30  and  C24_31 
REMARK   10  A    between atoms: C25_32  and  S1_34 
ROOT
HETATM    1  C3  UNL     1      13.574  66.676  30.740  1.00  0.00     0.141 C 
HETATM    2  C4  UNL     1      14.788  65.734  30.737  1.00  0.00     0.039 C 
HETATM    3  C5  UNL     1      14.557  64.359  30.227  1.00  0.00     0.001 C 
HETATM    4  C6  UNL     1      13.164  63.904  30.002  1.00  0.00    -0.005 C 
HETATM    5  C7  UNL     1      12.832  63.234  28.699  1.00  0.00     0.006 C 
HETATM    6  C8  UNL     1      13.960  62.799  27.849  1.00  0.00     0.006 C 
HETATM    7  C9  UNL     1      15.147  62.550  28.714  1.00  0.00    -0.004 C 
HETATM    8  C10 UNL     1      16.239  61.939  27.887  1.00  0.00     0.037 C 
HETATM    9  C11 UNL     1      16.415  62.830  26.677  1.00  0.00     0.118 C 
HETATM   10  C12 UNL     1      16.691  64.243  26.997  1.00  0.00     0.032 C 
HETATM   11  C13 UNL     1      15.810  64.854  28.062  1.00  0.00     0.012 C 
HETATM   12  C14 UNL     1      15.572  63.939  29.196  1.00  0.00    -0.036 C 
HETATM   13  C15 UNL     1      16.954  63.711  29.840  1.00  0.00     0.016 C 
HETATM   14  C16 UNL     1      12.127  64.989  30.159  1.00  0.00     0.001 C 
HETATM   15  C17 UNL     1      10.745  64.512  30.509  1.00  0.00     0.007 C 
HETATM   16  C18 UNL     1      10.111  65.925  30.651  1.00  0.00     0.013 C 
HETATM   17  C19 UNL     1      11.156  66.618  31.578  1.00  0.00     0.069 C 
HETATM   18  C28 UNL     1      12.428  65.932  31.306  1.00  0.00    -0.003 C 
HETATM   19  C29 UNL     1      12.807  65.186  32.567  1.00  0.00     0.019 C 
ENDROOT
BRANCH  17  20
HETATM   20  C20 UNL     1      11.068  68.053  31.487  1.00  0.00     0.155 C 
HETATM   21  O4  UNL     1      11.670  68.700  32.374  1.00  0.00    -0.295 OA
BRANCH  20  22
HETATM   22  C21 UNL     1      10.369  68.886  30.506  1.00  0.00     0.257 C 
BRANCH  22  23
HETATM   23  O5  UNL     1      10.932  70.091  30.133  1.00  0.00    -0.314 OA
BRANCH  23  24
HETATM   24  C22 UNL     1      11.046  70.646  28.885  1.00  0.00     0.262 C 
HETATM   25  O6  UNL     1      10.818  69.916  27.893  1.00  0.00    -0.265 OA
BRANCH  24  26
HETATM   26  C23 UNL     1      11.430  72.079  28.671  1.00  0.00     0.139 C 
BRANCH  26  27
HETATM   27  C24 UNL     1      12.875  72.122  28.368  1.00  0.00     0.001 C 
HETATM   28  C25 UNL     1      13.414  72.808  27.375  1.00  0.00     0.029 C 
HETATM   29  C26 UNL     1      12.510  73.595  26.494  1.00  0.00     0.061 C 
BRANCH  28  30
HETATM   30  S1  UNL     1      15.124  72.837  27.045  1.00  0.00     0.167 S 
HETATM   31  C27 UNL     1      15.585  74.476  26.605  1.00  0.00     0.166 C 
HETATM   32  O7  UNL     1      15.508  71.836  25.991  1.00  0.00    -0.223 OA
HETATM   33  O8  UNL     1      15.852  72.439  28.299  1.00  0.00    -0.223 OA
ENDBRANCH  28  30
ENDBRANCH  26  27
ENDBRANCH  24  26
ENDBRANCH  23  24
ENDBRANCH  22  23
ENDBRANCH  20  22
ENDBRANCH  17  20
BRANCH   1  34
HETATM   34  O2  UNL     1      13.379  67.015  29.395  1.00  0.00    -0.316 OA
BRANCH  34  35
HETATM   35  C2  UNL     1      13.863  68.113  28.725  1.00  0.00     0.255 C 
HETATM   36  C1  UNL     1      14.295  69.326  29.511  1.00  0.00     0.126 C 
HETATM   37  O1  UNL     1      13.950  68.125  27.488  1.00  0.00    -0.266 OA
ENDBRANCH  34  35
ENDBRANCH   1  34
BRANCH   9  38
HETATM   38  O3  UNL     1      17.550  62.322  25.998  1.00  0.00    -0.396 OA
ATOM     39  H3  UNL     1      17.866  63.040  25.463  1.00  0.00     0.210 HD
ENDBRANCH   9  38
TORSDOF 10
ENDMDL
MODEL 2
REMARK VINA RESULT: -9.154142236      2.889      4.154
REMARK  10 active torsions:
REMARK  status: ('A' for Active; 'I' for Inactive)
REMARK    1  A    between atoms: C2_2  and  O2_4 
REMARK    2  A    between atoms: O2_4  and  C3_5 
REMARK    3  A    between atoms: C11_13  and  O3_14 
REMARK    4  A    between atoms: C19_23  and  C20_24 
REMARK    5  A    between atoms: C20_24  and  C21_26 
REMARK    6  A    between atoms: C21_26  and  O5_27 
REMARK    7  A    between atoms: O5_27  and  C22_28 
REMARK    8  A    between atoms: C22_28  and  C23_30 
REMARK    9  A    between atoms: C23_30  and  C24_31 
REMARK   10  A    between atoms: C25_32  and  S1_34 
ROOT
HETATM    1  C3  UNL     1      13.678  66.689  30.620  1.00  0.00     0.141 C 
HETATM    2  C4  UNL     1      14.982  65.901  30.428  1.00  0.00     0.039 C 
HETATM    3  C5  UNL     1      14.857  64.554  29.817  1.00  0.00     0.001 C 
HETATM    4  C6  UNL     1      13.508  63.957  29.672  1.00  0.00    -0.005 C 
HETATM    5  C7  UNL     1      13.130  63.359  28.346  1.00  0.00     0.006 C 
HETATM    6  C8  UNL     1      14.213  63.130  27.367  1.00  0.00     0.006 C 
HETATM    7  C9  UNL     1      15.498  62.954  28.101  1.00  0.00    -0.004 C 
HETATM    8  C10 UNL     1      16.567  62.545  27.133  1.00  0.00     0.037 C 
HETATM    9  C11 UNL     1      16.527  63.544  25.998  1.00  0.00     0.118 C 
HETATM   10  C12 UNL     1      16.674  64.950  26.420  1.00  0.00     0.032 C 
HETATM   11  C13 UNL     1      15.836  65.365  27.607  1.00  0.00     0.012 C 
HETATM   12  C14 UNL     1      15.810  64.341  28.670  1.00  0.00    -0.036 C 
HETATM   13  C15 UNL     1      17.264  64.226  29.170  1.00  0.00     0.016 C 
HETATM   14  C16 UNL     1      12.377  64.895  30.013  1.00  0.00     0.001 C 
HETATM   15  C17 UNL     1      11.096  64.231  30.435  1.00  0.00     0.007 C 
HETATM   16  C18 UNL     1      10.326  65.543  30.758  1.00  0.00     0.013 C 
HETATM   17  C19 UNL     1      11.371  66.279  31.652  1.00  0.00     0.069 C 
HETATM   18  C28 UNL     1      12.680  65.772  31.211  1.00  0.00    -0.003 C 
HETATM   19  C29 UNL     1      13.257  64.978  32.363  1.00  0.00     0.019 C 
ENDROOT
BRANCH  17  20
HETATM   20  C20 UNL     1      11.117  67.696  31.699  1.00  0.00     0.155 C 
HETATM   21  O4  UNL     1      11.741  68.340  32.573  1.00  0.00    -0.295 OA
BRANCH  20  22
HETATM   22  C21 UNL     1      10.225  68.513  30.873  1.00  0.00     0.257 C 
BRANCH  22  23
HETATM   23  O5  UNL     1      10.655  69.761  30.462  1.00  0.00    -0.314 OA
BRANCH  23  24
HETATM   24  C22 UNL     1      10.051  70.647  29.608  1.00  0.00     0.262 C 
HETATM   25  O6  UNL     1      10.771  71.500  29.040  1.00  0.00    -0.265 OA
BRANCH  24  26
HETATM   26  C23 UNL     1       8.577  70.629  29.336  1.00  0.00     0.139 C 
BRANCH  26  27
HETATM   27  C24 UNL     1       7.915  71.453  30.367  1.00  0.00     0.001 C 
HETATM   28  C25 UNL     1       6.672  71.897  30.288  1.00  0.00     0.029 C 
HETATM   29  C26 UNL     1       5.876  71.547  29.081  1.00  0.00     0.061 C 
BRANCH  28  30
HETATM   30  S1  UNL     1       5.920  72.868  31.523  1.00  0.00     0.167 S 
HETATM   31  C27 UNL     1       4.207  73.021  31.154  1.00  0.00     0.166 C 
HETATM   32  O7  UNL     1       6.591  74.205  31.670  1.00  0.00    -0.223 OA
HETATM   33  O8  UNL     1       6.080  72.161  32.841  1.00  0.00    -0.223 OA
ENDBRANCH  28  30
ENDBRANCH  26  27
ENDBRANCH  24  26
ENDBRANCH  23  24
ENDBRANCH  22  23
ENDBRANCH  20  22
ENDBRANCH  17  20
BRANCH   1  34
HETATM   34  O2  UNL     1      13.320  67.110  29.332  1.00  0.00    -0.316 OA
BRANCH  34  35
HETATM   35  C2  UNL     1      13.708  68.257  28.683  1.00  0.00     0.255 C 
HETATM   36  C1  UNL     1      13.990  69.501  29.489  1.00  0.00     0.126 C 
HETATM   37  O1  UNL     1      13.830  68.289  27.449  1.00  0.00    -0.266 OA
ENDBRANCH  34  35
ENDBRANCH   1  34
BRANCH   9  38
HETATM   38  O3  UNL     1      17.642  63.230  25.182  1.00  0.00    -0.396 OA
ATOM     39  H3  UNL     1      18.074  64.059  25.015  1.00  0.00     0.210 HD
ENDBRANCH   9  38
TORSDOF 10
ENDMDL
MODEL 3
REMARK VINA RESULT: -9.058199560      1.352      1.774
REMARK  10 active torsions:
REMARK  status: ('A' for Active; 'I' for Inactive)
REMARK    1  A    between atoms: C2_2  and  O2_4 
REMARK    2  A    between atoms: O2_4  and  C3_5 
REMARK    3  A    between atoms: C11_13  and  O3_14 
REMARK    4  A    between atoms: C19_23  and  C20_24 
REMARK    5  A    between atoms: C20_24  and  C21_26 
REMARK    6  A    between atoms: C21_26  and  O5_27 
REMARK    7  A    between atoms: O5_27  and  C22_28 
REMARK    8  A    between atoms: C22_28  and  C23_30 
REMARK    9  A    between atoms: C23_30  and  C24_31 
REMARK   10  A    between atoms: C25_32  and  S1_34 
ROOT
HETATM    1  C3  UNL     1      13.535  66.726  30.714  1.00  0.00     0.141 C 
HETATM    2  C4  UNL     1      14.769  65.810  30.727  1.00  0.00     0.039 C 
HETATM    3  C5  UNL     1      14.565  64.419  30.249  1.00  0.00     0.001 C 
HETATM    4  C6  UNL     1      13.181  63.930  30.041  1.00  0.00    -0.005 C 
HETATM    5  C7  UNL     1      12.857  63.224  28.756  1.00  0.00     0.006 C 
HETATM    6  C8  UNL     1      13.991  62.793  27.910  1.00  0.00     0.006 C 
HETATM    7  C9  UNL     1      15.187  62.588  28.775  1.00  0.00    -0.004 C 
HETATM    8  C10 UNL     1      16.288  61.982  27.957  1.00  0.00     0.037 C 
HETATM    9  C11 UNL     1      16.440  62.848  26.726  1.00  0.00     0.118 C 
HETATM   10  C12 UNL     1      16.687  64.274  27.013  1.00  0.00     0.032 C 
HETATM   11  C13 UNL     1      15.798  64.891  28.068  1.00  0.00     0.012 C 
HETATM   12  C14 UNL     1      15.584  63.997  29.224  1.00  0.00    -0.036 C 
HETATM   13  C15 UNL     1      16.973  63.813  29.866  1.00  0.00     0.016 C 
HETATM   14  C16 UNL     1      12.122  64.997  30.178  1.00  0.00     0.001 C 
HETATM   15  C17 UNL     1      10.752  64.498  30.545  1.00  0.00     0.007 C 
HETATM   16  C18 UNL     1      10.088  65.900  30.658  1.00  0.00     0.013 C 
HETATM   17  C19 UNL     1      11.122  66.636  31.564  1.00  0.00     0.069 C 
HETATM   18  C28 UNL     1      12.407  65.972  31.302  1.00  0.00    -0.003 C 
HETATM   19  C29 UNL     1      12.808  65.263  32.578  1.00  0.00     0.019 C 
ENDROOT
BRANCH  17  20
HETATM   20  C20 UNL     1      11.004  68.067  31.440  1.00  0.00     0.155 C 
HETATM   21  O4  UNL     1      11.435  68.741  32.403  1.00  0.00    -0.295 OA
BRANCH  20  22
HETATM   22  C21 UNL     1      10.444  68.868  30.350  1.00  0.00     0.257 C 
BRANCH  22  23
HETATM   23  O5  UNL     1       9.759  70.027  30.658  1.00  0.00    -0.314 OA
BRANCH  23  24
HETATM   24  C22 UNL     1       8.737  70.638  29.978  1.00  0.00     0.262 C 
HETATM   25  O6  UNL     1       7.725  70.987  30.626  1.00  0.00    -0.265 OA
BRANCH  24  26
HETATM   26  C23 UNL     1       8.791  70.896  28.502  1.00  0.00     0.139 C 
BRANCH  26  27
HETATM   27  C24 UNL     1       9.858  71.887  28.253  1.00  0.00     0.001 C 
HETATM   28  C25 UNL     1      10.963  71.644  27.570  1.00  0.00     0.029 C 
HETATM   29  C26 UNL     1      11.155  70.280  27.007  1.00  0.00     0.061 C 
BRANCH  28  30
HETATM   30  S1  UNL     1      12.203  72.836  27.294  1.00  0.00     0.167 S 
HETATM   31  C27 UNL     1      12.942  72.529  25.728  1.00  0.00     0.166 C 
HETATM   32  O7  UNL     1      13.215  72.856  28.405  1.00  0.00    -0.223 OA
HETATM   33  O8  UNL     1      11.556  74.193  27.278  1.00  0.00    -0.223 OA
ENDBRANCH  28  30
ENDBRANCH  26  27
ENDBRANCH  24  26
ENDBRANCH  23  24
ENDBRANCH  22  23
ENDBRANCH  20  22
ENDBRANCH  17  20
BRANCH   1  34
HETATM   34  O2  UNL     1      13.328  67.030  29.362  1.00  0.00    -0.316 OA
BRANCH  34  35
HETATM   35  C2  UNL     1      13.780  68.125  28.667  1.00  0.00     0.255 C 
HETATM   36  C1  UNL     1      14.007  69.424  29.401  1.00  0.00     0.126 C 
HETATM   37  O1  UNL     1      14.006  68.067  27.448  1.00  0.00    -0.266 OA
ENDBRANCH  34  35
ENDBRANCH   1  34
BRANCH   9  38
HETATM   38  O3  UNL     1      17.583  62.349  26.055  1.00  0.00    -0.396 OA
ATOM     39  H3  UNL     1      17.938  63.089  25.578  1.00  0.00     0.210 HD
ENDBRANCH   9  38
TORSDOF 10
ENDMDL
MODEL 4
REMARK VINA RESULT: -9.007994680      1.485      1.987
REMARK  10 active torsions:
REMARK  status: ('A' for Active; 'I' for Inactive)
REMARK    1  A    between atoms: C2_2  and  O2_4 
REMARK    2  A    between atoms: O2_4  and  C3_5 
REMARK    3  A    between atoms: C11_13  and  O3_14 
REMARK    4  A    between atoms: C19_23  and  C20_24 
REMARK    5  A    between atoms: C20_24  and  C21_26 
REMARK    6  A    between atoms: C21_26  and  O5_27 
REMARK    7  A    between atoms: O5_27  and  C22_28 
REMARK    8  A    between atoms: C22_28  and  C23_30 
REMARK    9  A    between atoms: C23_30  and  C24_31 
REMARK   10  A    between atoms: C25_32  and  S1_34 
ROOT
HETATM    1  C3  UNL     1      13.616  66.464  29.915  1.00  0.00     0.141 C 
HETATM    2  C4  UNL     1      15.039  65.949  29.650  1.00  0.00     0.039 C 
HETATM    3  C5  UNL     1      15.158  64.547  29.178  1.00  0.00     0.001 C 
HETATM    4  C6  UNL     1      13.965  63.668  29.238  1.00  0.00    -0.005 C 
HETATM    5  C7  UNL     1      13.610  62.862  28.022  1.00  0.00     0.006 C 
HETATM    6  C8  UNL     1      14.625  62.757  26.952  1.00  0.00     0.006 C 
HETATM    7  C9  UNL     1      15.977  62.936  27.551  1.00  0.00    -0.004 C 
HETATM    8  C10 UNL     1      17.018  62.656  26.509  1.00  0.00     0.037 C 
HETATM    9  C11 UNL     1      16.659  63.493  25.301  1.00  0.00     0.118 C 
HETATM   10  C12 UNL     1      16.532  64.936  25.578  1.00  0.00     0.032 C 
HETATM   11  C13 UNL     1      15.733  65.295  26.810  1.00  0.00     0.012 C 
HETATM   12  C14 UNL     1      16.028  64.412  27.956  1.00  0.00    -0.036 C 
HETATM   13  C15 UNL     1      17.510  64.661  28.299  1.00  0.00     0.016 C 
HETATM   14  C16 UNL     1      12.692  64.382  29.619  1.00  0.00     0.001 C 
HETATM   15  C17 UNL     1      11.631  63.515  30.238  1.00  0.00     0.007 C 
HETATM   16  C18 UNL     1      10.624  64.665  30.528  1.00  0.00     0.013 C 
HETATM   17  C19 UNL     1      11.558  65.697  31.231  1.00  0.00     0.069 C 
HETATM   18  C28 UNL     1      12.901  65.429  30.693  1.00  0.00    -0.003 C 
HETATM   19  C29 UNL     1      13.740  64.906  31.839  1.00  0.00     0.019 C 
ENDROOT
BRANCH  17  20
HETATM   20  C20 UNL     1      11.004  67.025  31.179  1.00  0.00     0.155 C 
HETATM   21  O4  UNL     1      10.168  67.239  30.273  1.00  0.00    -0.295 OA
BRANCH  20  22
HETATM   22  C21 UNL     1      11.276  68.185  32.032  1.00  0.00     0.257 C 
BRANCH  22  23
HETATM   23  O5  UNL     1      12.577  68.632  32.154  1.00  0.00    -0.314 OA
BRANCH  23  24
HETATM   24  C22 UNL     1      13.286  69.472  31.335  1.00  0.00     0.262 C 
HETATM   25  O6  UNL     1      14.535  69.459  31.417  1.00  0.00    -0.265 OA
BRANCH  24  26
HETATM   26  C23 UNL     1      12.622  70.395  30.357  1.00  0.00     0.139 C 
BRANCH  26  27
HETATM   27  C24 UNL     1      13.676  71.014  29.529  1.00  0.00     0.001 C 
HETATM   28  C25 UNL     1      13.452  71.854  28.533  1.00  0.00     0.029 C 
HETATM   29  C26 UNL     1      12.041  72.208  28.217  1.00  0.00     0.061 C 
BRANCH  28  30
HETATM   30  S1  UNL     1      14.719  72.567  27.575  1.00  0.00     0.167 S 
HETATM   31  C27 UNL     1      14.772  71.754  26.016  1.00  0.00     0.166 C 
HETATM   32  O7  UNL     1      16.045  72.526  28.281  1.00  0.00    -0.223 OA
HETATM   33  O8  UNL     1      14.390  74.019  27.364  1.00  0.00    -0.223 OA
ENDBRANCH  28  30
ENDBRANCH  26  27
ENDBRANCH  24  26
ENDBRANCH  23  24
ENDBRANCH  22  23
ENDBRANCH  20  22
ENDBRANCH  17  20
BRANCH   1  34
HETATM   34  O2  UNL     1      13.060  66.655  28.644  1.00  0.00    -0.316 OA
BRANCH  34  35
HETATM   35  C2  UNL     1      13.087  67.794  27.876  1.00  0.00     0.255 C 
HETATM   36  C1  UNL     1      11.787  68.376  27.374  1.00  0.00     0.126 C 
HETATM   37  O1  UNL     1      14.156  68.352  27.587  1.00  0.00    -0.266 OA
ENDBRANCH  34  35
ENDBRANCH   1  34
BRANCH   9  38
HETATM   38  O3  UNL     1      17.738  63.330  24.398  1.00  0.00    -0.396 OA
ATOM     39  H3  UNL     1      18.307  64.075  24.548  1.00  0.00     0.210 HD
ENDBRANCH   9  38
TORSDOF 10
ENDMDL
MODEL 5
REMARK VINA RESULT: -8.998483893      4.371      7.423
REMARK  10 active torsions:
REMARK  status: ('A' for Active; 'I' for Inactive)
REMARK    1  A    between atoms: C2_2  and  O2_4 
REMARK    2  A    between atoms: O2_4  and  C3_5 
REMARK    3  A    between atoms: C11_13  and  O3_14 
REMARK    4  A    between atoms: C19_23  and  C20_24 
REMARK    5  A    between atoms: C20_24  and  C21_26 
REMARK    6  A    between atoms: C21_26  and  O5_27 
REMARK    7  A    between atoms: O5_27  and  C22_28 
REMARK    8  A    between atoms: C22_28  and  C23_30 
REMARK    9  A    between atoms: C23_30  and  C24_31 
REMARK   10  A    between atoms: C25_32  and  S1_34 
ROOT
HETATM    1  C3  UNL     1      13.394  64.083  29.103  1.00  0.00     0.141 C 
HETATM    2  C4  UNL     1      13.232  62.932  28.097  1.00  0.00     0.039 C 
HETATM    3  C5  UNL     1      11.880  62.750  27.513  1.00  0.00     0.001 C 
HETATM    4  C6  UNL     1      10.739  63.491  28.103  1.00  0.00    -0.005 C 
HETATM    5  C7  UNL     1       9.810  64.226  27.181  1.00  0.00     0.006 C 
HETATM    6  C8  UNL     1       9.903  63.927  25.736  1.00  0.00     0.006 C 
HETATM    7  C9  UNL     1      10.440  62.547  25.564  1.00  0.00    -0.004 C 
HETATM    8  C10 UNL     1      10.371  62.169  24.114  1.00  0.00     0.037 C 
HETATM    9  C11 UNL     1      11.032  63.291  23.343  1.00  0.00     0.118 C 
HETATM   10  C12 UNL     1      12.411  63.591  23.770  1.00  0.00     0.032 C 
HETATM   11  C13 UNL     1      12.625  63.689  25.262  1.00  0.00     0.012 C 
HETATM   12  C14 UNL     1      11.901  62.642  26.010  1.00  0.00    -0.036 C 
HETATM   13  C15 UNL     1      12.523  61.306  25.559  1.00  0.00     0.016 C 
HETATM   14  C16 UNL     1      11.136  64.505  29.147  1.00  0.00     0.001 C 
HETATM   15  C17 UNL     1      10.068  64.849  30.148  1.00  0.00     0.007 C 
HETATM   16  C18 UNL     1      10.948  65.795  31.014  1.00  0.00     0.013 C 
HETATM   17  C19 UNL     1      12.212  64.905  31.220  1.00  0.00     0.069 C 
HETATM   18  C28 UNL     1      12.256  64.021  30.045  1.00  0.00    -0.003 C 
HETATM   19  C29 UNL     1      12.013  62.612  30.543  1.00  0.00     0.019 C 
ENDROOT
BRANCH  17  20
HETATM   20  C20 UNL     1      13.360  65.699  31.576  1.00  0.00     0.155 C 
HETATM   21  O4  UNL     1      13.241  66.937  31.429  1.00  0.00    -0.295 OA
BRANCH  20  22
HETATM   22  C21 UNL     1      14.666  65.278  32.088  1.00  0.00     0.257 C 
BRANCH  22  23
HETATM   23  O5  UNL     1      15.745  65.262  31.226  1.00  0.00    -0.314 OA
BRANCH  23  24
HETATM   24  C22 UNL     1      16.965  64.655  31.376  1.00  0.00     0.262 C 
HETATM   25  O6  UNL     1      17.327  63.836  30.500  1.00  0.00    -0.265 OA
BRANCH  24  26
HETATM   26  C23 UNL     1      17.869  64.936  32.538  1.00  0.00     0.139 C 
BRANCH  26  27
HETATM   27  C24 UNL     1      18.804  63.802  32.672  1.00  0.00     0.001 C 
HETATM   28  C25 UNL     1      19.628  63.624  33.690  1.00  0.00     0.029 C 
HETATM   29  C26 UNL     1      19.620  64.632  34.784  1.00  0.00     0.061 C 
BRANCH  28  30
HETATM   30  S1  UNL     1      20.720  62.273  33.817  1.00  0.00     0.167 S 
HETATM   31  C27 UNL     1      21.764  62.521  35.211  1.00  0.00     0.166 C 
HETATM   32  O7  UNL     1      21.504  62.066  32.551  1.00  0.00    -0.223 OA
HETATM   33  O8  UNL     1      19.906  61.026  34.026  1.00  0.00    -0.223 OA
ENDBRANCH  28  30
ENDBRANCH  26  27
ENDBRANCH  24  26
ENDBRANCH  23  24
ENDBRANCH  22  23
ENDBRANCH  20  22
ENDBRANCH  17  20
BRANCH   1  34
HETATM   34  O2  UNL     1      13.378  65.246  28.322  1.00  0.00    -0.316 OA
BRANCH  34  35
HETATM   35  C2  UNL     1      14.440  66.052  27.990  1.00  0.00     0.255 C 
HETATM   36  C1  UNL     1      15.752  65.418  27.595  1.00  0.00     0.126 C 
HETATM   37  O1  UNL     1      14.342  67.288  28.009  1.00  0.00    -0.266 OA
ENDBRANCH  34  35
ENDBRANCH   1  34
BRANCH   9  38
HETATM   38  O3  UNL     1      11.094  62.838  22.002  1.00  0.00    -0.396 OA
ATOM     39  H3  UNL     1      11.341  63.599  21.491  1.00  0.00     0.210 HD
ENDBRANCH   9  38
TORSDOF 10
ENDMDL
