MODEL 1
REMARK VINA RESULT: -7.616835144      0.000      0.000
REMARK  9 active torsions:
REMARK  status: ('A' for Active; 'I' for Inactive)
REMARK       I    between atoms: C1_4  and  N3_6 
REMARK       I    between atoms: N3_6  and  C2_8 
REMARK    1  A    between atoms: C2_8  and  C3_10 
REMARK    2  A    between atoms: C3_10  and  O2_11 
REMARK    3  A    between atoms: O2_11  and  C4_12 
REMARK    4  A    between atoms: C4_12  and  C5_14 
REMARK    5  A    between atoms: C5_14  and  N4_15 
REMARK    6  A    between atoms: N4_15  and  S1_17 
REMARK    7  A    between atoms: S1_17  and  C6_20 
REMARK    8  A    between atoms: C9_24  and  C10_25 
REMARK       I    between atoms: C10_25  and  N5_27 
REMARK    9  A    between atoms: N5_27  and  N6_29 
ROOT
HETATM    1  N4  UNL     1     -21.436   4.314  26.072  1.00  0.00    -0.306 N 
ATOM      2  H4  UNL     1     -20.464   4.279  26.378  1.00  0.00     0.172 HD
ENDROOT
BRANCH   1   3
HETATM    3  C5  UNL     1     -21.909   4.385  24.692  1.00  0.00     0.243 C 
BRANCH   3   4
HETATM    4  C4  UNL     1     -21.392   5.606  24.042  1.00  0.00     0.277 C 
HETATM    5  O3  UNL     1     -21.966   6.079  22.992  1.00  0.00    -0.263 OA
BRANCH   4   6
HETATM    6  O2  UNL     1     -20.288   6.330  24.484  1.00  0.00    -0.311 OA
BRANCH   6   7
HETATM    7  C3  UNL     1     -20.486   7.695  24.821  1.00  0.00     0.281 C 
BRANCH   7   8
HETATM    8  C2  UNL     1     -21.027   7.779  26.182  1.00  0.00     0.248 C 
HETATM    9  N3  UNL     1     -22.166   8.568  26.473  1.00  0.00    -0.300 N 
HETATM   10  C1  UNL     1     -22.664   8.647  27.817  1.00  0.00     0.188 C 
ATOM     11  H3  UNL     1     -22.634   9.081  25.725  1.00  0.00     0.171 HD
HETATM   12  N1  UNL     1     -23.710   9.357  28.061  1.00  0.00    -0.373 N 
HETATM   13  N2  UNL     1     -22.027   7.986  28.870  1.00  0.00    -0.064 NA
ATOM     14  H12 UNL     1     -24.064   9.413  29.016  1.00  0.00     0.158 HD
ATOM     15  H11 UNL     1     -24.175   9.839  27.292  1.00  0.00     0.158 HD
HETATM   16  O1  UNL     1     -20.470   7.144  27.102  1.00  0.00    -0.271 OA
ENDBRANCH   7   8
ENDBRANCH   6   7
ENDBRANCH   4   6
ENDBRANCH   3   4
ENDBRANCH   1   3
BRANCH   1  17
HETATM   17  S1  UNL     1     -22.832   4.300  27.088  1.00  0.00     0.266 S 
HETATM   18  O4  UNL     1     -23.717   3.136  26.789  1.00  0.00    -0.200 OA
HETATM   19  O5  UNL     1     -23.585   5.570  26.792  1.00  0.00    -0.200 OA
BRANCH  17  20
HETATM   20  C6  UNL     1     -22.320   4.274  28.777  1.00  0.00     0.135 A 
HETATM   21  S2  UNL     1     -20.808   3.784  29.379  1.00  0.00    -0.087 SA
HETATM   22  C7  UNL     1     -21.034   4.067  31.026  1.00  0.00     0.052 A 
HETATM   23  C8  UNL     1     -22.317   4.547  31.082  1.00  0.00     0.026 A 
HETATM   24  C9  UNL     1     -22.989   4.655  29.909  1.00  0.00     0.064 A 
BRANCH  24  25
HETATM   25  C10 UNL     1     -24.397   5.125  29.852  1.00  0.00     0.271 C 
HETATM   26  O6  UNL     1     -25.314   4.282  29.962  1.00  0.00    -0.266 OA
HETATM   27  N5  UNL     1     -24.709   6.484  29.667  1.00  0.00    -0.272 N 
ATOM     28  H5  UNL     1     -23.961   7.171  29.577  1.00  0.00     0.189 HD
BRANCH  27  29
HETATM   29  N6  UNL     1     -26.032   6.888  29.609  1.00  0.00    -0.342 N 
ATOM     30  H62 UNL     1     -26.515   6.871  28.710  1.00  0.00     0.176 HD
ATOM     31  H61 UNL     1     -26.509   7.195  30.457  1.00  0.00     0.176 HD
ENDBRANCH  27  29
ENDBRANCH  24  25
ENDBRANCH  17  20
ENDBRANCH   1  17
TORSDOF 9
ENDMDL
MODEL 2
REMARK VINA RESULT: -7.402280067      2.346      4.823
REMARK  9 active torsions:
REMARK  status: ('A' for Active; 'I' for Inactive)
REMARK       I    between atoms: C1_4  and  N3_6 
REMARK       I    between atoms: N3_6  and  C2_8 
REMARK    1  A    between atoms: C2_8  and  C3_10 
REMARK    2  A    between atoms: C3_10  and  O2_11 
REMARK    3  A    between atoms: O2_11  and  C4_12 
REMARK    4  A    between atoms: C4_12  and  C5_14 
REMARK    5  A    between atoms: C5_14  and  N4_15 
REMARK    6  A    between atoms: N4_15  and  S1_17 
REMARK    7  A    between atoms: S1_17  and  C6_20 
REMARK    8  A    between atoms: C9_24  and  C10_25 
REMARK       I    between atoms: C10_25  and  N5_27 
REMARK    9  A    between atoms: N5_27  and  N6_29 
ROOT
HETATM    1  N4  UNL     1     -21.199   5.879  25.217  1.00  0.00    -0.306 N 
ATOM      2  H4  UNL     1     -20.210   6.070  25.377  1.00  0.00     0.172 HD
ENDROOT
BRANCH   1   3
HETATM    3  C5  UNL     1     -21.806   4.567  25.009  1.00  0.00     0.243 C 
BRANCH   3   4
HETATM    4  C4  UNL     1     -21.334   3.622  26.040  1.00  0.00     0.277 C 
HETATM    5  O3  UNL     1     -20.206   3.018  25.904  1.00  0.00    -0.263 OA
BRANCH   4   6
HETATM    6  O2  UNL     1     -22.030   3.310  27.206  1.00  0.00    -0.311 OA
BRANCH   6   7
HETATM    7  C3  UNL     1     -21.881   4.182  28.316  1.00  0.00     0.281 C 
BRANCH   7   8
HETATM    8  C2  UNL     1     -23.179   4.336  28.981  1.00  0.00     0.248 C 
HETATM    9  N3  UNL     1     -23.290   4.300  30.392  1.00  0.00    -0.300 N 
HETATM   10  C1  UNL     1     -24.576   4.435  31.018  1.00  0.00     0.188 C 
ATOM     11  H3  UNL     1     -22.456   4.177  30.965  1.00  0.00     0.171 HD
HETATM   12  N1  UNL     1     -24.657   4.415  32.302  1.00  0.00    -0.373 N 
HETATM   13  N2  UNL     1     -25.743   4.568  30.262  1.00  0.00    -0.064 NA
ATOM     14  H12 UNL     1     -25.571   4.511  32.747  1.00  0.00     0.158 HD
ATOM     15  H11 UNL     1     -23.805   4.318  32.854  1.00  0.00     0.158 HD
HETATM   16  O1  UNL     1     -24.205   4.500  28.289  1.00  0.00    -0.271 OA
ENDBRANCH   7   8
ENDBRANCH   6   7
ENDBRANCH   4   6
ENDBRANCH   3   4
ENDBRANCH   1   3
BRANCH   1  17
HETATM   17  S1  UNL     1     -22.469   7.045  25.143  1.00  0.00     0.266 S 
HETATM   18  O4  UNL     1     -23.724   6.533  25.769  1.00  0.00    -0.200 OA
HETATM   19  O5  UNL     1     -22.726   7.300  23.681  1.00  0.00    -0.200 OA
BRANCH  17  20
HETATM   20  C6  UNL     1     -21.941   8.531  25.935  1.00  0.00     0.135 A 
HETATM   21  S2  UNL     1     -20.971   9.756  25.266  1.00  0.00    -0.087 SA
HETATM   22  C7  UNL     1     -20.924  10.841  26.557  1.00  0.00     0.052 A 
HETATM   23  C8  UNL     1     -21.681  10.214  27.512  1.00  0.00     0.026 A 
HETATM   24  C9  UNL     1     -22.211   9.009  27.190  1.00  0.00     0.064 A 
BRANCH  24  25
HETATM   25  C10 UNL     1     -23.014   8.220  28.159  1.00  0.00     0.271 C 
HETATM   26  O6  UNL     1     -22.418   7.618  29.079  1.00  0.00    -0.266 OA
HETATM   27  N5  UNL     1     -24.413   8.133  28.052  1.00  0.00    -0.272 N 
ATOM     28  H5  UNL     1     -24.898   8.624  27.301  1.00  0.00     0.189 HD
BRANCH  27  29
HETATM   29  N6  UNL     1     -25.131   7.381  28.966  1.00  0.00    -0.342 N 
ATOM     30  H62 UNL     1     -25.856   7.837  29.521  1.00  0.00     0.176 HD
ATOM     31  H61 UNL     1     -24.932   6.386  29.076  1.00  0.00     0.176 HD
ENDBRANCH  27  29
ENDBRANCH  24  25
ENDBRANCH  17  20
ENDBRANCH   1  17
TORSDOF 9
ENDMDL
MODEL 3
REMARK VINA RESULT: -7.344564640      2.429      4.166
REMARK  9 active torsions:
REMARK  status: ('A' for Active; 'I' for Inactive)
REMARK       I    between atoms: C1_4  and  N3_6 
REMARK       I    between atoms: N3_6  and  C2_8 
REMARK    1  A    between atoms: C2_8  and  C3_10 
REMARK    2  A    between atoms: C3_10  and  O2_11 
REMARK    3  A    between atoms: O2_11  and  C4_12 
REMARK    4  A    between atoms: C4_12  and  C5_14 
REMARK    5  A    between atoms: C5_14  and  N4_15 
REMARK    6  A    between atoms: N4_15  and  S1_17 
REMARK    7  A    between atoms: S1_17  and  C6_20 
REMARK    8  A    between atoms: C9_24  and  C10_25 
REMARK       I    between atoms: C10_25  and  N5_27 
REMARK    9  A    between atoms: N5_27  and  N6_29 
ROOT
HETATM    1  N4  UNL     1     -22.517   4.293  29.044  1.00  0.00    -0.306 N 
ATOM      2  H4  UNL     1     -23.281   4.649  29.619  1.00  0.00     0.172 HD
ENDROOT
BRANCH   1   3
HETATM    3  C5  UNL     1     -21.173   3.952  29.503  1.00  0.00     0.243 C 
BRANCH   3   4
HETATM    4  C4  UNL     1     -20.654   5.018  30.383  1.00  0.00     0.277 C 
HETATM    5  O3  UNL     1     -20.049   4.722  31.479  1.00  0.00    -0.263 OA
BRANCH   4   6
HETATM    6  O2  UNL     1     -20.762   6.382  30.123  1.00  0.00    -0.311 OA
BRANCH   6   7
HETATM    7  C3  UNL     1     -20.084   6.892  28.985  1.00  0.00     0.281 C 
BRANCH   7   8
HETATM    8  C2  UNL     1     -20.776   8.096  28.514  1.00  0.00     0.248 C 
HETATM    9  N3  UNL     1     -20.181   8.962  27.565  1.00  0.00    -0.300 N 
HETATM   10  C1  UNL     1     -20.873  10.145  27.135  1.00  0.00     0.188 C 
ATOM     11  H3  UNL     1     -19.260   8.745  27.186  1.00  0.00     0.171 HD
HETATM   12  N1  UNL     1     -20.325  10.913  26.259  1.00  0.00    -0.373 N 
HETATM   13  N2  UNL     1     -22.121  10.491  27.660  1.00  0.00    -0.064 NA
ATOM     14  H12 UNL     1     -20.816  11.753  25.953  1.00  0.00     0.158 HD
ATOM     15  H11 UNL     1     -19.414  10.659  25.876  1.00  0.00     0.158 HD
HETATM   16  O1  UNL     1     -21.910   8.364  28.962  1.00  0.00    -0.271 OA
ENDBRANCH   7   8
ENDBRANCH   6   7
ENDBRANCH   4   6
ENDBRANCH   3   4
ENDBRANCH   1   3
BRANCH   1  17
HETATM   17  S1  UNL     1     -22.570   3.978  27.348  1.00  0.00     0.266 S 
HETATM   18  O4  UNL     1     -23.747   3.138  26.981  1.00  0.00    -0.200 OA
HETATM   19  O5  UNL     1     -21.311   3.221  27.017  1.00  0.00    -0.200 OA
BRANCH  17  20
HETATM   20  C6  UNL     1     -22.605   5.511  26.474  1.00  0.00     0.135 A 
HETATM   21  S2  UNL     1     -21.491   6.047  25.307  1.00  0.00    -0.087 SA
HETATM   22  C7  UNL     1     -22.174   7.534  24.899  1.00  0.00     0.052 A 
HETATM   23  C8  UNL     1     -23.285   7.591  25.700  1.00  0.00     0.026 A 
HETATM   24  C9  UNL     1     -23.510   6.538  26.523  1.00  0.00     0.064 A 
BRANCH  24  25
HETATM   25  C10 UNL     1     -24.659   6.508  27.464  1.00  0.00     0.271 C 
HETATM   26  O6  UNL     1     -25.639   5.781  27.188  1.00  0.00    -0.266 OA
HETATM   27  N5  UNL     1     -24.664   7.280  28.638  1.00  0.00    -0.272 N 
ATOM     28  H5  UNL     1     -23.865   7.872  28.864  1.00  0.00     0.189 HD
BRANCH  27  29
HETATM   29  N6  UNL     1     -25.756   7.236  29.490  1.00  0.00    -0.342 N 
ATOM     30  H62 UNL     1     -26.570   6.684  29.222  1.00  0.00     0.176 HD
ATOM     31  H61 UNL     1     -25.736   7.752  30.370  1.00  0.00     0.176 HD
ENDBRANCH  27  29
ENDBRANCH  24  25
ENDBRANCH  17  20
ENDBRANCH   1  17
TORSDOF 9
ENDMDL
MODEL 4
REMARK VINA RESULT: -7.326326264      2.739      5.681
REMARK  9 active torsions:
REMARK  status: ('A' for Active; 'I' for Inactive)
REMARK       I    between atoms: C1_4  and  N3_6 
REMARK       I    between atoms: N3_6  and  C2_8 
REMARK    1  A    between atoms: C2_8  and  C3_10 
REMARK    2  A    between atoms: C3_10  and  O2_11 
REMARK    3  A    between atoms: O2_11  and  C4_12 
REMARK    4  A    between atoms: C4_12  and  C5_14 
REMARK    5  A    between atoms: C5_14  and  N4_15 
REMARK    6  A    between atoms: N4_15  and  S1_17 
REMARK    7  A    between atoms: S1_17  and  C6_20 
REMARK    8  A    between atoms: C9_24  and  C10_25 
REMARK       I    between atoms: C10_25  and  N5_27 
REMARK    9  A    between atoms: N5_27  and  N6_29 
ROOT
HETATM    1  N4  UNL     1     -20.436   8.451  28.189  1.00  0.00    -0.306 N 
ATOM      2  H4  UNL     1     -19.720   8.999  28.666  1.00  0.00     0.172 HD
ENDROOT
BRANCH   1   3
HETATM    3  C5  UNL     1     -20.523   6.994  28.141  1.00  0.00     0.243 C 
BRANCH   3   4
HETATM    4  C4  UNL     1     -20.528   6.442  29.510  1.00  0.00     0.277 C 
HETATM    5  O3  UNL     1     -19.646   6.820  30.367  1.00  0.00    -0.263 OA
BRANCH   4   6
HETATM    6  O2  UNL     1     -21.444   5.507  29.983  1.00  0.00    -0.311 OA
BRANCH   6   7
HETATM    7  C3  UNL     1     -21.957   4.559  29.059  1.00  0.00     0.281 C 
BRANCH   7   8
HETATM    8  C2  UNL     1     -23.400   4.774  28.903  1.00  0.00     0.248 C 
HETATM    9  N3  UNL     1     -24.031   5.928  29.426  1.00  0.00    -0.300 N 
HETATM   10  C1  UNL     1     -25.448   6.106  29.277  1.00  0.00     0.188 C 
ATOM     11  H3  UNL     1     -23.477   6.636  29.909  1.00  0.00     0.171 HD
HETATM   12  N1  UNL     1     -26.003   7.169  29.744  1.00  0.00    -0.373 N 
HETATM   13  N2  UNL     1     -26.241   5.140  28.652  1.00  0.00    -0.064 NA
ATOM     14  H12 UNL     1     -27.010   7.295  29.638  1.00  0.00     0.158 HD
ATOM     15  H11 UNL     1     -25.424   7.874  30.200  1.00  0.00     0.158 HD
HETATM   16  O1  UNL     1     -24.084   3.920  28.302  1.00  0.00    -0.271 OA
ENDBRANCH   7   8
ENDBRANCH   6   7
ENDBRANCH   4   6
ENDBRANCH   3   4
ENDBRANCH   1   3
BRANCH   1  17
HETATM   17  S1  UNL     1     -21.770   9.071  27.287  1.00  0.00     0.266 S 
HETATM   18  O4  UNL     1     -21.957  10.534  27.517  1.00  0.00    -0.200 OA
HETATM   19  O5  UNL     1     -22.992   8.343  27.782  1.00  0.00    -0.200 OA
BRANCH  17  20
HETATM   20  C6  UNL     1     -21.517   8.739  25.572  1.00  0.00     0.135 A 
HETATM   21  S2  UNL     1     -20.459   9.552  24.520  1.00  0.00    -0.087 SA
HETATM   22  C7  UNL     1     -20.720   8.681  23.099  1.00  0.00     0.052 A 
HETATM   23  C8  UNL     1     -21.653   7.751  23.476  1.00  0.00     0.026 A 
HETATM   24  C9  UNL     1     -22.071   7.780  24.766  1.00  0.00     0.064 A 
BRANCH  24  25
HETATM   25  C10 UNL     1     -23.107   6.847  25.277  1.00  0.00     0.271 C 
HETATM   26  O6  UNL     1     -22.752   5.708  25.653  1.00  0.00    -0.266 OA
HETATM   27  N5  UNL     1     -24.462   7.216  25.335  1.00  0.00    -0.272 N 
ATOM     28  H5  UNL     1     -24.751   8.145  25.028  1.00  0.00     0.189 HD
BRANCH  27  29
HETATM   29  N6  UNL     1     -25.404   6.319  25.808  1.00  0.00    -0.342 N 
ATOM     30  H62 UNL     1     -25.459   5.391  25.387  1.00  0.00     0.176 HD
ATOM     31  H61 UNL     1     -26.029   6.589  26.569  1.00  0.00     0.176 HD
ENDBRANCH  27  29
ENDBRANCH  24  25
ENDBRANCH  17  20
ENDBRANCH   1  17
TORSDOF 9
ENDMDL
MODEL 5
REMARK VINA RESULT: -7.277107237      2.653      5.012
REMARK  9 active torsions:
REMARK  status: ('A' for Active; 'I' for Inactive)
REMARK       I    between atoms: C1_4  and  N3_6 
REMARK       I    between atoms: N3_6  and  C2_8 
REMARK    1  A    between atoms: C2_8  and  C3_10 
REMARK    2  A    between atoms: C3_10  and  O2_11 
REMARK    3  A    between atoms: O2_11  and  C4_12 
REMARK    4  A    between atoms: C4_12  and  C5_14 
REMARK    5  A    between atoms: C5_14  and  N4_15 
REMARK    6  A    between atoms: N4_15  and  S1_17 
REMARK    7  A    between atoms: S1_17  and  C6_20 
REMARK    8  A    between atoms: C9_24  and  C10_25 
REMARK       I    between atoms: C10_25  and  N5_27 
REMARK    9  A    between atoms: N5_27  and  N6_29 
ROOT
HETATM    1  N4  UNL     1     -21.742   5.897  25.787  1.00  0.00    -0.306 N 
ATOM      2  H4  UNL     1     -20.831   5.817  26.239  1.00  0.00     0.172 HD
ENDROOT
BRANCH   1   3
HETATM    3  C5  UNL     1     -22.775   4.866  25.727  1.00  0.00     0.243 C 
BRANCH   3   4
HETATM    4  C4  UNL     1     -23.367   4.666  27.065  1.00  0.00     0.277 C 
HETATM    5  O3  UNL     1     -24.530   5.141  27.341  1.00  0.00    -0.263 OA
BRANCH   4   6
HETATM    6  O2  UNL     1     -22.753   3.973  28.106  1.00  0.00    -0.311 OA
BRANCH   6   7
HETATM    7  C3  UNL     1     -23.149   4.290  29.432  1.00  0.00     0.281 C 
BRANCH   7   8
HETATM    8  C2  UNL     1     -21.953   4.563  30.236  1.00  0.00     0.248 C 
HETATM    9  N3  UNL     1     -21.135   5.689  29.977  1.00  0.00    -0.300 N 
HETATM   10  C1  UNL     1     -19.959   5.924  30.767  1.00  0.00     0.188 C 
ATOM     11  H3  UNL     1     -21.383   6.336  29.228  1.00  0.00     0.171 HD
HETATM   12  N1  UNL     1     -19.236   6.961  30.529  1.00  0.00    -0.373 N 
HETATM   13  N2  UNL     1     -19.572   5.039  31.776  1.00  0.00    -0.064 NA
ATOM     14  H12 UNL     1     -18.400   7.128  31.090  1.00  0.00     0.158 HD
ATOM     15  H11 UNL     1     -19.519   7.607  29.791  1.00  0.00     0.158 HD
HETATM   16  O1  UNL     1     -21.648   3.784  31.163  1.00  0.00    -0.271 OA
ENDBRANCH   7   8
ENDBRANCH   6   7
ENDBRANCH   4   6
ENDBRANCH   3   4
ENDBRANCH   1   3
BRANCH   1  17
HETATM   17  S1  UNL     1     -22.351   7.277  24.948  1.00  0.00     0.266 S 
HETATM   18  O4  UNL     1     -23.842   7.267  24.881  1.00  0.00    -0.200 OA
HETATM   19  O5  UNL     1     -21.803   7.199  23.547  1.00  0.00    -0.200 OA
BRANCH  17  20
HETATM   20  C6  UNL     1     -21.775   8.742  25.746  1.00  0.00     0.135 A 
HETATM   21  S2  UNL     1     -20.746   9.925  25.089  1.00  0.00    -0.087 SA
HETATM   22  C7  UNL     1     -20.675  11.011  26.378  1.00  0.00     0.052 A 
HETATM   23  C8  UNL     1     -21.472  10.418  27.323  1.00  0.00     0.026 A 
HETATM   24  C9  UNL     1     -22.045   9.234  26.995  1.00  0.00     0.064 A 
BRANCH  24  25
HETATM   25  C10 UNL     1     -22.895   8.482  27.953  1.00  0.00     0.271 C 
HETATM   26  O6  UNL     1     -22.360   8.000  28.976  1.00  0.00    -0.266 OA
HETATM   27  N5  UNL     1     -24.269   8.296  27.724  1.00  0.00    -0.272 N 
ATOM     28  H5  UNL     1     -24.705   8.689  26.889  1.00  0.00     0.189 HD
BRANCH  27  29
HETATM   29  N6  UNL     1     -25.032   7.581  28.632  1.00  0.00    -0.342 N 
ATOM     30  H62 UNL     1     -25.106   7.920  29.591  1.00  0.00     0.176 HD
ATOM     31  H61 UNL     1     -25.509   6.729  28.337  1.00  0.00     0.176 HD
ENDBRANCH  27  29
ENDBRANCH  24  25
ENDBRANCH  17  20
ENDBRANCH   1  17
TORSDOF 9
ENDMDL
