MODEL 1
REMARK VINA RESULT: -8.180699147      0.000      0.000
REMARK  7 active torsions:
REMARK  status: ('A' for Active; 'I' for Inactive)
REMARK       I    between atoms: C1_2  and  N1_3 
REMARK    1  A    between atoms: C1_2  and  C11_23 
REMARK    2  A    between atoms: N1_3  and  C2_5 
REMARK    3  A    between atoms: C2_5  and  C3_6 
REMARK    4  A    between atoms: C2_5  and  C4_14 
REMARK       I    between atoms: C3_6  and  N2_8 
REMARK    5  A    between atoms: N2_8  and  S1_10 
REMARK    6  A    between atoms: C4_14  and  O6_15 
REMARK    7  A    between atoms: C4_14  and  C5_17 
ROOT
HETATM    1  C2  UNL     1     -22.304   7.067  27.811  1.00  0.00     0.138 C 
ENDROOT
BRANCH   1   2
HETATM    2  N1  UNL     1     -21.935   6.780  26.426  1.00  0.00    -0.317 N 
HETATM    3  C1  UNL     1     -21.814   7.785  25.466  1.00  0.00     0.270 C 
HETATM    4  O1  UNL     1     -22.028   8.980  25.787  1.00  0.00    -0.269 OA
ATOM      5  H1  UNL     1     -21.759   5.813  26.153  1.00  0.00     0.169 HD
BRANCH   3   6
HETATM    6  C11 UNL     1     -21.441   7.493  24.066  1.00  0.00     0.385 C 
HETATM    7  N3  UNL     1     -22.602   6.984  23.348  1.00  0.00    -0.046 N 
HETATM    8  C12 UNL     1     -22.132   6.564  22.020  1.00  0.00     0.252 C 
ATOM      9  H32 UNL     1     -23.095   6.246  23.852  1.00  0.00     0.279 HD
ATOM     10  H31 UNL     1     -23.374   7.649  23.309  1.00  0.00     0.279 HD
HETATM   11  C13 UNL     1     -21.636   7.821  21.322  1.00  0.00     0.158 C 
HETATM   12  N4  UNL     1     -20.545   8.357  22.119  1.00  0.00    -0.144 NA
HETATM   13  N5  UNL     1     -20.990   8.701  23.385  1.00  0.00    -0.105 NA
ENDBRANCH   3   6
ENDBRANCH   1   2
BRANCH   1  14
HETATM   14  C3  UNL     1     -23.688   6.824  28.137  1.00  0.00     0.286 C 
HETATM   15  O2  UNL     1     -24.598   7.370  27.463  1.00  0.00    -0.265 OA
HETATM   16  N2  UNL     1     -24.045   5.979  29.214  1.00  0.00    -0.230 N 
ATOM     17  H2  UNL     1     -23.294   5.544  29.751  1.00  0.00     0.184 HD
BRANCH  16  18
HETATM   18  S1  UNL     1     -25.660   5.640  29.676  1.00  0.00     0.211 S 
HETATM   19  O3  UNL     1     -26.377   4.848  28.601  1.00  0.00    -0.578 OA
HETATM   20  O4  UNL     1     -25.635   4.800  30.926  1.00  0.00    -0.578 OA
HETATM   21  O5  UNL     1     -26.575   6.991  29.981  1.00  0.00    -0.578 OA
ENDBRANCH  16  18
ENDBRANCH   1  14
BRANCH   1  22
HETATM   22  C4  UNL     1     -21.232   6.694  28.725  1.00  0.00     0.108 C 
BRANCH  22  23
HETATM   23  O6  UNL     1     -20.476   7.705  29.111  1.00  0.00    -0.357 OA
ATOM     24  H6  UNL     1     -19.896   7.501  29.834  1.00  0.00     0.217 HD
ENDBRANCH  22  23
BRANCH  22  25
HETATM   25  C5  UNL     1     -20.828   5.441  29.296  1.00  0.00    -0.001 A 
HETATM   26  C6  UNL     1     -20.917   4.191  28.728  1.00  0.00     0.014 A 
HETATM   27  C7  UNL     1     -20.552   3.012  29.394  1.00  0.00     0.001 A 
HETATM   28  C8  UNL     1     -20.080   3.058  30.672  1.00  0.00     0.000 A 
HETATM   29  C9  UNL     1     -19.974   4.276  31.271  1.00  0.00     0.001 A 
HETATM   30  C10 UNL     1     -20.334   5.430  30.612  1.00  0.00     0.014 A 
ENDBRANCH  22  25
ENDBRANCH   1  22
TORSDOF 7
ENDMDL
MODEL 2
REMARK VINA RESULT: -8.062400037      3.024      5.048
REMARK  7 active torsions:
REMARK  status: ('A' for Active; 'I' for Inactive)
REMARK       I    between atoms: C1_2  and  N1_3 
REMARK    1  A    between atoms: C1_2  and  C11_23 
REMARK    2  A    between atoms: N1_3  and  C2_5 
REMARK    3  A    between atoms: C2_5  and  C3_6 
REMARK    4  A    between atoms: C2_5  and  C4_14 
REMARK       I    between atoms: C3_6  and  N2_8 
REMARK    5  A    between atoms: N2_8  and  S1_10 
REMARK    6  A    between atoms: C4_14  and  O6_15 
REMARK    7  A    between atoms: C4_14  and  C5_17 
ROOT
HETATM    1  C2  UNL     1     -23.003   6.468  26.152  1.00  0.00     0.138 C 
ENDROOT
BRANCH   1   2
HETATM    2  N1  UNL     1     -22.619   7.877  26.090  1.00  0.00    -0.317 N 
HETATM    3  C1  UNL     1     -21.319   8.306  26.359  1.00  0.00     0.270 C 
HETATM    4  O1  UNL     1     -20.440   7.464  26.668  1.00  0.00    -0.269 OA
ATOM      5  H1  UNL     1     -23.325   8.570  25.841  1.00  0.00     0.169 HD
BRANCH   3   6
HETATM    6  C11 UNL     1     -20.933   9.731  26.296  1.00  0.00     0.385 C 
HETATM    7  N3  UNL     1     -19.623   9.908  26.909  1.00  0.00    -0.046 N 
HETATM    8  C12 UNL     1     -19.368  11.355  26.960  1.00  0.00     0.252 C 
ATOM      9  H32 UNL     1     -19.540   9.453  27.819  1.00  0.00     0.279 HD
ATOM     10  H31 UNL     1     -18.885   9.387  26.437  1.00  0.00     0.279 HD
HETATM   11  C13 UNL     1     -19.303  11.831  25.517  1.00  0.00     0.158 C 
HETATM   12  N4  UNL     1     -20.592  11.548  24.908  1.00  0.00    -0.144 NA
HETATM   13  N5  UNL     1     -20.843  10.185  24.913  1.00  0.00    -0.105 NA
ENDBRANCH   3   6
ENDBRANCH   1   2
BRANCH   1  14
HETATM   14  C3  UNL     1     -24.143   6.183  26.988  1.00  0.00     0.286 C 
HETATM   15  O2  UNL     1     -25.300   6.186  26.496  1.00  0.00    -0.265 OA
HETATM   16  N2  UNL     1     -23.985   5.905  28.366  1.00  0.00    -0.230 N 
ATOM     17  H2  UNL     1     -23.039   5.907  28.749  1.00  0.00     0.184 HD
BRANCH  16  18
HETATM   18  S1  UNL     1     -25.281   5.563  29.434  1.00  0.00     0.211 S 
HETATM   19  O3  UNL     1     -26.061   4.349  28.969  1.00  0.00    -0.578 OA
HETATM   20  O4  UNL     1     -24.712   5.252  30.794  1.00  0.00    -0.578 OA
HETATM   21  O5  UNL     1     -26.366   6.808  29.601  1.00  0.00    -0.578 OA
ENDBRANCH  16  18
ENDBRANCH   1  14
BRANCH   1  22
HETATM   22  C4  UNL     1     -22.831   5.824  24.857  1.00  0.00     0.108 C 
BRANCH  22  23
HETATM   23  O6  UNL     1     -23.411   4.641  24.762  1.00  0.00    -0.357 OA
ATOM     24  H6  UNL     1     -23.651   4.260  25.599  1.00  0.00     0.217 HD
ENDBRANCH  22  23
BRANCH  22  25
HETATM   25  C5  UNL     1     -22.157   6.216  23.653  1.00  0.00    -0.001 A 
HETATM   26  C6  UNL     1     -22.615   7.064  22.672  1.00  0.00     0.014 A 
HETATM   27  C7  UNL     1     -21.906   7.339  21.494  1.00  0.00     0.001 A 
HETATM   28  C8  UNL     1     -20.695   6.757  21.265  1.00  0.00     0.000 A 
HETATM   29  C9  UNL     1     -20.202   5.912  22.212  1.00  0.00     0.001 A 
HETATM   30  C10 UNL     1     -20.904   5.646  23.367  1.00  0.00     0.014 A 
ENDBRANCH  22  25
ENDBRANCH   1  22
TORSDOF 7
ENDMDL
MODEL 3
REMARK VINA RESULT: -7.975595006      1.780      2.130
REMARK  7 active torsions:
REMARK  status: ('A' for Active; 'I' for Inactive)
REMARK       I    between atoms: C1_2  and  N1_3 
REMARK    1  A    between atoms: C1_2  and  C11_23 
REMARK    2  A    between atoms: N1_3  and  C2_5 
REMARK    3  A    between atoms: C2_5  and  C3_6 
REMARK    4  A    between atoms: C2_5  and  C4_14 
REMARK       I    between atoms: C3_6  and  N2_8 
REMARK    5  A    between atoms: N2_8  and  S1_10 
REMARK    6  A    between atoms: C4_14  and  O6_15 
REMARK    7  A    between atoms: C4_14  and  C5_17 
ROOT
HETATM    1  C2  UNL     1     -22.367   7.723  28.297  1.00  0.00     0.138 C 
ENDROOT
BRANCH   1   2
HETATM    2  N1  UNL     1     -22.002   8.271  26.993  1.00  0.00    -0.317 N 
HETATM    3  C1  UNL     1     -21.531   9.575  26.839  1.00  0.00     0.270 C 
HETATM    4  O1  UNL     1     -21.413  10.315  27.847  1.00  0.00    -0.269 OA
ATOM      5  H1  UNL     1     -22.094   7.680  26.166  1.00  0.00     0.169 HD
BRANCH   3   6
HETATM    6  C11 UNL     1     -21.162  10.127  25.519  1.00  0.00     0.385 C 
HETATM    7  N3  UNL     1     -19.930  10.896  25.640  1.00  0.00    -0.046 N 
HETATM    8  C12 UNL     1     -19.705  11.547  24.341  1.00  0.00     0.252 C 
ATOM      9  H32 UNL     1     -19.940  11.552  26.422  1.00  0.00     0.279 HD
ATOM     10  H31 UNL     1     -19.136  10.337  25.952  1.00  0.00     0.279 HD
HETATM   11  C13 UNL     1     -19.489  10.429  23.332  1.00  0.00     0.158 C 
HETATM   12  N4  UNL     1     -20.698   9.624  23.311  1.00  0.00    -0.144 NA
HETATM   13  N5  UNL     1     -20.927   9.059  24.555  1.00  0.00    -0.105 NA
ENDBRANCH   3   6
ENDBRANCH   1   2
BRANCH   1  14
HETATM   14  C3  UNL     1     -23.726   7.251  28.402  1.00  0.00     0.286 C 
HETATM   15  O2  UNL     1     -24.581   7.602  27.551  1.00  0.00    -0.265 OA
HETATM   16  N2  UNL     1     -24.121   6.397  29.459  1.00  0.00    -0.230 N 
ATOM     17  H2  UNL     1     -23.415   6.122  30.142  1.00  0.00     0.184 HD
BRANCH  16  18
HETATM   18  S1  UNL     1     -25.712   5.795  29.665  1.00  0.00     0.211 S 
HETATM   19  O3  UNL     1     -26.165   5.026  28.440  1.00  0.00    -0.578 OA
HETATM   20  O4  UNL     1     -25.717   4.844  30.834  1.00  0.00    -0.578 OA
HETATM   21  O5  UNL     1     -26.848   6.971  29.953  1.00  0.00    -0.578 OA
ENDBRANCH  16  18
ENDBRANCH   1  14
BRANCH   1  22
HETATM   22  C4  UNL     1     -21.258   6.979  28.880  1.00  0.00     0.108 C 
BRANCH  22  23
HETATM   23  O6  UNL     1     -20.305   7.741  29.385  1.00  0.00    -0.357 OA
ATOM     24  H6  UNL     1     -19.901   8.326  28.754  1.00  0.00     0.217 HD
ENDBRANCH  22  23
BRANCH  22  25
HETATM   25  C5  UNL     1     -20.989   5.577  29.019  1.00  0.00    -0.001 A 
HETATM   26  C6  UNL     1     -21.211   4.583  28.094  1.00  0.00     0.014 A 
HETATM   27  C7  UNL     1     -20.972   3.225  28.347  1.00  0.00     0.001 A 
HETATM   28  C8  UNL     1     -20.495   2.821  29.558  1.00  0.00     0.000 A 
HETATM   29  C9  UNL     1     -20.259   3.773  30.503  1.00  0.00     0.001 A 
HETATM   30  C10 UNL     1     -20.496   5.105  30.248  1.00  0.00     0.014 A 
ENDBRANCH  22  25
ENDBRANCH   1  22
TORSDOF 7
ENDMDL
MODEL 4
REMARK VINA RESULT: -7.963954460      0.922      1.135
REMARK  7 active torsions:
REMARK  status: ('A' for Active; 'I' for Inactive)
REMARK       I    between atoms: C1_2  and  N1_3 
REMARK    1  A    between atoms: C1_2  and  C11_23 
REMARK    2  A    between atoms: N1_3  and  C2_5 
REMARK    3  A    between atoms: C2_5  and  C3_6 
REMARK    4  A    between atoms: C2_5  and  C4_14 
REMARK       I    between atoms: C3_6  and  N2_8 
REMARK    5  A    between atoms: N2_8  and  S1_10 
REMARK    6  A    between atoms: C4_14  and  O6_15 
REMARK    7  A    between atoms: C4_14  and  C5_17 
ROOT
HETATM    1  C2  UNL     1     -22.132   7.071  27.937  1.00  0.00     0.138 C 
ENDROOT
BRANCH   1   2
HETATM    2  N1  UNL     1     -21.703   6.813  26.564  1.00  0.00    -0.317 N 
HETATM    3  C1  UNL     1     -21.536   7.838  25.632  1.00  0.00     0.270 C 
HETATM    4  O1  UNL     1     -21.759   9.027  25.970  1.00  0.00    -0.269 OA
ATOM      5  H1  UNL     1     -21.520   5.852  26.277  1.00  0.00     0.169 HD
BRANCH   3   6
HETATM    6  C11 UNL     1     -21.102   7.575  24.244  1.00  0.00     0.385 C 
HETATM    7  N3  UNL     1     -20.715   8.828  23.609  1.00  0.00    -0.046 N 
HETATM    8  C12 UNL     1     -20.451   8.525  22.195  1.00  0.00     0.252 C 
ATOM      9  H32 UNL     1     -21.401   9.573  23.739  1.00  0.00     0.279 HD
ATOM     10  H31 UNL     1     -19.934   9.289  24.074  1.00  0.00     0.279 HD
HETATM   11  C13 UNL     1     -19.262   7.577  22.173  1.00  0.00     0.158 C 
HETATM   12  N4  UNL     1     -19.649   6.380  22.901  1.00  0.00    -0.144 NA
HETATM   13  N5  UNL     1     -19.946   6.687  24.219  1.00  0.00    -0.105 NA
ENDBRANCH   3   6
ENDBRANCH   1   2
BRANCH   1  14
HETATM   14  C3  UNL     1     -23.529   6.826  28.196  1.00  0.00     0.286 C 
HETATM   15  O2  UNL     1     -24.406   7.351  27.465  1.00  0.00    -0.265 OA
HETATM   16  N2  UNL     1     -23.937   6.002  29.272  1.00  0.00    -0.230 N 
ATOM     17  H2  UNL     1     -23.212   5.584  29.856  1.00  0.00     0.184 HD
BRANCH  16  18
HETATM   18  S1  UNL     1     -25.572   5.662  29.657  1.00  0.00     0.211 S 
HETATM   19  O3  UNL     1     -26.244   4.892  28.539  1.00  0.00    -0.578 OA
HETATM   20  O4  UNL     1     -25.603   4.801  30.893  1.00  0.00    -0.578 OA
HETATM   21  O5  UNL     1     -26.494   7.012  29.946  1.00  0.00    -0.578 OA
ENDBRANCH  16  18
ENDBRANCH   1  14
BRANCH   1  22
HETATM   22  C4  UNL     1     -21.102   6.674  28.888  1.00  0.00     0.108 C 
BRANCH  22  23
HETATM   23  O6  UNL     1     -20.362   7.675  29.330  1.00  0.00    -0.357 OA
ATOM     24  H6  UNL     1     -19.822   7.455  30.080  1.00  0.00     0.217 HD
ENDBRANCH  22  23
BRANCH  22  25
HETATM   25  C5  UNL     1     -20.726   5.408  29.449  1.00  0.00    -0.001 A 
HETATM   26  C6  UNL     1     -20.826   4.167  28.863  1.00  0.00     0.014 A 
HETATM   27  C7  UNL     1     -20.489   2.974  29.518  1.00  0.00     0.001 A 
HETATM   28  C8  UNL     1     -20.035   2.996  30.802  1.00  0.00     0.000 A 
HETATM   29  C9  UNL     1     -19.918   4.204  31.419  1.00  0.00     0.001 A 
HETATM   30  C10 UNL     1     -20.251   5.372  30.771  1.00  0.00     0.014 A 
ENDBRANCH  22  25
ENDBRANCH   1  22
TORSDOF 7
ENDMDL
MODEL 5
REMARK VINA RESULT: -7.955049622      1.500      1.674
REMARK  7 active torsions:
REMARK  status: ('A' for Active; 'I' for Inactive)
REMARK       I    between atoms: C1_2  and  N1_3 
REMARK    1  A    between atoms: C1_2  and  C11_23 
REMARK    2  A    between atoms: N1_3  and  C2_5 
REMARK    3  A    between atoms: C2_5  and  C3_6 
REMARK    4  A    between atoms: C2_5  and  C4_14 
REMARK       I    between atoms: C3_6  and  N2_8 
REMARK    5  A    between atoms: N2_8  and  S1_10 
REMARK    6  A    between atoms: C4_14  and  O6_15 
REMARK    7  A    between atoms: C4_14  and  C5_17 
ROOT
HETATM    1  C2  UNL     1     -22.488   5.264  26.983  1.00  0.00     0.138 C 
ENDROOT
BRANCH   1   2
HETATM    2  N1  UNL     1     -22.340   5.526  25.553  1.00  0.00    -0.317 N 
HETATM    3  C1  UNL     1     -21.391   6.420  25.054  1.00  0.00     0.270 C 
HETATM    4  O1  UNL     1     -20.633   7.027  25.850  1.00  0.00    -0.269 OA
ATOM      5  H1  UNL     1     -22.951   5.040  24.897  1.00  0.00     0.169 HD
BRANCH   3   6
HETATM    6  C11 UNL     1     -21.244   6.683  23.608  1.00  0.00     0.385 C 
HETATM    7  N3  UNL     1     -22.493   6.370  22.926  1.00  0.00    -0.046 N 
HETATM    8  C12 UNL     1     -22.234   6.498  21.484  1.00  0.00     0.252 C 
ATOM      9  H32 UNL     1     -22.877   5.462  23.187  1.00  0.00     0.279 HD
ATOM     10  H31 UNL     1     -23.278   6.938  23.245  1.00  0.00     0.279 HD
HETATM   11  C13 UNL     1     -21.893   7.958  21.236  1.00  0.00     0.158 C 
HETATM   12  N4  UNL     1     -20.701   8.262  22.010  1.00  0.00    -0.144 NA
HETATM   13  N5  UNL     1     -20.943   8.089  23.363  1.00  0.00    -0.105 NA
ENDBRANCH   3   6
ENDBRANCH   1   2
BRANCH   1  14
HETATM   14  C3  UNL     1     -23.822   5.443  27.502  1.00  0.00     0.286 C 
HETATM   15  O2  UNL     1     -24.737   5.863  26.750  1.00  0.00    -0.265 OA
HETATM   16  N2  UNL     1     -24.122   5.159  28.855  1.00  0.00    -0.230 N 
ATOM     17  H2  UNL     1     -23.366   4.819  29.451  1.00  0.00     0.184 HD
BRANCH  16  18
HETATM   18  S1  UNL     1     -25.673   5.349  29.557  1.00  0.00     0.211 S 
HETATM   19  O3  UNL     1     -26.719   4.575  28.780  1.00  0.00    -0.578 OA
HETATM   20  O4  UNL     1     -25.636   4.795  30.958  1.00  0.00    -0.578 OA
HETATM   21  O5  UNL     1     -26.190   6.924  29.639  1.00  0.00    -0.578 OA
ENDBRANCH  16  18
ENDBRANCH   1  14
BRANCH   1  22
HETATM   22  C4  UNL     1     -21.657   4.141  27.396  1.00  0.00     0.108 C 
BRANCH  22  23
HETATM   23  O6  UNL     1     -21.496   3.219  26.463  1.00  0.00    -0.357 OA
ATOM     24  H6  UNL     1     -22.272   3.057  25.941  1.00  0.00     0.217 HD
ENDBRANCH  22  23
BRANCH  22  25
HETATM   25  C5  UNL     1     -20.971   3.830  28.617  1.00  0.00    -0.001 A 
HETATM   26  C6  UNL     1     -20.275   2.683  28.920  1.00  0.00     0.014 A 
HETATM   27  C7  UNL     1     -19.688   2.443  30.171  1.00  0.00     0.001 A 
HETATM   28  C8  UNL     1     -19.787   3.365  31.169  1.00  0.00     0.000 A 
HETATM   29  C9  UNL     1     -20.466   4.517  30.910  1.00  0.00     0.001 A 
HETATM   30  C10 UNL     1     -21.040   4.746  29.680  1.00  0.00     0.014 A 
ENDBRANCH  22  25
ENDBRANCH   1  22
TORSDOF 7
ENDMDL
