MODEL 1
REMARK VINA RESULT: -7.877194766      0.000      0.000
REMARK  8 active torsions:
REMARK  status: ('A' for Active; 'I' for Inactive)
REMARK    1  A    between atoms: C2_2  and  C4_4 
REMARK    2  A    between atoms: C4_4  and  N1_5 
REMARK    3  A    between atoms: C4_4  and  C5_9 
REMARK    4  A    between atoms: C5_9  and  O1_10 
REMARK    5  A    between atoms: C5_9  and  N2_12 
REMARK    6  A    between atoms: N2_12  and  C6_14 
REMARK    7  A    between atoms: C8_16  and  N3_17 
REMARK    8  A    between atoms: N3_17  and  S1_19 
REMARK       I    between atoms: N4_25  and  C11_27 
ROOT
HETATM    1  C6  UNL     1     -22.865   8.843  27.181  1.00  0.00     0.158 C 
HETATM    2  C7  UNL     1     -21.805   9.730  27.710  1.00  0.00     0.088 C 
HETATM    3  C8  UNL     1     -20.729   9.912  26.618  1.00  0.00     0.241 C 
HETATM    4  O4  UNL     1     -21.438   9.511  25.458  1.00  0.00    -0.311 OA
HETATM    5  C10 UNL     1     -22.274   8.442  25.848  1.00  0.00     0.145 C 
HETATM    6  N4  UNL     1     -22.518   7.355  25.250  1.00  0.00    -0.312 N 
ATOM      7  H4  UNL     1     -23.158   6.700  25.699  1.00  0.00     0.170 HD
HETATM    8  C11 UNL     1     -21.965   6.984  24.007  1.00  0.00     0.203 C 
HETATM    9  N5  UNL     1     -20.770   6.237  23.951  1.00  0.00    -0.062 NA
HETATM   10  N6  UNL     1     -22.551   7.328  22.931  1.00  0.00    -0.267 N 
ATOM     11  H6  UNL     1     -23.413   7.868  23.004  1.00  0.00     0.180 HD
HETATM   12  C12 UNL     1     -22.088   7.013  21.673  1.00  0.00     0.184 C 
HETATM   13  N7  UNL     1     -21.681   6.738  20.608  1.00  0.00    -0.172 NA
ENDROOT
BRANCH   1  14
HETATM   14  N2  UNL     1     -23.220   7.760  27.976  1.00  0.00    -0.383 N 
ATOM     15  H2  UNL     1     -22.640   7.559  28.791  1.00  0.00     0.156 HD
BRANCH  14  16
HETATM   16  C5  UNL     1     -24.309   6.933  27.737  1.00  0.00     0.245 C 
BRANCH  16  17
HETATM   17  C4  UNL     1     -25.074   6.302  28.825  1.00  0.00     0.234 C 
BRANCH  17  18
HETATM   18  C2  UNL     1     -24.133   5.561  29.807  1.00  0.00     0.012 C 
HETATM   19  C1  UNL     1     -24.961   4.992  30.956  1.00  0.00     0.012 C 
HETATM   20  C3  UNL     1     -23.598   4.376  29.025  1.00  0.00     0.012 C 
ENDBRANCH  17  18
BRANCH  17  21
HETATM   21  N1  UNL     1     -25.864   7.155  29.658  1.00  0.00    -0.071 N 
ATOM     22  H13 UNL     1     -26.184   6.714  30.521  1.00  0.00     0.274 HD
ATOM     23  H12 UNL     1     -25.337   7.907  30.103  1.00  0.00     0.274 HD
ATOM     24  H11 UNL     1     -26.619   7.478  29.053  1.00  0.00     0.274 HD
ENDBRANCH  17  21
ENDBRANCH  16  17
BRANCH  16  25
HETATM   25  O1  UNL     1     -25.268   7.756  27.027  1.00  0.00    -0.375 OA
ATOM     26  H1  UNL     1     -24.930   7.824  26.142  1.00  0.00     0.212 HD
ENDBRANCH  16  25
ENDBRANCH  14  16
ENDBRANCH   1  14
BRANCH   3  27
HETATM   27  N3  UNL     1     -19.662   9.002  26.937  1.00  0.00    -0.292 N 
ATOM     28  H3  UNL     1     -19.749   8.296  27.669  1.00  0.00     0.174 HD
BRANCH  27  29
HETATM   29  S1  UNL     1     -18.248   9.178  26.016  1.00  0.00     0.224 S 
HETATM   30  C9  UNL     1     -17.727  10.896  26.134  1.00  0.00     0.186 C 
HETATM   31  O2  UNL     1     -17.118   8.340  26.540  1.00  0.00    -0.206 OA
HETATM   32  O3  UNL     1     -18.523   8.909  24.582  1.00  0.00    -0.206 OA
ENDBRANCH  27  29
ENDBRANCH   3  27
TORSDOF 8
ENDMDL
MODEL 2
REMARK VINA RESULT: -7.790786717      1.783      2.101
REMARK  8 active torsions:
REMARK  status: ('A' for Active; 'I' for Inactive)
REMARK    1  A    between atoms: C2_2  and  C4_4 
REMARK    2  A    between atoms: C4_4  and  N1_5 
REMARK    3  A    between atoms: C4_4  and  C5_9 
REMARK    4  A    between atoms: C5_9  and  O1_10 
REMARK    5  A    between atoms: C5_9  and  N2_12 
REMARK    6  A    between atoms: N2_12  and  C6_14 
REMARK    7  A    between atoms: C8_16  and  N3_17 
REMARK    8  A    between atoms: N3_17  and  S1_19 
REMARK       I    between atoms: N4_25  and  C11_27 
ROOT
HETATM    1  C6  UNL     1     -24.561   6.997  26.434  1.00  0.00     0.158 C 
HETATM    2  C7  UNL     1     -23.930   7.949  27.375  1.00  0.00     0.088 C 
HETATM    3  C8  UNL     1     -22.665   8.532  26.708  1.00  0.00     0.241 C 
HETATM    4  O4  UNL     1     -22.908   8.233  25.343  1.00  0.00    -0.311 OA
HETATM    5  C10 UNL     1     -23.544   6.973  25.316  1.00  0.00     0.145 C 
HETATM    6  N4  UNL     1     -23.348   5.993  24.541  1.00  0.00    -0.312 N 
ATOM      7  H4  UNL     1     -23.916   5.157  24.680  1.00  0.00     0.170 HD
HETATM    8  C11 UNL     1     -22.399   5.974  23.498  1.00  0.00     0.203 C 
HETATM    9  N5  UNL     1     -21.095   5.486  23.729  1.00  0.00    -0.062 NA
HETATM   10  N6  UNL     1     -22.725   6.400  22.344  1.00  0.00    -0.267 N 
ATOM     11  H6  UNL     1     -23.674   6.747  22.209  1.00  0.00     0.180 HD
HETATM   12  C12 UNL     1     -21.868   6.421  21.266  1.00  0.00     0.184 C 
HETATM   13  N7  UNL     1     -21.127   6.432  20.358  1.00  0.00    -0.172 NA
ENDROOT
BRANCH   1  14
HETATM   14  N2  UNL     1     -24.860   5.737  26.936  1.00  0.00    -0.383 N 
ATOM     15  H2  UNL     1     -25.757   5.324  26.680  1.00  0.00     0.156 HD
BRANCH  14  16
HETATM   16  C5  UNL     1     -24.022   5.001  27.762  1.00  0.00     0.245 C 
BRANCH  16  17
HETATM   17  C4  UNL     1     -24.510   4.314  28.971  1.00  0.00     0.234 C 
BRANCH  17  18
HETATM   18  C2  UNL     1     -23.928   4.963  30.251  1.00  0.00     0.012 C 
HETATM   19  C1  UNL     1     -24.493   4.246  31.473  1.00  0.00     0.012 C 
HETATM   20  C3  UNL     1     -22.442   4.655  30.211  1.00  0.00     0.012 C 
ENDBRANCH  17  18
BRANCH  17  21
HETATM   21  N1  UNL     1     -25.923   4.288  29.191  1.00  0.00    -0.071 N 
ATOM     22  H13 UNL     1     -26.419   5.088  28.801  1.00  0.00     0.274 HD
ATOM     23  H12 UNL     1     -26.415   3.575  28.651  1.00  0.00     0.274 HD
ATOM     24  H11 UNL     1     -26.024   4.188  30.201  1.00  0.00     0.274 HD
ENDBRANCH  17  21
ENDBRANCH  16  17
BRANCH  16  25
HETATM   25  O1  UNL     1     -23.479   3.952  26.923  1.00  0.00    -0.375 OA
ATOM     26  H1  UNL     1     -23.139   3.302  27.527  1.00  0.00     0.212 HD
ENDBRANCH  16  25
ENDBRANCH  14  16
ENDBRANCH   1  14
BRANCH   3  27
HETATM   27  N3  UNL     1     -21.548   7.793  27.230  1.00  0.00    -0.292 N 
ATOM     28  H3  UNL     1     -21.668   6.977  27.830  1.00  0.00     0.174 HD
BRANCH  27  29
HETATM   29  S1  UNL     1     -20.016   8.367  26.782  1.00  0.00     0.224 S 
HETATM   30  C9  UNL     1     -20.061  10.164  26.852  1.00  0.00     0.186 C 
HETATM   31  O2  UNL     1     -18.940   7.918  27.728  1.00  0.00    -0.206 OA
HETATM   32  O3  UNL     1     -19.711   7.998  25.376  1.00  0.00    -0.206 OA
ENDBRANCH  27  29
ENDBRANCH   3  27
TORSDOF 8
ENDMDL
MODEL 3
REMARK VINA RESULT: -7.790233993      2.399      4.159
REMARK  8 active torsions:
REMARK  status: ('A' for Active; 'I' for Inactive)
REMARK    1  A    between atoms: C2_2  and  C4_4 
REMARK    2  A    between atoms: C4_4  and  N1_5 
REMARK    3  A    between atoms: C4_4  and  C5_9 
REMARK    4  A    between atoms: C5_9  and  O1_10 
REMARK    5  A    between atoms: C5_9  and  N2_12 
REMARK    6  A    between atoms: N2_12  and  C6_14 
REMARK    7  A    between atoms: C8_16  and  N3_17 
REMARK    8  A    between atoms: N3_17  and  S1_19 
REMARK       I    between atoms: N4_25  and  C11_27 
ROOT
HETATM    1  C6  UNL     1     -22.306   6.883  26.573  1.00  0.00     0.158 C 
HETATM    2  C7  UNL     1     -22.272   5.954  25.421  1.00  0.00     0.088 C 
HETATM    3  C8  UNL     1     -21.129   6.383  24.478  1.00  0.00     0.241 C 
HETATM    4  O4  UNL     1     -20.350   7.198  25.337  1.00  0.00    -0.311 OA
HETATM    5  C10 UNL     1     -21.259   7.895  26.162  1.00  0.00     0.145 C 
HETATM    6  N4  UNL     1     -21.251   9.108  26.519  1.00  0.00    -0.312 N 
ATOM      7  H4  UNL     1     -22.004   9.429  27.128  1.00  0.00     0.170 HD
HETATM    8  C11 UNL     1     -20.272  10.048  26.136  1.00  0.00     0.203 C 
HETATM    9  N5  UNL     1     -20.461  10.845  24.986  1.00  0.00    -0.062 NA
HETATM   10  N6  UNL     1     -19.215  10.176  26.832  1.00  0.00    -0.267 N 
ATOM     11  H6  UNL     1     -19.108   9.585  27.657  1.00  0.00     0.180 HD
HETATM   12  C12 UNL     1     -18.207  11.066  26.537  1.00  0.00     0.184 C 
HETATM   13  N7  UNL     1     -17.356  11.828  26.272  1.00  0.00    -0.172 NA
ENDROOT
BRANCH   1  14
HETATM   14  N2  UNL     1     -23.536   7.453  26.873  1.00  0.00    -0.383 N 
ATOM     15  H2  UNL     1     -24.099   7.805  26.098  1.00  0.00     0.156 HD
BRANCH  14  16
HETATM   16  C5  UNL     1     -24.053   7.578  28.155  1.00  0.00     0.245 C 
BRANCH  16  17
HETATM   17  C4  UNL     1     -24.921   6.552  28.759  1.00  0.00     0.234 C 
BRANCH  17  18
HETATM   18  C2  UNL     1     -24.096   5.567  29.623  1.00  0.00     0.012 C 
HETATM   19  C1  UNL     1     -24.923   5.158  30.838  1.00  0.00     0.012 C 
HETATM   20  C3  UNL     1     -23.936   4.325  28.765  1.00  0.00     0.012 C 
ENDBRANCH  17  18
BRANCH  17  21
HETATM   21  N1  UNL     1     -25.969   7.000  29.624  1.00  0.00    -0.071 N 
ATOM     22  H13 UNL     1     -26.661   7.592  29.167  1.00  0.00     0.274 HD
ATOM     23  H12 UNL     1     -26.617   6.264  29.907  1.00  0.00     0.274 HD
ATOM     24  H11 UNL     1     -25.485   7.449  30.402  1.00  0.00     0.274 HD
ENDBRANCH  17  21
ENDBRANCH  16  17
BRANCH  16  25
HETATM   25  O1  UNL     1     -22.899   7.659  29.028  1.00  0.00    -0.375 OA
ATOM     26  H1  UNL     1     -22.942   8.525  29.416  1.00  0.00     0.212 HD
ENDBRANCH  16  25
ENDBRANCH  14  16
ENDBRANCH   1  14
BRANCH   3  27
HETATM   27  N3  UNL     1     -21.734   7.143  23.418  1.00  0.00    -0.292 N 
ATOM     28  H3  UNL     1     -22.606   7.657  23.546  1.00  0.00     0.174 HD
BRANCH  27  29
HETATM   29  S1  UNL     1     -20.903   7.129  21.939  1.00  0.00     0.224 S 
HETATM   30  C9  UNL     1     -19.502   8.247  22.086  1.00  0.00     0.186 C 
HETATM   31  O2  UNL     1     -20.350   5.773  21.609  1.00  0.00    -0.206 OA
HETATM   32  O3  UNL     1     -21.765   7.658  20.852  1.00  0.00    -0.206 OA
ENDBRANCH  27  29
ENDBRANCH   3  27
TORSDOF 8
ENDMDL
MODEL 4
REMARK VINA RESULT: -7.597448195      2.750      6.626
REMARK  8 active torsions:
REMARK  status: ('A' for Active; 'I' for Inactive)
REMARK    1  A    between atoms: C2_2  and  C4_4 
REMARK    2  A    between atoms: C4_4  and  N1_5 
REMARK    3  A    between atoms: C4_4  and  C5_9 
REMARK    4  A    between atoms: C5_9  and  O1_10 
REMARK    5  A    between atoms: C5_9  and  N2_12 
REMARK    6  A    between atoms: N2_12  and  C6_14 
REMARK    7  A    between atoms: C8_16  and  N3_17 
REMARK    8  A    between atoms: N3_17  and  S1_19 
REMARK       I    between atoms: N4_25  and  C11_27 
ROOT
HETATM    1  C6  UNL     1     -22.409   8.692  26.266  1.00  0.00     0.158 C 
HETATM    2  C7  UNL     1     -22.095   7.968  25.014  1.00  0.00     0.088 C 
HETATM    3  C8  UNL     1     -22.510   6.491  25.183  1.00  0.00     0.241 C 
HETATM    4  O4  UNL     1     -23.398   6.576  26.286  1.00  0.00    -0.311 OA
HETATM    5  C10 UNL     1     -22.866   7.556  27.153  1.00  0.00     0.145 C 
HETATM    6  N4  UNL     1     -22.769   7.543  28.414  1.00  0.00    -0.312 N 
ATOM      7  H4  UNL     1     -22.351   8.356  28.866  1.00  0.00     0.170 HD
HETATM    8  C11 UNL     1     -23.197   6.482  29.239  1.00  0.00     0.203 C 
HETATM    9  N5  UNL     1     -22.302   5.452  29.599  1.00  0.00    -0.062 NA
HETATM   10  N6  UNL     1     -24.398   6.458  29.659  1.00  0.00    -0.267 N 
ATOM     11  H6  UNL     1     -25.021   7.216  29.381  1.00  0.00     0.180 HD
HETATM   12  C12 UNL     1     -24.906   5.466  30.467  1.00  0.00     0.184 C 
HETATM   13  N7  UNL     1     -25.325   4.613  31.155  1.00  0.00    -0.172 NA
ENDROOT
BRANCH   1  14
HETATM   14  N2  UNL     1     -21.383   9.446  26.819  1.00  0.00    -0.383 N 
ATOM     15  H2  UNL     1     -21.639  10.222  27.429  1.00  0.00     0.156 HD
BRANCH  14  16
HETATM   16  C5  UNL     1     -20.032   9.217  26.598  1.00  0.00     0.245 C 
BRANCH  16  17
HETATM   17  C4  UNL     1     -19.046  10.309  26.533  1.00  0.00     0.234 C 
BRANCH  17  18
HETATM   18  C2  UNL     1     -18.614  10.579  25.070  1.00  0.00     0.012 C 
HETATM   19  C1  UNL     1     -18.700   9.278  24.278  1.00  0.00     0.012 C 
HETATM   20  C3  UNL     1     -19.678  11.504  24.508  1.00  0.00     0.012 C 
ENDBRANCH  17  18
BRANCH  17  21
HETATM   21  N1  UNL     1     -19.444  11.589  27.033  1.00  0.00    -0.071 N 
ATOM     22  H13 UNL     1     -18.820  12.351  26.769  1.00  0.00     0.274 HD
ATOM     23  H12 UNL     1     -20.281  11.967  26.589  1.00  0.00     0.274 HD
ATOM     24  H11 UNL     1     -19.533  11.455  28.041  1.00  0.00     0.274 HD
ENDBRANCH  17  21
ENDBRANCH  16  17
BRANCH  16  25
HETATM   25  O1  UNL     1     -19.599   8.381  27.701  1.00  0.00    -0.375 OA
ATOM     26  H1  UNL     1     -20.377   8.243  28.228  1.00  0.00     0.212 HD
ENDBRANCH  16  25
ENDBRANCH  14  16
ENDBRANCH   1  14
BRANCH   3  27
HETATM   27  N3  UNL     1     -21.315   5.763  25.511  1.00  0.00    -0.292 N 
ATOM     28  H3  UNL     1     -20.494   6.217  25.912  1.00  0.00     0.174 HD
BRANCH  27  29
HETATM   29  S1  UNL     1     -21.357   4.099  25.185  1.00  0.00     0.224 S 
HETATM   30  C9  UNL     1     -21.690   3.245  26.732  1.00  0.00     0.186 C 
HETATM   31  O2  UNL     1     -22.461   3.732  24.235  1.00  0.00    -0.206 OA
HETATM   32  O3  UNL     1     -20.033   3.627  24.708  1.00  0.00    -0.206 OA
ENDBRANCH  27  29
ENDBRANCH   3  27
TORSDOF 8
ENDMDL
MODEL 5
REMARK VINA RESULT: -7.596117777      2.851      4.662
REMARK  8 active torsions:
REMARK  status: ('A' for Active; 'I' for Inactive)
REMARK    1  A    between atoms: C2_2  and  C4_4 
REMARK    2  A    between atoms: C4_4  and  N1_5 
REMARK    3  A    between atoms: C4_4  and  C5_9 
REMARK    4  A    between atoms: C5_9  and  O1_10 
REMARK    5  A    between atoms: C5_9  and  N2_12 
REMARK    6  A    between atoms: N2_12  and  C6_14 
REMARK    7  A    between atoms: C8_16  and  N3_17 
REMARK    8  A    between atoms: N3_17  and  S1_19 
REMARK       I    between atoms: N4_25  and  C11_27 
ROOT
HETATM    1  C6  UNL     1     -21.896   5.108  25.730  1.00  0.00     0.158 C 
HETATM    2  C7  UNL     1     -22.141   4.722  24.323  1.00  0.00     0.088 C 
HETATM    3  C8  UNL     1     -21.446   5.748  23.404  1.00  0.00     0.241 C 
HETATM    4  O4  UNL     1     -20.526   6.348  24.301  1.00  0.00    -0.311 OA
HETATM    5  C10 UNL     1     -21.180   6.429  25.550  1.00  0.00     0.145 C 
HETATM    6  N4  UNL     1     -21.198   7.377  26.386  1.00  0.00    -0.312 N 
ATOM      7  H4  UNL     1     -21.734   7.244  27.243  1.00  0.00     0.170 HD
HETATM    8  C11 UNL     1     -20.529   8.607  26.215  1.00  0.00     0.203 C 
HETATM    9  N5  UNL     1     -21.190   9.703  25.621  1.00  0.00    -0.062 NA
HETATM   10  N6  UNL     1     -19.322   8.725  26.601  1.00  0.00    -0.267 N 
ATOM     11  H6  UNL     1     -18.871   7.915  27.027  1.00  0.00     0.180 HD
HETATM   12  C12 UNL     1     -18.589   9.883  26.477  1.00  0.00     0.184 C 
HETATM   13  N7  UNL     1     -17.976  10.877  26.363  1.00  0.00    -0.172 NA
ENDROOT
BRANCH   1  14
HETATM   14  N2  UNL     1     -23.011   5.193  26.553  1.00  0.00    -0.383 N 
ATOM     15  H2  UNL     1     -23.680   5.941  26.371  1.00  0.00     0.156 HD
BRANCH  14  16
HETATM   16  C5  UNL     1     -23.278   4.330  27.606  1.00  0.00     0.245 C 
BRANCH  16  17
HETATM   17  C4  UNL     1     -24.366   4.572  28.569  1.00  0.00     0.234 C 
BRANCH  17  18
HETATM   18  C2  UNL     1     -23.806   5.077  29.922  1.00  0.00     0.012 C 
HETATM   19  C1  UNL     1     -24.521   4.352  31.058  1.00  0.00     0.012 C 
HETATM   20  C3  UNL     1     -22.361   4.614  29.950  1.00  0.00     0.012 C 
ENDBRANCH  17  18
BRANCH  17  21
HETATM   21  N1  UNL     1     -25.363   5.533  28.212  1.00  0.00    -0.071 N 
ATOM     22  H13 UNL     1     -26.310   5.156  28.179  1.00  0.00     0.274 HD
ATOM     23  H12 UNL     1     -25.543   6.233  28.931  1.00  0.00     0.274 HD
ATOM     24  H11 UNL     1     -25.040   5.921  27.326  1.00  0.00     0.274 HD
ENDBRANCH  17  21
ENDBRANCH  16  17
BRANCH  16  25
HETATM   25  O1  UNL     1     -23.596   3.057  26.989  1.00  0.00    -0.375 OA
ATOM     26  H1  UNL     1     -22.783   2.762  26.595  1.00  0.00     0.212 HD
ENDBRANCH  16  25
ENDBRANCH  14  16
ENDBRANCH   1  14
BRANCH   3  27
HETATM   27  N3  UNL     1     -22.461   6.673  22.977  1.00  0.00    -0.292 N 
ATOM     28  H3  UNL     1     -23.251   6.925  23.571  1.00  0.00     0.174 HD
BRANCH  27  29
HETATM   29  S1  UNL     1     -22.259   7.316  21.420  1.00  0.00     0.224 S 
HETATM   30  C9  UNL     1     -21.167   8.739  21.551  1.00  0.00     0.186 C 
HETATM   31  O2  UNL     1     -21.603   6.344  20.482  1.00  0.00    -0.206 OA
HETATM   32  O3  UNL     1     -23.554   7.813  20.890  1.00  0.00    -0.206 OA
ENDBRANCH  27  29
ENDBRANCH   3  27
TORSDOF 8
ENDMDL
