MODEL 1
REMARK VINA RESULT: -7.694432887      0.000      0.000
REMARK  9 active torsions:
REMARK  status: ('A' for Active; 'I' for Inactive)
REMARK    1  A    between atoms: C7_8  and  C8_9 
REMARK    2  A    between atoms: C8_9  and  N1_10 
REMARK    3  A    between atoms: C8_9  and  C14_29 
REMARK       I    between atoms: N1_10  and  C9_12 
REMARK    4  A    between atoms: C9_12  and  C10_14 
REMARK       I    between atoms: C10_14  and  N2_16 
REMARK    5  A    between atoms: N2_16  and  C11_18 
REMARK    6  A    between atoms: C11_18  and  C12_19 
REMARK    7  A    between atoms: C11_18  and  C13_22 
REMARK    8  A    between atoms: C13_22  and  N4_23 
REMARK    9  A    between atoms: C13_22  and  O5_27 
ROOT
HETATM    1  N1  UNL     1     -21.506   5.395  24.574  1.00  0.00    -0.336 N 
ATOM      2  H1  UNL     1     -22.197   4.810  24.105  1.00  0.00     0.164 HD
HETATM    3  C9  UNL     1     -21.667   5.603  25.944  1.00  0.00     0.310 C 
HETATM    4  O2  UNL     1     -20.855   6.310  26.576  1.00  0.00    -0.262 OA
ENDROOT
BRANCH   3   5
HETATM    5  C10 UNL     1     -22.768   5.012  26.670  1.00  0.00     0.310 C 
HETATM    6  O3  UNL     1     -23.471   4.127  26.114  1.00  0.00    -0.262 OA
HETATM    7  N2  UNL     1     -23.094   5.387  27.986  1.00  0.00    -0.336 N 
ATOM      8  H2  UNL     1     -22.534   6.103  28.450  1.00  0.00     0.164 HD
BRANCH   7   9
HETATM    9  C11 UNL     1     -24.202   4.786  28.704  1.00  0.00     0.230 C 
BRANCH   9  10
HETATM   10  C12 UNL     1     -23.821   4.538  30.094  1.00  0.00     0.258 C 
HETATM   11  N3  UNL     1     -24.768   4.210  31.096  1.00  0.00    -0.060 NA
HETATM   12  O4  UNL     1     -22.615   4.611  30.437  1.00  0.00    -0.274 OA
ENDBRANCH   9  10
BRANCH   9  13
HETATM   13  C13 UNL     1     -25.427   5.661  28.571  1.00  0.00     0.348 C 
BRANCH  13  14
HETATM   14  N4  UNL     1     -25.289   6.909  29.278  1.00  0.00    -0.051 N 
ATOM     15  H43 UNL     1     -24.781   6.781  30.152  1.00  0.00     0.277 HD
ATOM     16  H42 UNL     1     -24.640   7.532  28.800  1.00  0.00     0.277 HD
ATOM     17  H41 UNL     1     -26.187   7.365  29.437  1.00  0.00     0.277 HD
ENDBRANCH  13  14
BRANCH  13  18
HETATM   18  O5  UNL     1     -26.578   5.043  28.995  1.00  0.00    -0.368 OA
ATOM     19  H5  UNL     1     -27.358   5.377  28.569  1.00  0.00     0.212 HD
ENDBRANCH  13  18
ENDBRANCH   9  13
ENDBRANCH   7   9
ENDBRANCH   3   5
BRANCH   1  20
HETATM   20  C8  UNL     1     -20.442   5.942  23.767  1.00  0.00     0.215 C 
BRANCH  20  21
HETATM   21  C7  UNL     1     -20.872   7.135  22.955  1.00  0.00     0.158 C 
HETATM   22  C6  UNL     1     -22.379   7.277  22.906  1.00  0.00     0.037 C 
HETATM   23  C5  UNL     1     -22.805   7.697  21.502  1.00  0.00     0.029 C 
HETATM   24  C4  UNL     1     -22.086   8.961  21.077  1.00  0.00     0.171 C 
HETATM   25  O1  UNL     1     -20.720   8.835  21.160  1.00  0.00    -0.356 OA
HETATM   26  C2  UNL     1     -20.177   9.246  22.357  1.00  0.00     0.157 C 
HETATM   27  C1  UNL     1     -20.783  10.572  22.781  1.00  0.00     0.078 C 
HETATM   28  C3  UNL     1     -18.690   9.504  22.107  1.00  0.00     0.078 C 
HETATM   29  O8  UNL     1     -20.268   8.309  23.357  1.00  0.00    -0.348 OA
ENDBRANCH  20  21
BRANCH  20  30
HETATM   30  C14 UNL     1     -19.857   4.930  22.852  1.00  0.00     0.199 C 
HETATM   31  O6  UNL     1     -19.924   3.689  23.053  1.00  0.00    -0.646 OA
HETATM   32  O7  UNL     1     -19.200   5.359  21.713  1.00  0.00    -0.646 OA
ENDBRANCH  20  30
ENDBRANCH   1  20
TORSDOF 9
ENDMDL
MODEL 2
REMARK VINA RESULT: -7.644820253      1.537      2.441
REMARK  9 active torsions:
REMARK  status: ('A' for Active; 'I' for Inactive)
REMARK    1  A    between atoms: C7_8  and  C8_9 
REMARK    2  A    between atoms: C8_9  and  N1_10 
REMARK    3  A    between atoms: C8_9  and  C14_29 
REMARK       I    between atoms: N1_10  and  C9_12 
REMARK    4  A    between atoms: C9_12  and  C10_14 
REMARK       I    between atoms: C10_14  and  N2_16 
REMARK    5  A    between atoms: N2_16  and  C11_18 
REMARK    6  A    between atoms: C11_18  and  C12_19 
REMARK    7  A    between atoms: C11_18  and  C13_22 
REMARK    8  A    between atoms: C13_22  and  N4_23 
REMARK    9  A    between atoms: C13_22  and  O5_27 
ROOT
HETATM    1  N1  UNL     1     -21.869   5.782  26.231  1.00  0.00    -0.336 N 
ATOM      2  H1  UNL     1     -22.823   5.437  26.129  1.00  0.00     0.164 HD
HETATM    3  C9  UNL     1     -21.524   6.359  27.453  1.00  0.00     0.310 C 
HETATM    4  O2  UNL     1     -20.371   6.801  27.641  1.00  0.00    -0.262 OA
ENDROOT
BRANCH   3   5
HETATM    5  C10 UNL     1     -22.479   6.464  28.532  1.00  0.00     0.310 C 
HETATM    6  O3  UNL     1     -22.668   7.581  29.083  1.00  0.00    -0.262 OA
HETATM    7  N2  UNL     1     -23.213   5.360  29.002  1.00  0.00    -0.336 N 
ATOM      8  H2  UNL     1     -23.070   4.449  28.567  1.00  0.00     0.164 HD
BRANCH   7   9
HETATM    9  C11 UNL     1     -24.169   5.479  30.087  1.00  0.00     0.230 C 
BRANCH   9  10
HETATM   10  C12 UNL     1     -25.523   5.610  29.549  1.00  0.00     0.258 C 
HETATM   11  N3  UNL     1     -26.270   4.497  29.088  1.00  0.00    -0.060 NA
HETATM   12  O4  UNL     1     -26.065   6.741  29.485  1.00  0.00    -0.274 OA
ENDBRANCH   9  10
BRANCH   9  13
HETATM   13  C13 UNL     1     -24.014   4.309  31.030  1.00  0.00     0.348 C 
BRANCH  13  14
HETATM   14  N4  UNL     1     -24.979   4.336  32.100  1.00  0.00    -0.051 N 
ATOM     15  H43 UNL     1     -25.154   3.398  32.460  1.00  0.00     0.277 HD
ATOM     16  H42 UNL     1     -24.586   4.763  32.938  1.00  0.00     0.277 HD
ATOM     17  H41 UNL     1     -25.849   4.794  31.827  1.00  0.00     0.277 HD
ENDBRANCH  13  14
BRANCH  13  18
HETATM   18  O5  UNL     1     -22.758   4.220  31.577  1.00  0.00    -0.368 OA
ATOM     19  H5  UNL     1     -22.478   3.325  31.724  1.00  0.00     0.212 HD
ENDBRANCH  13  18
ENDBRANCH   9  13
ENDBRANCH   7   9
ENDBRANCH   3   5
BRANCH   1  20
HETATM   20  C8  UNL     1     -20.986   5.634  25.099  1.00  0.00     0.215 C 
BRANCH  20  21
HETATM   21  C7  UNL     1     -21.059   6.792  24.140  1.00  0.00     0.158 C 
HETATM   22  C6  UNL     1     -22.482   7.100  23.725  1.00  0.00     0.037 C 
HETATM   23  C5  UNL     1     -22.518   7.440  22.238  1.00  0.00     0.029 C 
HETATM   24  C4  UNL     1     -21.561   8.573  21.923  1.00  0.00     0.171 C 
HETATM   25  O1  UNL     1     -20.279   8.300  22.335  1.00  0.00    -0.356 OA
HETATM   26  C2  UNL     1     -19.976   8.750  23.601  1.00  0.00     0.157 C 
HETATM   27  C1  UNL     1     -20.483  10.168  23.790  1.00  0.00     0.078 C 
HETATM   28  C3  UNL     1     -18.450   8.815  23.697  1.00  0.00     0.078 C 
HETATM   29  O8  UNL     1     -20.414   7.921  24.604  1.00  0.00    -0.348 OA
ENDBRANCH  20  21
BRANCH  20  30
HETATM   30  C14 UNL     1     -21.242   4.379  24.349  1.00  0.00     0.199 C 
HETATM   31  O6  UNL     1     -20.443   3.898  23.503  1.00  0.00    -0.646 OA
HETATM   32  O7  UNL     1     -22.418   3.689  24.583  1.00  0.00    -0.646 OA
ENDBRANCH  20  30
ENDBRANCH   1  20
TORSDOF 9
ENDMDL
MODEL 3
REMARK VINA RESULT: -7.630815475      1.774      2.495
REMARK  9 active torsions:
REMARK  status: ('A' for Active; 'I' for Inactive)
REMARK    1  A    between atoms: C7_8  and  C8_9 
REMARK    2  A    between atoms: C8_9  and  N1_10 
REMARK    3  A    between atoms: C8_9  and  C14_29 
REMARK       I    between atoms: N1_10  and  C9_12 
REMARK    4  A    between atoms: C9_12  and  C10_14 
REMARK       I    between atoms: C10_14  and  N2_16 
REMARK    5  A    between atoms: N2_16  and  C11_18 
REMARK    6  A    between atoms: C11_18  and  C12_19 
REMARK    7  A    between atoms: C11_18  and  C13_22 
REMARK    8  A    between atoms: C13_22  and  N4_23 
REMARK    9  A    between atoms: C13_22  and  O5_27 
ROOT
HETATM    1  N1  UNL     1     -21.975   6.456  25.259  1.00  0.00    -0.336 N 
ATOM      2  H1  UNL     1     -22.810   6.963  25.550  1.00  0.00     0.164 HD
HETATM    3  C9  UNL     1     -21.776   5.186  25.801  1.00  0.00     0.310 C 
HETATM    4  O2  UNL     1     -20.772   4.513  25.484  1.00  0.00    -0.262 OA
ENDROOT
BRANCH   3   5
HETATM    5  C10 UNL     1     -22.715   4.611  26.736  1.00  0.00     0.310 C 
HETATM    6  O3  UNL     1     -23.400   3.612  26.389  1.00  0.00    -0.262 OA
HETATM    7  N2  UNL     1     -22.903   5.124  28.032  1.00  0.00    -0.336 N 
ATOM      8  H2  UNL     1     -22.357   5.934  28.327  1.00  0.00     0.164 HD
BRANCH   7   9
HETATM    9  C11 UNL     1     -23.850   4.538  28.961  1.00  0.00     0.230 C 
BRANCH   9  10
HETATM   10  C12 UNL     1     -23.256   4.455  30.295  1.00  0.00     0.258 C 
HETATM   11  N3  UNL     1     -24.016   4.140  31.449  1.00  0.00    -0.060 NA
HETATM   12  O4  UNL     1     -22.027   4.666  30.448  1.00  0.00    -0.274 OA
ENDBRANCH   9  10
BRANCH   9  13
HETATM   13  C13 UNL     1     -25.141   5.323  28.933  1.00  0.00     0.348 C 
BRANCH  13  14
HETATM   14  N4  UNL     1     -25.119   6.446  29.835  1.00  0.00    -0.051 N 
ATOM     15  H43 UNL     1     -25.805   6.331  30.581  1.00  0.00     0.277 HD
ATOM     16  H42 UNL     1     -24.267   6.451  30.396  1.00  0.00     0.277 HD
ATOM     17  H41 UNL     1     -25.247   7.335  29.352  1.00  0.00     0.277 HD
ENDBRANCH  13  14
BRANCH  13  18
HETATM   18  O5  UNL     1     -26.244   4.556  29.217  1.00  0.00    -0.368 OA
ATOM     19  H5  UNL     1     -27.058   5.043  29.175  1.00  0.00     0.212 HD
ENDBRANCH  13  18
ENDBRANCH   9  13
ENDBRANCH   7   9
ENDBRANCH   3   5
BRANCH   1  20
HETATM   20  C8  UNL     1     -21.094   7.110  24.321  1.00  0.00     0.215 C 
BRANCH  20  21
HETATM   21  C7  UNL     1     -20.860   8.561  24.648  1.00  0.00     0.158 C 
HETATM   22  C6  UNL     1     -20.417   8.758  26.082  1.00  0.00     0.037 C 
HETATM   23  C5  UNL     1     -21.099   9.995  26.661  1.00  0.00     0.029 C 
HETATM   24  C4  UNL     1     -20.831  11.210  25.796  1.00  0.00     0.171 C 
HETATM   25  O1  UNL     1     -21.202  11.010  24.489  1.00  0.00    -0.356 OA
HETATM   26  C2  UNL     1     -20.197  10.538  23.673  1.00  0.00     0.157 C 
HETATM   27  C1  UNL     1     -18.913  11.306  23.924  1.00  0.00     0.078 C 
HETATM   28  C3  UNL     1     -20.615  10.841  22.232  1.00  0.00     0.078 C 
HETATM   29  O8  UNL     1     -20.000   9.182  23.765  1.00  0.00    -0.348 OA
ENDBRANCH  20  21
BRANCH  20  30
HETATM   30  C14 UNL     1     -21.590   7.011  22.925  1.00  0.00     0.199 C 
HETATM   31  O6  UNL     1     -22.649   7.559  22.523  1.00  0.00    -0.646 OA
HETATM   32  O7  UNL     1     -20.859   6.280  22.007  1.00  0.00    -0.646 OA
ENDBRANCH  20  30
ENDBRANCH   1  20
TORSDOF 9
ENDMDL
MODEL 4
REMARK VINA RESULT: -7.565256979      1.896      2.327
REMARK  9 active torsions:
REMARK  status: ('A' for Active; 'I' for Inactive)
REMARK    1  A    between atoms: C7_8  and  C8_9 
REMARK    2  A    between atoms: C8_9  and  N1_10 
REMARK    3  A    between atoms: C8_9  and  C14_29 
REMARK       I    between atoms: N1_10  and  C9_12 
REMARK    4  A    between atoms: C9_12  and  C10_14 
REMARK       I    between atoms: C10_14  and  N2_16 
REMARK    5  A    between atoms: N2_16  and  C11_18 
REMARK    6  A    between atoms: C11_18  and  C12_19 
REMARK    7  A    between atoms: C11_18  and  C13_22 
REMARK    8  A    between atoms: C13_22  and  N4_23 
REMARK    9  A    between atoms: C13_22  and  O5_27 
ROOT
HETATM    1  N1  UNL     1     -21.924   7.203  25.987  1.00  0.00    -0.336 N 
ATOM      2  H1  UNL     1     -21.840   6.249  25.637  1.00  0.00     0.164 HD
HETATM    3  C9  UNL     1     -22.801   7.420  27.050  1.00  0.00     0.310 C 
HETATM    4  O2  UNL     1     -22.949   8.566  27.523  1.00  0.00    -0.262 OA
ENDROOT
BRANCH   3   5
HETATM    5  C10 UNL     1     -23.559   6.337  27.633  1.00  0.00     0.310 C 
HETATM    6  O3  UNL     1     -24.209   5.562  26.881  1.00  0.00    -0.262 OA
HETATM    7  N2  UNL     1     -23.605   6.107  29.020  1.00  0.00    -0.336 N 
ATOM      8  H2  UNL     1     -23.085   6.725  29.642  1.00  0.00     0.164 HD
BRANCH   7   9
HETATM    9  C11 UNL     1     -24.371   5.016  29.592  1.00  0.00     0.230 C 
BRANCH   9  10
HETATM   10  C12 UNL     1     -23.688   4.493  30.775  1.00  0.00     0.258 C 
HETATM   11  N3  UNL     1     -24.388   4.051  31.925  1.00  0.00    -0.060 NA
HETATM   12  O4  UNL     1     -22.434   4.422  30.795  1.00  0.00    -0.274 OA
ENDBRANCH   9  10
BRANCH   9  13
HETATM   13  C13 UNL     1     -25.780   5.479  29.876  1.00  0.00     0.348 C 
BRANCH  13  14
HETATM   14  N4  UNL     1     -26.722   5.007  28.893  1.00  0.00    -0.051 N 
ATOM     15  H43 UNL     1     -26.292   4.321  28.273  1.00  0.00     0.277 HD
ATOM     16  H42 UNL     1     -27.435   4.416  29.321  1.00  0.00     0.277 HD
ATOM     17  H41 UNL     1     -27.144   5.768  28.363  1.00  0.00     0.277 HD
ENDBRANCH  13  14
BRANCH  13  18
HETATM   18  O5  UNL     1     -25.891   6.845  29.966  1.00  0.00    -0.368 OA
ATOM     19  H5  UNL     1     -25.672   7.181  30.827  1.00  0.00     0.212 HD
ENDBRANCH  13  18
ENDBRANCH   9  13
ENDBRANCH   7   9
ENDBRANCH   3   5
BRANCH   1  20
HETATM   20  C8  UNL     1     -21.128   8.219  25.341  1.00  0.00     0.215 C 
BRANCH  20  21
HETATM   21  C7  UNL     1     -21.192   8.151  23.838  1.00  0.00     0.158 C 
HETATM   22  C6  UNL     1     -22.387   7.357  23.354  1.00  0.00     0.037 C 
HETATM   23  C5  UNL     1     -21.978   6.497  22.162  1.00  0.00     0.029 C 
HETATM   24  C4  UNL     1     -21.363   7.349  21.070  1.00  0.00     0.171 C 
HETATM   25  O1  UNL     1     -20.303   8.093  21.527  1.00  0.00    -0.356 OA
HETATM   26  C2  UNL     1     -20.634   9.358  21.960  1.00  0.00     0.157 C 
HETATM   27  C1  UNL     1     -21.578  10.021  20.974  1.00  0.00     0.078 C 
HETATM   28  C3  UNL     1     -19.345  10.183  21.953  1.00  0.00     0.078 C 
HETATM   29  O8  UNL     1     -21.135   9.393  23.238  1.00  0.00    -0.348 OA
ENDBRANCH  20  21
BRANCH  20  30
HETATM   30  C14 UNL     1     -19.704   8.164  25.759  1.00  0.00     0.199 C 
HETATM   31  O6  UNL     1     -19.331   8.187  26.961  1.00  0.00    -0.646 OA
HETATM   32  O7  UNL     1     -18.724   8.084  24.786  1.00  0.00    -0.646 OA
ENDBRANCH  20  30
ENDBRANCH   1  20
TORSDOF 9
ENDMDL
MODEL 5
REMARK VINA RESULT: -7.556395667      1.885      2.501
REMARK  9 active torsions:
REMARK  status: ('A' for Active; 'I' for Inactive)
REMARK    1  A    between atoms: C7_8  and  C8_9 
REMARK    2  A    between atoms: C8_9  and  N1_10 
REMARK    3  A    between atoms: C8_9  and  C14_29 
REMARK       I    between atoms: N1_10  and  C9_12 
REMARK    4  A    between atoms: C9_12  and  C10_14 
REMARK       I    between atoms: C10_14  and  N2_16 
REMARK    5  A    between atoms: N2_16  and  C11_18 
REMARK    6  A    between atoms: C11_18  and  C12_19 
REMARK    7  A    between atoms: C11_18  and  C13_22 
REMARK    8  A    between atoms: C13_22  and  N4_23 
REMARK    9  A    between atoms: C13_22  and  O5_27 
ROOT
HETATM    1  N1  UNL     1     -21.821   6.253  23.617  1.00  0.00    -0.336 N 
ATOM      2  H1  UNL     1     -22.690   6.785  23.608  1.00  0.00     0.164 HD
HETATM    3  C9  UNL     1     -21.596   5.413  24.707  1.00  0.00     0.310 C 
HETATM    4  O2  UNL     1     -20.549   4.735  24.778  1.00  0.00    -0.262 OA
ENDROOT
BRANCH   3   5
HETATM    5  C10 UNL     1     -22.556   5.299  25.781  1.00  0.00     0.310 C 
HETATM    6  O3  UNL     1     -23.390   4.355  25.767  1.00  0.00    -0.262 OA
HETATM    7  N2  UNL     1     -22.604   6.208  26.853  1.00  0.00    -0.336 N 
ATOM      8  H2  UNL     1     -21.936   6.979  26.878  1.00  0.00     0.164 HD
BRANCH   7   9
HETATM    9  C11 UNL     1     -23.573   6.083  27.924  1.00  0.00     0.230 C 
BRANCH   9  10
HETATM   10  C12 UNL     1     -22.896   5.744  29.175  1.00  0.00     0.258 C 
HETATM   11  N3  UNL     1     -21.570   6.155  29.459  1.00  0.00    -0.060 NA
HETATM   12  O4  UNL     1     -23.493   5.063  30.046  1.00  0.00    -0.274 OA
ENDBRANCH   9  10
BRANCH   9  13
HETATM   13  C13 UNL     1     -24.393   7.349  28.017  1.00  0.00     0.348 C 
BRANCH  13  14
HETATM   14  N4  UNL     1     -23.584   8.508  28.297  1.00  0.00    -0.051 N 
ATOM     15  H43 UNL     1     -24.045   9.125  28.965  1.00  0.00     0.277 HD
ATOM     16  H42 UNL     1     -22.761   8.257  28.845  1.00  0.00     0.277 HD
ATOM     17  H41 UNL     1     -23.322   9.012  27.450  1.00  0.00     0.277 HD
ENDBRANCH  13  14
BRANCH  13  18
HETATM   18  O5  UNL     1     -25.391   7.276  28.958  1.00  0.00    -0.368 OA
ATOM     19  H5  UNL     1     -25.147   7.660  29.791  1.00  0.00     0.212 HD
ENDBRANCH  13  18
ENDBRANCH   9  13
ENDBRANCH   7   9
ENDBRANCH   3   5
BRANCH   1  20
HETATM   20  C8  UNL     1     -20.923   6.431  22.501  1.00  0.00     0.215 C 
BRANCH  20  21
HETATM   21  C7  UNL     1     -20.076   7.671  22.619  1.00  0.00     0.158 C 
HETATM   22  C6  UNL     1     -20.912   8.912  22.849  1.00  0.00     0.037 C 
HETATM   23  C5  UNL     1     -20.339  10.070  22.035  1.00  0.00     0.029 C 
HETATM   24  C4  UNL     1     -18.875  10.284  22.363  1.00  0.00     0.171 C 
HETATM   25  O1  UNL     1     -18.131   9.142  22.187  1.00  0.00    -0.356 OA
HETATM   26  C2  UNL     1     -17.995   8.366  23.317  1.00  0.00     0.157 C 
HETATM   27  C1  UNL     1     -17.667   9.235  24.516  1.00  0.00     0.078 C 
HETATM   28  C3  UNL     1     -16.785   7.457  23.090  1.00  0.00     0.078 C 
HETATM   29  O8  UNL     1     -19.076   7.555  23.564  1.00  0.00    -0.348 OA
ENDBRANCH  20  21
BRANCH  20  30
HETATM   30  C14 UNL     1     -21.642   6.469  21.204  1.00  0.00     0.199 C 
HETATM   31  O6  UNL     1     -22.887   6.628  21.103  1.00  0.00    -0.646 OA
HETATM   32  O7  UNL     1     -20.919   6.322  20.034  1.00  0.00    -0.646 OA
ENDBRANCH  20  30
ENDBRANCH   1  20
TORSDOF 9
ENDMDL
