MODEL 1
REMARK VINA RESULT: -6.966153276      0.000      0.000
REMARK  12 active torsions:
REMARK  status: ('A' for Active; 'I' for Inactive)
REMARK    1  A    between atoms: N1_1  and  C1_5 
REMARK    2  A    between atoms: C1_5  and  C2_6 
REMARK    3  A    between atoms: C2_6  and  N2_7 
REMARK    4  A    between atoms: C2_6  and  C3_11 
REMARK       I    between atoms: C3_11  and  N3_13 
REMARK    5  A    between atoms: N4_16  and  C6_17 
REMARK    6  A    between atoms: N5_19  and  O2_21 
REMARK    7  A    between atoms: O2_21  and  C7_22 
REMARK    8  A    between atoms: C7_22  and  C8_23 
REMARK    9  A    between atoms: C8_23  and  N6_24 
REMARK   10  A    between atoms: N6_24  and  C9_26 
REMARK   11  A    between atoms: C9_26  and  N7_28 
REMARK   12  A    between atoms: N7_28  and  N8_30 
ROOT
HETATM    1  C3  UNL     1     -23.840   6.106  28.128  1.00  0.00     0.252 C 
HETATM    2  O1  UNL     1     -24.188   5.155  27.327  1.00  0.00    -0.271 OA
HETATM    3  N3  UNL     1     -22.842   6.977  27.688  1.00  0.00    -0.347 N 
HETATM    4  C4  UNL     1     -22.290   6.722  26.331  1.00  0.00     0.145 C 
HETATM    5  C5  UNL     1     -22.285   8.071  25.603  1.00  0.00     0.145 C 
HETATM    6  N4  UNL     1     -21.328   8.946  26.300  1.00  0.00    -0.357 N 
HETATM    7  C10 UNL     1     -21.099   8.727  27.688  1.00  0.00     0.145 C 
HETATM    8  C11 UNL     1     -22.281   8.099  28.399  1.00  0.00     0.145 C 
ENDROOT
BRANCH   6   9
HETATM    9  C6  UNL     1     -20.695   9.948  25.534  1.00  0.00     0.173 C 
HETATM   10  S1  UNL     1     -19.738  11.204  26.343  1.00  0.00    -0.011 SA
HETATM   11  N5  UNL     1     -20.805   9.960  24.270  1.00  0.00    -0.244 N 
ATOM     12  H5  UNL     1     -21.364   9.226  23.836  1.00  0.00     0.196 HD
BRANCH  11  13
HETATM   13  O2  UNL     1     -20.225  10.892  23.447  1.00  0.00    -0.277 OA
BRANCH  13  14
HETATM   14  C7  UNL     1     -20.797  11.194  22.228  1.00  0.00     0.220 C 
BRANCH  14  15
HETATM   15  C8  UNL     1     -20.777  10.163  21.167  1.00  0.00     0.151 C 
BRANCH  15  16
HETATM   16  N6  UNL     1     -21.972   9.444  20.902  1.00  0.00    -0.364 N 
ATOM     17  H6  UNL     1     -22.721   9.988  20.473  1.00  0.00     0.162 HD
BRANCH  16  18
HETATM   18  C9  UNL     1     -22.274   8.098  21.143  1.00  0.00     0.186 C 
HETATM   19  S2  UNL     1     -21.121   6.967  21.205  1.00  0.00    -0.040 SA
BRANCH  18  20
HETATM   20  N7  UNL     1     -23.615   7.701  21.368  1.00  0.00    -0.283 N 
ATOM     21  H7  UNL     1     -23.795   6.857  21.912  1.00  0.00     0.188 HD
BRANCH  20  22
HETATM   22  N8  UNL     1     -24.697   8.426  20.871  1.00  0.00    -0.343 N 
ATOM     23  H82 UNL     1     -24.700   8.659  19.878  1.00  0.00     0.176 HD
ATOM     24  H81 UNL     1     -25.471   8.724  21.466  1.00  0.00     0.176 HD
ENDBRANCH  20  22
ENDBRANCH  18  20
ENDBRANCH  16  18
ENDBRANCH  15  16
ENDBRANCH  14  15
ENDBRANCH  13  14
ENDBRANCH  11  13
ENDBRANCH   6   9
BRANCH   1  25
HETATM   25  C2  UNL     1     -24.559   6.136  29.411  1.00  0.00     0.300 C 
BRANCH  25  26
HETATM   26  C1  UNL     1     -24.889   4.705  29.819  1.00  0.00     0.272 C 
BRANCH  26  27
HETATM   27  N1  UNL     1     -26.135   4.269  29.233  1.00  0.00    -0.077 N 
ATOM     28  H13 UNL     1     -26.611   3.588  29.826  1.00  0.00     0.274 HD
ATOM     29  H12 UNL     1     -26.838   5.009  29.252  1.00  0.00     0.274 HD
ATOM     30  H11 UNL     1     -25.994   3.911  28.289  1.00  0.00     0.274 HD
ENDBRANCH  26  27
ENDBRANCH  25  26
BRANCH  25  31
HETATM   31  N2  UNL     1     -25.723   6.950  29.396  1.00  0.00    -0.065 N 
ATOM     32  H23 UNL     1     -25.623   7.735  28.752  1.00  0.00     0.275 HD
ATOM     33  H22 UNL     1     -26.506   6.476  28.946  1.00  0.00     0.275 HD
ATOM     34  H21 UNL     1     -25.966   7.266  30.334  1.00  0.00     0.275 HD
ENDBRANCH  25  31
ENDBRANCH   1  25
TORSDOF 12
ENDMDL
MODEL 2
REMARK VINA RESULT: -6.685339661      3.668      5.604
REMARK  12 active torsions:
REMARK  status: ('A' for Active; 'I' for Inactive)
REMARK    1  A    between atoms: N1_1  and  C1_5 
REMARK    2  A    between atoms: C1_5  and  C2_6 
REMARK    3  A    between atoms: C2_6  and  N2_7 
REMARK    4  A    between atoms: C2_6  and  C3_11 
REMARK       I    between atoms: C3_11  and  N3_13 
REMARK    5  A    between atoms: N4_16  and  C6_17 
REMARK    6  A    between atoms: N5_19  and  O2_21 
REMARK    7  A    between atoms: O2_21  and  C7_22 
REMARK    8  A    between atoms: C7_22  and  C8_23 
REMARK    9  A    between atoms: C8_23  and  N6_24 
REMARK   10  A    between atoms: N6_24  and  C9_26 
REMARK   11  A    between atoms: C9_26  and  N7_28 
REMARK   12  A    between atoms: N7_28  and  N8_30 
ROOT
HETATM    1  C3  UNL     1     -24.069   6.490  28.039  1.00  0.00     0.252 C 
HETATM    2  O1  UNL     1     -24.661   5.946  27.028  1.00  0.00    -0.271 OA
HETATM    3  N3  UNL     1     -22.908   7.221  27.780  1.00  0.00    -0.347 N 
HETATM    4  C4  UNL     1     -22.481   7.304  26.358  1.00  0.00     0.145 C 
HETATM    5  C5  UNL     1     -22.179   8.781  26.080  1.00  0.00     0.145 C 
HETATM    6  N4  UNL     1     -21.018   9.159  26.903  1.00  0.00    -0.357 N 
HETATM    7  C10 UNL     1     -20.800   8.460  28.125  1.00  0.00     0.145 C 
HETATM    8  C11 UNL     1     -22.072   7.905  28.734  1.00  0.00     0.145 C 
ENDROOT
BRANCH   6   9
HETATM    9  C6  UNL     1     -20.192  10.193  26.415  1.00  0.00     0.173 C 
HETATM   10  S1  UNL     1     -20.651  11.067  24.941  1.00  0.00    -0.011 SA
HETATM   11  N5  UNL     1     -19.120  10.502  27.020  1.00  0.00    -0.244 N 
ATOM     12  H5  UNL     1     -18.884   9.979  27.863  1.00  0.00     0.196 HD
BRANCH  11  13
HETATM   13  O2  UNL     1     -18.258  11.491  26.620  1.00  0.00    -0.277 OA
BRANCH  13  14
HETATM   14  C7  UNL     1     -16.992  11.170  26.174  1.00  0.00     0.220 C 
BRANCH  14  15
HETATM   15  C8  UNL     1     -15.872  12.069  26.528  1.00  0.00     0.151 C 
BRANCH  15  16
HETATM   16  N6  UNL     1     -14.962  11.651  27.534  1.00  0.00    -0.364 N 
ATOM     17  H6  UNL     1     -14.756  12.347  28.251  1.00  0.00     0.162 HD
BRANCH  16  18
HETATM   18  C9  UNL     1     -14.306  10.424  27.687  1.00  0.00     0.186 C 
HETATM   19  S2  UNL     1     -12.997  10.047  26.817  1.00  0.00    -0.040 SA
BRANCH  18  20
HETATM   20  N7  UNL     1     -14.768   9.486  28.642  1.00  0.00    -0.283 N 
ATOM     21  H7  UNL     1     -15.022   9.815  29.575  1.00  0.00     0.188 HD
BRANCH  20  22
HETATM   22  N8  UNL     1     -14.889   8.127  28.351  1.00  0.00    -0.343 N 
ATOM     23  H82 UNL     1     -15.586   7.589  28.865  1.00  0.00     0.176 HD
ATOM     24  H81 UNL     1     -14.307   7.669  27.650  1.00  0.00     0.176 HD
ENDBRANCH  20  22
ENDBRANCH  18  20
ENDBRANCH  16  18
ENDBRANCH  15  16
ENDBRANCH  14  15
ENDBRANCH  13  14
ENDBRANCH  11  13
ENDBRANCH   6   9
BRANCH   1  25
HETATM   25  C2  UNL     1     -24.715   6.258  29.340  1.00  0.00     0.300 C 
BRANCH  25  26
HETATM   26  C1  UNL     1     -24.864   4.756  29.550  1.00  0.00     0.272 C 
BRANCH  26  27
HETATM   27  N1  UNL     1     -26.115   4.274  29.012  1.00  0.00    -0.077 N 
ATOM     28  H13 UNL     1     -26.622   5.012  28.522  1.00  0.00     0.274 HD
ATOM     29  H12 UNL     1     -25.966   3.640  28.227  1.00  0.00     0.274 HD
ATOM     30  H11 UNL     1     -26.688   3.844  29.738  1.00  0.00     0.274 HD
ENDBRANCH  26  27
ENDBRANCH  25  26
BRANCH  25  31
HETATM   31  N2  UNL     1     -25.960   6.926  29.487  1.00  0.00    -0.065 N 
ATOM     32  H23 UNL     1     -26.486   6.569  30.285  1.00  0.00     0.275 HD
ATOM     33  H22 UNL     1     -25.833   7.889  29.800  1.00  0.00     0.275 HD
ATOM     34  H21 UNL     1     -26.509   6.882  28.629  1.00  0.00     0.275 HD
ENDBRANCH  25  31
ENDBRANCH   1  25
TORSDOF 12
ENDMDL
MODEL 3
REMARK VINA RESULT: -6.681549077      3.857      5.874
REMARK  12 active torsions:
REMARK  status: ('A' for Active; 'I' for Inactive)
REMARK    1  A    between atoms: N1_1  and  C1_5 
REMARK    2  A    between atoms: C1_5  and  C2_6 
REMARK    3  A    between atoms: C2_6  and  N2_7 
REMARK    4  A    between atoms: C2_6  and  C3_11 
REMARK       I    between atoms: C3_11  and  N3_13 
REMARK    5  A    between atoms: N4_16  and  C6_17 
REMARK    6  A    between atoms: N5_19  and  O2_21 
REMARK    7  A    between atoms: O2_21  and  C7_22 
REMARK    8  A    between atoms: C7_22  and  C8_23 
REMARK    9  A    between atoms: C8_23  and  N6_24 
REMARK   10  A    between atoms: N6_24  and  C9_26 
REMARK   11  A    between atoms: C9_26  and  N7_28 
REMARK   12  A    between atoms: N7_28  and  N8_30 
ROOT
HETATM    1  C3  UNL     1     -22.918   6.290  28.835  1.00  0.00     0.252 C 
HETATM    2  O1  UNL     1     -22.138   5.511  29.507  1.00  0.00    -0.271 OA
HETATM    3  N3  UNL     1     -22.400   7.526  28.442  1.00  0.00    -0.347 N 
HETATM    4  C4  UNL     1     -20.994   7.810  28.835  1.00  0.00     0.145 C 
HETATM    5  C5  UNL     1     -20.289   8.330  27.577  1.00  0.00     0.145 C 
HETATM    6  N4  UNL     1     -20.907   9.619  27.223  1.00  0.00    -0.357 N 
HETATM    7  C10 UNL     1     -22.265   9.840  27.591  1.00  0.00     0.145 C 
HETATM    8  C11 UNL     1     -23.073   8.562  27.700  1.00  0.00     0.145 C 
ENDROOT
BRANCH   6   9
HETATM    9  C6  UNL     1     -20.101  10.555  26.542  1.00  0.00     0.173 C 
HETATM   10  S1  UNL     1     -20.685  11.293  25.037  1.00  0.00    -0.011 SA
HETATM   11  N5  UNL     1     -18.960  10.874  26.995  1.00  0.00    -0.244 N 
ATOM     12  H5  UNL     1     -18.652  10.430  27.860  1.00  0.00     0.196 HD
BRANCH  11  13
HETATM   13  O2  UNL     1     -18.110  11.773  26.401  1.00  0.00    -0.277 OA
BRANCH  13  14
HETATM   14  C7  UNL     1     -16.916  11.345  25.858  1.00  0.00     0.220 C 
BRANCH  14  15
HETATM   15  C8  UNL     1     -16.383  10.031  26.276  1.00  0.00     0.151 C 
BRANCH  15  16
HETATM   16  N6  UNL     1     -15.537   9.976  27.415  1.00  0.00    -0.364 N 
ATOM     17  H6  UNL     1     -15.879   9.397  28.182  1.00  0.00     0.162 HD
BRANCH  16  18
HETATM   18  C9  UNL     1     -14.304  10.599  27.639  1.00  0.00     0.186 C 
HETATM   19  S2  UNL     1     -12.979  10.183  26.811  1.00  0.00    -0.040 SA
BRANCH  18  20
HETATM   20  N7  UNL     1     -14.198  11.642  28.592  1.00  0.00    -0.283 N 
ATOM     21  H7  UNL     1     -13.633  11.490  29.429  1.00  0.00     0.188 HD
BRANCH  20  22
HETATM   22  N8  UNL     1     -14.841  12.868  28.425  1.00  0.00    -0.343 N 
ATOM     23  H82 UNL     1     -15.640  12.906  27.792  1.00  0.00     0.176 HD
ATOM     24  H81 UNL     1     -14.536  13.711  28.911  1.00  0.00     0.176 HD
ENDBRANCH  20  22
ENDBRANCH  18  20
ENDBRANCH  16  18
ENDBRANCH  15  16
ENDBRANCH  14  15
ENDBRANCH  13  14
ENDBRANCH  11  13
ENDBRANCH   6   9
BRANCH   1  25
HETATM   25  C2  UNL     1     -24.262   5.753  28.573  1.00  0.00     0.300 C 
BRANCH  25  26
HETATM   26  C1  UNL     1     -25.129   5.984  29.805  1.00  0.00     0.272 C 
BRANCH  26  27
HETATM   27  N1  UNL     1     -25.961   7.155  29.645  1.00  0.00    -0.077 N 
ATOM     28  H13 UNL     1     -25.708   7.887  30.309  1.00  0.00     0.274 HD
ATOM     29  H12 UNL     1     -25.749   7.651  28.779  1.00  0.00     0.274 HD
ATOM     30  H11 UNL     1     -26.950   6.916  29.708  1.00  0.00     0.274 HD
ENDBRANCH  26  27
ENDBRANCH  25  26
BRANCH  25  31
HETATM   31  N2  UNL     1     -24.266   4.386  28.188  1.00  0.00    -0.065 N 
ATOM     32  H23 UNL     1     -25.127   4.136  27.701  1.00  0.00     0.275 HD
ATOM     33  H22 UNL     1     -23.602   4.207  27.434  1.00  0.00     0.275 HD
ATOM     34  H21 UNL     1     -24.098   3.775  28.986  1.00  0.00     0.275 HD
ENDBRANCH  25  31
ENDBRANCH   1  25
TORSDOF 12
ENDMDL
MODEL 4
REMARK VINA RESULT: -6.674025469      1.164      1.219
REMARK  12 active torsions:
REMARK  status: ('A' for Active; 'I' for Inactive)
REMARK    1  A    between atoms: N1_1  and  C1_5 
REMARK    2  A    between atoms: C1_5  and  C2_6 
REMARK    3  A    between atoms: C2_6  and  N2_7 
REMARK    4  A    between atoms: C2_6  and  C3_11 
REMARK       I    between atoms: C3_11  and  N3_13 
REMARK    5  A    between atoms: N4_16  and  C6_17 
REMARK    6  A    between atoms: N5_19  and  O2_21 
REMARK    7  A    between atoms: O2_21  and  C7_22 
REMARK    8  A    between atoms: C7_22  and  C8_23 
REMARK    9  A    between atoms: C8_23  and  N6_24 
REMARK   10  A    between atoms: N6_24  and  C9_26 
REMARK   11  A    between atoms: C9_26  and  N7_28 
REMARK   12  A    between atoms: N7_28  and  N8_30 
ROOT
HETATM    1  C3  UNL     1     -23.401   6.353  29.157  1.00  0.00     0.252 C 
HETATM    2  O1  UNL     1     -22.669   5.433  29.692  1.00  0.00    -0.271 OA
HETATM    3  N3  UNL     1     -22.740   7.385  28.489  1.00  0.00    -0.347 N 
HETATM    4  C4  UNL     1     -21.255   7.311  28.457  1.00  0.00     0.145 C 
HETATM    5  C5  UNL     1     -20.839   7.557  27.003  1.00  0.00     0.145 C 
HETATM    6  N4  UNL     1     -21.209   8.942  26.665  1.00  0.00    -0.357 N 
HETATM    7  C10 UNL     1     -22.310   9.532  27.347  1.00  0.00     0.145 C 
HETATM    8  C11 UNL     1     -23.332   8.520  27.826  1.00  0.00     0.145 C 
ENDROOT
BRANCH   6   9
HETATM    9  C6  UNL     1     -20.434   9.595  25.683  1.00  0.00     0.173 C 
HETATM   10  S1  UNL     1     -19.022  10.555  26.168  1.00  0.00    -0.011 SA
HETATM   11  N5  UNL     1     -20.739   9.504  24.455  1.00  0.00    -0.244 N 
ATOM     12  H5  UNL     1     -21.557   8.947  24.209  1.00  0.00     0.196 HD
BRANCH  11  13
HETATM   13  O2  UNL     1     -20.045  10.103  23.434  1.00  0.00    -0.277 OA
BRANCH  13  14
HETATM   14  C7  UNL     1     -20.713  10.845  22.482  1.00  0.00     0.220 C 
BRANCH  14  15
HETATM   15  C8  UNL     1     -20.873  10.273  21.128  1.00  0.00     0.151 C 
BRANCH  15  16
HETATM   16  N6  UNL     1     -22.030   9.497  20.855  1.00  0.00    -0.364 N 
ATOM     17  H6  UNL     1     -22.797  10.000  20.408  1.00  0.00     0.162 HD
BRANCH  16  18
HETATM   18  C9  UNL     1     -22.274   8.141  21.109  1.00  0.00     0.186 C 
HETATM   19  S2  UNL     1     -21.068   7.074  21.253  1.00  0.00    -0.040 SA
BRANCH  18  20
HETATM   20  N7  UNL     1     -23.602   7.678  21.275  1.00  0.00    -0.283 N 
ATOM     21  H7  UNL     1     -23.757   6.767  21.708  1.00  0.00     0.188 HD
BRANCH  20  22
HETATM   22  N8  UNL     1     -24.706   8.427  20.867  1.00  0.00    -0.343 N 
ATOM     23  H82 UNL     1     -24.534   9.276  20.329  1.00  0.00     0.176 HD
ATOM     24  H81 UNL     1     -25.662   8.150  21.090  1.00  0.00     0.176 HD
ENDBRANCH  20  22
ENDBRANCH  18  20
ENDBRANCH  16  18
ENDBRANCH  15  16
ENDBRANCH  14  15
ENDBRANCH  13  14
ENDBRANCH  11  13
ENDBRANCH   6   9
BRANCH   1  25
HETATM   25  C2  UNL     1     -24.851   6.175  29.329  1.00  0.00     0.300 C 
BRANCH  25  26
HETATM   26  C1  UNL     1     -25.103   5.475  30.659  1.00  0.00     0.272 C 
BRANCH  26  27
HETATM   27  N1  UNL     1     -25.184   4.043  30.488  1.00  0.00    -0.077 N 
ATOM     28  H13 UNL     1     -24.264   3.606  30.543  1.00  0.00     0.274 HD
ATOM     29  H12 UNL     1     -25.618   3.593  31.295  1.00  0.00     0.274 HD
ATOM     30  H11 UNL     1     -25.663   3.801  29.622  1.00  0.00     0.274 HD
ENDBRANCH  26  27
ENDBRANCH  25  26
BRANCH  25  31
HETATM   31  N2  UNL     1     -25.474   5.484  28.255  1.00  0.00    -0.065 N 
ATOM     32  H23 UNL     1     -24.880   4.737  27.895  1.00  0.00     0.275 HD
ATOM     33  H22 UNL     1     -26.259   4.919  28.579  1.00  0.00     0.275 HD
ATOM     34  H21 UNL     1     -25.756   6.126  27.516  1.00  0.00     0.275 HD
ENDBRANCH  25  31
ENDBRANCH   1  25
TORSDOF 12
ENDMDL
MODEL 5
REMARK VINA RESULT: -6.673417582      2.936      4.793
REMARK  12 active torsions:
REMARK  status: ('A' for Active; 'I' for Inactive)
REMARK    1  A    between atoms: N1_1  and  C1_5 
REMARK    2  A    between atoms: C1_5  and  C2_6 
REMARK    3  A    between atoms: C2_6  and  N2_7 
REMARK    4  A    between atoms: C2_6  and  C3_11 
REMARK       I    between atoms: C3_11  and  N3_13 
REMARK    5  A    between atoms: N4_16  and  C6_17 
REMARK    6  A    between atoms: N5_19  and  O2_21 
REMARK    7  A    between atoms: O2_21  and  C7_22 
REMARK    8  A    between atoms: C7_22  and  C8_23 
REMARK    9  A    between atoms: C8_23  and  N6_24 
REMARK   10  A    between atoms: N6_24  and  C9_26 
REMARK   11  A    between atoms: C9_26  and  N7_28 
REMARK   12  A    between atoms: N7_28  and  N8_30 
ROOT
HETATM    1  C3  UNL     1     -24.551   6.228  27.896  1.00  0.00     0.252 C 
HETATM    2  O1  UNL     1     -25.515   5.888  27.106  1.00  0.00    -0.271 OA
HETATM    3  N3  UNL     1     -23.320   6.523  27.309  1.00  0.00    -0.347 N 
HETATM    4  C4  UNL     1     -23.251   6.425  25.827  1.00  0.00     0.145 C 
HETATM    5  C5  UNL     1     -22.575   7.710  25.336  1.00  0.00     0.145 C 
HETATM    6  N4  UNL     1     -21.189   7.699  25.834  1.00  0.00    -0.357 N 
HETATM    7  C10 UNL     1     -20.911   6.997  27.042  1.00  0.00     0.145 C 
HETATM    8  C11 UNL     1     -22.103   6.913  27.975  1.00  0.00     0.145 C 
ENDROOT
BRANCH   6   9
HETATM    9  C6  UNL     1     -20.223   8.387  25.069  1.00  0.00     0.173 C 
HETATM   10  S1  UNL     1     -20.602   8.878  23.406  1.00  0.00    -0.011 SA
HETATM   11  N5  UNL     1     -19.084   8.655  25.558  1.00  0.00    -0.244 N 
ATOM     12  H5  UNL     1     -18.897   8.357  26.515  1.00  0.00     0.196 HD
BRANCH  11  13
HETATM   13  O2  UNL     1     -18.087   9.318  24.889  1.00  0.00    -0.277 OA
BRANCH  13  14
HETATM   14  C7  UNL     1     -16.783   8.871  24.965  1.00  0.00     0.220 C 
BRANCH  14  15
HETATM   15  C8  UNL     1     -16.153   8.761  26.299  1.00  0.00     0.151 C 
BRANCH  15  16
HETATM   16  N6  UNL     1     -15.907   9.954  27.029  1.00  0.00    -0.364 N 
ATOM     17  H6  UNL     1     -15.480   9.822  27.946  1.00  0.00     0.162 HD
BRANCH  16  18
HETATM   18  C9  UNL     1     -16.165  11.284  26.676  1.00  0.00     0.186 C 
HETATM   19  S2  UNL     1     -15.013  12.238  26.064  1.00  0.00    -0.040 SA
BRANCH  18  20
HETATM   20  N7  UNL     1     -17.469  11.818  26.825  1.00  0.00    -0.283 N 
ATOM     21  H7  UNL     1     -17.828  11.986  27.766  1.00  0.00     0.188 HD
BRANCH  20  22
HETATM   22  N8  UNL     1     -18.276  12.121  25.730  1.00  0.00    -0.343 N 
ATOM     23  H82 UNL     1     -18.868  11.380  25.353  1.00  0.00     0.176 HD
ATOM     24  H81 UNL     1     -18.289  13.048  25.305  1.00  0.00     0.176 HD
ENDBRANCH  20  22
ENDBRANCH  18  20
ENDBRANCH  16  18
ENDBRANCH  15  16
ENDBRANCH  14  15
ENDBRANCH  13  14
ENDBRANCH  11  13
ENDBRANCH   6   9
BRANCH   1  25
HETATM   25  C2  UNL     1     -24.897   6.255  29.325  1.00  0.00     0.300 C 
BRANCH  25  26
HETATM   26  C1  UNL     1     -24.991   4.822  29.833  1.00  0.00     0.272 C 
BRANCH  26  27
HETATM   27  N1  UNL     1     -26.082   4.115  29.203  1.00  0.00    -0.077 N 
ATOM     28  H13 UNL     1     -26.972   4.590  29.351  1.00  0.00     0.274 HD
ATOM     29  H12 UNL     1     -26.035   4.183  28.186  1.00  0.00     0.274 HD
ATOM     30  H11 UNL     1     -26.119   3.144  29.512  1.00  0.00     0.274 HD
ENDBRANCH  26  27
ENDBRANCH  25  26
BRANCH  25  31
HETATM   31  N2  UNL     1     -26.082   6.984  29.613  1.00  0.00    -0.065 N 
ATOM     32  H23 UNL     1     -26.383   7.541  28.813  1.00  0.00     0.275 HD
ATOM     33  H22 UNL     1     -26.892   6.368  29.688  1.00  0.00     0.275 HD
ATOM     34  H21 UNL     1     -25.971   7.559  30.447  1.00  0.00     0.275 HD
ENDBRANCH  25  31
ENDBRANCH   1  25
TORSDOF 12
ENDMDL
