MODEL 1
REMARK VINA RESULT: -11.363667139      0.000      0.000
REMARK  5 active torsions:
REMARK  status: ('A' for Active; 'I' for Inactive)
REMARK    1  A    between atoms: N1_1  and  C1_4 
REMARK    2  A    between atoms: N3_9  and  C4_10 
REMARK    3  A    between atoms: N4_17  and  C11_18 
REMARK    4  A    between atoms: C17_24  and  N5_25 
REMARK    5  A    between atoms: N6_28  and  C20_29 
ROOT
HETATM    1  C11 UNL     1       6.552  -6.987  -1.876  1.00  0.00     0.103 A 
HETATM    2  C12 UNL     1       5.260  -7.072  -1.379  1.00  0.00     0.049 A 
HETATM    3  C13 UNL     1       4.421  -5.990  -1.270  1.00  0.00     0.017 A 
HETATM    4  C14 UNL     1       4.916  -4.752  -1.688  1.00  0.00    -0.009 A 
HETATM    5  C15 UNL     1       4.153  -3.626  -1.617  1.00  0.00     0.016 A 
HETATM    6  C16 UNL     1       4.665  -2.422  -2.038  1.00  0.00     0.030 A 
HETATM    7  C17 UNL     1       5.942  -2.273  -2.543  1.00  0.00     0.032 A 
HETATM    8  C27 UNL     1       6.692  -3.440  -2.601  1.00  0.00     0.059 A 
HETATM    9  C28 UNL     1       6.197  -4.660  -2.183  1.00  0.00     0.046 A 
HETATM   10  N8  UNL     1       6.981  -5.776  -2.266  1.00  0.00    -0.342 N 
ATOM     11  H8  UNL     1       7.926  -5.686  -2.637  1.00  0.00     0.167 HD
ENDROOT
BRANCH   1  12
HETATM   12  N4  UNL     1       7.364  -8.146  -1.972  1.00  0.00    -0.361 N 
HETATM   13  C10 UNL     1       7.475  -8.840  -3.220  1.00  0.00     0.183 C 
HETATM   14  C3  UNL     1       8.654  -9.730  -3.296  1.00  0.00     0.054 A 
HETATM   15  C2  UNL     1       9.092 -10.349  -2.156  1.00  0.00     0.015 A 
HETATM   16  N2  UNL     1       9.477 -10.124  -4.261  1.00  0.00    -0.294 N 
HETATM   17  C1  UNL     1      10.196 -11.115  -2.488  1.00  0.00     0.129 A 
HETATM   18  C30 UNL     1       8.359 -10.093  -0.889  1.00  0.00     0.064 C 
HETATM   19  N3  UNL     1      10.404 -10.950  -3.803  1.00  0.00    -0.240 N 
HETATM   20  C29 UNL     1       8.059  -8.610  -0.804  1.00  0.00     0.129 C 
ATOM     21  H2  UNL     1       9.404  -9.826  -5.234  1.00  0.00     0.187 HD
BRANCH  17  22
HETATM   22  N1  UNL     1      10.889 -11.844  -1.710  1.00  0.00    -0.384 N 
ATOM     23  H12 UNL     1      11.464 -11.513  -0.935  1.00  0.00     0.157 HD
ATOM     24  H11 UNL     1      10.985 -12.860  -1.736  1.00  0.00     0.157 HD
ENDBRANCH  17  22
BRANCH  19  25
HETATM   25  C4  UNL     1      11.405 -11.507  -4.649  1.00  0.00     0.058 A 
HETATM   26  C5  UNL     1      11.432 -12.856  -4.968  1.00  0.00     0.031 A 
HETATM   27  C6  UNL     1      12.405 -13.395  -5.784  1.00  0.00     0.002 A 
HETATM   28  C7  UNL     1      13.397 -12.609  -6.321  1.00  0.00     0.000 A 
HETATM   29  C8  UNL     1      13.387 -11.265  -6.016  1.00  0.00     0.002 A 
HETATM   30  C9  UNL     1      12.404 -10.728  -5.192  1.00  0.00     0.031 A 
ENDBRANCH  19  25
ENDBRANCH   1  12
BRANCH   7  31
HETATM   31  N5  UNL     1       6.489  -1.034  -2.973  1.00  0.00    -0.378 N 
HETATM   32  C18 UNL     1       5.804  -0.208  -3.934  1.00  0.00     0.143 C 
HETATM   33  C19 UNL     1       6.626  -0.275  -5.224  1.00  0.00     0.144 C 
HETATM   34  N6  UNL     1       8.001  -0.415  -4.832  1.00  0.00    -0.364 N 
HETATM   35  C25 UNL     1       8.484   0.121  -3.559  1.00  0.00     0.144 C 
HETATM   36  C26 UNL     1       7.775  -0.593  -2.441  1.00  0.00     0.143 C 
BRANCH  34  37
HETATM   37  C20 UNL     1       8.946  -1.077  -5.677  1.00  0.00     0.102 A 
HETATM   38  C21 UNL     1      10.116  -0.465  -6.059  1.00  0.00     0.048 A 
HETATM   39  C22 UNL     1      11.020  -1.129  -6.891  1.00  0.00     0.005 A 
HETATM   40  C23 UNL     1      10.738  -2.407  -7.332  1.00  0.00     0.017 A 
HETATM   41  C24 UNL     1       9.561  -2.983  -6.927  1.00  0.00     0.089 A 
HETATM   42  N7  UNL     1       8.715  -2.319  -6.130  1.00  0.00    -0.352 N 
ATOM     43  H7  UNL     1       7.849  -2.781  -5.852  1.00  0.00     0.166 HD
ENDBRANCH  34  37
ENDBRANCH   7  31
TORSDOF 5
ENDMDL
MODEL 2
REMARK VINA RESULT: -11.228100358      2.680      8.707
REMARK  5 active torsions:
REMARK  status: ('A' for Active; 'I' for Inactive)
REMARK    1  A    between atoms: N1_1  and  C1_4 
REMARK    2  A    between atoms: N3_9  and  C4_10 
REMARK    3  A    between atoms: N4_17  and  C11_18 
REMARK    4  A    between atoms: C17_24  and  N5_25 
REMARK    5  A    between atoms: N6_28  and  C20_29 
ROOT
HETATM    1  C11 UNL     1       8.368  -9.108  -3.264  1.00  0.00     0.103 A 
HETATM    2  C12 UNL     1       8.679 -10.403  -2.879  1.00  0.00     0.049 A 
HETATM    3  C13 UNL     1       9.721 -11.120  -3.417  1.00  0.00     0.017 A 
HETATM    4  C14 UNL     1      10.490 -10.491  -4.399  1.00  0.00    -0.009 A 
HETATM    5  C15 UNL     1      11.542 -11.126  -4.986  1.00  0.00     0.016 A 
HETATM    6  C16 UNL     1      12.285 -10.481  -5.947  1.00  0.00     0.030 A 
HETATM    7  C17 UNL     1      12.025  -9.193  -6.372  1.00  0.00     0.032 A 
HETATM    8  C27 UNL     1      10.946  -8.576  -5.753  1.00  0.00     0.059 A 
HETATM    9  C28 UNL     1      10.188  -9.205  -4.785  1.00  0.00     0.046 A 
HETATM   10  N8  UNL     1       9.138  -8.547  -4.209  1.00  0.00    -0.342 N 
ATOM     11  H8  UNL     1       8.932  -7.594  -4.509  1.00  0.00     0.167 HD
ENDROOT
BRANCH   1  12
HETATM   12  N4  UNL     1       7.285  -8.419  -2.660  1.00  0.00    -0.361 N 
HETATM   13  C10 UNL     1       7.536  -7.438  -1.647  1.00  0.00     0.183 C 
HETATM   14  C3  UNL     1       6.403  -6.513  -1.430  1.00  0.00     0.054 A 
HETATM   15  C2  UNL     1       5.126  -6.977  -1.594  1.00  0.00     0.015 A 
HETATM   16  N2  UNL     1       6.282  -5.234  -1.088  1.00  0.00    -0.294 N 
HETATM   17  C1  UNL     1       4.258  -5.930  -1.339  1.00  0.00     0.129 A 
HETATM   18  C30 UNL     1       4.938  -8.398  -1.990  1.00  0.00     0.064 C 
HETATM   19  N3  UNL     1       5.013  -4.865  -1.028  1.00  0.00    -0.240 N 
HETATM   20  C29 UNL     1       5.944  -8.726  -3.074  1.00  0.00     0.129 C 
ATOM     21  H2  UNL     1       7.069  -4.615  -0.897  1.00  0.00     0.187 HD
BRANCH  17  22
HETATM   22  N1  UNL     1       2.987  -5.955  -1.382  1.00  0.00    -0.384 N 
ATOM     23  H12 UNL     1       2.404  -5.510  -2.091  1.00  0.00     0.157 HD
ATOM     24  H11 UNL     1       2.356  -6.413  -0.723  1.00  0.00     0.157 HD
ENDBRANCH  17  22
BRANCH  19  25
HETATM   25  C4  UNL     1       4.627  -3.539  -0.683  1.00  0.00     0.058 A 
HETATM   26  C5  UNL     1       3.309  -3.113  -0.750  1.00  0.00     0.031 A 
HETATM   27  C6  UNL     1       2.938  -1.827  -0.421  1.00  0.00     0.002 A 
HETATM   28  C7  UNL     1       3.868  -0.903  -0.006  1.00  0.00     0.000 A 
HETATM   29  C8  UNL     1       5.184  -1.307   0.068  1.00  0.00     0.002 A 
HETATM   30  C9  UNL     1       5.552  -2.605  -0.267  1.00  0.00     0.031 A 
ENDBRANCH  19  25
ENDBRANCH   1  12
BRANCH   7  31
HETATM   31  N5  UNL     1      12.776  -8.517  -7.370  1.00  0.00    -0.378 N 
HETATM   32  C18 UNL     1      14.169  -8.207  -7.176  1.00  0.00     0.143 C 
HETATM   33  C19 UNL     1      14.253  -6.687  -7.007  1.00  0.00     0.144 C 
HETATM   34  N6  UNL     1      13.211  -6.122  -7.819  1.00  0.00    -0.364 N 
HETATM   35  C25 UNL     1      12.733  -6.804  -9.021  1.00  0.00     0.144 C 
HETATM   36  C26 UNL     1      12.123  -8.118  -8.613  1.00  0.00     0.143 C 
BRANCH  34  37
HETATM   37  C20 UNL     1      12.611  -4.868  -7.481  1.00  0.00     0.102 A 
HETATM   38  C21 UNL     1      12.808  -4.290  -6.250  1.00  0.00     0.048 A 
HETATM   39  C22 UNL     1      12.206  -3.068  -5.941  1.00  0.00     0.005 A 
HETATM   40  C23 UNL     1      11.410  -2.437  -6.876  1.00  0.00     0.017 A 
HETATM   41  C24 UNL     1      11.240  -3.047  -8.093  1.00  0.00     0.089 A 
HETATM   42  N7  UNL     1      11.829  -4.218  -8.358  1.00  0.00    -0.352 N 
ATOM     43  H7  UNL     1      11.678  -4.640  -9.274  1.00  0.00     0.166 HD
ENDBRANCH  34  37
ENDBRANCH   7  31
TORSDOF 5
ENDMDL
MODEL 3
REMARK VINA RESULT: -11.219990030      3.133      4.881
REMARK  5 active torsions:
REMARK  status: ('A' for Active; 'I' for Inactive)
REMARK    1  A    between atoms: N1_1  and  C1_4 
REMARK    2  A    between atoms: N3_9  and  C4_10 
REMARK    3  A    between atoms: N4_17  and  C11_18 
REMARK    4  A    between atoms: C17_24  and  N5_25 
REMARK    5  A    between atoms: N6_28  and  C20_29 
ROOT
HETATM    1  C11 UNL     1       7.890  -8.246  -4.002  1.00  0.00     0.103 A 
HETATM    2  C12 UNL     1       7.016  -9.300  -3.781  1.00  0.00     0.049 A 
HETATM    3  C13 UNL     1       5.859  -9.180  -3.051  1.00  0.00     0.017 A 
HETATM    4  C14 UNL     1       5.570  -7.923  -2.513  1.00  0.00    -0.009 A 
HETATM    5  C15 UNL     1       4.444  -7.713  -1.776  1.00  0.00     0.016 A 
HETATM    6  C16 UNL     1       4.183  -6.465  -1.262  1.00  0.00     0.030 A 
HETATM    7  C17 UNL     1       5.013  -5.377  -1.447  1.00  0.00     0.032 A 
HETATM    8  C27 UNL     1       6.151  -5.627  -2.202  1.00  0.00     0.059 A 
HETATM    9  C28 UNL     1       6.432  -6.872  -2.728  1.00  0.00     0.046 A 
HETATM   10  N8  UNL     1       7.567  -7.059  -3.465  1.00  0.00    -0.342 N 
ATOM     11  H8  UNL     1       8.192  -6.266  -3.614  1.00  0.00     0.167 HD
ENDROOT
BRANCH   1  12
HETATM   12  N4  UNL     1       9.064  -8.435  -4.775  1.00  0.00    -0.361 N 
HETATM   13  C10 UNL     1       8.960  -8.762  -6.166  1.00  0.00     0.183 C 
HETATM   14  C3  UNL     1      10.200  -8.501  -6.927  1.00  0.00     0.054 A 
HETATM   15  C2  UNL     1      11.408  -8.659  -6.303  1.00  0.00     0.015 A 
HETATM   16  N2  UNL     1      10.482  -8.117  -8.168  1.00  0.00    -0.294 N 
HETATM   17  C1  UNL     1      12.401  -8.354  -7.217  1.00  0.00     0.129 A 
HETATM   18  C30 UNL     1      11.415  -9.084  -4.879  1.00  0.00     0.064 C 
HETATM   19  N3  UNL     1      11.787  -8.023  -8.363  1.00  0.00    -0.240 N 
HETATM   20  C29 UNL     1      10.347  -8.300  -4.143  1.00  0.00     0.129 C 
ATOM     21  H2  UNL     1       9.779  -7.920  -8.880  1.00  0.00     0.187 HD
BRANCH  17  22
HETATM   22  N1  UNL     1      13.658  -8.381  -7.026  1.00  0.00    -0.384 N 
ATOM     23  H12 UNL     1      14.136  -8.150  -6.155  1.00  0.00     0.157 HD
ATOM     24  H11 UNL     1      14.380  -8.630  -7.703  1.00  0.00     0.157 HD
ENDBRANCH  17  22
BRANCH  19  25
HETATM   25  C4  UNL     1      12.337  -7.627  -9.616  1.00  0.00     0.058 A 
HETATM   26  C5  UNL     1      12.718  -8.550 -10.578  1.00  0.00     0.031 A 
HETATM   27  C6  UNL     1      13.255  -8.165 -11.788  1.00  0.00     0.002 A 
HETATM   28  C7  UNL     1      13.435  -6.836 -12.095  1.00  0.00     0.000 A 
HETATM   29  C8  UNL     1      13.062  -5.903 -11.151  1.00  0.00     0.002 A 
HETATM   30  C9  UNL     1      12.522  -6.298  -9.932  1.00  0.00     0.031 A 
ENDBRANCH  19  25
ENDBRANCH   1  12
BRANCH   7  31
HETATM   31  N5  UNL     1       4.762  -4.084  -0.914  1.00  0.00    -0.378 N 
HETATM   32  C18 UNL     1       3.583  -3.341  -1.279  1.00  0.00     0.143 C 
HETATM   33  C19 UNL     1       4.060  -2.176  -2.151  1.00  0.00     0.144 C 
HETATM   34  N6  UNL     1       5.363  -1.804  -1.670  1.00  0.00    -0.364 N 
HETATM   35  C25 UNL     1       5.741  -2.013  -0.273  1.00  0.00     0.144 C 
HETATM   36  C26 UNL     1       5.722  -3.490   0.012  1.00  0.00     0.143 C 
BRANCH  34  37
HETATM   37  C20 UNL     1       6.330  -1.211  -2.541  1.00  0.00     0.102 A 
HETATM   38  C21 UNL     1       7.638  -1.050  -2.152  1.00  0.00     0.048 A 
HETATM   39  C22 UNL     1       8.562  -0.461  -3.017  1.00  0.00     0.005 A 
HETATM   40  C23 UNL     1       8.162  -0.042  -4.271  1.00  0.00     0.017 A 
HETATM   41  C24 UNL     1       6.848  -0.223  -4.621  1.00  0.00     0.089 A 
HETATM   42  N7  UNL     1       5.986  -0.789  -3.768  1.00  0.00    -0.352 N 
ATOM     43  H7  UNL     1       5.018  -0.905  -4.065  1.00  0.00     0.166 HD
ENDBRANCH  34  37
ENDBRANCH   7  31
TORSDOF 5
ENDMDL
MODEL 4
REMARK VINA RESULT: -11.202061440      2.821      4.136
REMARK  5 active torsions:
REMARK  status: ('A' for Active; 'I' for Inactive)
REMARK    1  A    between atoms: N1_1  and  C1_4 
REMARK    2  A    between atoms: N3_9  and  C4_10 
REMARK    3  A    between atoms: N4_17  and  C11_18 
REMARK    4  A    between atoms: C17_24  and  N5_25 
REMARK    5  A    between atoms: N6_28  and  C20_29 
ROOT
HETATM    1  C11 UNL     1       7.160  -8.391  -3.659  1.00  0.00     0.103 A 
HETATM    2  C12 UNL     1       6.133  -9.231  -3.256  1.00  0.00     0.049 A 
HETATM    3  C13 UNL     1       5.060  -8.807  -2.511  1.00  0.00     0.017 A 
HETATM    4  C14 UNL     1       5.024  -7.456  -2.155  1.00  0.00    -0.009 A 
HETATM    5  C15 UNL     1       3.997  -6.947  -1.419  1.00  0.00     0.016 A 
HETATM    6  C16 UNL     1       3.986  -5.613  -1.085  1.00  0.00     0.030 A 
HETATM    7  C17 UNL     1       4.978  -4.728  -1.457  1.00  0.00     0.032 A 
HETATM    8  C27 UNL     1       6.008  -5.279  -2.206  1.00  0.00     0.059 A 
HETATM    9  C28 UNL     1       6.040  -6.616  -2.553  1.00  0.00     0.046 A 
HETATM   10  N8  UNL     1       7.079  -7.103  -3.293  1.00  0.00    -0.342 N 
ATOM     11  H8  UNL     1       7.820  -6.463  -3.579  1.00  0.00     0.167 HD
ENDROOT
BRANCH   1  12
HETATM   12  N4  UNL     1       8.236  -8.893  -4.437  1.00  0.00    -0.361 N 
HETATM   13  C10 UNL     1       8.172  -8.835  -5.868  1.00  0.00     0.183 C 
HETATM   14  C3  UNL     1       9.491  -8.972  -6.521  1.00  0.00     0.054 A 
HETATM   15  C2  UNL     1      10.443  -9.762  -5.936  1.00  0.00     0.015 A 
HETATM   16  N2  UNL     1      10.051  -8.488  -7.624  1.00  0.00    -0.294 N 
HETATM   17  C1  UNL     1      11.575  -9.722  -6.731  1.00  0.00     0.129 A 
HETATM   18  C30 UNL     1      10.105 -10.446  -4.660  1.00  0.00     0.064 C 
HETATM   19  N3  UNL     1      11.293  -8.922  -7.771  1.00  0.00    -0.240 N 
HETATM   20  C29 UNL     1       9.375  -9.460  -3.771  1.00  0.00     0.129 C 
ATOM     21  H2  UNL     1       9.583  -7.860  -8.277  1.00  0.00     0.187 HD
BRANCH  17  22
HETATM   22  N1  UNL     1      12.677 -10.326  -6.534  1.00  0.00    -0.384 N 
ATOM     23  H12 UNL     1      12.864 -11.001  -5.792  1.00  0.00     0.157 HD
ATOM     24  H11 UNL     1      13.539 -10.231  -7.072  1.00  0.00     0.157 HD
ENDBRANCH  17  22
BRANCH  19  25
HETATM   25  C4  UNL     1      12.102  -8.539  -8.878  1.00  0.00     0.058 A 
HETATM   26  C5  UNL     1      13.141  -7.630  -8.752  1.00  0.00     0.031 A 
HETATM   27  C6  UNL     1      13.921  -7.257  -9.826  1.00  0.00     0.002 A 
HETATM   28  C7  UNL     1      13.699  -7.777 -11.079  1.00  0.00     0.000 A 
HETATM   29  C8  UNL     1      12.671  -8.683 -11.225  1.00  0.00     0.002 A 
HETATM   30  C9  UNL     1      11.887  -9.054 -10.138  1.00  0.00     0.031 A 
ENDBRANCH  19  25
ENDBRANCH   1  12
BRANCH   7  31
HETATM   31  N5  UNL     1       4.985  -3.349  -1.112  1.00  0.00    -0.378 N 
HETATM   32  C18 UNL     1       4.229  -2.385  -1.869  1.00  0.00     0.143 C 
HETATM   33  C19 UNL     1       5.252  -1.533  -2.626  1.00  0.00     0.144 C 
HETATM   34  N6  UNL     1       6.420  -1.450  -1.791  1.00  0.00    -0.364 N 
HETATM   35  C25 UNL     1       6.318  -1.539  -0.335  1.00  0.00     0.144 C 
HETATM   36  C26 UNL     1       5.783  -2.898   0.024  1.00  0.00     0.143 C 
BRANCH  34  37
HETATM   37  C20 UNL     1       7.721  -1.272  -2.359  1.00  0.00     0.102 A 
HETATM   38  C21 UNL     1       8.668  -2.267  -2.303  1.00  0.00     0.048 A 
HETATM   39  C22 UNL     1       9.933  -2.066  -2.858  1.00  0.00     0.005 A 
HETATM   40  C23 UNL     1      10.235  -0.865  -3.468  1.00  0.00     0.017 A 
HETATM   41  C24 UNL     1       9.262   0.101  -3.504  1.00  0.00     0.089 A 
HETATM   42  N7  UNL     1       8.059  -0.121  -2.962  1.00  0.00    -0.352 N 
ATOM     43  H7  UNL     1       7.362   0.622  -3.008  1.00  0.00     0.166 HD
ENDBRANCH  34  37
ENDBRANCH   7  31
TORSDOF 5
ENDMDL
MODEL 5
REMARK VINA RESULT: -10.775334359      4.360      7.317
REMARK  5 active torsions:
REMARK  status: ('A' for Active; 'I' for Inactive)
REMARK    1  A    between atoms: N1_1  and  C1_4 
REMARK    2  A    between atoms: N3_9  and  C4_10 
REMARK    3  A    between atoms: N4_17  and  C11_18 
REMARK    4  A    between atoms: C17_24  and  N5_25 
REMARK    5  A    between atoms: N6_28  and  C20_29 
ROOT
HETATM    1  C11 UNL     1      11.180  -4.136  -6.768  1.00  0.00     0.103 A 
HETATM    2  C12 UNL     1      12.308  -3.392  -6.459  1.00  0.00     0.049 A 
HETATM    3  C13 UNL     1      12.311  -2.371  -5.540  1.00  0.00     0.017 A 
HETATM    4  C14 UNL     1      11.103  -2.088  -4.896  1.00  0.00    -0.009 A 
HETATM    5  C15 UNL     1      11.013  -1.094  -3.970  1.00  0.00     0.016 A 
HETATM    6  C16 UNL     1       9.812  -0.840  -3.349  1.00  0.00     0.030 A 
HETATM    7  C17 UNL     1       8.655  -1.546  -3.613  1.00  0.00     0.032 A 
HETATM    8  C27 UNL     1       8.783  -2.551  -4.562  1.00  0.00     0.059 A 
HETATM    9  C28 UNL     1       9.979  -2.824  -5.197  1.00  0.00     0.046 A 
HETATM   10  N8  UNL     1      10.045  -3.827  -6.122  1.00  0.00    -0.342 N 
ATOM     11  H8  UNL     1       9.201  -4.361  -6.329  1.00  0.00     0.167 HD
ENDROOT
BRANCH   1  12
HETATM   12  N4  UNL     1      11.249  -5.185  -7.721  1.00  0.00    -0.361 N 
HETATM   13  C10 UNL     1      11.685  -4.910  -9.057  1.00  0.00     0.183 C 
HETATM   14  C3  UNL     1      12.122  -6.116  -9.794  1.00  0.00     0.054 A 
HETATM   15  C2  UNL     1      11.508  -7.311  -9.534  1.00  0.00     0.015 A 
HETATM   16  N2  UNL     1      13.037  -6.373 -10.723  1.00  0.00    -0.294 N 
HETATM   17  C1  UNL     1      12.093  -8.272 -10.340  1.00  0.00     0.129 A 
HETATM   18  C30 UNL     1      10.426  -7.341  -8.516  1.00  0.00     0.064 C 
HETATM   19  N3  UNL     1      13.037  -7.651 -11.064  1.00  0.00    -0.240 N 
HETATM   20  C29 UNL     1      10.870  -6.513  -7.327  1.00  0.00     0.129 C 
ATOM     21  H2  UNL     1      13.660  -5.672 -11.122  1.00  0.00     0.187 HD
BRANCH  17  22
HETATM   22  N1  UNL     1      11.802  -9.509 -10.400  1.00  0.00    -0.384 N 
ATOM     23  H12 UNL     1      11.675 -10.132  -9.602  1.00  0.00     0.157 HD
ATOM     24  H11 UNL     1      11.654 -10.069 -11.240  1.00  0.00     0.157 HD
ENDBRANCH  17  22
BRANCH  19  25
HETATM   25  C4  UNL     1      13.931  -8.172 -12.042  1.00  0.00     0.058 A 
HETATM   26  C5  UNL     1      13.693  -8.042 -13.402  1.00  0.00     0.031 A 
HETATM   27  C6  UNL     1      14.557  -8.551 -14.348  1.00  0.00     0.002 A 
HETATM   28  C7  UNL     1      15.704  -9.214 -13.979  1.00  0.00     0.000 A 
HETATM   29  C8  UNL     1      15.959  -9.353 -12.632  1.00  0.00     0.002 A 
HETATM   30  C9  UNL     1      15.083  -8.839 -11.683  1.00  0.00     0.031 A 
ENDBRANCH  19  25
ENDBRANCH   1  12
BRANCH   7  31
HETATM   31  N5  UNL     1       7.406  -1.289  -2.988  1.00  0.00    -0.378 N 
HETATM   32  C18 UNL     1       7.323  -0.965  -1.587  1.00  0.00     0.143 C 
HETATM   33  C19 UNL     1       6.680  -2.175  -0.903  1.00  0.00     0.144 C 
HETATM   34  N6  UNL     1       5.760  -2.746  -1.849  1.00  0.00    -0.364 N 
HETATM   35  C25 UNL     1       5.115  -1.921  -2.870  1.00  0.00     0.144 C 
HETATM   36  C26 UNL     1       6.179  -1.365  -3.777  1.00  0.00     0.143 C 
BRANCH  34  37
HETATM   37  C20 UNL     1       5.441  -4.140  -1.818  1.00  0.00     0.102 A 
HETATM   38  C21 UNL     1       4.379  -4.614  -1.085  1.00  0.00     0.048 A 
HETATM   39  C22 UNL     1       4.092  -5.980  -1.066  1.00  0.00     0.005 A 
HETATM   40  C23 UNL     1       4.876  -6.860  -1.786  1.00  0.00     0.017 A 
HETATM   41  C24 UNL     1       5.925  -6.346  -2.505  1.00  0.00     0.089 A 
HETATM   42  N7  UNL     1       6.175  -5.031  -2.502  1.00  0.00    -0.352 N 
ATOM     43  H7  UNL     1       6.965  -4.688  -3.049  1.00  0.00     0.166 HD
ENDBRANCH  34  37
ENDBRANCH   7  31
TORSDOF 5
ENDMDL
