MODEL 1
REMARK VINA RESULT: -10.075803186      0.000      0.000
REMARK  5 active torsions:
REMARK  status: ('A' for Active; 'I' for Inactive)
REMARK    1  A    between atoms: N2_6  and  C4_7 
REMARK    2  A    between atoms: C7_10  and  N3_11 
REMARK    3  A    between atoms: C10_17  and  C11_18 
REMARK    4  A    between atoms: C14_21  and  C15_22 
REMARK    5  A    between atoms: C20_29  and  N5_30 
ROOT
HETATM    1  C11 UNL     1       7.895  -3.052  -4.626  1.00  0.00     0.004 C 
HETATM    2  C12 UNL     1       6.989  -3.993  -5.433  1.00  0.00     0.017 C 
HETATM    3  C13 UNL     1       7.880  -5.071  -5.996  1.00  0.00     0.018 C 
HETATM    4  C14 UNL     1       9.305  -4.570  -6.162  1.00  0.00     0.019 C 
HETATM    5  C27 UNL     1       9.312  -3.162  -6.699  1.00  0.00     0.018 C 
HETATM    6  C28 UNL     1       8.664  -2.283  -5.640  1.00  0.00     0.017 C 
HETATM    7  C29 UNL     1      10.001  -4.416  -4.828  1.00  0.00     0.018 C 
HETATM    8  C30 UNL     1       8.841  -4.056  -3.900  1.00  0.00     0.017 C 
ENDROOT
BRANCH   4   9
HETATM    9  C15 UNL     1      10.019  -5.530  -6.986  1.00  0.00     0.092 A 
HETATM   10  N4  UNL     1      10.066  -6.874  -6.958  1.00  0.00    -0.342 N 
HETATM   11  C16 UNL     1      10.895  -7.322  -7.917  1.00  0.00     0.084 A 
ATOM     12  H4  UNL     1       9.549  -7.466  -6.307  1.00  0.00     0.167 HD
HETATM   13  C17 UNL     1      11.332  -8.548  -8.348  1.00  0.00    -0.028 A 
HETATM   14  C26 UNL     1      11.393  -6.216  -8.579  1.00  0.00     0.136 A 
HETATM   15  C18 UNL     1      10.827  -9.750  -7.671  1.00  0.00     0.050 C 
HETATM   16  C19 UNL     1      12.241  -8.617  -9.412  1.00  0.00     0.057 A 
HETATM   17  C20 UNL     1      12.710  -7.497 -10.041  1.00  0.00     0.105 A 
HETATM   18  N7  UNL     1      12.261  -6.304  -9.596  1.00  0.00    -0.327 N 
ATOM     19  H7  UNL     1      12.590  -5.449 -10.046  1.00  0.00     0.169 HD
HETATM   20  N8  UNL     1      10.844  -5.157  -7.991  1.00  0.00    -0.329 N 
ATOM     21  H8  UNL     1      11.021  -4.190  -8.263  1.00  0.00     0.168 HD
BRANCH  17  22
HETATM   22  N5  UNL     1      13.630  -7.518 -11.100  1.00  0.00    -0.364 N 
HETATM   23  C21 UNL     1      14.882  -8.263 -11.033  1.00  0.00     0.154 C 
HETATM   24  C22 UNL     1      14.988  -9.156 -12.249  1.00  0.00     0.291 C 
HETATM   25  N6  UNL     1      14.803  -8.361 -13.456  1.00  0.00     0.087 N 
HETATM   26  C23 UNL     1      14.948  -9.256 -14.586  1.00  0.00     0.310 C 
HETATM   27  C24 UNL     1      13.463  -7.833 -13.464  1.00  0.00     0.291 C 
HETATM   28  C25 UNL     1      13.378  -6.806 -12.324  1.00  0.00     0.154 C 
ENDBRANCH  17  22
ENDBRANCH   4   9
BRANCH   1  29
HETATM   29  C10 UNL     1       7.201  -2.319  -3.581  1.00  0.00     0.045 A 
HETATM   30  C2  UNL     1       7.694  -1.127  -3.021  1.00  0.00    -0.020 A 
HETATM   31  C1  UNL     1       8.878  -0.332  -3.356  1.00  0.00     0.052 C 
HETATM   32  C3  UNL     1       6.832  -0.717  -2.016  1.00  0.00     0.116 A 
HETATM   33  N1  UNL     1       5.873  -1.622  -1.980  1.00  0.00    -0.309 N 
HETATM   34  N2  UNL     1       6.075  -2.588  -2.909  1.00  0.00    -0.291 N 
ATOM     35  H1  UNL     1       5.081  -1.597  -1.337  1.00  0.00     0.186 HD
BRANCH  34  36
HETATM   36  C4  UNL     1       5.172  -3.706  -3.034  1.00  0.00     0.108 C 
HETATM   37  C5  UNL     1       5.683  -4.923  -2.277  1.00  0.00     0.029 C 
HETATM   38  C6  UNL     1       4.907  -5.298  -1.075  1.00  0.00     0.035 C 
HETATM   39  C7  UNL     1       3.432  -5.517  -1.331  1.00  0.00     0.183 C 
HETATM   40  C8  UNL     1       2.914  -4.434  -2.272  1.00  0.00     0.035 C 
HETATM   41  C9  UNL     1       3.906  -3.310  -2.201  1.00  0.00     0.029 C 
BRANCH  39  42
HETATM   42  N3  UNL     1       3.246  -6.807  -1.923  1.00  0.00    -0.075 N 
ATOM     43  H33 UNL     1       2.971  -6.748  -2.903  1.00  0.00     0.274 HD
ATOM     44  H32 UNL     1       4.127  -7.305  -2.051  1.00  0.00     0.274 HD
ATOM     45  H31 UNL     1       2.579  -7.337  -1.364  1.00  0.00     0.274 HD
ENDBRANCH  39  42
ENDBRANCH  34  36
ENDBRANCH   1  29
TORSDOF 5
ENDMDL
MODEL 2
REMARK VINA RESULT: -10.028821814      3.351      5.273
REMARK  5 active torsions:
REMARK  status: ('A' for Active; 'I' for Inactive)
REMARK    1  A    between atoms: N2_6  and  C4_7 
REMARK    2  A    between atoms: C7_10  and  N3_11 
REMARK    3  A    between atoms: C10_17  and  C11_18 
REMARK    4  A    between atoms: C14_21  and  C15_22 
REMARK    5  A    between atoms: C20_29  and  N5_30 
ROOT
HETATM    1  C11 UNL     1      10.119  -9.303  -4.361  1.00  0.00     0.004 C 
HETATM    2  C12 UNL     1      10.869 -10.409  -5.117  1.00  0.00     0.017 C 
HETATM    3  C13 UNL     1      11.672  -9.726  -6.194  1.00  0.00     0.018 C 
HETATM    4  C14 UNL     1      11.031  -8.410  -6.602  1.00  0.00     0.019 C 
HETATM    5  C27 UNL     1       9.534  -8.556  -6.689  1.00  0.00     0.018 C 
HETATM    6  C28 UNL     1       9.039  -8.861  -5.282  1.00  0.00     0.017 C 
HETATM    7  C29 UNL     1      11.197  -7.354  -5.533  1.00  0.00     0.018 C 
HETATM    8  C30 UNL     1      11.205  -8.189  -4.253  1.00  0.00     0.017 C 
ENDROOT
BRANCH   4   9
HETATM    9  C15 UNL     1      11.663  -7.973  -7.835  1.00  0.00     0.092 A 
HETATM   10  N4  UNL     1      11.611  -6.807  -8.503  1.00  0.00    -0.342 N 
HETATM   11  C16 UNL     1      12.354  -6.887  -9.621  1.00  0.00     0.084 A 
ATOM     12  H4  UNL     1      11.087  -5.984  -8.206  1.00  0.00     0.167 HD
HETATM   13  C17 UNL     1      12.663  -6.050 -10.661  1.00  0.00    -0.028 A 
HETATM   14  C26 UNL     1      12.900  -8.156  -9.660  1.00  0.00     0.136 A 
HETATM   15  C18 UNL     1      12.104  -4.692 -10.658  1.00  0.00     0.050 C 
HETATM   16  C19 UNL     1      13.495  -6.512 -11.690  1.00  0.00     0.057 A 
HETATM   17  C20 UNL     1      14.015  -7.777 -11.692  1.00  0.00     0.105 A 
HETATM   18  N7  UNL     1      13.695  -8.578 -10.654  1.00  0.00    -0.327 N 
ATOM     19  H7  UNL     1      14.069  -9.527 -10.624  1.00  0.00     0.169 HD
HETATM   20  N8  UNL     1      12.462  -8.780  -8.571  1.00  0.00    -0.329 N 
ATOM     21  H8  UNL     1      12.698  -9.741  -8.322  1.00  0.00     0.168 HD
BRANCH  17  22
HETATM   22  N5  UNL     1      14.840  -8.285 -12.706  1.00  0.00    -0.364 N 
HETATM   23  C21 UNL     1      16.080  -8.998 -12.421  1.00  0.00     0.154 C 
HETATM   24  C22 UNL     1      16.066 -10.321 -13.153  1.00  0.00     0.291 C 
HETATM   25  N6  UNL     1      15.791 -10.094 -14.567  1.00  0.00     0.087 N 
HETATM   26  C23 UNL     1      15.823 -11.386 -15.222  1.00  0.00     0.310 C 
HETATM   27  C24 UNL     1      14.465  -9.550 -14.701  1.00  0.00     0.291 C 
HETATM   28  C25 UNL     1      14.495  -8.137 -14.095  1.00  0.00     0.154 C 
ENDBRANCH  17  22
ENDBRANCH   4   9
BRANCH   1  29
HETATM   29  C10 UNL     1       9.764  -9.657  -2.997  1.00  0.00     0.045 A 
HETATM   30  C2  UNL     1      10.431 -10.653  -2.262  1.00  0.00    -0.020 A 
HETATM   31  C1  UNL     1      11.600 -11.469  -2.601  1.00  0.00     0.052 C 
HETATM   32  C3  UNL     1       9.814 -10.786  -1.029  1.00  0.00     0.116 A 
HETATM   33  N1  UNL     1       8.827  -9.910  -1.030  1.00  0.00    -0.309 N 
HETATM   34  N2  UNL     1       8.780  -9.226  -2.199  1.00  0.00    -0.291 N 
ATOM     35  H1  UNL     1       8.183  -9.768  -0.251  1.00  0.00     0.186 HD
BRANCH  34  36
HETATM   36  C4  UNL     1       7.759  -8.236  -2.446  1.00  0.00     0.108 C 
HETATM   37  C5  UNL     1       6.384  -8.874  -2.572  1.00  0.00     0.029 C 
HETATM   38  C6  UNL     1       5.445  -8.587  -1.465  1.00  0.00     0.035 C 
HETATM   39  C7  UNL     1       5.232  -7.114  -1.198  1.00  0.00     0.183 C 
HETATM   40  C8  UNL     1       6.570  -6.385  -1.278  1.00  0.00     0.035 C 
HETATM   41  C9  UNL     1       7.628  -7.435  -1.106  1.00  0.00     0.029 C 
BRANCH  39  42
HETATM   42  N3  UNL     1       4.330  -6.586  -2.177  1.00  0.00    -0.075 N 
ATOM     43  H33 UNL     1       4.334  -5.566  -2.197  1.00  0.00     0.274 HD
ATOM     44  H32 UNL     1       4.653  -6.750  -3.130  1.00  0.00     0.274 HD
ATOM     45  H31 UNL     1       3.399  -6.967  -2.012  1.00  0.00     0.274 HD
ENDBRANCH  39  42
ENDBRANCH  34  36
ENDBRANCH   1  29
TORSDOF 5
ENDMDL
MODEL 3
REMARK VINA RESULT: -9.912144632      4.478      6.895
REMARK  5 active torsions:
REMARK  status: ('A' for Active; 'I' for Inactive)
REMARK    1  A    between atoms: N2_6  and  C4_7 
REMARK    2  A    between atoms: C7_10  and  N3_11 
REMARK    3  A    between atoms: C10_17  and  C11_18 
REMARK    4  A    between atoms: C14_21  and  C15_22 
REMARK    5  A    between atoms: C20_29  and  N5_30 
ROOT
HETATM    1  C11 UNL     1      11.990  -6.648  -7.771  1.00  0.00     0.004 C 
HETATM    2  C12 UNL     1      11.171  -7.786  -8.395  1.00  0.00     0.017 C 
HETATM    3  C13 UNL     1      12.018  -8.374  -9.495  1.00  0.00     0.018 C 
HETATM    4  C14 UNL     1      12.992  -7.345 -10.043  1.00  0.00     0.019 C 
HETATM    5  C27 UNL     1      12.322  -6.002 -10.178  1.00  0.00     0.018 C 
HETATM    6  C28 UNL     1      11.959  -5.548  -8.771  1.00  0.00     0.017 C 
HETATM    7  C29 UNL     1      14.109  -7.058  -9.066  1.00  0.00     0.018 C 
HETATM    8  C30 UNL     1      13.420  -7.268  -7.718  1.00  0.00     0.017 C 
ENDROOT
BRANCH   4   9
HETATM    9  C15 UNL     1      13.539  -7.869 -11.282  1.00  0.00     0.092 A 
HETATM   10  N4  UNL     1      13.190  -7.678 -12.567  1.00  0.00    -0.342 N 
HETATM   11  C16 UNL     1      13.986  -8.405 -13.371  1.00  0.00     0.084 A 
ATOM     12  H4  UNL     1      12.434  -7.071 -12.885  1.00  0.00     0.167 HD
HETATM   13  C17 UNL     1      14.098  -8.614 -14.720  1.00  0.00    -0.028 A 
HETATM   14  C26 UNL     1      14.876  -9.084 -12.560  1.00  0.00     0.136 A 
HETATM   15  C18 UNL     1      13.171  -7.911 -15.617  1.00  0.00     0.050 C 
HETATM   16  C19 UNL     1      15.084  -9.486 -15.201  1.00  0.00     0.057 A 
HETATM   17  C20 UNL     1      15.946 -10.140 -14.364  1.00  0.00     0.105 A 
HETATM   18  N7  UNL     1      15.814  -9.913 -13.041  1.00  0.00    -0.327 N 
ATOM     19  H7  UNL     1      16.443 -10.383 -12.390  1.00  0.00     0.169 HD
HETATM   20  N8  UNL     1      14.577  -8.737 -11.312  1.00  0.00    -0.329 N 
ATOM     21  H8  UNL     1      15.065  -9.080 -10.485  1.00  0.00     0.168 HD
BRANCH  17  22
HETATM   22  N5  UNL     1      16.938 -11.031 -14.800  1.00  0.00    -0.364 N 
HETATM   23  C21 UNL     1      18.142 -11.301 -14.022  1.00  0.00     0.154 C 
HETATM   24  C22 UNL     1      18.291 -12.795 -13.848  1.00  0.00     0.291 C 
HETATM   25  N6  UNL     1      18.234 -13.446 -15.151  1.00  0.00     0.087 N 
HETATM   26  C23 UNL     1      18.416 -14.866 -14.929  1.00  0.00     0.310 C 
HETATM   27  C24 UNL     1      16.928 -13.238 -15.719  1.00  0.00     0.291 C 
HETATM   28  C25 UNL     1      16.812 -11.740 -16.044  1.00  0.00     0.154 C 
ENDBRANCH  17  22
ENDBRANCH   4   9
BRANCH   1  29
HETATM   29  C10 UNL     1      11.627  -6.344  -6.397  1.00  0.00     0.045 A 
HETATM   30  C2  UNL     1      11.838  -5.086  -5.806  1.00  0.00    -0.020 A 
HETATM   31  C1  UNL     1      12.353  -3.838  -6.374  1.00  0.00     0.052 C 
HETATM   32  C3  UNL     1      11.441  -5.145  -4.480  1.00  0.00     0.116 A 
HETATM   33  N1  UNL     1      11.014  -6.379  -4.291  1.00  0.00    -0.309 N 
HETATM   34  N2  UNL     1      11.118  -7.112  -5.426  1.00  0.00    -0.291 N 
ATOM     35  H1  UNL     1      10.653  -6.734  -3.405  1.00  0.00     0.186 HD
BRANCH  34  36
HETATM   36  C4  UNL     1      10.743  -8.505  -5.453  1.00  0.00     0.108 C 
HETATM   37  C5  UNL     1      11.922  -9.406  -5.120  1.00  0.00     0.029 C 
HETATM   38  C6  UNL     1      11.842 -10.106  -3.819  1.00  0.00     0.035 C 
HETATM   39  C7  UNL     1      10.585 -10.927  -3.632  1.00  0.00     0.183 C 
HETATM   40  C8  UNL     1       9.386 -10.145  -4.159  1.00  0.00     0.035 C 
HETATM   41  C9  UNL     1       9.814  -8.707  -4.209  1.00  0.00     0.029 C 
BRANCH  39  42
HETATM   42  N3  UNL     1      10.719 -12.158  -4.350  1.00  0.00    -0.075 N 
ATOM     43  H33 UNL     1      10.785 -12.014  -5.359  1.00  0.00     0.274 HD
ATOM     44  H32 UNL     1      11.631 -12.592  -4.208  1.00  0.00     0.274 HD
ATOM     45  H31 UNL     1       9.951 -12.777  -4.096  1.00  0.00     0.274 HD
ENDBRANCH  39  42
ENDBRANCH  34  36
ENDBRANCH   1  29
TORSDOF 5
ENDMDL
MODEL 4
REMARK VINA RESULT: -9.871246215      3.920      7.129
REMARK  5 active torsions:
REMARK  status: ('A' for Active; 'I' for Inactive)
REMARK    1  A    between atoms: N2_6  and  C4_7 
REMARK    2  A    between atoms: C7_10  and  N3_11 
REMARK    3  A    between atoms: C10_17  and  C11_18 
REMARK    4  A    between atoms: C14_21  and  C15_22 
REMARK    5  A    between atoms: C20_29  and  N5_30 
ROOT
HETATM    1  C11 UNL     1      11.694  -6.335  -8.353  1.00  0.00     0.004 C 
HETATM    2  C12 UNL     1      10.812  -7.307  -9.149  1.00  0.00     0.017 C 
HETATM    3  C13 UNL     1      11.703  -7.952 -10.180  1.00  0.00     0.018 C 
HETATM    4  C14 UNL     1      12.872  -7.048 -10.534  1.00  0.00     0.019 C 
HETATM    5  C27 UNL     1      12.416  -5.616 -10.651  1.00  0.00     0.018 C 
HETATM    6  C28 UNL     1      11.942  -5.190  -9.269  1.00  0.00     0.017 C 
HETATM    7  C29 UNL     1      13.884  -6.979  -9.413  1.00  0.00     0.018 C 
HETATM    8  C30 UNL     1      13.006  -7.158  -8.174  1.00  0.00     0.017 C 
ENDROOT
BRANCH   4   9
HETATM    9  C15 UNL     1      13.495  -7.579 -11.733  1.00  0.00     0.092 A 
HETATM   10  N4  UNL     1      13.097  -7.594 -13.018  1.00  0.00    -0.342 N 
HETATM   11  C16 UNL     1      14.011  -8.229 -13.773  1.00  0.00     0.084 A 
ATOM     12  H4  UNL     1      12.230  -7.185 -13.368  1.00  0.00     0.167 HD
HETATM   13  C17 UNL     1      14.143  -8.551 -15.098  1.00  0.00    -0.028 A 
HETATM   14  C26 UNL     1      15.030  -8.631 -12.930  1.00  0.00     0.136 A 
HETATM   15  C18 UNL     1      13.081  -8.141 -16.028  1.00  0.00     0.050 C 
HETATM   16  C19 UNL     1      15.277  -9.255 -15.525  1.00  0.00     0.057 A 
HETATM   17  C20 UNL     1      16.264  -9.635 -14.658  1.00  0.00     0.105 A 
HETATM   18  N7  UNL     1      16.108  -9.303 -13.359  1.00  0.00    -0.327 N 
ATOM     19  H7  UNL     1      16.828  -9.570 -12.687  1.00  0.00     0.169 HD
HETATM   20  N8  UNL     1      14.685  -8.223 -11.713  1.00  0.00    -0.329 N 
ATOM     21  H8  UNL     1      15.244  -8.375 -10.873  1.00  0.00     0.168 HD
BRANCH  17  22
HETATM   22  N5  UNL     1      17.408 -10.353 -15.037  1.00  0.00    -0.364 N 
HETATM   23  C21 UNL     1      18.756  -9.910 -14.698  1.00  0.00     0.154 C 
HETATM   24  C22 UNL     1      19.492 -11.047 -14.026  1.00  0.00     0.291 C 
HETATM   25  N6  UNL     1      19.422 -12.238 -14.864  1.00  0.00     0.087 N 
HETATM   26  C23 UNL     1      20.169 -13.281 -14.191  1.00  0.00     0.310 C 
HETATM   27  C24 UNL     1      18.048 -12.656 -14.963  1.00  0.00     0.291 C 
HETATM   28  C25 UNL     1      17.309 -11.582 -15.778  1.00  0.00     0.154 C 
ENDBRANCH  17  22
ENDBRANCH   4   9
BRANCH   1  29
HETATM   29  C10 UNL     1      11.203  -6.055  -7.014  1.00  0.00     0.045 A 
HETATM   30  C2  UNL     1      10.734  -7.054  -6.143  1.00  0.00    -0.020 A 
HETATM   31  C1  UNL     1      10.688  -8.510  -6.296  1.00  0.00     0.052 C 
HETATM   32  C3  UNL     1      10.286  -6.454  -4.977  1.00  0.00     0.116 A 
HETATM   33  N1  UNL     1      10.481  -5.161  -5.146  1.00  0.00    -0.309 N 
HETATM   34  N2  UNL     1      11.029  -4.901  -6.358  1.00  0.00    -0.291 N 
ATOM     35  H1  UNL     1      10.249  -4.448  -4.453  1.00  0.00     0.186 HD
BRANCH  34  36
HETATM   36  C4  UNL     1      11.300  -3.549  -6.783  1.00  0.00     0.108 C 
HETATM   37  C5  UNL     1      10.015  -2.772  -7.023  1.00  0.00     0.029 C 
HETATM   38  C6  UNL     1       9.733  -1.693  -6.051  1.00  0.00     0.035 C 
HETATM   39  C7  UNL     1      10.847  -0.681  -5.906  1.00  0.00     0.183 C 
HETATM   40  C8  UNL     1      12.190  -1.405  -5.880  1.00  0.00     0.035 C 
HETATM   41  C9  UNL     1      11.888  -2.831  -5.522  1.00  0.00     0.029 C 
BRANCH  39  42
HETATM   42  N3  UNL     1      10.803   0.226  -7.012  1.00  0.00    -0.075 N 
ATOM     43  H33 UNL     1      11.693   0.275  -7.510  1.00  0.00     0.274 HD
ATOM     44  H32 UNL     1      10.230  -0.125  -7.779  1.00  0.00     0.274 HD
ATOM     45  H31 UNL     1      10.493   1.140  -6.683  1.00  0.00     0.274 HD
ENDBRANCH  39  42
ENDBRANCH  34  36
ENDBRANCH   1  29
TORSDOF 5
ENDMDL
MODEL 5
REMARK VINA RESULT: -9.811721382      3.517      6.868
REMARK  5 active torsions:
REMARK  status: ('A' for Active; 'I' for Inactive)
REMARK    1  A    between atoms: N2_6  and  C4_7 
REMARK    2  A    between atoms: C7_10  and  N3_11 
REMARK    3  A    between atoms: C10_17  and  C11_18 
REMARK    4  A    between atoms: C14_21  and  C15_22 
REMARK    5  A    between atoms: C20_29  and  N5_30 
ROOT
HETATM    1  C11 UNL     1      11.641  -6.289  -7.810  1.00  0.00     0.004 C 
HETATM    2  C12 UNL     1      11.941  -5.187  -8.836  1.00  0.00     0.017 C 
HETATM    3  C13 UNL     1      12.304  -5.883 -10.123  1.00  0.00     0.018 C 
HETATM    4  C14 UNL     1      12.876  -7.265  -9.853  1.00  0.00     0.019 C 
HETATM    5  C27 UNL     1      13.808  -7.230  -8.669  1.00  0.00     0.018 C 
HETATM    6  C28 UNL     1      12.965  -6.866  -7.455  1.00  0.00     0.017 C 
HETATM    7  C29 UNL     1      11.806  -8.233  -9.400  1.00  0.00     0.018 C 
HETATM    8  C30 UNL     1      10.833  -7.315  -8.662  1.00  0.00     0.017 C 
ENDROOT
BRANCH   4   9
HETATM    9  C15 UNL     1      13.486  -7.740 -11.083  1.00  0.00     0.092 A 
HETATM   10  N4  UNL     1      13.119  -7.616 -12.371  1.00  0.00    -0.342 N 
HETATM   11  C16 UNL     1      14.001  -8.253 -13.161  1.00  0.00     0.084 A 
ATOM     12  H4  UNL     1      12.294  -7.113 -12.700  1.00  0.00     0.167 HD
HETATM   13  C17 UNL     1      14.140  -8.471 -14.507  1.00  0.00    -0.028 A 
HETATM   14  C26 UNL     1      14.967  -8.802 -12.339  1.00  0.00     0.136 A 
HETATM   15  C18 UNL     1      13.135  -7.904 -15.416  1.00  0.00     0.050 C 
HETATM   16  C19 UNL     1      15.228  -9.222 -14.972  1.00  0.00     0.057 A 
HETATM   17  C20 UNL     1      16.163  -9.749 -14.124  1.00  0.00     0.105 A 
HETATM   18  N7  UNL     1      16.001  -9.516 -12.804  1.00  0.00    -0.327 N 
ATOM     19  H7  UNL     1      16.682  -9.894 -12.145  1.00  0.00     0.169 HD
HETATM   20  N8  UNL     1      14.624  -8.472 -11.097  1.00  0.00    -0.329 N 
ATOM     21  H8  UNL     1      15.149  -8.738 -10.264  1.00  0.00     0.168 HD
BRANCH  17  22
HETATM   22  N5  UNL     1      17.258 -10.517 -14.543  1.00  0.00    -0.364 N 
HETATM   23  C21 UNL     1      18.638 -10.080 -14.356  1.00  0.00     0.154 C 
HETATM   24  C22 UNL     1      19.412 -11.179 -13.664  1.00  0.00     0.291 C 
HETATM   25  N6  UNL     1      19.251 -12.428 -14.399  1.00  0.00     0.087 N 
HETATM   26  C23 UNL     1      20.038 -13.433 -13.714  1.00  0.00     0.310 C 
HETATM   27  C24 UNL     1      17.867 -12.822 -14.348  1.00  0.00     0.291 C 
HETATM   28  C25 UNL     1      17.077 -11.796 -15.176  1.00  0.00     0.154 C 
ENDBRANCH  17  22
ENDBRANCH   4   9
BRANCH   1  29
HETATM   29  C10 UNL     1      10.759  -5.869  -6.735  1.00  0.00     0.045 A 
HETATM   30  C2  UNL     1      10.006  -6.770  -5.961  1.00  0.00    -0.020 A 
HETATM   31  C1  UNL     1       9.967  -8.235  -5.969  1.00  0.00     0.052 C 
HETATM   32  C3  UNL     1       9.229  -6.050  -5.068  1.00  0.00     0.116 A 
HETATM   33  N1  UNL     1       9.506  -4.781  -5.299  1.00  0.00    -0.309 N 
HETATM   34  N2  UNL     1      10.419  -4.652  -6.293  1.00  0.00    -0.291 N 
ATOM     35  H1  UNL     1       9.088  -3.999  -4.794  1.00  0.00     0.186 HD
BRANCH  34  36
HETATM   36  C4  UNL     1      10.853  -3.352  -6.746  1.00  0.00     0.108 C 
HETATM   37  C5  UNL     1       9.671  -2.449  -7.061  1.00  0.00     0.029 C 
HETATM   38  C6  UNL     1       9.471  -1.314  -6.134  1.00  0.00     0.035 C 
HETATM   39  C7  UNL     1      10.684  -0.424  -5.973  1.00  0.00     0.183 C 
HETATM   40  C8  UNL     1      11.937  -1.287  -5.871  1.00  0.00     0.035 C 
HETATM   41  C9  UNL     1      11.468  -2.659  -5.483  1.00  0.00     0.029 C 
BRANCH  39  42
HETATM   42  N3  UNL     1      10.781   0.445  -7.107  1.00  0.00    -0.075 N 
ATOM     43  H33 UNL     1       9.879   0.845  -7.368  1.00  0.00     0.274 HD
ATOM     44  H32 UNL     1      11.266   1.315  -6.887  1.00  0.00     0.274 HD
ATOM     45  H31 UNL     1      11.219  -0.060  -7.877  1.00  0.00     0.274 HD
ENDBRANCH  39  42
ENDBRANCH  34  36
ENDBRANCH   1  29
TORSDOF 5
ENDMDL
