MODEL 1
REMARK VINA RESULT: -8.132523029      0.000      0.000
REMARK  8 active torsions:
REMARK  status: ('A' for Active; 'I' for Inactive)
REMARK    1  A    between atoms: C8_9  and  O2_10 
REMARK    2  A    between atoms: O2_10  and  C9_11 
REMARK    3  A    between atoms: C9_11  and  C10_12 
REMARK    4  A    between atoms: C9_11  and  C16_27 
REMARK    5  A    between atoms: C10_12  and  C11_14 
REMARK    6  A    between atoms: C11_14  and  O4_15 
REMARK    7  A    between atoms: O4_15  and  C12_16 
REMARK    8  A    between atoms: C16_27  and  O6_28 
ROOT
HETATM    1  C9  UNL     1      13.717   4.147  19.619  1.00  0.00     0.231 C 
ENDROOT
BRANCH   1   2
HETATM    2  O2  UNL     1      14.225   2.830  19.472  1.00  0.00    -0.362 OA
BRANCH   2   3
HETATM    3  C8  UNL     1      13.294   1.854  19.788  1.00  0.00     0.192 C 
HETATM    4  C1  UNL     1      14.133   0.684  20.246  1.00  0.00     0.155 C 
HETATM    5  O1  UNL     1      14.334   0.714  21.450  1.00  0.00    -0.295 OA
HETATM    6  C2  UNL     1      14.743  -0.451  19.573  1.00  0.00     0.081 C 
HETATM    7  C3  UNL     1      14.158  -0.852  18.263  1.00  0.00     0.012 C 
HETATM    8  C4  UNL     1      14.190   0.188  17.196  1.00  0.00    -0.010 A 
HETATM    9  C5  UNL     1      12.881   0.249  16.359  1.00  0.00     0.010 A 
HETATM   10  C6  UNL     1      13.265   1.321  17.347  1.00  0.00    -0.007 A 
HETATM   11  C7  UNL     1      12.493   1.350  18.629  1.00  0.00     0.044 C 
ENDBRANCH   2   3
ENDBRANCH   1   2
BRANCH   1  12
HETATM   12  C10 UNL     1      13.756   4.554  21.022  1.00  0.00     0.182 C 
HETATM   13  O3  UNL     1      12.875   5.370  21.389  1.00  0.00    -0.293 OA
BRANCH  12  14
HETATM   14  C11 UNL     1      14.688   4.151  22.083  1.00  0.00     0.252 C 
BRANCH  14  15
HETATM   15  O4  UNL     1      15.950   4.796  21.925  1.00  0.00    -0.352 OA
BRANCH  15  16
HETATM   16  C12 UNL     1      16.890   3.843  21.561  1.00  0.00     0.297 C 
HETATM   17  O5  UNL     1      17.608   4.283  20.449  1.00  0.00    -0.306 OA
HETATM   18  C13 UNL     1      18.935   4.402  20.839  1.00  0.00     0.526 C 
HETATM   19  N1  UNL     1      19.083   5.475  21.793  1.00  0.00    -0.021 N 
HETATM   20  N2  UNL     1      19.057   3.233  21.734  1.00  0.00    -0.012 N 
HETATM   21  C14 UNL     1      18.466   4.998  23.043  1.00  0.00     0.275 C 
ATOM     22  H12 UNL     1      20.047   5.786  21.909  1.00  0.00     0.282 HD
ATOM     23  H11 UNL     1      18.705   6.364  21.467  1.00  0.00     0.282 HD
HETATM   24  C15 UNL     1      17.952   3.654  22.621  1.00  0.00     0.271 C 
ATOM     25  H22 UNL     1      19.012   2.303  21.318  1.00  0.00     0.283 HD
ATOM     26  H21 UNL     1      19.966   3.043  22.155  1.00  0.00     0.283 HD
ENDBRANCH  15  16
ENDBRANCH  14  15
ENDBRANCH  12  14
ENDBRANCH   1  12
BRANCH   1  27
HETATM   27  C16 UNL     1      14.567   4.936  18.657  1.00  0.00     0.138 A 
HETATM   28  C17 UNL     1      15.532   4.240  17.781  1.00  0.00     0.274 A 
HETATM   29  N3  UNL     1      14.799   4.605  16.586  1.00  0.00    -0.069 N 
HETATM   30  C18 UNL     1      13.809   5.273  17.410  1.00  0.00     0.274 A 
ATOM     31  H32 UNL     1      15.266   5.112  15.833  1.00  0.00     0.277 HD
ATOM     32  H31 UNL     1      14.512   3.888  15.920  1.00  0.00     0.277 HD
BRANCH  27  33
HETATM   33  O6  UNL     1      15.173   6.027  19.318  1.00  0.00    -0.383 OA
ATOM     34  H6  UNL     1      16.030   6.202  18.948  1.00  0.00     0.210 HD
ENDBRANCH  27  33
ENDBRANCH   1  27
TORSDOF 8
ENDMDL
MODEL 2
REMARK VINA RESULT: -8.056462134      2.566      4.192
REMARK  8 active torsions:
REMARK  status: ('A' for Active; 'I' for Inactive)
REMARK    1  A    between atoms: C8_9  and  O2_10 
REMARK    2  A    between atoms: O2_10  and  C9_11 
REMARK    3  A    between atoms: C9_11  and  C10_12 
REMARK    4  A    between atoms: C9_11  and  C16_27 
REMARK    5  A    between atoms: C10_12  and  C11_14 
REMARK    6  A    between atoms: C11_14  and  O4_15 
REMARK    7  A    between atoms: O4_15  and  C12_16 
REMARK    8  A    between atoms: C16_27  and  O6_28 
ROOT
HETATM    1  C9  UNL     1      15.395   4.237  19.917  1.00  0.00     0.231 C 
ENDROOT
BRANCH   1   2
HETATM    2  O2  UNL     1      14.451   3.179  19.874  1.00  0.00    -0.362 OA
BRANCH   2   3
HETATM    3  C8  UNL     1      14.144   2.782  18.583  1.00  0.00     0.192 C 
HETATM    4  C1  UNL     1      12.635   2.701  18.575  1.00  0.00     0.155 C 
HETATM    5  O1  UNL     1      12.125   3.760  18.243  1.00  0.00    -0.295 OA
HETATM    6  C2  UNL     1      11.674   1.651  18.872  1.00  0.00     0.081 C 
HETATM    7  C3  UNL     1      12.163   0.246  18.783  1.00  0.00     0.012 C 
HETATM    8  C4  UNL     1      13.290  -0.105  19.693  1.00  0.00    -0.010 A 
HETATM    9  C5  UNL     1      14.371  -0.995  19.016  1.00  0.00     0.010 A 
HETATM   10  C6  UNL     1      14.609   0.454  19.360  1.00  0.00    -0.007 A 
HETATM   11  C7  UNL     1      14.625   1.415  18.213  1.00  0.00     0.044 C 
ENDBRANCH   2   3
ENDBRANCH   1   2
BRANCH   1  12
HETATM   12  C10 UNL     1      14.720   5.511  20.158  1.00  0.00     0.182 C 
HETATM   13  O3  UNL     1      15.380   6.548  19.899  1.00  0.00    -0.293 OA
BRANCH  12  14
HETATM   14  C11 UNL     1      13.368   5.766  20.669  1.00  0.00     0.252 C 
BRANCH  14  15
HETATM   15  O4  UNL     1      13.365   5.832  22.093  1.00  0.00    -0.352 OA
BRANCH  15  16
HETATM   16  C12 UNL     1      12.665   4.739  22.585  1.00  0.00     0.297 C 
HETATM   17  O5  UNL     1      13.557   3.748  22.995  1.00  0.00    -0.306 OA
HETATM   18  C13 UNL     1      13.373   3.571  24.359  1.00  0.00     0.526 C 
HETATM   19  N1  UNL     1      13.805   4.745  25.080  1.00  0.00    -0.021 N 
HETATM   20  N2  UNL     1      11.907   3.726  24.454  1.00  0.00    -0.012 N 
HETATM   21  C14 UNL     1      12.805   5.788  24.796  1.00  0.00     0.275 C 
ATOM     22  H12 UNL     1      13.949   4.580  26.077  1.00  0.00     0.282 HD
ATOM     23  H11 UNL     1      14.761   5.027  24.862  1.00  0.00     0.282 HD
HETATM   24  C15 UNL     1      11.896   5.072  23.843  1.00  0.00     0.271 C 
ATOM     25  H22 UNL     1      11.319   3.004  24.038  1.00  0.00     0.283 HD
ATOM     26  H21 UNL     1      11.469   3.609  25.368  1.00  0.00     0.283 HD
ENDBRANCH  15  16
ENDBRANCH  14  15
ENDBRANCH  12  14
ENDBRANCH   1  12
BRANCH   1  27
HETATM   27  C16 UNL     1      16.365   3.770  20.971  1.00  0.00     0.138 A 
HETATM   28  C17 UNL     1      16.383   2.351  21.382  1.00  0.00     0.274 A 
HETATM   29  N3  UNL     1      17.713   2.152  20.843  1.00  0.00    -0.069 N 
HETATM   30  C18 UNL     1      17.725   3.531  20.393  1.00  0.00     0.274 A 
ATOM     31  H32 UNL     1      18.461   1.801  21.442  1.00  0.00     0.277 HD
ATOM     32  H31 UNL     1      17.891   1.395  20.183  1.00  0.00     0.277 HD
BRANCH  27  33
HETATM   33  O6  UNL     1      16.319   4.626  22.094  1.00  0.00    -0.383 OA
ATOM     34  H6  UNL     1      17.183   4.712  22.479  1.00  0.00     0.210 HD
ENDBRANCH  27  33
ENDBRANCH   1  27
TORSDOF 8
ENDMDL
MODEL 3
REMARK VINA RESULT: -7.996172286      2.153      4.249
REMARK  8 active torsions:
REMARK  status: ('A' for Active; 'I' for Inactive)
REMARK    1  A    between atoms: C8_9  and  O2_10 
REMARK    2  A    between atoms: O2_10  and  C9_11 
REMARK    3  A    between atoms: C9_11  and  C10_12 
REMARK    4  A    between atoms: C9_11  and  C16_27 
REMARK    5  A    between atoms: C10_12  and  C11_14 
REMARK    6  A    between atoms: C11_14  and  O4_15 
REMARK    7  A    between atoms: O4_15  and  C12_16 
REMARK    8  A    between atoms: C16_27  and  O6_28 
ROOT
HETATM    1  C9  UNL     1      13.324   3.943  18.973  1.00  0.00     0.231 C 
ENDROOT
BRANCH   1   2
HETATM    2  O2  UNL     1      13.222   3.779  20.378  1.00  0.00    -0.362 OA
BRANCH   2   3
HETATM    3  C8  UNL     1      13.392   4.964  21.075  1.00  0.00     0.192 C 
HETATM    4  C1  UNL     1      13.355   4.544  22.526  1.00  0.00     0.155 C 
HETATM    5  O1  UNL     1      14.467   4.274  22.949  1.00  0.00    -0.295 OA
HETATM    6  C2  UNL     1      12.295   4.393  23.511  1.00  0.00     0.081 C 
HETATM    7  C3  UNL     1      11.038   5.156  23.270  1.00  0.00     0.012 C 
HETATM    8  C4  UNL     1      10.322   4.837  22.001  1.00  0.00    -0.010 A 
HETATM    9  C5  UNL     1       9.761   6.096  21.281  1.00  0.00     0.010 A 
HETATM   10  C6  UNL     1      10.939   5.315  20.755  1.00  0.00    -0.007 A 
HETATM   11  C7  UNL     1      12.283   5.955  20.911  1.00  0.00     0.044 C 
ENDBRANCH   2   3
ENDBRANCH   1   2
BRANCH   1  12
HETATM   12  C10 UNL     1      14.634   4.486  18.618  1.00  0.00     0.182 C 
HETATM   13  O3  UNL     1      14.637   5.614  18.066  1.00  0.00    -0.293 OA
BRANCH  12  14
HETATM   14  C11 UNL     1      15.967   3.901  18.807  1.00  0.00     0.252 C 
BRANCH  14  15
HETATM   15  O4  UNL     1      16.666   4.555  19.864  1.00  0.00    -0.352 OA
BRANCH  15  16
HETATM   16  C12 UNL     1      17.692   3.726  20.294  1.00  0.00     0.297 C 
HETATM   17  O5  UNL     1      18.924   4.255  19.907  1.00  0.00    -0.306 OA
HETATM   18  C13 UNL     1      19.631   4.535  21.070  1.00  0.00     0.526 C 
HETATM   19  N1  UNL     1      19.002   5.615  21.791  1.00  0.00    -0.021 N 
HETATM   20  N2  UNL     1      19.232   3.387  21.909  1.00  0.00    -0.012 N 
HETATM   21  C14 UNL     1      17.756   5.061  22.349  1.00  0.00     0.275 C 
ATOM     22  H12 UNL     1      19.607   6.042  22.493  1.00  0.00     0.282 HD
ATOM     23  H11 UNL     1      18.858   6.452  21.226  1.00  0.00     0.282 HD
HETATM   24  C15 UNL     1      17.785   3.666  21.801  1.00  0.00     0.271 C 
ATOM     25  H22 UNL     1      19.564   2.459  21.645  1.00  0.00     0.283 HD
ATOM     26  H21 UNL     1      19.639   3.308  22.841  1.00  0.00     0.283 HD
ENDBRANCH  15  16
ENDBRANCH  14  15
ENDBRANCH  12  14
ENDBRANCH   1  12
BRANCH   1  27
HETATM   27  C16 UNL     1      12.994   2.567  18.456  1.00  0.00     0.138 A 
HETATM   28  C17 UNL     1      13.582   1.375  19.101  1.00  0.00     0.274 A 
HETATM   29  N3  UNL     1      12.289   0.917  19.567  1.00  0.00    -0.069 N 
HETATM   30  C18 UNL     1      11.673   2.091  18.977  1.00  0.00     0.274 A 
ATOM     31  H32 UNL     1      11.956  -0.015  19.321  1.00  0.00     0.277 HD
ATOM     32  H31 UNL     1      12.145   0.704  20.554  1.00  0.00     0.277 HD
BRANCH  27  33
HETATM   33  O6  UNL     1      13.152   2.518  17.053  1.00  0.00    -0.383 OA
ATOM     34  H6  UNL     1      12.523   3.090  16.630  1.00  0.00     0.210 HD
ENDBRANCH  27  33
ENDBRANCH   1  27
TORSDOF 8
ENDMDL
MODEL 4
REMARK VINA RESULT: -7.992301009      1.982      4.047
REMARK  8 active torsions:
REMARK  status: ('A' for Active; 'I' for Inactive)
REMARK    1  A    between atoms: C8_9  and  O2_10 
REMARK    2  A    between atoms: O2_10  and  C9_11 
REMARK    3  A    between atoms: C9_11  and  C10_12 
REMARK    4  A    between atoms: C9_11  and  C16_27 
REMARK    5  A    between atoms: C10_12  and  C11_14 
REMARK    6  A    between atoms: C11_14  and  O4_15 
REMARK    7  A    between atoms: O4_15  and  C12_16 
REMARK    8  A    between atoms: C16_27  and  O6_28 
ROOT
HETATM    1  C9  UNL     1      14.597   3.359  19.757  1.00  0.00     0.231 C 
ENDROOT
BRANCH   1   2
HETATM    2  O2  UNL     1      13.453   3.688  20.527  1.00  0.00    -0.362 OA
BRANCH   2   3
HETATM    3  C8  UNL     1      13.610   4.856  21.256  1.00  0.00     0.192 C 
HETATM    4  C1  UNL     1      13.363   4.432  22.684  1.00  0.00     0.155 C 
HETATM    5  O1  UNL     1      14.394   4.087  23.241  1.00  0.00    -0.295 OA
HETATM    6  C2  UNL     1      12.180   4.347  23.527  1.00  0.00     0.081 C 
HETATM    7  C3  UNL     1      11.016   5.192  23.140  1.00  0.00     0.012 C 
HETATM    8  C4  UNL     1      10.446   4.929  21.788  1.00  0.00    -0.010 A 
HETATM    9  C5  UNL     1      10.064   6.226  21.020  1.00  0.00     0.010 A 
HETATM   10  C6  UNL     1      11.245   5.371  20.635  1.00  0.00    -0.007 A 
HETATM   11  C7  UNL     1      12.598   5.919  20.967  1.00  0.00     0.044 C 
ENDBRANCH   2   3
ENDBRANCH   1   2
BRANCH   1  12
HETATM   12  C10 UNL     1      15.168   2.092  20.209  1.00  0.00     0.182 C 
HETATM   13  O3  UNL     1      14.416   1.088  20.143  1.00  0.00    -0.293 OA
BRANCH  12  14
HETATM   14  C11 UNL     1      16.506   1.812  20.743  1.00  0.00     0.252 C 
BRANCH  14  15
HETATM   15  O4  UNL     1      16.799   2.655  21.855  1.00  0.00    -0.352 OA
BRANCH  15  16
HETATM   16  C12 UNL     1      17.773   3.567  21.474  1.00  0.00     0.297 C 
HETATM   17  O5  UNL     1      17.190   4.809  21.221  1.00  0.00    -0.306 OA
HETATM   18  C13 UNL     1      17.727   5.706  22.134  1.00  0.00     0.526 C 
HETATM   19  N1  UNL     1      17.289   5.384  23.471  1.00  0.00    -0.021 N 
HETATM   20  N2  UNL     1      19.123   5.228  22.190  1.00  0.00    -0.012 N 
HETATM   21  C14 UNL     1      17.997   4.147  23.845  1.00  0.00     0.275 C 
ATOM     22  H12 UNL     1      17.422   6.145  24.137  1.00  0.00     0.282 HD
ATOM     23  H11 UNL     1      16.275   5.315  23.561  1.00  0.00     0.282 HD
HETATM   24  C15 UNL     1      18.756   3.852  22.586  1.00  0.00     0.271 C 
ATOM     25  H22 UNL     1      19.707   5.350  21.362  1.00  0.00     0.283 HD
ATOM     26  H21 UNL     1      19.783   5.738  22.777  1.00  0.00     0.283 HD
ENDBRANCH  15  16
ENDBRANCH  14  15
ENDBRANCH  12  14
ENDBRANCH   1  12
BRANCH   1  27
HETATM   27  C16 UNL     1      14.068   3.403  18.346  1.00  0.00     0.138 A 
HETATM   28  C17 UNL     1      14.058   4.678  17.600  1.00  0.00     0.274 A 
HETATM   29  N3  UNL     1      15.029   4.192  16.642  1.00  0.00    -0.069 N 
HETATM   30  C18 UNL     1      15.095   2.934  17.363  1.00  0.00     0.274 A 
ATOM     31  H32 UNL     1      14.814   4.200  15.645  1.00  0.00     0.277 HD
ATOM     32  H31 UNL     1      15.880   4.723  16.459  1.00  0.00     0.277 HD
BRANCH  27  33
HETATM   33  O6  UNL     1      12.813   2.759  18.273  1.00  0.00    -0.383 OA
ATOM     34  H6  UNL     1      12.486   2.773  17.382  1.00  0.00     0.210 HD
ENDBRANCH  27  33
ENDBRANCH   1  27
TORSDOF 8
ENDMDL
MODEL 5
REMARK VINA RESULT: -7.967190258      2.059      4.411
REMARK  8 active torsions:
REMARK  status: ('A' for Active; 'I' for Inactive)
REMARK    1  A    between atoms: C8_9  and  O2_10 
REMARK    2  A    between atoms: O2_10  and  C9_11 
REMARK    3  A    between atoms: C9_11  and  C10_12 
REMARK    4  A    between atoms: C9_11  and  C16_27 
REMARK    5  A    between atoms: C10_12  and  C11_14 
REMARK    6  A    between atoms: C11_14  and  O4_15 
REMARK    7  A    between atoms: O4_15  and  C12_16 
REMARK    8  A    between atoms: C16_27  and  O6_28 
ROOT
HETATM    1  C9  UNL     1      14.047   2.121  20.040  1.00  0.00     0.231 C 
ENDROOT
BRANCH   1   2
HETATM    2  O2  UNL     1      13.208   2.712  21.019  1.00  0.00    -0.362 OA
BRANCH   2   3
HETATM    3  C8  UNL     1      13.651   3.960  21.428  1.00  0.00     0.192 C 
HETATM    4  C1  UNL     1      13.524   3.918  22.932  1.00  0.00     0.155 C 
HETATM    5  O1  UNL     1      14.546   3.512  23.464  1.00  0.00    -0.295 OA
HETATM    6  C2  UNL     1      12.462   4.251  23.870  1.00  0.00     0.081 C 
HETATM    7  C3  UNL     1      11.416   5.198  23.393  1.00  0.00     0.012 C 
HETATM    8  C4  UNL     1      10.640   4.756  22.199  1.00  0.00    -0.010 A 
HETATM    9  C5  UNL     1      10.383   5.900  21.177  1.00  0.00     0.010 A 
HETATM   10  C6  UNL     1      11.346   4.770  20.909  1.00  0.00    -0.007 A 
HETATM   11  C7  UNL     1      12.802   5.107  20.980  1.00  0.00     0.044 C 
ENDBRANCH   2   3
ENDBRANCH   1   2
BRANCH   1  12
HETATM   12  C10 UNL     1      15.237   1.550  20.666  1.00  0.00     0.182 C 
HETATM   13  O3  UNL     1      15.041   0.630  21.498  1.00  0.00    -0.293 OA
BRANCH  12  14
HETATM   14  C11 UNL     1      16.650   1.899  20.472  1.00  0.00     0.252 C 
BRANCH  14  15
HETATM   15  O4  UNL     1      17.176   2.557  21.622  1.00  0.00    -0.352 OA
BRANCH  15  16
HETATM   16  C12 UNL     1      17.845   3.700  21.210  1.00  0.00     0.297 C 
HETATM   17  O5  UNL     1      16.942   4.753  21.061  1.00  0.00    -0.306 OA
HETATM   18  C13 UNL     1      17.307   5.736  21.971  1.00  0.00     0.526 C 
HETATM   19  N1  UNL     1      17.083   5.278  23.321  1.00  0.00    -0.021 N 
HETATM   20  N2  UNL     1      18.778   5.637  21.897  1.00  0.00    -0.012 N 
HETATM   21  C14 UNL     1      18.116   4.260  23.581  1.00  0.00     0.275 C 
ATOM     22  H12 UNL     1      17.072   6.030  24.009  1.00  0.00     0.282 HD
ATOM     23  H11 UNL     1      16.133   4.945  23.485  1.00  0.00     0.282 HD
HETATM   24  C15 UNL     1      18.814   4.204  22.256  1.00  0.00     0.271 C 
ATOM     25  H22 UNL     1      19.237   5.928  21.033  1.00  0.00     0.283 HD
ATOM     26  H21 UNL     1      19.332   6.287  22.455  1.00  0.00     0.283 HD
ENDBRANCH  15  16
ENDBRANCH  14  15
ENDBRANCH  12  14
ENDBRANCH   1  12
BRANCH   1  27
HETATM   27  C16 UNL     1      13.115   1.161  19.346  1.00  0.00     0.138 A 
HETATM   28  C17 UNL     1      12.091   1.671  18.411  1.00  0.00     0.274 A 
HETATM   29  N3  UNL     1      12.722   1.028  17.277  1.00  0.00    -0.069 N 
HETATM   30  C18 UNL     1      13.767   0.533  18.153  1.00  0.00     0.274 A 
ATOM     31  H32 UNL     1      12.191   0.380  16.694  1.00  0.00     0.277 HD
ATOM     32  H31 UNL     1      12.962   1.571  16.448  1.00  0.00     0.277 HD
BRANCH  27  33
HETATM   33  O6  UNL     1      12.552   0.262  20.279  1.00  0.00    -0.383 OA
ATOM     34  H6  UNL     1      11.641   0.478  20.437  1.00  0.00     0.210 HD
ENDBRANCH  27  33
ENDBRANCH   1  27
TORSDOF 8
ENDMDL
