MODEL 1
REMARK VINA RESULT: -7.603173409      0.000      0.000
REMARK  4 active torsions:
REMARK  status: ('A' for Active; 'I' for Inactive)
REMARK    1  A    between atoms: C2_2  and  N1_3 
REMARK       I    between atoms: N1_3  and  C3_5 
REMARK       I    between atoms: C3_5  and  N2_7 
REMARK       I    between atoms: N3_10  and  C6_11 
REMARK    2  A    between atoms: C6_11  and  O3_13 
REMARK    3  A    between atoms: O3_13  and  C7_14 
REMARK    4  A    between atoms: C7_14  and  O4_17 
ROOT
HETATM    1  N1  UNL     1      42.575 130.209  22.421  1.00  0.00    -0.343 N 
ATOM      2  H1  UNL     1      41.749 130.148  21.826  1.00  0.00     0.164 HD
HETATM    3  C3  UNL     1      43.720 130.910  21.983  1.00  0.00     0.318 C 
HETATM    4  O1  UNL     1      44.720 130.964  22.746  1.00  0.00    -0.247 OA
HETATM    5  N2  UNL     1      43.721 131.528  20.716  1.00  0.00    -0.331 N 
HETATM    6  C4  UNL     1      44.894 132.244  20.287  1.00  0.00     0.147 C 
HETATM    7  C5  UNL     1      45.287 131.700  18.914  1.00  0.00     0.148 C 
HETATM    8  N3  UNL     1      44.158 131.742  18.009  1.00  0.00    -0.325 N 
HETATM    9  C6  UNL     1      44.395 131.587  16.628  1.00  0.00     0.365 C 
HETATM   10  O2  UNL     1      43.448 131.616  15.793  1.00  0.00    -0.238 OA
HETATM   11  C10 UNL     1      42.800 131.938  18.457  1.00  0.00     0.148 C 
HETATM   12  C11 UNL     1      42.579 131.452  19.863  1.00  0.00     0.147 C 
ENDROOT
BRANCH   9  13
HETATM   13  O3  UNL     1      45.659 131.393  16.083  1.00  0.00    -0.267 OA
BRANCH  13  14
HETATM   14  C7  UNL     1      46.157 130.174  15.633  1.00  0.00     0.165 C 
HETATM   15  C8  UNL     1      46.923 130.350  14.351  1.00  0.00     0.079 C 
HETATM   16  C9  UNL     1      45.120 129.104  15.464  1.00  0.00     0.079 C 
BRANCH  14  17
HETATM   17  O4  UNL     1      47.082 129.723  16.598  1.00  0.00    -0.365 OA
ATOM     18  H4  UNL     1      47.579 130.480  16.885  1.00  0.00     0.213 HD
ENDBRANCH  14  17
ENDBRANCH  13  14
ENDBRANCH   9  13
BRANCH   1  19
HETATM   19  C2  UNL     1      42.588 129.579  23.724  1.00  0.00     0.120 C 
HETATM   20  C1  UNL     1      41.634 128.414  23.711  1.00  0.00     0.026 C 
ENDBRANCH   1  19
TORSDOF 4
ENDMDL
MODEL 2
REMARK VINA RESULT: -7.601925800      1.108      1.399
REMARK  4 active torsions:
REMARK  status: ('A' for Active; 'I' for Inactive)
REMARK    1  A    between atoms: C2_2  and  N1_3 
REMARK       I    between atoms: N1_3  and  C3_5 
REMARK       I    between atoms: C3_5  and  N2_7 
REMARK       I    between atoms: N3_10  and  C6_11 
REMARK    2  A    between atoms: C6_11  and  O3_13 
REMARK    3  A    between atoms: O3_13  and  C7_14 
REMARK    4  A    between atoms: C7_14  and  O4_17 
ROOT
HETATM    1  N1  UNL     1      42.512 130.101  23.091  1.00  0.00    -0.343 N 
ATOM      2  H1  UNL     1      41.691 130.479  22.618  1.00  0.00     0.164 HD
HETATM    3  C3  UNL     1      43.804 130.323  22.565  1.00  0.00     0.318 C 
HETATM    4  O1  UNL     1      44.793 129.840  23.177  1.00  0.00    -0.247 OA
HETATM    5  N2  UNL     1      43.959 131.071  21.381  1.00  0.00    -0.331 N 
HETATM    6  C4  UNL     1      45.283 131.293  20.861  1.00  0.00     0.147 C 
HETATM    7  C5  UNL     1      45.282 130.854  19.398  1.00  0.00     0.148 C 
HETATM    8  N3  UNL     1      44.206 131.498  18.675  1.00  0.00    -0.325 N 
HETATM    9  C6  UNL     1      44.231 131.473  17.265  1.00  0.00     0.365 C 
HETATM   10  O2  UNL     1      43.319 132.019  16.584  1.00  0.00    -0.238 OA
HETATM   11  C10 UNL     1      43.109 132.168  19.332  1.00  0.00     0.148 C 
HETATM   12  C11 UNL     1      42.825 131.607  20.699  1.00  0.00     0.147 C 
ENDROOT
BRANCH   9  13
HETATM   13  O3  UNL     1      45.235 130.859  16.527  1.00  0.00    -0.267 OA
BRANCH  13  14
HETATM   14  C7  UNL     1      45.695 131.292  15.287  1.00  0.00     0.165 C 
HETATM   15  C8  UNL     1      44.607 131.209  14.253  1.00  0.00     0.079 C 
HETATM   16  C9  UNL     1      46.919 130.578  14.796  1.00  0.00     0.079 C 
BRANCH  14  17
HETATM   17  O4  UNL     1      46.023 132.658  15.420  1.00  0.00    -0.365 OA
ATOM     18  H4  UNL     1      46.330 132.956  14.572  1.00  0.00     0.213 HD
ENDBRANCH  14  17
ENDBRANCH  13  14
ENDBRANCH   9  13
BRANCH   1  19
HETATM   19  C2  UNL     1      42.368 129.330  24.307  1.00  0.00     0.120 C 
HETATM   20  C1  UNL     1      41.272 128.315  24.114  1.00  0.00     0.026 C 
ENDBRANCH   1  19
TORSDOF 4
ENDMDL
MODEL 3
REMARK VINA RESULT: -7.112771795      2.210      6.833
REMARK  4 active torsions:
REMARK  status: ('A' for Active; 'I' for Inactive)
REMARK    1  A    between atoms: C2_2  and  N1_3 
REMARK       I    between atoms: N1_3  and  C3_5 
REMARK       I    between atoms: C3_5  and  N2_7 
REMARK       I    between atoms: N3_10  and  C6_11 
REMARK    2  A    between atoms: C6_11  and  O3_13 
REMARK    3  A    between atoms: O3_13  and  C7_14 
REMARK    4  A    between atoms: C7_14  and  O4_17 
ROOT
HETATM    1  N1  UNL     1      46.583 131.379  14.195  1.00  0.00    -0.343 N 
ATOM      2  H1  UNL     1      45.802 132.021  14.057  1.00  0.00     0.164 HD
HETATM    3  C3  UNL     1      46.630 130.546  15.334  1.00  0.00     0.318 C 
HETATM    4  O1  UNL     1      47.610 129.767  15.470  1.00  0.00    -0.247 OA
HETATM    5  N2  UNL     1      45.591 130.601  16.286  1.00  0.00    -0.331 N 
HETATM    6  C4  UNL     1      45.649 129.741  17.438  1.00  0.00     0.147 C 
HETATM    7  C5  UNL     1      45.478 130.620  18.676  1.00  0.00     0.148 C 
HETATM    8  N3  UNL     1      44.288 131.435  18.560  1.00  0.00    -0.325 N 
HETATM    9  C6  UNL     1      43.789 132.068  19.717  1.00  0.00     0.365 C 
HETATM   10  O2  UNL     1      42.754 132.790  19.674  1.00  0.00    -0.238 OA
HETATM   11  C10 UNL     1      43.588 131.628  17.313  1.00  0.00     0.148 C 
HETATM   12  C11 UNL     1      44.490 131.494  16.117  1.00  0.00     0.147 C 
ENDROOT
BRANCH   9  13
HETATM   13  O3  UNL     1      44.379 131.954  20.970  1.00  0.00    -0.267 OA
BRANCH  13  14
HETATM   14  C7  UNL     1      43.923 131.134  21.997  1.00  0.00     0.165 C 
HETATM   15  C8  UNL     1      43.937 131.865  23.311  1.00  0.00     0.079 C 
HETATM   16  C9  UNL     1      44.663 129.836  22.130  1.00  0.00     0.079 C 
BRANCH  14  17
HETATM   17  O4  UNL     1      42.574 130.830  21.719  1.00  0.00    -0.365 OA
ATOM     18  H4  UNL     1      42.140 130.690  22.553  1.00  0.00     0.213 HD
ENDBRANCH  14  17
ENDBRANCH  13  14
ENDBRANCH   9  13
BRANCH   1  19
HETATM   19  C2  UNL     1      47.657 131.312  13.227  1.00  0.00     0.120 C 
HETATM   20  C1  UNL     1      48.102 129.880  13.091  1.00  0.00     0.026 C 
ENDBRANCH   1  19
TORSDOF 4
ENDMDL
MODEL 4
REMARK VINA RESULT: -6.792498439      1.714      7.089
REMARK  4 active torsions:
REMARK  status: ('A' for Active; 'I' for Inactive)
REMARK    1  A    between atoms: C2_2  and  N1_3 
REMARK       I    between atoms: N1_3  and  C3_5 
REMARK       I    between atoms: C3_5  and  N2_7 
REMARK       I    between atoms: N3_10  and  C6_11 
REMARK    2  A    between atoms: C6_11  and  O3_13 
REMARK    3  A    between atoms: O3_13  and  C7_14 
REMARK    4  A    between atoms: C7_14  and  O4_17 
ROOT
HETATM    1  N1  UNL     1      45.200 131.162  16.876  1.00  0.00    -0.343 N 
ATOM      2  H1  UNL     1      46.048 130.905  17.381  1.00  0.00     0.164 HD
HETATM    3  C3  UNL     1      44.061 131.617  17.576  1.00  0.00     0.318 C 
HETATM    4  O1  UNL     1      43.034 131.925  16.917  1.00  0.00    -0.247 OA
HETATM    5  N2  UNL     1      44.097 131.715  18.982  1.00  0.00    -0.331 N 
HETATM    6  C4  UNL     1      42.930 132.186  19.681  1.00  0.00     0.147 C 
HETATM    7  C5  UNL     1      42.595 131.157  20.760  1.00  0.00     0.148 C 
HETATM    8  N3  UNL     1      43.755 130.888  21.583  1.00  0.00    -0.325 N 
HETATM    9  C6  UNL     1      43.570 130.220  22.811  1.00  0.00     0.365 C 
HETATM   10  O2  UNL     1      44.545 129.960  23.569  1.00  0.00    -0.238 OA
HETATM   11  C10 UNL     1      45.093 131.274  21.204  1.00  0.00     0.148 C 
HETATM   12  C11 UNL     1      45.270 131.356  19.712  1.00  0.00     0.147 C 
ENDROOT
BRANCH   9  13
HETATM   13  O3  UNL     1      42.330 129.802  23.278  1.00  0.00    -0.267 OA
BRANCH  13  14
HETATM   14  C7  UNL     1      42.097 128.632  23.994  1.00  0.00     0.165 C 
HETATM   15  C8  UNL     1      40.765 128.037  23.629  1.00  0.00     0.079 C 
HETATM   16  C9  UNL     1      42.195 128.786  25.483  1.00  0.00     0.079 C 
BRANCH  14  17
HETATM   17  O4  UNL     1      43.079 127.700  23.596  1.00  0.00    -0.365 OA
ATOM     18  H4  UNL     1      43.917 128.148  23.619  1.00  0.00     0.213 HD
ENDBRANCH  14  17
ENDBRANCH  13  14
ENDBRANCH   9  13
BRANCH   1  19
HETATM   19  C2  UNL     1      45.150 131.066  15.433  1.00  0.00     0.120 C 
HETATM   20  C1  UNL     1      46.442 131.590  14.864  1.00  0.00     0.026 C 
ENDBRANCH   1  19
TORSDOF 4
ENDMDL
MODEL 5
REMARK VINA RESULT: -6.565654454      1.839      7.133
REMARK  4 active torsions:
REMARK  status: ('A' for Active; 'I' for Inactive)
REMARK    1  A    between atoms: C2_2  and  N1_3 
REMARK       I    between atoms: N1_3  and  C3_5 
REMARK       I    between atoms: C3_5  and  N2_7 
REMARK       I    between atoms: N3_10  and  C6_11 
REMARK    2  A    between atoms: C6_11  and  O3_13 
REMARK    3  A    between atoms: O3_13  and  C7_14 
REMARK    4  A    between atoms: C7_14  and  O4_17 
ROOT
HETATM    1  N1  UNL     1      44.921 130.959  16.244  1.00  0.00    -0.343 N 
ATOM      2  H1  UNL     1      45.763 130.498  16.591  1.00  0.00     0.164 HD
HETATM    3  C3  UNL     1      44.024 131.578  17.143  1.00  0.00     0.318 C 
HETATM    4  O1  UNL     1      42.996 132.136  16.677  1.00  0.00    -0.247 OA
HETATM    5  N2  UNL     1      44.295 131.559  18.526  1.00  0.00    -0.331 N 
HETATM    6  C4  UNL     1      43.374 132.200  19.428  1.00  0.00     0.147 C 
HETATM    7  C5  UNL     1      42.999 131.181  20.503  1.00  0.00     0.148 C 
HETATM    8  N3  UNL     1      44.188 130.622  21.110  1.00  0.00    -0.325 N 
HETATM    9  C6  UNL     1      44.056 129.913  22.322  1.00  0.00     0.365 C 
HETATM   10  O2  UNL     1      45.059 129.405  22.896  1.00  0.00    -0.238 OA
HETATM   11  C10 UNL     1      45.503 130.759  20.531  1.00  0.00     0.148 C 
HETATM   12  C11 UNL     1      45.463 130.917  19.036  1.00  0.00     0.147 C 
ENDROOT
BRANCH   9  13
HETATM   13  O3  UNL     1      42.842 129.718  22.969  1.00  0.00    -0.267 OA
BRANCH  13  14
HETATM   14  C7  UNL     1      42.508 130.238  24.216  1.00  0.00     0.165 C 
HETATM   15  C8  UNL     1      42.720 131.727  24.249  1.00  0.00     0.079 C 
HETATM   16  C9  UNL     1      43.224 129.597  25.367  1.00  0.00     0.079 C 
BRANCH  14  17
HETATM   17  O4  UNL     1      41.126 130.023  24.399  1.00  0.00    -0.365 OA
ATOM     18  H4  UNL     1      41.024 129.147  24.755  1.00  0.00     0.213 HD
ENDBRANCH  14  17
ENDBRANCH  13  14
ENDBRANCH   9  13
BRANCH   1  19
HETATM   19  C2  UNL     1      44.631 130.985  14.827  1.00  0.00     0.120 C 
HETATM   20  C1  UNL     1      45.924 130.887  14.063  1.00  0.00     0.026 C 
ENDBRANCH   1  19
TORSDOF 4
ENDMDL
