MODEL 1
REMARK VINA RESULT: -7.524745876      0.000      0.000
REMARK  6 active torsions:
REMARK  status: ('A' for Active; 'I' for Inactive)
REMARK    1  A    between atoms: C2_2  and  C3_3 
REMARK    2  A    between atoms: C4_4  and  C5_5 
REMARK    3  A    between atoms: C5_5  and  N1_6 
REMARK    4  A    between atoms: N1_6  and  C6_8 
REMARK    5  A    between atoms: C6_8  and  N2_10 
REMARK    6  A    between atoms: N2_10  and  C7_12 
ROOT
HETATM    1  C7  UNL     1      44.601 131.784  19.115  1.00  0.00     0.699 A 
HETATM    2  N3  UNL     1      43.417 132.381  19.333  1.00  0.00    -0.191 N 
ATOM      3  H3  UNL     1      42.991 132.923  18.581  1.00  0.00     0.184 HD
HETATM    4  C8  UNL     1      42.786 132.286  20.494  1.00  0.00     0.061 A 
HETATM    5  C9  UNL     1      41.463 132.980  20.679  1.00  0.00     0.072 C 
HETATM    6  C10 UNL     1      43.370 131.551  21.501  1.00  0.00     0.151 A 
HETATM    7  C11 UNL     1      42.647 131.475  22.745  1.00  0.00     0.121 C 
HETATM    8  N4  UNL     1      42.051 131.409  23.733  1.00  0.00    -0.190 NA
HETATM    9  N5  UNL     1      44.547 130.956  21.285  1.00  0.00    -0.275 N 
ATOM     10  H5  UNL     1      44.984 130.411  22.029  1.00  0.00     0.188 HD
HETATM   11  N6  UNL     1      45.155 131.073  20.099  1.00  0.00    -0.131 N 
ATOM     12  H6  UNL     1      46.053 130.614  19.946  1.00  0.00     0.205 HD
ENDROOT
BRANCH   1  13
HETATM   13  N2  UNL     1      45.149 131.929  17.937  1.00  0.00    -0.165 N 
ATOM     14  H2  UNL     1      45.642 132.790  17.701  1.00  0.00     0.186 HD
BRANCH  13  15
HETATM   15  C6  UNL     1      45.050 130.861  16.978  1.00  0.00     0.187 C 
HETATM   16  S1  UNL     1      46.165 129.651  16.957  1.00  0.00    -0.040 SA
BRANCH  15  17
HETATM   17  N1  UNL     1      43.983 130.865  16.053  1.00  0.00    -0.356 N 
ATOM     18  H1  UNL     1      43.142 130.327  16.261  1.00  0.00     0.162 HD
BRANCH  17  19
HETATM   19  C5  UNL     1      44.053 131.605  14.833  1.00  0.00     0.216 C 
BRANCH  19  20
HETATM   20  C4  UNL     1      45.339 131.310  14.166  1.00  0.00    -0.087 C 
HETATM   21  C3  UNL     1      46.399 131.077  13.642  1.00  0.00    -0.105 C 
BRANCH  21  22
HETATM   22  C2  UNL     1      47.717 130.801  13.020  1.00  0.00     0.089 C 
HETATM   23  C1  UNL     1      48.303 129.508  13.586  1.00  0.00     0.018 C 
ENDBRANCH  21  22
ENDBRANCH  19  20
ENDBRANCH  17  19
ENDBRANCH  15  17
ENDBRANCH  13  15
ENDBRANCH   1  13
TORSDOF 6
ENDMDL
MODEL 2
REMARK VINA RESULT: -7.398828436      1.872      2.382
REMARK  6 active torsions:
REMARK  status: ('A' for Active; 'I' for Inactive)
REMARK    1  A    between atoms: C2_2  and  C3_3 
REMARK    2  A    between atoms: C4_4  and  C5_5 
REMARK    3  A    between atoms: C5_5  and  N1_6 
REMARK    4  A    between atoms: N1_6  and  C6_8 
REMARK    5  A    between atoms: C6_8  and  N2_10 
REMARK    6  A    between atoms: N2_10  and  C7_12 
ROOT
HETATM    1  C7  UNL     1      44.717 131.290  20.990  1.00  0.00     0.699 A 
HETATM    2  N3  UNL     1      43.809 131.753  21.866  1.00  0.00    -0.191 N 
ATOM      3  H3  UNL     1      43.355 132.648  21.682  1.00  0.00     0.184 HD
HETATM    4  C8  UNL     1      43.486 131.082  22.962  1.00  0.00     0.061 A 
HETATM    5  C9  UNL     1      42.463 131.653  23.908  1.00  0.00     0.072 C 
HETATM    6  C10 UNL     1      44.105 129.875  23.200  1.00  0.00     0.151 A 
HETATM    7  C11 UNL     1      43.720 129.181  24.403  1.00  0.00     0.121 C 
HETATM    8  N4  UNL     1      43.393 128.627  25.363  1.00  0.00    -0.190 NA
HETATM    9  N5  UNL     1      45.007 129.414  22.330  1.00  0.00    -0.275 N 
ATOM     10  H5  UNL     1      45.469 128.521  22.502  1.00  0.00     0.188 HD
HETATM   11  N6  UNL     1      45.308 130.119  21.233  1.00  0.00    -0.131 N 
ATOM     12  H6  UNL     1      45.998 129.756  20.575  1.00  0.00     0.205 HD
ENDROOT
BRANCH   1  13
HETATM   13  N2  UNL     1      44.971 132.018  19.935  1.00  0.00    -0.165 N 
ATOM     14  H2  UNL     1      45.664 132.765  19.979  1.00  0.00     0.186 HD
BRANCH  13  15
HETATM   15  C6  UNL     1      44.263 131.754  18.710  1.00  0.00     0.187 C 
HETATM   16  S1  UNL     1      42.620 131.839  18.660  1.00  0.00    -0.040 SA
BRANCH  15  17
HETATM   17  N1  UNL     1      44.997 131.420  17.551  1.00  0.00    -0.356 N 
ATOM     18  H1  UNL     1      45.949 131.068  17.649  1.00  0.00     0.162 HD
BRANCH  17  19
HETATM   19  C5  UNL     1      44.437 131.561  16.244  1.00  0.00     0.216 C 
BRANCH  19  20
HETATM   20  C4  UNL     1      45.517 131.427  15.243  1.00  0.00    -0.087 C 
HETATM   21  C3  UNL     1      46.385 131.299  14.417  1.00  0.00    -0.105 C 
BRANCH  21  22
HETATM   22  C2  UNL     1      47.441 131.118  13.391  1.00  0.00     0.089 C 
HETATM   23  C1  UNL     1      48.101 129.749  13.555  1.00  0.00     0.018 C 
ENDBRANCH  21  22
ENDBRANCH  19  20
ENDBRANCH  17  19
ENDBRANCH  15  17
ENDBRANCH  13  15
ENDBRANCH   1  13
TORSDOF 6
ENDMDL
MODEL 3
REMARK VINA RESULT: -7.279405528      0.732      1.591
REMARK  6 active torsions:
REMARK  status: ('A' for Active; 'I' for Inactive)
REMARK    1  A    between atoms: C2_2  and  C3_3 
REMARK    2  A    between atoms: C4_4  and  C5_5 
REMARK    3  A    between atoms: C5_5  and  N1_6 
REMARK    4  A    between atoms: N1_6  and  C6_8 
REMARK    5  A    between atoms: C6_8  and  N2_10 
REMARK    6  A    between atoms: N2_10  and  C7_12 
ROOT
HETATM    1  C7  UNL     1      44.300 131.889  19.169  1.00  0.00     0.699 A 
HETATM    2  N3  UNL     1      44.812 131.083  20.115  1.00  0.00    -0.191 N 
ATOM      3  H3  UNL     1      45.693 130.602  19.932  1.00  0.00     0.184 HD
HETATM    4  C8  UNL     1      44.207 130.894  21.278  1.00  0.00     0.061 A 
HETATM    5  C9  UNL     1      44.828 129.976  22.298  1.00  0.00     0.072 C 
HETATM    6  C10 UNL     1      43.019 131.548  21.516  1.00  0.00     0.151 A 
HETATM    7  C11 UNL     1      42.399 131.313  22.795  1.00  0.00     0.121 C 
HETATM    8  N4  UNL     1      41.918 131.128  23.830  1.00  0.00    -0.190 NA
HETATM    9  N5  UNL     1      42.510 132.350  20.577  1.00  0.00    -0.275 N 
ATOM     10  H5  UNL     1      41.629 132.837  20.748  1.00  0.00     0.188 HD
HETATM   11  N6  UNL     1      43.149 132.518  19.413  1.00  0.00    -0.131 N 
ATOM     12  H6  UNL     1      42.751 133.134  18.704  1.00  0.00     0.205 HD
ENDROOT
BRANCH   1  13
HETATM   13  N2  UNL     1      44.967 132.018  18.053  1.00  0.00    -0.165 N 
ATOM     14  H2  UNL     1      45.497 132.869  17.865  1.00  0.00     0.186 HD
BRANCH  13  15
HETATM   15  C6  UNL     1      44.946 130.946  17.093  1.00  0.00     0.187 C 
HETATM   16  S1  UNL     1      46.108 129.781  17.117  1.00  0.00    -0.040 SA
BRANCH  15  17
HETATM   17  N1  UNL     1      43.916 130.908  16.128  1.00  0.00    -0.356 N 
ATOM     18  H1  UNL     1      43.091 130.334  16.304  1.00  0.00     0.162 HD
BRANCH  17  19
HETATM   19  C5  UNL     1      44.000 131.653  14.912  1.00  0.00     0.216 C 
BRANCH  19  20
HETATM   20  C4  UNL     1      45.279 131.335  14.242  1.00  0.00    -0.087 C 
HETATM   21  C3  UNL     1      46.332 131.074  13.717  1.00  0.00    -0.105 C 
BRANCH  21  22
HETATM   22  C2  UNL     1      47.641 130.757  13.095  1.00  0.00     0.089 C 
HETATM   23  C1  UNL     1      48.211 129.474  13.702  1.00  0.00     0.018 C 
ENDBRANCH  21  22
ENDBRANCH  19  20
ENDBRANCH  17  19
ENDBRANCH  15  17
ENDBRANCH  13  15
ENDBRANCH   1  13
TORSDOF 6
ENDMDL
MODEL 4
REMARK VINA RESULT: -7.247347664      2.443      3.238
REMARK  6 active torsions:
REMARK  status: ('A' for Active; 'I' for Inactive)
REMARK    1  A    between atoms: C2_2  and  C3_3 
REMARK    2  A    between atoms: C4_4  and  C5_5 
REMARK    3  A    between atoms: C5_5  and  N1_6 
REMARK    4  A    between atoms: N1_6  and  C6_8 
REMARK    5  A    between atoms: C6_8  and  N2_10 
REMARK    6  A    between atoms: N2_10  and  C7_12 
ROOT
HETATM    1  C7  UNL     1      45.068 131.032  21.560  1.00  0.00     0.699 A 
HETATM    2  N3  UNL     1      45.131 129.690  21.599  1.00  0.00    -0.191 N 
ATOM      3  H3  UNL     1      45.470 129.187  20.779  1.00  0.00     0.184 HD
HETATM    4  C8  UNL     1      44.768 129.002  22.671  1.00  0.00     0.061 A 
HETATM    5  C9  UNL     1      44.859 127.499  22.654  1.00  0.00     0.072 C 
HETATM    6  C10 UNL     1      44.314 129.691  23.773  1.00  0.00     0.151 A 
HETATM    7  C11 UNL     1      43.931 128.900  24.915  1.00  0.00     0.121 C 
HETATM    8  N4  UNL     1      43.641 128.256  25.830  1.00  0.00    -0.190 NA
HETATM    9  N5  UNL     1      44.251 131.025  23.735  1.00  0.00    -0.275 N 
ATOM     10  H5  UNL     1      43.914 131.541  24.549  1.00  0.00     0.188 HD
HETATM   11  N6  UNL     1      44.627 131.688  22.635  1.00  0.00    -0.131 N 
ATOM     12  H6  UNL     1      44.575 132.707  22.619  1.00  0.00     0.205 HD
ENDROOT
BRANCH   1  13
HETATM   13  N2  UNL     1      45.450 131.628  20.462  1.00  0.00    -0.165 N 
ATOM     14  H2  UNL     1      46.344 132.116  20.424  1.00  0.00     0.186 HD
BRANCH  13  15
HETATM   15  C6  UNL     1      44.595 131.588  19.305  1.00  0.00     0.187 C 
HETATM   16  S1  UNL     1      42.989 131.924  19.441  1.00  0.00    -0.040 SA
BRANCH  15  17
HETATM   17  N1  UNL     1      45.151 131.255  18.051  1.00  0.00    -0.356 N 
ATOM     18  H1  UNL     1      46.005 130.700  18.017  1.00  0.00     0.162 HD
BRANCH  17  19
HETATM   19  C5  UNL     1      44.546 131.678  16.827  1.00  0.00     0.216 C 
BRANCH  19  20
HETATM   20  C4  UNL     1      45.531 131.544  15.734  1.00  0.00    -0.087 C 
HETATM   21  C3  UNL     1      46.320 131.418  14.831  1.00  0.00    -0.105 C 
BRANCH  21  22
HETATM   22  C2  UNL     1      47.277 131.242  13.711  1.00  0.00     0.089 C 
HETATM   23  C1  UNL     1      47.812 129.810  13.701  1.00  0.00     0.018 C 
ENDBRANCH  21  22
ENDBRANCH  19  20
ENDBRANCH  17  19
ENDBRANCH  15  17
ENDBRANCH  13  15
ENDBRANCH   1  13
TORSDOF 6
ENDMDL
MODEL 5
REMARK VINA RESULT: -7.225759092      1.919      2.767
REMARK  6 active torsions:
REMARK  status: ('A' for Active; 'I' for Inactive)
REMARK    1  A    between atoms: C2_2  and  C3_3 
REMARK    2  A    between atoms: C4_4  and  C5_5 
REMARK    3  A    between atoms: C5_5  and  N1_6 
REMARK    4  A    between atoms: N1_6  and  C6_8 
REMARK    5  A    between atoms: C6_8  and  N2_10 
REMARK    6  A    between atoms: N2_10  and  C7_12 
ROOT
HETATM    1  C7  UNL     1      44.457 131.287  21.124  1.00  0.00     0.699 A 
HETATM    2  N3  UNL     1      44.851 130.132  21.686  1.00  0.00    -0.191 N 
ATOM      3  H3  UNL     1      45.610 129.605  21.253  1.00  0.00     0.184 HD
HETATM    4  C8  UNL     1      44.285 129.657  22.785  1.00  0.00     0.061 A 
HETATM    5  C9  UNL     1      44.768 128.355  23.367  1.00  0.00     0.072 C 
HETATM    6  C10 UNL     1      43.263 130.377  23.362  1.00  0.00     0.151 A 
HETATM    7  C11 UNL     1      42.679 129.822  24.557  1.00  0.00     0.121 C 
HETATM    8  N4  UNL     1      42.228 129.375  25.523  1.00  0.00    -0.190 NA
HETATM    9  N5  UNL     1      42.871 131.526  22.805  1.00  0.00    -0.275 N 
ATOM     10  H5  UNL     1      42.113 132.063  23.228  1.00  0.00     0.188 HD
HETATM   11  N6  UNL     1      43.466 131.975  21.694  1.00  0.00    -0.131 N 
ATOM     12  H6  UNL     1      43.159 132.855  21.279  1.00  0.00     0.205 HD
ENDROOT
BRANCH   1  13
HETATM   13  N2  UNL     1      45.075 131.680  20.042  1.00  0.00    -0.165 N 
ATOM     14  H2  UNL     1      46.035 132.019  20.091  1.00  0.00     0.186 HD
BRANCH  13  15
HETATM   15  C6  UNL     1      44.385 131.629  18.779  1.00  0.00     0.187 C 
HETATM   16  S1  UNL     1      42.752 131.824  18.712  1.00  0.00    -0.040 SA
BRANCH  15  17
HETATM   17  N1  UNL     1      45.128 131.407  17.599  1.00  0.00    -0.356 N 
ATOM     18  H1  UNL     1      46.086 131.066  17.671  1.00  0.00     0.162 HD
BRANCH  17  19
HETATM   19  C5  UNL     1      44.569 131.649  16.307  1.00  0.00     0.216 C 
BRANCH  19  20
HETATM   20  C4  UNL     1      45.622 131.457  15.286  1.00  0.00    -0.087 C 
HETATM   21  C3  UNL     1      46.462 131.301  14.437  1.00  0.00    -0.105 C 
BRANCH  21  22
HETATM   22  C2  UNL     1      47.477 131.105  13.372  1.00  0.00     0.089 C 
HETATM   23  C1  UNL     1      48.142 129.738  13.529  1.00  0.00     0.018 C 
ENDBRANCH  21  22
ENDBRANCH  19  20
ENDBRANCH  17  19
ENDBRANCH  15  17
ENDBRANCH  13  15
ENDBRANCH   1  13
TORSDOF 6
ENDMDL
