MODEL 1
REMARK VINA RESULT: -6.908646445      0.000      0.000
REMARK  13 active torsions:
REMARK  status: ('A' for Active; 'I' for Inactive)
REMARK    1  A    between atoms: N1_1  and  C1_5 
REMARK    2  A    between atoms: C1_5  and  C2_6 
REMARK    3  A    between atoms: C2_6  and  O1_7 
REMARK    4  A    between atoms: C6_16  and  O4_17 
REMARK    5  A    between atoms: O4_17  and  C7_18 
REMARK    6  A    between atoms: C7_18  and  O5_19 
REMARK    7  A    between atoms: C7_18  and  C8_21 
REMARK    8  A    between atoms: C8_21  and  C9_22 
REMARK    9  A    between atoms: C9_22  and  C10_24 
REMARK   10  A    between atoms: N3_25  and  N4_27 
REMARK   11  A    between atoms: C12_29  and  C13_30 
REMARK       I    between atoms: C13_30  and  N5_32 
REMARK   12  A    between atoms: N5_32  and  N6_34 
REMARK   13  A    between atoms: C16_43  and  O10_44 
ROOT
HETATM    1  C7  UNL     1     -16.474  74.860  27.890  1.00  0.00     0.265 C 
ENDROOT
BRANCH   1   2
HETATM    2  O4  UNL     1     -17.514  74.478  28.728  1.00  0.00    -0.345 OA
BRANCH   2   3
HETATM    3  C6  UNL     1     -17.050  73.773  29.833  1.00  0.00     0.236 C 
HETATM    4  C5  UNL     1     -16.547  72.478  29.353  1.00  0.00     0.247 C 
HETATM    5  C4  UNL     1     -17.369  71.328  28.988  1.00  0.00     0.290 C 
HETATM    6  O3  UNL     1     -15.296  72.293  29.228  1.00  0.00    -0.284 OA
HETATM    7  N2  UNL     1     -18.725  71.115  29.361  1.00  0.00    -0.351 N 
HETATM    8  O2  UNL     1     -16.866  70.421  28.281  1.00  0.00    -0.264 OA
HETATM    9  C3  UNL     1     -19.630  72.186  29.789  1.00  0.00     0.165 C 
ATOM     10  H2  UNL     1     -19.089  70.163  29.328  1.00  0.00     0.162 HD
HETATM   11  C2  UNL     1     -19.156  72.893  31.021  1.00  0.00     0.126 C 
HETATM   12  C16 UNL     1     -18.004  73.777  30.944  1.00  0.00     0.192 C 
BRANCH  11  13
HETATM   13  C1  UNL     1     -19.088  71.897  32.196  1.00  0.00     0.271 C 
BRANCH  13  14
HETATM   14  N1  UNL     1     -19.628  72.376  33.402  1.00  0.00    -0.076 N 
ATOM     15  H13 UNL     1     -19.123  73.207  33.710  1.00  0.00     0.274 HD
ATOM     16  H12 UNL     1     -20.550  72.780  33.241  1.00  0.00     0.274 HD
ATOM     17  H11 UNL     1     -19.668  71.686  34.153  1.00  0.00     0.274 HD
ENDBRANCH  13  14
ENDBRANCH  11  13
BRANCH  11  18
HETATM   18  O1  UNL     1     -20.296  73.670  31.400  1.00  0.00    -0.384 OA
ATOM     19  H1  UNL     1     -19.882  74.340  31.931  1.00  0.00     0.210 HD
ENDBRANCH  11  18
BRANCH  12  20
HETATM   20  O10 UNL     1     -17.249  73.581  32.134  1.00  0.00    -0.389 OA
ATOM     21  H10 UNL     1     -16.810  74.402  32.322  1.00  0.00     0.210 HD
ENDBRANCH  12  20
ENDBRANCH   2   3
ENDBRANCH   1   2
BRANCH   1  22
HETATM   22  O5  UNL     1     -16.320  76.236  28.052  1.00  0.00    -0.371 OA
ATOM     23  H5  UNL     1     -17.133  76.634  27.764  1.00  0.00     0.212 HD
ENDBRANCH   1  22
BRANCH   1  24
HETATM   24  C8  UNL     1     -16.751  74.508  26.434  1.00  0.00     0.145 C 
BRANCH  24  25
HETATM   25  C9  UNL     1     -15.492  74.731  25.687  1.00  0.00     0.170 C 
HETATM   26  O6  UNL     1     -15.323  75.881  25.166  1.00  0.00    -0.292 OA
BRANCH  25  27
HETATM   27  C10 UNL     1     -14.469  73.715  25.530  1.00  0.00     0.158 C 
HETATM   28  N3  UNL     1     -13.273  73.895  25.956  1.00  0.00    -0.298 N 
ATOM     29  H3  UNL     1     -13.033  74.771  26.418  1.00  0.00     0.186 HD
BRANCH  28  30
HETATM   30  N4  UNL     1     -12.294  72.911  25.800  1.00  0.00    -0.216 N 
HETATM   31  C11 UNL     1     -11.789  72.552  24.623  1.00  0.00     0.144 A 
HETATM   32  C12 UNL     1     -10.826  71.576  24.530  1.00  0.00     0.119 A 
HETATM   33  C14 UNL     1     -10.383  70.964  25.682  1.00  0.00     0.266 A 
HETATM   34  O8  UNL     1      -9.506  70.070  25.634  1.00  0.00    -0.267 OA
HETATM   35  N7  UNL     1     -10.897  71.330  26.878  1.00  0.00    -0.273 N 
HETATM   36  C15 UNL     1     -11.843  72.298  26.910  1.00  0.00     0.348 A 
ATOM     37  H7  UNL     1     -10.579  70.885  27.739  1.00  0.00     0.173 HD
HETATM   38  O9  UNL     1     -12.300  72.615  28.039  1.00  0.00    -0.245 OA
BRANCH  32  39
HETATM   39  C13 UNL     1     -10.284  71.193  23.238  1.00  0.00     0.276 C 
HETATM   40  O7  UNL     1      -9.921  72.061  22.415  1.00  0.00    -0.266 OA
HETATM   41  N5  UNL     1     -10.169  69.826  22.917  1.00  0.00    -0.272 N 
ATOM     42  H5  UNL     1     -10.468  69.124  23.594  1.00  0.00     0.189 HD
BRANCH  41  43
HETATM   43  N6  UNL     1      -9.654  69.421  21.688  1.00  0.00    -0.342 N 
ATOM     44  H62 UNL     1      -9.719  70.061  20.897  1.00  0.00     0.176 HD
ATOM     45  H61 UNL     1      -9.220  68.504  21.579  1.00  0.00     0.176 HD
ENDBRANCH  41  43
ENDBRANCH  32  39
ENDBRANCH  28  30
ENDBRANCH  25  27
ENDBRANCH  24  25
ENDBRANCH   1  24
TORSDOF 13
ENDMDL
MODEL 2
REMARK VINA RESULT: -6.817975255      2.225      3.029
REMARK  13 active torsions:
REMARK  status: ('A' for Active; 'I' for Inactive)
REMARK    1  A    between atoms: N1_1  and  C1_5 
REMARK    2  A    between atoms: C1_5  and  C2_6 
REMARK    3  A    between atoms: C2_6  and  O1_7 
REMARK    4  A    between atoms: C6_16  and  O4_17 
REMARK    5  A    between atoms: O4_17  and  C7_18 
REMARK    6  A    between atoms: C7_18  and  O5_19 
REMARK    7  A    between atoms: C7_18  and  C8_21 
REMARK    8  A    between atoms: C8_21  and  C9_22 
REMARK    9  A    between atoms: C9_22  and  C10_24 
REMARK   10  A    between atoms: N3_25  and  N4_27 
REMARK   11  A    between atoms: C12_29  and  C13_30 
REMARK       I    between atoms: C13_30  and  N5_32 
REMARK   12  A    between atoms: N5_32  and  N6_34 
REMARK   13  A    between atoms: C16_43  and  O10_44 
ROOT
HETATM    1  C7  UNL     1     -16.583  74.912  27.726  1.00  0.00     0.265 C 
ENDROOT
BRANCH   1   2
HETATM    2  O4  UNL     1     -17.569  74.574  28.645  1.00  0.00    -0.345 OA
BRANCH   2   3
HETATM    3  C6  UNL     1     -17.037  73.919  29.750  1.00  0.00     0.236 C 
HETATM    4  C5  UNL     1     -16.477  72.643  29.280  1.00  0.00     0.247 C 
HETATM    5  C4  UNL     1     -17.244  71.443  28.961  1.00  0.00     0.290 C 
HETATM    6  O3  UNL     1     -15.221  72.524  29.124  1.00  0.00    -0.284 OA
HETATM    7  N2  UNL     1     -18.575  71.164  29.375  1.00  0.00    -0.351 N 
HETATM    8  O2  UNL     1     -16.711  70.550  28.257  1.00  0.00    -0.264 OA
HETATM    9  C3  UNL     1     -19.526  72.192  29.808  1.00  0.00     0.165 C 
ATOM     10  H2  UNL     1     -18.887  70.193  29.371  1.00  0.00     0.162 HD
HETATM   11  C2  UNL     1     -19.058  72.949  31.013  1.00  0.00     0.126 C 
HETATM   12  C16 UNL     1     -17.960  73.893  30.887  1.00  0.00     0.192 C 
BRANCH  11  13
HETATM   13  C1  UNL     1     -18.904  71.982  32.204  1.00  0.00     0.271 C 
BRANCH  13  14
HETATM   14  N1  UNL     1     -19.588  72.373  33.368  1.00  0.00    -0.076 N 
ATOM     15  H13 UNL     1     -19.273  73.295  33.671  1.00  0.00     0.274 HD
ATOM     16  H12 UNL     1     -20.562  72.582  33.153  1.00  0.00     0.274 HD
ATOM     17  H11 UNL     1     -19.529  71.707  34.139  1.00  0.00     0.274 HD
ENDBRANCH  13  14
ENDBRANCH  11  13
BRANCH  11  18
HETATM   18  O1  UNL     1     -20.229  73.670  31.409  1.00  0.00    -0.384 OA
ATOM     19  H1  UNL     1     -20.581  73.911  30.560  1.00  0.00     0.210 HD
ENDBRANCH  11  18
BRANCH  12  20
HETATM   20  O10 UNL     1     -17.162  73.763  32.058  1.00  0.00    -0.389 OA
ATOM     21  H10 UNL     1     -16.270  73.972  31.811  1.00  0.00     0.210 HD
ENDBRANCH  12  20
ENDBRANCH   2   3
ENDBRANCH   1   2
BRANCH   1  22
HETATM   22  O5  UNL     1     -16.213  76.226  28.006  1.00  0.00    -0.371 OA
ATOM     23  H5  UNL     1     -15.827  76.572  27.211  1.00  0.00     0.212 HD
ENDBRANCH   1  22
BRANCH   1  24
HETATM   24  C8  UNL     1     -17.068  74.775  26.289  1.00  0.00     0.145 C 
BRANCH  24  25
HETATM   25  C9  UNL     1     -16.203  73.768  25.633  1.00  0.00     0.170 C 
HETATM   26  O6  UNL     1     -16.619  72.563  25.625  1.00  0.00    -0.292 OA
BRANCH  25  27
HETATM   27  C10 UNL     1     -14.932  74.092  25.015  1.00  0.00     0.158 C 
HETATM   28  N3  UNL     1     -13.937  73.285  25.064  1.00  0.00    -0.298 N 
ATOM     29  H3  UNL     1     -14.038  72.394  25.549  1.00  0.00     0.186 HD
BRANCH  28  30
HETATM   30  N4  UNL     1     -12.715  73.605  24.466  1.00  0.00    -0.216 N 
HETATM   31  C11 UNL     1     -11.875  74.518  24.945  1.00  0.00     0.144 A 
HETATM   32  C12 UNL     1     -10.686  74.792  24.312  1.00  0.00     0.119 A 
HETATM   33  C14 UNL     1     -10.368  74.103  23.162  1.00  0.00     0.266 A 
HETATM   34  O8  UNL     1      -9.292  74.327  22.561  1.00  0.00    -0.267 OA
HETATM   35  N7  UNL     1     -11.223  73.174  22.677  1.00  0.00    -0.273 N 
HETATM   36  C15 UNL     1     -12.380  72.946  23.342  1.00  0.00     0.348 A 
ATOM     37  H7  UNL     1     -11.001  72.657  21.827  1.00  0.00     0.173 HD
HETATM   38  O9  UNL     1     -13.153  72.075  22.863  1.00  0.00    -0.245 OA
BRANCH  32  39
HETATM   39  C13 UNL     1      -9.778  75.793  24.845  1.00  0.00     0.276 C 
HETATM   40  O7  UNL     1     -10.180  76.949  25.097  1.00  0.00    -0.266 OA
HETATM   41  N5  UNL     1      -8.432  75.448  25.077  1.00  0.00    -0.272 N 
ATOM     42  H5  UNL     1      -8.112  74.503  24.869  1.00  0.00     0.189 HD
BRANCH  41  43
HETATM   43  N6  UNL     1      -7.533  76.381  25.587  1.00  0.00    -0.342 N 
ATOM     44  H62 UNL     1      -7.393  77.254  25.077  1.00  0.00     0.176 HD
ATOM     45  H61 UNL     1      -7.024  76.199  26.452  1.00  0.00     0.176 HD
ENDBRANCH  41  43
ENDBRANCH  32  39
ENDBRANCH  28  30
ENDBRANCH  25  27
ENDBRANCH  24  25
ENDBRANCH   1  24
TORSDOF 13
ENDMDL
MODEL 3
REMARK VINA RESULT: -6.756660144      2.188      8.035
REMARK  13 active torsions:
REMARK  status: ('A' for Active; 'I' for Inactive)
REMARK    1  A    between atoms: N1_1  and  C1_5 
REMARK    2  A    between atoms: C1_5  and  C2_6 
REMARK    3  A    between atoms: C2_6  and  O1_7 
REMARK    4  A    between atoms: C6_16  and  O4_17 
REMARK    5  A    between atoms: O4_17  and  C7_18 
REMARK    6  A    between atoms: C7_18  and  O5_19 
REMARK    7  A    between atoms: C7_18  and  C8_21 
REMARK    8  A    between atoms: C8_21  and  C9_22 
REMARK    9  A    between atoms: C9_22  and  C10_24 
REMARK   10  A    between atoms: N3_25  and  N4_27 
REMARK   11  A    between atoms: C12_29  and  C13_30 
REMARK       I    between atoms: C13_30  and  N5_32 
REMARK   12  A    between atoms: N5_32  and  N6_34 
REMARK   13  A    between atoms: C16_43  and  O10_44 
ROOT
HETATM    1  C7  UNL     1     -14.118  75.334  23.732  1.00  0.00     0.265 C 
ENDROOT
BRANCH   1   2
HETATM    2  O4  UNL     1     -13.021  74.482  23.676  1.00  0.00    -0.345 OA
BRANCH   2   3
HETATM    3  C6  UNL     1     -12.419  74.338  24.922  1.00  0.00     0.236 C 
HETATM    4  C5  UNL     1     -11.035  74.819  24.803  1.00  0.00     0.247 C 
HETATM    5  C4  UNL     1      -9.926  74.083  24.203  1.00  0.00     0.290 C 
HETATM    6  O3  UNL     1     -10.726  75.969  25.247  1.00  0.00    -0.284 OA
HETATM    7  N2  UNL     1      -9.883  72.682  23.965  1.00  0.00    -0.351 N 
HETATM    8  O2  UNL     1      -8.898  74.712  23.852  1.00  0.00    -0.264 OA
HETATM    9  C3  UNL     1     -11.074  71.832  23.878  1.00  0.00     0.165 C 
ATOM     10  H2  UNL     1      -8.969  72.242  23.847  1.00  0.00     0.162 HD
HETATM   11  C2  UNL     1     -11.883  71.831  25.139  1.00  0.00     0.126 C 
HETATM   12  C16 UNL     1     -12.644  73.014  25.504  1.00  0.00     0.192 C 
BRANCH  11  13
HETATM   13  C1  UNL     1     -11.037  71.263  26.296  1.00  0.00     0.271 C 
BRANCH  13  14
HETATM   14  N1  UNL     1     -11.728  70.388  27.152  1.00  0.00    -0.076 N 
ATOM     15  H13 UNL     1     -12.232  70.914  27.865  1.00  0.00     0.274 HD
ATOM     16  H12 UNL     1     -12.513  69.960  26.661  1.00  0.00     0.274 HD
ATOM     17  H11 UNL     1     -11.146  69.670  27.585  1.00  0.00     0.274 HD
ENDBRANCH  13  14
ENDBRANCH  11  13
BRANCH  11  18
HETATM   18  O1  UNL     1     -12.799  70.753  24.928  1.00  0.00    -0.384 OA
ATOM     19  H1  UNL     1     -12.361  70.287  24.226  1.00  0.00     0.210 HD
ENDBRANCH  11  18
BRANCH  12  20
HETATM   20  O10 UNL     1     -12.530  73.163  26.915  1.00  0.00    -0.389 OA
ATOM     21  H10 UNL     1     -12.751  74.065  27.118  1.00  0.00     0.210 HD
ENDBRANCH  12  20
ENDBRANCH   2   3
ENDBRANCH   1   2
BRANCH   1  22
HETATM   22  O5  UNL     1     -13.844  76.268  24.729  1.00  0.00    -0.371 OA
ATOM     23  H5  UNL     1     -13.834  75.791  25.550  1.00  0.00     0.212 HD
ENDBRANCH   1  22
BRANCH   1  24
HETATM   24  C8  UNL     1     -15.411  74.585  24.024  1.00  0.00     0.145 C 
BRANCH  24  25
HETATM   25  C9  UNL     1     -15.982  75.171  25.258  1.00  0.00     0.170 C 
HETATM   26  O6  UNL     1     -16.499  76.332  25.163  1.00  0.00    -0.292 OA
BRANCH  25  27
HETATM   27  C10 UNL     1     -15.976  74.492  26.539  1.00  0.00     0.158 C 
HETATM   28  N3  UNL     1     -16.164  73.227  26.630  1.00  0.00    -0.298 N 
ATOM     29  H3  UNL     1     -16.323  72.683  25.782  1.00  0.00     0.186 HD
BRANCH  28  30
HETATM   30  N4  UNL     1     -16.157  72.581  27.869  1.00  0.00    -0.216 N 
HETATM   31  C11 UNL     1     -16.815  73.024  28.937  1.00  0.00     0.144 A 
HETATM   32  C12 UNL     1     -16.770  72.346  30.131  1.00  0.00     0.119 A 
HETATM   33  C14 UNL     1     -16.029  71.187  30.214  1.00  0.00     0.266 A 
HETATM   34  O8  UNL     1     -15.967  70.544  31.287  1.00  0.00    -0.267 OA
HETATM   35  N7  UNL     1     -15.361  70.738  29.127  1.00  0.00    -0.273 N 
HETATM   36  C15 UNL     1     -15.441  71.447  27.976  1.00  0.00     0.348 A 
ATOM     37  H7  UNL     1     -14.809  69.882  29.174  1.00  0.00     0.173 HD
HETATM   38  O9  UNL     1     -14.809  71.000  26.984  1.00  0.00    -0.245 OA
BRANCH  32  39
HETATM   39  C13 UNL     1     -17.492  72.842  31.290  1.00  0.00     0.276 C 
HETATM   40  O7  UNL     1     -17.188  73.937  31.811  1.00  0.00    -0.266 OA
HETATM   41  N5  UNL     1     -18.543  72.074  31.828  1.00  0.00    -0.272 N 
ATOM     42  H5  UNL     1     -18.785  71.182  31.398  1.00  0.00     0.189 HD
BRANCH  41  43
HETATM   43  N6  UNL     1     -19.257  72.517  32.938  1.00  0.00    -0.342 N 
ATOM     44  H62 UNL     1     -19.436  73.517  33.036  1.00  0.00     0.176 HD
ATOM     45  H61 UNL     1     -19.596  71.859  33.640  1.00  0.00     0.176 HD
ENDBRANCH  41  43
ENDBRANCH  32  39
ENDBRANCH  28  30
ENDBRANCH  25  27
ENDBRANCH  24  25
ENDBRANCH   1  24
TORSDOF 13
ENDMDL
MODEL 4
REMARK VINA RESULT: -6.712549476      2.360      8.657
REMARK  13 active torsions:
REMARK  status: ('A' for Active; 'I' for Inactive)
REMARK    1  A    between atoms: N1_1  and  C1_5 
REMARK    2  A    between atoms: C1_5  and  C2_6 
REMARK    3  A    between atoms: C2_6  and  O1_7 
REMARK    4  A    between atoms: C6_16  and  O4_17 
REMARK    5  A    between atoms: O4_17  and  C7_18 
REMARK    6  A    between atoms: C7_18  and  O5_19 
REMARK    7  A    between atoms: C7_18  and  C8_21 
REMARK    8  A    between atoms: C8_21  and  C9_22 
REMARK    9  A    between atoms: C9_22  and  C10_24 
REMARK   10  A    between atoms: N3_25  and  N4_27 
REMARK   11  A    between atoms: C12_29  and  C13_30 
REMARK       I    between atoms: C13_30  and  N5_32 
REMARK   12  A    between atoms: N5_32  and  N6_34 
REMARK   13  A    between atoms: C16_43  and  O10_44 
ROOT
HETATM    1  C7  UNL     1     -15.723  71.266  25.861  1.00  0.00     0.265 C 
ENDROOT
BRANCH   1   2
HETATM    2  O4  UNL     1     -14.416  70.985  25.480  1.00  0.00    -0.345 OA
BRANCH   2   3
HETATM    3  C6  UNL     1     -13.780  70.159  26.401  1.00  0.00     0.236 C 
HETATM    4  C5  UNL     1     -13.803  70.845  27.701  1.00  0.00     0.247 C 
HETATM    5  C4  UNL     1     -12.924  71.939  28.102  1.00  0.00     0.290 C 
HETATM    6  O3  UNL     1     -14.643  70.491  28.586  1.00  0.00    -0.284 OA
HETATM    7  N2  UNL     1     -11.690  72.290  27.490  1.00  0.00    -0.351 N 
HETATM    8  O2  UNL     1     -13.256  72.659  29.076  1.00  0.00    -0.264 OA
HETATM    9  C3  UNL     1     -11.318  71.905  26.125  1.00  0.00     0.165 C 
ATOM     10  H2  UNL     1     -11.024  72.842  28.032  1.00  0.00     0.162 HD
HETATM   11  C2  UNL     1     -11.263  70.420  25.933  1.00  0.00     0.126 C 
HETATM   12  C16 UNL     1     -12.497  69.653  25.909  1.00  0.00     0.192 C 
BRANCH  11  13
HETATM   13  C1  UNL     1     -10.183  69.819  26.854  1.00  0.00     0.271 C 
BRANCH  13  14
HETATM   14  N1  UNL     1      -8.864  69.988  26.399  1.00  0.00    -0.076 N 
ATOM     15  H13 UNL     1      -8.294  69.183  26.658  1.00  0.00     0.274 HD
ATOM     16  H12 UNL     1      -8.828  69.909  25.383  1.00  0.00     0.274 HD
ATOM     17  H11 UNL     1      -8.417  70.853  26.704  1.00  0.00     0.274 HD
ENDBRANCH  13  14
ENDBRANCH  11  13
BRANCH  11  18
HETATM   18  O1  UNL     1     -10.625  70.289  24.659  1.00  0.00    -0.384 OA
ATOM     19  H1  UNL     1     -11.081  70.961  24.166  1.00  0.00     0.210 HD
ENDBRANCH  11  18
BRANCH  12  20
HETATM   20  O10 UNL     1     -12.244  68.436  26.603  1.00  0.00    -0.389 OA
ATOM     21  H10 UNL     1     -11.884  68.670  27.450  1.00  0.00     0.210 HD
ENDBRANCH  12  20
ENDBRANCH   2   3
ENDBRANCH   1   2
BRANCH   1  22
HETATM   22  O5  UNL     1     -16.537  70.372  25.169  1.00  0.00    -0.371 OA
ATOM     23  H5  UNL     1     -17.396  70.775  25.116  1.00  0.00     0.212 HD
ENDBRANCH   1  22
BRANCH   1  24
HETATM   24  C8  UNL     1     -16.111  72.707  25.559  1.00  0.00     0.145 C 
BRANCH  24  25
HETATM   25  C9  UNL     1     -16.036  73.453  26.835  1.00  0.00     0.170 C 
HETATM   26  O6  UNL     1     -15.194  74.407  26.900  1.00  0.00    -0.292 OA
BRANCH  25  27
HETATM   27  C10 UNL     1     -16.863  73.147  27.986  1.00  0.00     0.158 C 
HETATM   28  N3  UNL     1     -16.354  72.963  29.149  1.00  0.00    -0.298 N 
ATOM     29  H3  UNL     1     -15.344  73.033  29.270  1.00  0.00     0.186 HD
BRANCH  28  30
HETATM   30  N4  UNL     1     -17.158  72.669  30.253  1.00  0.00    -0.216 N 
HETATM   31  C11 UNL     1     -17.503  71.434  30.607  1.00  0.00     0.144 A 
HETATM   32  C12 UNL     1     -18.298  71.205  31.704  1.00  0.00     0.119 A 
HETATM   33  C14 UNL     1     -18.740  72.280  32.444  1.00  0.00     0.266 A 
HETATM   34  O8  UNL     1     -19.466  72.107  33.450  1.00  0.00    -0.267 OA
HETATM   35  N7  UNL     1     -18.388  73.535  32.083  1.00  0.00    -0.273 N 
HETATM   36  C15 UNL     1     -17.602  73.701  30.993  1.00  0.00     0.348 A 
ATOM     37  H7  UNL     1     -18.709  74.339  32.621  1.00  0.00     0.173 HD
HETATM   38  O9  UNL     1     -17.293  74.882  30.685  1.00  0.00    -0.245 OA
BRANCH  32  39
HETATM   39  C13 UNL     1     -18.669  69.852  32.079  1.00  0.00     0.276 C 
HETATM   40  O7  UNL     1     -17.829  68.927  32.045  1.00  0.00    -0.266 OA
HETATM   41  N5  UNL     1     -19.992  69.587  32.483  1.00  0.00    -0.272 N 
ATOM     42  H5  UNL     1     -20.672  70.347  32.508  1.00  0.00     0.189 HD
BRANCH  41  43
HETATM   43  N6  UNL     1     -20.385  68.302  32.850  1.00  0.00    -0.342 N 
ATOM     44  H62 UNL     1     -19.861  67.508  32.480  1.00  0.00     0.176 HD
ATOM     45  H61 UNL     1     -21.178  68.154  33.474  1.00  0.00     0.176 HD
ENDBRANCH  41  43
ENDBRANCH  32  39
ENDBRANCH  28  30
ENDBRANCH  25  27
ENDBRANCH  24  25
ENDBRANCH   1  24
TORSDOF 13
ENDMDL
MODEL 5
REMARK VINA RESULT: -6.708670304      2.102      4.320
REMARK  13 active torsions:
REMARK  status: ('A' for Active; 'I' for Inactive)
REMARK    1  A    between atoms: N1_1  and  C1_5 
REMARK    2  A    between atoms: C1_5  and  C2_6 
REMARK    3  A    between atoms: C2_6  and  O1_7 
REMARK    4  A    between atoms: C6_16  and  O4_17 
REMARK    5  A    between atoms: O4_17  and  C7_18 
REMARK    6  A    between atoms: C7_18  and  O5_19 
REMARK    7  A    between atoms: C7_18  and  C8_21 
REMARK    8  A    between atoms: C8_21  and  C9_22 
REMARK    9  A    between atoms: C9_22  and  C10_24 
REMARK   10  A    between atoms: N3_25  and  N4_27 
REMARK   11  A    between atoms: C12_29  and  C13_30 
REMARK       I    between atoms: C13_30  and  N5_32 
REMARK   12  A    between atoms: N5_32  and  N6_34 
REMARK   13  A    between atoms: C16_43  and  O10_44 
ROOT
HETATM    1  C7  UNL     1     -16.233  69.788  29.891  1.00  0.00     0.265 C 
ENDROOT
BRANCH   1   2
HETATM    2  O4  UNL     1     -16.871  70.829  29.227  1.00  0.00    -0.345 OA
BRANCH   2   3
HETATM    3  C6  UNL     1     -16.369  72.067  29.612  1.00  0.00     0.236 C 
HETATM    4  C5  UNL     1     -17.367  72.698  30.487  1.00  0.00     0.247 C 
HETATM    5  C4  UNL     1     -18.594  73.354  30.045  1.00  0.00     0.290 C 
HETATM    6  O3  UNL     1     -17.193  72.699  31.746  1.00  0.00    -0.284 OA
HETATM    7  N2  UNL     1     -18.868  73.819  28.729  1.00  0.00    -0.351 N 
HETATM    8  O2  UNL     1     -19.516  73.543  30.876  1.00  0.00    -0.264 OA
HETATM    9  C3  UNL     1     -18.169  73.340  27.533  1.00  0.00     0.165 C 
ATOM     10  H2  UNL     1     -19.593  74.527  28.610  1.00  0.00     0.162 HD
HETATM   11  C2  UNL     1     -16.695  73.604  27.574  1.00  0.00     0.126 C 
HETATM   12  C16 UNL     1     -15.853  72.841  28.480  1.00  0.00     0.192 C 
BRANCH  11  13
HETATM   13  C1  UNL     1     -16.444  75.124  27.634  1.00  0.00     0.271 C 
BRANCH  13  14
HETATM   14  N1  UNL     1     -17.056  75.860  26.606  1.00  0.00    -0.076 N 
ATOM     15  H13 UNL     1     -16.439  75.917  25.795  1.00  0.00     0.274 HD
ATOM     16  H12 UNL     1     -17.828  75.330  26.202  1.00  0.00     0.274 HD
ATOM     17  H11 UNL     1     -17.370  76.792  26.879  1.00  0.00     0.274 HD
ENDBRANCH  13  14
ENDBRANCH  11  13
BRANCH  11  18
HETATM   18  O1  UNL     1     -16.284  73.323  26.233  1.00  0.00    -0.384 OA
ATOM     19  H1  UNL     1     -17.100  73.464  25.767  1.00  0.00     0.210 HD
ENDBRANCH  11  18
BRANCH  12  20
HETATM   20  O10 UNL     1     -14.885  73.741  29.007  1.00  0.00    -0.389 OA
ATOM     21  H10 UNL     1     -14.111  73.229  29.208  1.00  0.00     0.210 HD
ENDBRANCH  12  20
ENDBRANCH   2   3
ENDBRANCH   1   2
BRANCH   1  22
HETATM   22  O5  UNL     1     -16.731  69.784  31.192  1.00  0.00    -0.371 OA
ATOM     23  H5  UNL     1     -16.989  70.678  31.385  1.00  0.00     0.212 HD
ENDBRANCH   1  22
BRANCH   1  24
HETATM   24  C8  UNL     1     -14.719  69.947  29.885  1.00  0.00     0.145 C 
BRANCH  24  25
HETATM   25  C9  UNL     1     -14.197  69.087  28.798  1.00  0.00     0.170 C 
HETATM   26  O6  UNL     1     -14.674  67.908  28.712  1.00  0.00    -0.292 OA
BRANCH  25  27
HETATM   27  C10 UNL     1     -13.189  69.524  27.852  1.00  0.00     0.158 C 
HETATM   28  N3  UNL     1     -12.916  70.766  27.686  1.00  0.00    -0.298 N 
ATOM     29  H3  UNL     1     -13.418  71.466  28.232  1.00  0.00     0.186 HD
BRANCH  28  30
HETATM   30  N4  UNL     1     -11.943  71.178  26.772  1.00  0.00    -0.216 N 
HETATM   31  C11 UNL     1     -10.891  70.439  26.431  1.00  0.00     0.144 A 
HETATM   32  C12 UNL     1      -9.964  70.897  25.525  1.00  0.00     0.119 A 
HETATM   33  C14 UNL     1     -10.138  72.144  24.966  1.00  0.00     0.266 A 
HETATM   34  O8  UNL     1      -9.313  72.593  24.136  1.00  0.00    -0.267 OA
HETATM   35  N7  UNL     1     -11.208  72.894  25.313  1.00  0.00    -0.273 N 
HETATM   36  C15 UNL     1     -12.089  72.391  26.211  1.00  0.00     0.348 A 
ATOM     37  H7  UNL     1     -11.349  73.819  24.908  1.00  0.00     0.173 HD
HETATM   38  O9  UNL     1     -13.074  73.115  26.511  1.00  0.00    -0.245 OA
BRANCH  32  39
HETATM   39  C13 UNL     1      -8.819  70.081  25.162  1.00  0.00     0.276 C 
HETATM   40  O7  UNL     1      -7.797  70.059  25.883  1.00  0.00    -0.266 OA
HETATM   41  N5  UNL     1      -8.867  69.310  23.984  1.00  0.00    -0.272 N 
ATOM     42  H5  UNL     1      -9.704  69.334  23.402  1.00  0.00     0.189 HD
BRANCH  41  43
HETATM   43  N6  UNL     1      -7.788  68.516  23.604  1.00  0.00    -0.342 N 
ATOM     44  H62 UNL     1      -7.180  68.846  22.854  1.00  0.00     0.176 HD
ATOM     45  H61 UNL     1      -7.606  67.624  24.065  1.00  0.00     0.176 HD
ENDBRANCH  41  43
ENDBRANCH  32  39
ENDBRANCH  28  30
ENDBRANCH  25  27
ENDBRANCH  24  25
ENDBRANCH   1  24
TORSDOF 13
ENDMDL
