MODEL 1
REMARK VINA RESULT: -5.176192917      0.000      0.000
REMARK  15 active torsions:
REMARK  status: ('A' for Active; 'I' for Inactive)
REMARK    1  A    between atoms: C3_8  and  C4_9 
REMARK    2  A    between atoms: C4_9  and  O1_10 
REMARK    3  A    between atoms: C4_9  and  C5_12 
REMARK    4  A    between atoms: C5_12  and  O2_13 
REMARK    5  A    between atoms: C6_15  and  N3_16 
REMARK    6  A    between atoms: C9_24  and  O4_25 
REMARK    7  A    between atoms: C9_24  and  C10_27 
REMARK    8  A    between atoms: C10_27  and  O5_28 
REMARK    9  A    between atoms: C11_30  and  O6_31 
REMARK   10  A    between atoms: O6_31  and  C12_32 
REMARK   11  A    between atoms: C12_32  and  C13_33 
REMARK   12  A    between atoms: C13_33  and  N5_34 
REMARK   13  A    between atoms: C14_41  and  S1_42 
REMARK   14  A    between atoms: S1_42  and  N9_43 
REMARK   15  A    between atoms: S1_42  and  N10_46 
ROOT
HETATM    1  N1  UNL     1     -12.516  68.280  26.194  1.00  0.00    -0.387 N 
ATOM      2  H11 UNL     1     -12.380  67.574  25.470  1.00  0.00     0.157 HD
ATOM      3  H12 UNL     1     -12.938  68.156  27.114  1.00  0.00     0.157 HD
HETATM    4  C1  UNL     1     -12.100  69.478  25.908  1.00  0.00     0.105 C 
HETATM    5  N2  UNL     1     -12.287  70.450  26.907  1.00  0.00    -0.356 N 
ATOM      6  H2  UNL     1     -12.312  70.097  27.864  1.00  0.00     0.163 HD
HETATM    7  C2  UNL     1     -12.448  71.874  26.768  1.00  0.00     0.197 C 
HETATM    8  C3  UNL     1     -13.889  72.232  27.058  1.00  0.00     0.099 C 
HETATM    9  C6  UNL     1     -14.054  73.504  26.273  1.00  0.00     0.285 C 
HETATM   10  C7  UNL     1     -13.346  73.116  25.018  1.00  0.00     0.252 C 
HETATM   11  O3  UNL     1     -13.709  73.436  23.860  1.00  0.00    -0.271 OA
HETATM   12  N4  UNL     1     -12.213  72.335  25.399  1.00  0.00    -0.325 N 
HETATM   13  C8  UNL     1     -11.134  72.142  24.488  1.00  0.00     0.171 C 
HETATM   14  C9  UNL     1     -10.507  70.785  24.518  1.00  0.00     0.128 C 
HETATM   15  C11 UNL     1     -11.489  69.658  24.576  1.00  0.00     0.226 C 
ENDROOT
BRANCH  15  16
HETATM   16  O6  UNL     1     -10.850  68.493  24.176  1.00  0.00    -0.373 OA
BRANCH  16  17
HETATM   17  C12 UNL     1     -11.455  67.932  23.093  1.00  0.00     0.191 C 
BRANCH  17  18
HETATM   18  C13 UNL     1     -10.557  67.335  22.073  1.00  0.00     0.179 C 
BRANCH  18  19
HETATM   19  N5  UNL     1      -9.160  67.236  22.485  1.00  0.00    -0.248 N 
HETATM   20  N6  UNL     1      -8.336  68.258  22.673  1.00  0.00    -0.224 N 
HETATM   21  N7  UNL     1      -7.196  67.806  23.100  1.00  0.00    -0.226 N 
ATOM     22  H6  UNL     1      -8.562  69.239  22.509  1.00  0.00     0.210 HD
HETATM   23  N8  UNL     1      -7.267  66.502  23.191  1.00  0.00    -0.259 N 
ATOM     24  H7  UNL     1      -6.379  68.373  23.327  1.00  0.00     0.210 HD
HETATM   25  C14 UNL     1      -8.528  66.119  22.796  1.00  0.00     0.235 A 
ATOM     26  H8  UNL     1      -6.520  65.880  23.500  1.00  0.00     0.191 HD
BRANCH  25  27
HETATM   27  S1  UNL     1      -9.005  64.427  22.695  1.00  0.00     0.166 S 
HETATM   28  O7  UNL     1     -10.027  64.036  23.679  1.00  0.00    -0.221 OA
BRANCH  27  29
HETATM   29  N9  UNL     1      -7.731  63.572  22.946  1.00  0.00    -0.339 N 
ATOM     30  H92 UNL     1      -7.046  63.731  23.686  1.00  0.00     0.167 HD
ATOM     31  H91 UNL     1      -7.715  62.838  22.240  1.00  0.00     0.167 HD
ENDBRANCH  27  29
BRANCH  27  32
HETATM   32  N10 UNL     1      -9.530  64.060  21.076  1.00  0.00    -0.339 N 
ATOM     33 2H10 UNL     1      -8.986  63.519  20.404  1.00  0.00     0.167 HD
ATOM     34 1H10 UNL     1     -10.452  64.464  20.912  1.00  0.00     0.167 HD
ENDBRANCH  27  32
ENDBRANCH  25  27
ENDBRANCH  18  19
ENDBRANCH  17  18
ENDBRANCH  16  17
ENDBRANCH  15  16
BRANCH  14  35
HETATM   35  O4  UNL     1      -9.835  70.645  23.276  1.00  0.00    -0.383 OA
ATOM     36  H4  UNL     1     -10.409  71.038  22.628  1.00  0.00     0.210 HD
ENDBRANCH  14  35
BRANCH  14  37
HETATM   37  C10 UNL     1      -9.421  70.633  25.562  1.00  0.00     0.206 C 
BRANCH  37  38
HETATM   38  O5  UNL     1      -8.416  69.852  24.977  1.00  0.00    -0.398 OA
ATOM     39  H5  UNL     1      -7.969  69.412  25.689  1.00  0.00     0.209 HD
ENDBRANCH  37  38
ENDBRANCH  14  37
BRANCH   8  40
HETATM   40  C4  UNL     1     -14.236  72.315  28.487  1.00  0.00     0.151 C 
BRANCH  40  41
HETATM   41  O1  UNL     1     -13.056  72.564  29.209  1.00  0.00    -0.393 OA
ATOM     42  H1  UNL     1     -12.987  73.502  29.347  1.00  0.00     0.210 HD
ENDBRANCH  40  41
BRANCH  40  43
HETATM   43  C5  UNL     1     -14.875  71.115  29.089  1.00  0.00     0.196 C 
BRANCH  43  44
HETATM   44  O2  UNL     1     -13.898  70.236  29.584  1.00  0.00    -0.398 OA
ATOM     45  H2  UNL     1     -13.102  70.300  29.068  1.00  0.00     0.209 HD
ENDBRANCH  43  44
ENDBRANCH  40  43
ENDBRANCH   8  40
BRANCH   9  46
HETATM   46  N3  UNL     1     -15.444  73.818  26.019  1.00  0.00    -0.066 N 
ATOM     47  H33 UNL     1     -15.918  73.043  25.555  1.00  0.00     0.275 HD
ATOM     48  H32 UNL     1     -15.980  73.840  26.886  1.00  0.00     0.275 HD
ATOM     49  H31 UNL     1     -15.556  74.685  25.495  1.00  0.00     0.275 HD
ENDBRANCH   9  46
TORSDOF 15
ENDMDL
MODEL 2
REMARK VINA RESULT: -5.171962010      4.721      8.160
REMARK  15 active torsions:
REMARK  status: ('A' for Active; 'I' for Inactive)
REMARK    1  A    between atoms: C3_8  and  C4_9 
REMARK    2  A    between atoms: C4_9  and  O1_10 
REMARK    3  A    between atoms: C4_9  and  C5_12 
REMARK    4  A    between atoms: C5_12  and  O2_13 
REMARK    5  A    between atoms: C6_15  and  N3_16 
REMARK    6  A    between atoms: C9_24  and  O4_25 
REMARK    7  A    between atoms: C9_24  and  C10_27 
REMARK    8  A    between atoms: C10_27  and  O5_28 
REMARK    9  A    between atoms: C11_30  and  O6_31 
REMARK   10  A    between atoms: O6_31  and  C12_32 
REMARK   11  A    between atoms: C12_32  and  C13_33 
REMARK   12  A    between atoms: C13_33  and  N5_34 
REMARK   13  A    between atoms: C14_41  and  S1_42 
REMARK   14  A    between atoms: S1_42  and  N9_43 
REMARK   15  A    between atoms: S1_42  and  N10_46 
ROOT
HETATM    1  N1  UNL     1     -11.711  72.391  27.511  1.00  0.00    -0.387 N 
ATOM      2  H11 UNL     1     -12.463  72.067  28.120  1.00  0.00     0.157 HD
ATOM      3  H12 UNL     1     -10.887  72.932  27.772  1.00  0.00     0.157 HD
HETATM    4  C1  UNL     1     -11.819  72.075  26.255  1.00  0.00     0.105 C 
HETATM    5  N2  UNL     1     -10.783  72.522  25.416  1.00  0.00    -0.356 N 
ATOM      6  H2  UNL     1      -9.878  72.653  25.868  1.00  0.00     0.163 HD
HETATM    7  C2  UNL     1     -10.820  72.821  24.008  1.00  0.00     0.197 C 
HETATM    8  C3  UNL     1     -10.739  74.320  23.825  1.00  0.00     0.099 C 
HETATM    9  C6  UNL     1     -11.426  74.506  22.500  1.00  0.00     0.285 C 
HETATM   10  C7  UNL     1     -12.577  73.576  22.683  1.00  0.00     0.252 C 
HETATM   11  O3  UNL     1     -13.746  73.791  22.281  1.00  0.00    -0.271 OA
HETATM   12  N4  UNL     1     -12.086  72.433  23.385  1.00  0.00    -0.325 N 
HETATM   13  C8  UNL     1     -12.822  71.212  23.374  1.00  0.00     0.171 C 
HETATM   14  C9  UNL     1     -12.809  70.447  24.658  1.00  0.00     0.128 C 
HETATM   15  C11 UNL     1     -13.013  71.292  25.877  1.00  0.00     0.226 C 
ENDROOT
BRANCH  15  16
HETATM   16  O6  UNL     1     -13.403  70.470  26.924  1.00  0.00    -0.373 OA
BRANCH  16  17
HETATM   17  C12 UNL     1     -14.663  70.763  27.351  1.00  0.00     0.191 C 
BRANCH  17  18
HETATM   18  C13 UNL     1     -14.773  71.413  28.681  1.00  0.00     0.179 C 
BRANCH  18  19
HETATM   19  N5  UNL     1     -15.522  72.667  28.678  1.00  0.00    -0.248 N 
HETATM   20  N6  UNL     1     -15.364  73.658  27.812  1.00  0.00    -0.224 N 
HETATM   21  N7  UNL     1     -16.241  74.583  28.068  1.00  0.00    -0.226 N 
ATOM     22  H6  UNL     1     -14.668  73.691  27.068  1.00  0.00     0.210 HD
HETATM   23  N8  UNL     1     -16.966  74.204  29.089  1.00  0.00    -0.259 N 
ATOM     24  H7  UNL     1     -16.346  75.459  27.556  1.00  0.00     0.210 HD
HETATM   25  C14 UNL     1     -16.514  72.970  29.495  1.00  0.00     0.235 A 
ATOM     26  H8  UNL     1     -17.732  74.731  29.509  1.00  0.00     0.191 HD
BRANCH  25  27
HETATM   27  S1  UNL     1     -17.177  72.145  30.902  1.00  0.00     0.166 S 
HETATM   28  O7  UNL     1     -16.212  71.271  31.590  1.00  0.00    -0.221 OA
BRANCH  27  29
HETATM   29  N9  UNL     1     -18.362  71.269  30.407  1.00  0.00    -0.339 N 
ATOM     30  H92 UNL     1     -18.310  70.278  30.170  1.00  0.00     0.167 HD
ATOM     31  H91 UNL     1     -19.186  71.869  30.367  1.00  0.00     0.167 HD
ENDBRANCH  27  29
BRANCH  27  32
HETATM   32  N10 UNL     1     -17.855  73.310  32.004  1.00  0.00    -0.339 N 
ATOM     33 2H10 UNL     1     -17.986  74.298  31.787  1.00  0.00     0.167 HD
ATOM     34 1H10 UNL     1     -18.096  72.854  32.883  1.00  0.00     0.167 HD
ENDBRANCH  27  32
ENDBRANCH  25  27
ENDBRANCH  18  19
ENDBRANCH  17  18
ENDBRANCH  16  17
ENDBRANCH  15  16
BRANCH  14  35
HETATM   35  O4  UNL     1     -13.933  69.582  24.601  1.00  0.00    -0.383 OA
ATOM     36  H4  UNL     1     -13.949  69.126  25.434  1.00  0.00     0.210 HD
ENDBRANCH  14  35
BRANCH  14  37
HETATM   37  C10 UNL     1     -11.619  69.523  24.812  1.00  0.00     0.206 C 
BRANCH  37  38
HETATM   38  O5  UNL     1     -12.073  68.409  25.528  1.00  0.00    -0.398 OA
ATOM     39  H5  UNL     1     -11.528  68.347  26.303  1.00  0.00     0.209 HD
ENDBRANCH  37  38
ENDBRANCH  14  37
BRANCH   8  40
HETATM   40  C4  UNL     1      -9.385  74.890  23.927  1.00  0.00     0.151 C 
BRANCH  40  41
HETATM   41  O1  UNL     1      -8.556  73.937  24.545  1.00  0.00    -0.393 OA
ATOM     42  H1  UNL     1      -8.777  73.908  25.469  1.00  0.00     0.210 HD
ENDBRANCH  40  41
BRANCH  40  43
HETATM   43  C5  UNL     1      -9.250  76.155  24.696  1.00  0.00     0.196 C 
BRANCH  43  44
HETATM   44  O2  UNL     1     -10.513  76.620  25.100  1.00  0.00    -0.398 OA
ATOM     45  H2  UNL     1     -11.049  76.824  24.342  1.00  0.00     0.209 HD
ENDBRANCH  43  44
ENDBRANCH  40  43
ENDBRANCH   8  40
BRANCH   9  46
HETATM   46  N3  UNL     1     -11.875  75.868  22.300  1.00  0.00    -0.066 N 
ATOM     47  H33 UNL     1     -11.157  76.537  22.578  1.00  0.00     0.275 HD
ATOM     48  H32 UNL     1     -11.932  76.094  21.307  1.00  0.00     0.275 HD
ATOM     49  H31 UNL     1     -12.759  76.058  22.772  1.00  0.00     0.275 HD
ENDBRANCH   9  46
TORSDOF 15
ENDMDL
MODEL 3
REMARK VINA RESULT: -5.013906249      5.449      7.277
REMARK  15 active torsions:
REMARK  status: ('A' for Active; 'I' for Inactive)
REMARK    1  A    between atoms: C3_8  and  C4_9 
REMARK    2  A    between atoms: C4_9  and  O1_10 
REMARK    3  A    between atoms: C4_9  and  C5_12 
REMARK    4  A    between atoms: C5_12  and  O2_13 
REMARK    5  A    between atoms: C6_15  and  N3_16 
REMARK    6  A    between atoms: C9_24  and  O4_25 
REMARK    7  A    between atoms: C9_24  and  C10_27 
REMARK    8  A    between atoms: C10_27  and  O5_28 
REMARK    9  A    between atoms: C11_30  and  O6_31 
REMARK   10  A    between atoms: O6_31  and  C12_32 
REMARK   11  A    between atoms: C12_32  and  C13_33 
REMARK   12  A    between atoms: C13_33  and  N5_34 
REMARK   13  A    between atoms: C14_41  and  S1_42 
REMARK   14  A    between atoms: S1_42  and  N9_43 
REMARK   15  A    between atoms: S1_42  and  N10_46 
ROOT
HETATM    1  N1  UNL     1     -13.531  75.775  24.379  1.00  0.00    -0.387 N 
ATOM      2  H11 UNL     1     -12.689  76.342  24.268  1.00  0.00     0.157 HD
ATOM      3  H12 UNL     1     -14.490  76.030  24.143  1.00  0.00     0.157 HD
HETATM    4  C1  UNL     1     -13.356  74.588  24.879  1.00  0.00     0.105 C 
HETATM    5  N2  UNL     1     -14.515  73.807  25.031  1.00  0.00    -0.356 N 
ATOM      6  H2  UNL     1     -15.275  74.018  24.384  1.00  0.00     0.163 HD
HETATM    7  C2  UNL     1     -14.781  72.751  25.974  1.00  0.00     0.197 C 
HETATM    8  C3  UNL     1     -15.767  73.254  27.004  1.00  0.00     0.099 C 
HETATM    9  C6  UNL     1     -15.443  72.386  28.189  1.00  0.00     0.285 C 
HETATM   10  C7  UNL     1     -13.954  72.418  28.121  1.00  0.00     0.252 C 
HETATM   11  O3  UNL     1     -13.191  72.475  29.116  1.00  0.00    -0.271 OA
HETATM   12  N4  UNL     1     -13.594  72.371  26.740  1.00  0.00    -0.325 N 
HETATM   13  C8  UNL     1     -12.273  72.000  26.353  1.00  0.00     0.171 C 
HETATM   14  C9  UNL     1     -11.716  72.745  25.184  1.00  0.00     0.128 C 
HETATM   15  C11 UNL     1     -11.968  74.220  25.221  1.00  0.00     0.226 C 
ENDROOT
BRANCH  15  16
HETATM   16  O6  UNL     1     -11.076  74.842  24.360  1.00  0.00    -0.373 OA
BRANCH  16  17
HETATM   17  C12 UNL     1     -10.358  75.811  24.992  1.00  0.00     0.191 C 
BRANCH  17  18
HETATM   18  C13 UNL     1      -8.903  75.847  24.699  1.00  0.00     0.179 C 
BRANCH  18  19
HETATM   19  N5  UNL     1      -8.495  76.929  23.807  1.00  0.00    -0.248 N 
HETATM   20  N6  UNL     1      -7.813  78.009  24.166  1.00  0.00    -0.224 N 
HETATM   21  N7  UNL     1      -7.568  78.721  23.107  1.00  0.00    -0.226 N 
ATOM     22  H6  UNL     1      -7.528  78.242  25.117  1.00  0.00     0.210 HD
HETATM   23  N8  UNL     1      -8.082  78.119  22.066  1.00  0.00    -0.259 N 
ATOM     24  H7  UNL     1      -7.058  79.605  23.091  1.00  0.00     0.210 HD
HETATM   25  C14 UNL     1      -8.685  76.962  22.501  1.00  0.00     0.235 A 
ATOM     26  H8  UNL     1      -8.043  78.449  21.101  1.00  0.00     0.191 HD
BRANCH  25  27
HETATM   27  S1  UNL     1      -9.572  75.899  21.413  1.00  0.00     0.166 S 
HETATM   28  O7  UNL     1      -9.238  74.474  21.567  1.00  0.00    -0.221 OA
BRANCH  27  29
HETATM   29  N9  UNL     1      -9.219  76.328  19.960  1.00  0.00    -0.339 N 
ATOM     30  H92 UNL     1      -9.508  75.843  19.111  1.00  0.00     0.167 HD
ATOM     31  H91 UNL     1      -8.652  77.173  20.024  1.00  0.00     0.167 HD
ENDBRANCH  27  29
BRANCH  27  32
HETATM   32  N10 UNL     1     -11.283  76.159  21.599  1.00  0.00    -0.339 N 
ATOM     33 2H10 UNL     1     -11.748  77.053  21.444  1.00  0.00     0.167 HD
ATOM     34 1H10 UNL     1     -11.735  75.291  21.883  1.00  0.00     0.167 HD
ENDBRANCH  27  32
ENDBRANCH  25  27
ENDBRANCH  18  19
ENDBRANCH  17  18
ENDBRANCH  16  17
ENDBRANCH  15  16
BRANCH  14  35
HETATM   35  O4  UNL     1     -10.308  72.594  25.268  1.00  0.00    -0.383 OA
ATOM     36  H4  UNL     1     -10.012  73.277  25.858  1.00  0.00     0.210 HD
ENDBRANCH  14  35
BRANCH  14  37
HETATM   37  C10 UNL     1     -12.087  72.150  23.842  1.00  0.00     0.206 C 
BRANCH  37  38
HETATM   38  O5  UNL     1     -11.058  72.495  22.958  1.00  0.00    -0.398 OA
ATOM     39  H5  UNL     1     -10.727  71.680  22.600  1.00  0.00     0.209 HD
ENDBRANCH  37  38
ENDBRANCH  14  37
BRANCH   8  40
HETATM   40  C4  UNL     1     -17.176  73.248  26.576  1.00  0.00     0.151 C 
BRANCH  40  41
HETATM   41  O1  UNL     1     -17.215  72.924  25.208  1.00  0.00    -0.393 OA
ATOM     42  H1  UNL     1     -16.463  73.326  24.788  1.00  0.00     0.210 HD
ENDBRANCH  40  41
BRANCH  40  43
HETATM   43  C5  UNL     1     -17.930  74.518  26.748  1.00  0.00     0.196 C 
BRANCH  43  44
HETATM   44  O2  UNL     1     -17.637  75.097  27.995  1.00  0.00    -0.398 OA
ATOM     45  H2  UNL     1     -18.396  75.060  28.564  1.00  0.00     0.209 HD
ENDBRANCH  43  44
ENDBRANCH  40  43
ENDBRANCH   8  40
BRANCH   9  46
HETATM   46  N3  UNL     1     -15.928  72.948  29.431  1.00  0.00    -0.066 N 
ATOM     47  H33 UNL     1     -16.948  72.960  29.458  1.00  0.00     0.275 HD
ATOM     48  H32 UNL     1     -15.753  72.317  30.214  1.00  0.00     0.275 HD
ATOM     49  H31 UNL     1     -15.544  73.875  29.614  1.00  0.00     0.275 HD
ENDBRANCH   9  46
TORSDOF 15
ENDMDL
MODEL 4
REMARK VINA RESULT: -4.975035557      6.683     11.354
REMARK  15 active torsions:
REMARK  status: ('A' for Active; 'I' for Inactive)
REMARK    1  A    between atoms: C3_8  and  C4_9 
REMARK    2  A    between atoms: C4_9  and  O1_10 
REMARK    3  A    between atoms: C4_9  and  C5_12 
REMARK    4  A    between atoms: C5_12  and  O2_13 
REMARK    5  A    between atoms: C6_15  and  N3_16 
REMARK    6  A    between atoms: C9_24  and  O4_25 
REMARK    7  A    between atoms: C9_24  and  C10_27 
REMARK    8  A    between atoms: C10_27  and  O5_28 
REMARK    9  A    between atoms: C11_30  and  O6_31 
REMARK   10  A    between atoms: O6_31  and  C12_32 
REMARK   11  A    between atoms: C12_32  and  C13_33 
REMARK   12  A    between atoms: C13_33  and  N5_34 
REMARK   13  A    between atoms: C14_41  and  S1_42 
REMARK   14  A    between atoms: S1_42  and  N9_43 
REMARK   15  A    between atoms: S1_42  and  N10_46 
ROOT
HETATM    1  N1  UNL     1     -18.236  70.127  29.288  1.00  0.00    -0.387 N 
ATOM      2  H11 UNL     1     -18.669  70.267  30.202  1.00  0.00     0.157 HD
ATOM      3  H12 UNL     1     -18.316  69.314  28.678  1.00  0.00     0.157 HD
HETATM    4  C1  UNL     1     -17.497  71.104  28.853  1.00  0.00     0.105 C 
HETATM    5  N2  UNL     1     -16.901  70.911  27.594  1.00  0.00    -0.356 N 
ATOM      6  H2  UNL     1     -17.400  70.285  26.963  1.00  0.00     0.163 HD
HETATM    7  C2  UNL     1     -15.684  71.475  27.071  1.00  0.00     0.197 C 
HETATM    8  C3  UNL     1     -14.630  70.393  27.014  1.00  0.00     0.099 C 
HETATM    9  C6  UNL     1     -13.360  71.194  27.109  1.00  0.00     0.285 C 
HETATM   10  C7  UNL     1     -13.755  72.160  28.174  1.00  0.00     0.252 C 
HETATM   11  O3  UNL     1     -12.998  72.571  29.087  1.00  0.00    -0.271 OA
HETATM   12  N4  UNL     1     -15.121  72.505  27.944  1.00  0.00    -0.325 N 
HETATM   13  C8  UNL     1     -15.676  73.679  28.535  1.00  0.00     0.171 C 
HETATM   14  C9  UNL     1     -17.090  73.552  29.001  1.00  0.00     0.128 C 
HETATM   15  C11 UNL     1     -17.380  72.281  29.737  1.00  0.00     0.226 C 
ENDROOT
BRANCH  15  16
HETATM   16  O6  UNL     1     -18.546  72.451  30.470  1.00  0.00    -0.373 OA
BRANCH  16  17
HETATM   17  C12 UNL     1     -18.303  72.441  31.810  1.00  0.00     0.191 C 
BRANCH  17  18
HETATM   18  C13 UNL     1     -19.486  72.277  32.692  1.00  0.00     0.179 C 
BRANCH  18  19
HETATM   19  N5  UNL     1     -19.929  70.895  32.853  1.00  0.00    -0.248 N 
HETATM   20  N6  UNL     1     -19.251  69.819  32.480  1.00  0.00    -0.224 N 
HETATM   21  N7  UNL     1     -19.914  68.760  32.838  1.00  0.00    -0.226 N 
ATOM     22  H6  UNL     1     -18.356  69.822  31.990  1.00  0.00     0.210 HD
HETATM   23  N8  UNL     1     -21.014  69.135  33.439  1.00  0.00    -0.259 N 
ATOM     24  H7  UNL     1     -19.623  67.795  32.677  1.00  0.00     0.210 HD
HETATM   25  C14 UNL     1     -21.039  70.509  33.456  1.00  0.00     0.235 A 
ATOM     26  H8  UNL     1     -21.726  68.516  33.826  1.00  0.00     0.191 HD
BRANCH  25  27
HETATM   27  S1  UNL     1     -22.403  71.415  34.106  1.00  0.00     0.166 S 
HETATM   28  O7  UNL     1     -22.033  72.378  35.156  1.00  0.00    -0.221 OA
BRANCH  27  29
HETATM   29  N9  UNL     1     -23.392  70.382  34.718  1.00  0.00    -0.339 N 
ATOM     30  H92 UNL     1     -24.322  70.593  35.080  1.00  0.00     0.167 HD
ATOM     31  H91 UNL     1     -22.936  69.471  34.685  1.00  0.00     0.167 HD
ENDBRANCH  27  29
BRANCH  27  32
HETATM   32  N10 UNL     1     -23.257  72.205  32.811  1.00  0.00    -0.339 N 
ATOM     33 2H10 UNL     1     -23.021  72.106  31.824  1.00  0.00     0.167 HD
ATOM     34 1H10 UNL     1     -24.015  72.769  33.192  1.00  0.00     0.167 HD
ENDBRANCH  27  32
ENDBRANCH  25  27
ENDBRANCH  18  19
ENDBRANCH  17  18
ENDBRANCH  16  17
ENDBRANCH  15  16
BRANCH  14  35
HETATM   35  O4  UNL     1     -17.277  74.593  29.947  1.00  0.00    -0.383 OA
ATOM     36  H4  UNL     1     -17.774  74.206  30.659  1.00  0.00     0.210 HD
ENDBRANCH  14  35
BRANCH  14  37
HETATM   37  C10 UNL     1     -18.119  73.821  27.924  1.00  0.00     0.206 C 
BRANCH  37  38
HETATM   38  O5  UNL     1     -19.293  74.203  28.585  1.00  0.00    -0.398 OA
ATOM     39  H5  UNL     1     -19.862  73.443  28.584  1.00  0.00     0.209 HD
ENDBRANCH  37  38
ENDBRANCH  14  37
BRANCH   8  40
HETATM   40  C4  UNL     1     -14.726  69.486  25.858  1.00  0.00     0.151 C 
BRANCH  40  41
HETATM   41  O1  UNL     1     -15.658  70.028  24.955  1.00  0.00    -0.393 OA
ATOM     42  H1  UNL     1     -15.487  69.657  24.096  1.00  0.00     0.210 HD
ENDBRANCH  40  41
BRANCH  40  43
HETATM   43  C5  UNL     1     -15.148  68.088  26.140  1.00  0.00     0.196 C 
BRANCH  43  44
HETATM   44  O2  UNL     1     -15.757  68.006  27.404  1.00  0.00    -0.398 OA
ATOM     45  H2  UNL     1     -16.460  68.641  27.475  1.00  0.00     0.209 HD
ENDBRANCH  43  44
ENDBRANCH  40  43
ENDBRANCH   8  40
BRANCH   9  46
HETATM   46  N3  UNL     1     -12.230  70.388  27.519  1.00  0.00    -0.066 N 
ATOM     47  H33 UNL     1     -11.758  69.978  26.713  1.00  0.00     0.275 HD
ATOM     48  H32 UNL     1     -11.471  70.971  27.873  1.00  0.00     0.275 HD
ATOM     49  H31 UNL     1     -12.490  69.671  28.197  1.00  0.00     0.275 HD
ENDBRANCH   9  46
TORSDOF 15
ENDMDL
MODEL 5
REMARK VINA RESULT: -4.956785778      4.537      7.545
REMARK  15 active torsions:
REMARK  status: ('A' for Active; 'I' for Inactive)
REMARK    1  A    between atoms: C3_8  and  C4_9 
REMARK    2  A    between atoms: C4_9  and  O1_10 
REMARK    3  A    between atoms: C4_9  and  C5_12 
REMARK    4  A    between atoms: C5_12  and  O2_13 
REMARK    5  A    between atoms: C6_15  and  N3_16 
REMARK    6  A    between atoms: C9_24  and  O4_25 
REMARK    7  A    between atoms: C9_24  and  C10_27 
REMARK    8  A    between atoms: C10_27  and  O5_28 
REMARK    9  A    between atoms: C11_30  and  O6_31 
REMARK   10  A    between atoms: O6_31  and  C12_32 
REMARK   11  A    between atoms: C12_32  and  C13_33 
REMARK   12  A    between atoms: C13_33  and  N5_34 
REMARK   13  A    between atoms: C14_41  and  S1_42 
REMARK   14  A    between atoms: S1_42  and  N9_43 
REMARK   15  A    between atoms: S1_42  and  N10_46 
ROOT
HETATM    1  N1  UNL     1     -10.520  72.904  21.791  1.00  0.00    -0.387 N 
ATOM      2  H11 UNL     1     -10.333  72.057  22.327  1.00  0.00     0.157 HD
ATOM      3  H12 UNL     1     -10.661  72.987  20.784  1.00  0.00     0.157 HD
HETATM    4  C1  UNL     1     -10.587  74.008  22.475  1.00  0.00     0.105 C 
HETATM    5  N2  UNL     1     -10.845  75.176  21.736  1.00  0.00    -0.356 N 
ATOM      6  H2  UNL     1     -11.366  75.041  20.869  1.00  0.00     0.163 HD
HETATM    7  C2  UNL     1     -10.477  76.537  22.031  1.00  0.00     0.197 C 
HETATM    8  C3  UNL     1      -9.375  76.960  21.086  1.00  0.00     0.099 C 
HETATM    9  C6  UNL     1      -8.681  78.030  21.883  1.00  0.00     0.285 C 
HETATM   10  C7  UNL     1      -8.662  77.372  23.221  1.00  0.00     0.252 C 
HETATM   11  O3  UNL     1      -7.712  77.434  24.039  1.00  0.00    -0.271 OA
HETATM   12  N4  UNL     1      -9.905  76.686  23.370  1.00  0.00    -0.325 N 
HETATM   13  C8  UNL     1     -10.358  76.290  24.663  1.00  0.00     0.171 C 
HETATM   14  C9  UNL     1     -11.055  74.969  24.719  1.00  0.00     0.128 C 
HETATM   15  C11 UNL     1     -10.382  73.888  23.932  1.00  0.00     0.226 C 
ENDROOT
BRANCH  15  16
HETATM   16  O6  UNL     1     -10.841  72.660  24.386  1.00  0.00    -0.373 OA
BRANCH  16  17
HETATM   17  C12 UNL     1      -9.814  71.824  24.704  1.00  0.00     0.191 C 
BRANCH  17  18
HETATM   18  C13 UNL     1     -10.098  70.799  25.739  1.00  0.00     0.179 C 
BRANCH  18  19
HETATM   19  N5  UNL     1     -11.221  71.122  26.615  1.00  0.00    -0.248 N 
HETATM   20  N6  UNL     1     -11.337  72.222  27.347  1.00  0.00    -0.224 N 
HETATM   21  N7  UNL     1     -12.489  72.207  27.947  1.00  0.00    -0.226 N 
ATOM     22  H6  UNL     1     -10.637  72.959  27.425  1.00  0.00     0.210 HD
HETATM   23  N8  UNL     1     -13.122  71.111  27.616  1.00  0.00    -0.259 N 
ATOM     24  H7  UNL     1     -12.842  72.931  28.574  1.00  0.00     0.210 HD
HETATM   25  C14 UNL     1     -12.317  70.399  26.758  1.00  0.00     0.235 A 
ATOM     26  H8  UNL     1     -14.050  70.833  27.937  1.00  0.00     0.191 HD
BRANCH  25  27
HETATM   27  S1  UNL     1     -12.771  68.813  26.143  1.00  0.00     0.166 S 
HETATM   28  O7  UNL     1     -12.108  68.451  24.879  1.00  0.00    -0.221 OA
BRANCH  27  29
HETATM   29  N9  UNL     1     -14.307  68.836  25.900  1.00  0.00    -0.339 N 
ATOM     30  H92 UNL     1     -14.865  68.054  25.558  1.00  0.00     0.167 HD
ATOM     31  H91 UNL     1     -14.638  69.768  26.144  1.00  0.00     0.167 HD
ENDBRANCH  27  29
BRANCH  27  32
HETATM   32  N10 UNL     1     -12.485  67.604  27.362  1.00  0.00    -0.339 N 
ATOM     33 2H10 UNL     1     -12.834  67.659  28.319  1.00  0.00     0.167 HD
ATOM     34 1H10 UNL     1     -11.924  66.847  26.973  1.00  0.00     0.167 HD
ENDBRANCH  27  32
ENDBRANCH  25  27
ENDBRANCH  18  19
ENDBRANCH  17  18
ENDBRANCH  16  17
ENDBRANCH  15  16
BRANCH  14  35
HETATM   35  O4  UNL     1     -10.984  74.556  26.075  1.00  0.00    -0.383 OA
ATOM     36  H4  UNL     1     -10.485  73.747  26.071  1.00  0.00     0.210 HD
ENDBRANCH  14  35
BRANCH  14  37
HETATM   37  C10 UNL     1     -12.536  75.040  24.416  1.00  0.00     0.206 C 
BRANCH  37  38
HETATM   38  O5  UNL     1     -13.173  74.220  25.354  1.00  0.00    -0.398 OA
ATOM     39  H5  UNL     1     -13.320  74.756  26.124  1.00  0.00     0.209 HD
ENDBRANCH  37  38
ENDBRANCH  14  37
BRANCH   8  40
HETATM   40  C4  UNL     1      -9.823  77.356  19.741  1.00  0.00     0.151 C 
BRANCH  40  41
HETATM   41  O1  UNL     1     -11.227  77.424  19.751  1.00  0.00    -0.393 OA
ATOM     42  H1  UNL     1     -11.549  77.006  18.960  1.00  0.00     0.210 HD
ENDBRANCH  40  41
BRANCH  40  43
HETATM   43  C5  UNL     1      -9.434  76.461  18.618  1.00  0.00     0.196 C 
BRANCH  43  44
HETATM   44  O2  UNL     1      -9.236  75.149  19.083  1.00  0.00    -0.398 OA
ATOM     45  H2  UNL     1      -8.309  74.948  19.122  1.00  0.00     0.209 HD
ENDBRANCH  43  44
ENDBRANCH  40  43
ENDBRANCH   8  40
BRANCH   9  46
HETATM   46  N3  UNL     1      -7.340  78.291  21.404  1.00  0.00    -0.066 N 
ATOM     47  H33 UNL     1      -6.743  77.472  21.517  1.00  0.00     0.275 HD
ATOM     48  H32 UNL     1      -7.321  78.366  20.387  1.00  0.00     0.275 HD
ATOM     49  H31 UNL     1      -6.925  79.113  21.842  1.00  0.00     0.275 HD
ENDBRANCH   9  46
TORSDOF 15
ENDMDL
