MODEL 1
REMARK VINA RESULT: -7.882087915      0.000      0.000
REMARK  2 active torsions:
REMARK  status: ('A' for Active; 'I' for Inactive)
REMARK    1  A    between atoms: C3_3  and  C4_6 
REMARK    2  A    between atoms: C8_10  and  N1_11 
ROOT
HETATM    1  C1  UNL     1     -10.838  -8.890   0.660  1.00  0.00     0.018 C 
HETATM    2  C2  UNL     1     -11.961  -8.450   0.748  1.00  0.00    -0.040 C 
HETATM    3  C3  UNL     1     -13.317  -7.914   0.837  1.00  0.00     0.309 C 
HETATM    4  F1  UNL     1     -13.663  -7.249  -0.334  1.00  0.00    -0.191 F 
HETATM    5  F2  UNL     1     -14.165  -9.023   0.905  1.00  0.00    -0.191 F 
ENDROOT
BRANCH   3   6
HETATM    6  C4  UNL     1     -13.499  -7.025   2.050  1.00  0.00     0.073 C 
HETATM    7  C5  UNL     1     -13.278  -5.606   1.631  1.00  0.00     0.012 C 
HETATM    8  C6  UNL     1     -13.483  -4.725   2.816  1.00  0.00     0.003 C 
HETATM    9  C7  UNL     1     -12.461  -5.018   3.880  1.00  0.00     0.033 C 
HETATM   10  C8  UNL     1     -12.312  -6.466   4.204  1.00  0.00     0.184 C 
HETATM   11  C9  UNL     1     -12.445  -7.398   3.050  1.00  0.00     0.044 C 
BRANCH  10  12
HETATM   12  N1  UNL     1     -13.274  -6.828   5.232  1.00  0.00    -0.075 N 
ATOM     13  H13 UNL     1     -13.988  -7.470   4.886  1.00  0.00     0.274 HD
ATOM     14  H12 UNL     1     -12.869  -7.433   5.946  1.00  0.00     0.274 HD
ATOM     15  H11 UNL     1     -13.677  -5.979   5.627  1.00  0.00     0.274 HD
ENDBRANCH  10  12
ENDBRANCH   3   6
TORSDOF 2
ENDMDL
MODEL 2
REMARK VINA RESULT: -7.302195172      1.289      1.916
REMARK  2 active torsions:
REMARK  status: ('A' for Active; 'I' for Inactive)
REMARK    1  A    between atoms: C3_3  and  C4_6 
REMARK    2  A    between atoms: C8_10  and  N1_11 
ROOT
HETATM    1  C1  UNL     1     -10.981  -9.287   0.370  1.00  0.00     0.018 C 
HETATM    2  C2  UNL     1     -11.910  -8.603   0.727  1.00  0.00    -0.040 C 
HETATM    3  C3  UNL     1     -13.038  -7.772   1.142  1.00  0.00     0.309 C 
HETATM    4  F1  UNL     1     -13.576  -7.091   0.055  1.00  0.00    -0.191 F 
HETATM    5  F2  UNL     1     -14.034  -8.658   1.562  1.00  0.00    -0.191 F 
ENDROOT
BRANCH   3   6
HETATM    6  C4  UNL     1     -12.663  -6.819   2.258  1.00  0.00     0.073 C 
HETATM    7  C5  UNL     1     -13.051  -7.445   3.561  1.00  0.00     0.012 C 
HETATM    8  C6  UNL     1     -12.659  -6.521   4.665  1.00  0.00     0.003 C 
HETATM    9  C7  UNL     1     -13.420  -5.228   4.571  1.00  0.00     0.033 C 
HETATM   10  C8  UNL     1     -13.412  -4.609   3.214  1.00  0.00     0.184 C 
HETATM   11  C9  UNL     1     -13.464  -5.564   2.074  1.00  0.00     0.044 C 
BRANCH  10  12
HETATM   12  N1  UNL     1     -12.238  -3.761   3.082  1.00  0.00    -0.075 N 
ATOM     13  H13 UNL     1     -12.384  -2.834   3.481  1.00  0.00     0.274 HD
ATOM     14  H12 UNL     1     -11.474  -4.061   3.689  1.00  0.00     0.274 HD
ATOM     15  H11 UNL     1     -11.962  -3.721   2.102  1.00  0.00     0.274 HD
ENDBRANCH  10  12
ENDBRANCH   3   6
TORSDOF 2
ENDMDL
MODEL 3
REMARK VINA RESULT: -6.285237341      2.649      4.110
REMARK  2 active torsions:
REMARK  status: ('A' for Active; 'I' for Inactive)
REMARK    1  A    between atoms: C3_3  and  C4_6 
REMARK    2  A    between atoms: C8_10  and  N1_11 
ROOT
HETATM    1  C1  UNL     1     -13.131  -6.476   5.649  1.00  0.00     0.018 C 
HETATM    2  C2  UNL     1     -13.042  -5.852   4.618  1.00  0.00    -0.040 C 
HETATM    3  C3  UNL     1     -12.949  -5.086   3.376  1.00  0.00     0.309 C 
HETATM    4  F1  UNL     1     -14.068  -4.278   3.210  1.00  0.00    -0.191 F 
HETATM    5  F2  UNL     1     -11.873  -4.210   3.545  1.00  0.00    -0.191 F 
ENDROOT
BRANCH   3   6
HETATM    6  C4  UNL     1     -12.731  -5.979   2.172  1.00  0.00     0.073 C 
HETATM    7  C5  UNL     1     -13.976  -5.963   1.343  1.00  0.00     0.012 C 
HETATM    8  C6  UNL     1     -13.755  -6.819   0.142  1.00  0.00     0.003 C 
HETATM    9  C7  UNL     1     -13.531  -8.251   0.543  1.00  0.00     0.033 C 
HETATM   10  C8  UNL     1     -12.522  -8.432   1.627  1.00  0.00     0.184 C 
HETATM   11  C9  UNL     1     -12.510  -7.375   2.675  1.00  0.00     0.044 C 
BRANCH  10  12
HETATM   12  N1  UNL     1     -11.199  -8.542   1.034  1.00  0.00    -0.075 N 
ATOM     13  H13 UNL     1     -10.819  -9.486   1.108  1.00  0.00     0.274 HD
ATOM     14  H12 UNL     1     -11.224  -8.476   0.016  1.00  0.00     0.274 HD
ATOM     15  H11 UNL     1     -10.585  -7.844   1.452  1.00  0.00     0.274 HD
ENDBRANCH  10  12
ENDBRANCH   3   6
TORSDOF 2
ENDMDL
MODEL 4
REMARK VINA RESULT: -5.643132131      1.238      1.267
REMARK  2 active torsions:
REMARK  status: ('A' for Active; 'I' for Inactive)
REMARK    1  A    between atoms: C3_3  and  C4_6 
REMARK    2  A    between atoms: C8_10  and  N1_11 
ROOT
HETATM    1  C1  UNL     1     -11.650  -6.254  -0.747  1.00  0.00     0.018 C 
HETATM    2  C2  UNL     1     -12.588  -6.633  -0.087  1.00  0.00    -0.040 C 
HETATM    3  C3  UNL     1     -13.734  -7.087   0.698  1.00  0.00     0.309 C 
HETATM    4  F1  UNL     1     -14.928  -6.747   0.071  1.00  0.00    -0.191 F 
HETATM    5  F2  UNL     1     -13.684  -8.484   0.679  1.00  0.00    -0.191 F 
ENDROOT
BRANCH   3   6
HETATM    6  C4  UNL     1     -13.692  -6.568   2.120  1.00  0.00     0.073 C 
HETATM    7  C5  UNL     1     -13.432  -5.096   2.076  1.00  0.00     0.012 C 
HETATM    8  C6  UNL     1     -13.416  -4.576   3.474  1.00  0.00     0.003 C 
HETATM    9  C7  UNL     1     -12.284  -5.184   4.255  1.00  0.00     0.033 C 
HETATM   10  C8  UNL     1     -12.192  -6.668   4.145  1.00  0.00     0.184 C 
HETATM   11  C9  UNL     1     -12.542  -7.236   2.814  1.00  0.00     0.044 C 
BRANCH  10  12
HETATM   12  N1  UNL     1     -13.031  -7.275   5.166  1.00  0.00    -0.075 N 
ATOM     13  H13 UNL     1     -12.971  -6.786   6.058  1.00  0.00     0.274 HD
ATOM     14  H12 UNL     1     -14.025  -7.129   4.987  1.00  0.00     0.274 HD
ATOM     15  H11 UNL     1     -12.795  -8.264   5.250  1.00  0.00     0.274 HD
ENDBRANCH  10  12
ENDBRANCH   3   6
TORSDOF 2
ENDMDL
MODEL 5
REMARK VINA RESULT: -5.285773300      1.560      2.709
REMARK  2 active torsions:
REMARK  status: ('A' for Active; 'I' for Inactive)
REMARK    1  A    between atoms: C3_3  and  C4_6 
REMARK    2  A    between atoms: C8_10  and  N1_11 
ROOT
HETATM    1  C1  UNL     1     -15.240  -6.376   0.190  1.00  0.00     0.018 C 
HETATM    2  C2  UNL     1     -14.200  -6.844   0.590  1.00  0.00    -0.040 C 
HETATM    3  C3  UNL     1     -12.948  -7.426   1.068  1.00  0.00     0.309 C 
HETATM    4  F1  UNL     1     -13.019  -8.815   1.072  1.00  0.00    -0.191 F 
HETATM    5  F2  UNL     1     -11.982  -7.101   0.111  1.00  0.00    -0.191 F 
ENDROOT
BRANCH   3   6
HETATM    6  C4  UNL     1     -12.555  -6.891   2.430  1.00  0.00     0.073 C 
HETATM    7  C5  UNL     1     -13.162  -7.773   3.475  1.00  0.00     0.012 C 
HETATM    8  C6  UNL     1     -12.756  -7.265   4.817  1.00  0.00     0.003 C 
HETATM    9  C7  UNL     1     -13.305  -5.886   5.053  1.00  0.00     0.033 C 
HETATM   10  C8  UNL     1     -13.066  -4.931   3.932  1.00  0.00     0.184 C 
HETATM   11  C9  UNL     1     -13.140  -5.517   2.565  1.00  0.00     0.044 C 
BRANCH  10  12
HETATM   12  N1  UNL     1     -11.774  -4.291   4.116  1.00  0.00    -0.075 N 
ATOM     13  H13 UNL     1     -11.215  -4.296   3.263  1.00  0.00     0.274 HD
ATOM     14  H12 UNL     1     -11.855  -3.280   4.230  1.00  0.00     0.274 HD
ATOM     15  H11 UNL     1     -11.290  -4.731   4.898  1.00  0.00     0.274 HD
ENDBRANCH  10  12
ENDBRANCH   3   6
TORSDOF 2
ENDMDL
