MODEL 1
REMARK VINA RESULT: -5.450454451      0.000      0.000
REMARK  0 active torsions:
REMARK  status: ('A' for Active; 'I' for Inactive)
ROOT
HETATM    1  C1  UNL     1     -13.224  -4.866   3.170  1.00  0.00     0.017 C 
HETATM    2  C2  UNL     1     -13.522  -6.032   2.258  1.00  0.00     0.080 C 
HETATM    3  C3  UNL     1     -12.806  -5.810   0.955  1.00  0.00     0.243 C 
HETATM    4  N1  UNL     1     -12.769  -7.006   0.155  1.00  0.00    -0.066 N 
ATOM      5  H11 UNL     1     -12.429  -6.798  -0.784  1.00  0.00     0.278 HD
ATOM      6  H12 UNL     1     -13.716  -7.316  -0.068  1.00  0.00     0.278 HD
HETATM    7  C4  UNL     1     -12.016  -8.074   0.734  1.00  0.00     0.124 C 
HETATM    8  C5  UNL     1     -12.615  -9.422   0.338  1.00  0.00     0.046 C 
HETATM    9  C6  UNL     1     -10.576  -8.103   0.217  1.00  0.00     0.046 C 
HETATM   10  C7  UNL     1     -11.942  -7.986   2.227  1.00  0.00     0.117 C 
HETATM   11  C8  UNL     1     -13.157  -7.358   2.855  1.00  0.00     0.250 C 
HETATM   12  F1  UNL     1     -12.884  -7.231   4.219  1.00  0.00    -0.206 F 
HETATM   13  F2  UNL     1     -14.256  -8.207   2.775  1.00  0.00    -0.206 F 
ENDROOT
TORSDOF 0
ENDMDL
MODEL 2
REMARK VINA RESULT: -5.337681990      2.133      2.892
REMARK  0 active torsions:
REMARK  status: ('A' for Active; 'I' for Inactive)
ROOT
HETATM    1  C1  UNL     1     -13.152  -5.860   5.325  1.00  0.00     0.017 C 
HETATM    2  C2  UNL     1     -12.471  -5.919   3.978  1.00  0.00     0.080 C 
HETATM    3  C3  UNL     1     -12.386  -7.358   3.552  1.00  0.00     0.243 C 
HETATM    4  N1  UNL     1     -12.050  -7.483   2.158  1.00  0.00    -0.066 N 
ATOM      5  H11 UNL     1     -11.837  -8.454   1.927  1.00  0.00     0.278 HD
ATOM      6  H12 UNL     1     -11.141  -7.057   1.970  1.00  0.00     0.278 HD
HETATM    7  C4  UNL     1     -13.040  -6.962   1.268  1.00  0.00     0.124 C 
HETATM    8  C5  UNL     1     -12.381  -6.403   0.009  1.00  0.00     0.046 C 
HETATM    9  C6  UNL     1     -13.995  -8.053   0.776  1.00  0.00     0.046 C 
HETATM   10  C7  UNL     1     -13.882  -5.898   1.899  1.00  0.00     0.117 C 
HETATM   11  C8  UNL     1     -13.152  -5.085   2.934  1.00  0.00     0.250 C 
HETATM   12  F1  UNL     1     -14.094  -4.233   3.514  1.00  0.00    -0.206 F 
HETATM   13  F2  UNL     1     -12.213  -4.249   2.341  1.00  0.00    -0.206 F 
ENDROOT
TORSDOF 0
ENDMDL
MODEL 3
REMARK VINA RESULT: -4.514046072      1.539      1.862
REMARK  0 active torsions:
REMARK  status: ('A' for Active; 'I' for Inactive)
ROOT
HETATM    1  C1  UNL     1     -12.319  -5.445   4.848  1.00  0.00     0.017 C 
HETATM    2  C2  UNL     1     -13.254  -5.914   3.758  1.00  0.00     0.080 C 
HETATM    3  C3  UNL     1     -13.307  -4.855   2.692  1.00  0.00     0.243 C 
HETATM    4  N1  UNL     1     -13.910  -5.347   1.481  1.00  0.00    -0.066 N 
ATOM      5  H11 UNL     1     -14.086  -4.581   0.831  1.00  0.00     0.278 HD
ATOM      6  H12 UNL     1     -14.869  -5.650   1.656  1.00  0.00     0.278 HD
HETATM    7  C4  UNL     1     -13.167  -6.387   0.838  1.00  0.00     0.124 C 
HETATM    8  C5  UNL     1     -14.112  -7.352   0.126  1.00  0.00     0.046 C 
HETATM    9  C6  UNL     1     -12.248  -5.837  -0.256  1.00  0.00     0.046 C 
HETATM   10  C7  UNL     1     -12.302  -7.153   1.790  1.00  0.00     0.117 C 
HETATM   11  C8  UNL     1     -12.870  -7.243   3.181  1.00  0.00     0.250 C 
HETATM   12  F1  UNL     1     -11.901  -7.867   3.970  1.00  0.00    -0.206 F 
HETATM   13  F2  UNL     1     -13.974  -8.087   3.216  1.00  0.00    -0.206 F 
ENDROOT
TORSDOF 0
ENDMDL
MODEL 4
REMARK VINA RESULT: -4.233127635      1.926      3.777
REMARK  0 active torsions:
REMARK  status: ('A' for Active; 'I' for Inactive)
ROOT
HETATM    1  C1  UNL     1     -11.654  -8.601   0.569  1.00  0.00     0.017 C 
HETATM    2  C2  UNL     1     -12.599  -8.132   1.650  1.00  0.00     0.080 C 
HETATM    3  C3  UNL     1     -11.832  -8.034   2.940  1.00  0.00     0.243 C 
HETATM    4  N1  UNL     1     -12.561  -7.297   3.939  1.00  0.00    -0.066 N 
ATOM      5  H11 UNL     1     -12.105  -7.379   4.847  1.00  0.00     0.278 HD
ATOM      6  H12 UNL     1     -13.447  -7.758   4.147  1.00  0.00     0.278 HD
HETATM    7  C4  UNL     1     -12.777  -5.922   3.610  1.00  0.00     0.124 C 
HETATM    8  C5  UNL     1     -14.102  -5.438   4.196  1.00  0.00     0.046 C 
HETATM    9  C6  UNL     1     -11.707  -5.014   4.223  1.00  0.00     0.046 C 
HETATM   10  C7  UNL     1     -12.769  -5.672   2.135  1.00  0.00     0.117 C 
HETATM   11  C8  UNL     1     -13.275  -6.835   1.323  1.00  0.00     0.250 C 
HETATM   12  F1  UNL     1     -13.086  -6.500  -0.020  1.00  0.00    -0.206 F 
HETATM   13  F2  UNL     1     -14.648  -6.989   1.476  1.00  0.00    -0.206 F 
ENDROOT
TORSDOF 0
ENDMDL
MODEL 5
REMARK VINA RESULT: -4.230843731      1.975      3.549
REMARK  0 active torsions:
REMARK  status: ('A' for Active; 'I' for Inactive)
ROOT
HETATM    1  C1  UNL     1     -14.347  -6.942  -0.033  1.00  0.00     0.017 C 
HETATM    2  C2  UNL     1     -13.254  -6.472   0.897  1.00  0.00     0.080 C 
HETATM    3  C3  UNL     1     -13.752  -5.265   1.642  1.00  0.00     0.243 C 
HETATM    4  N1  UNL     1     -12.912  -4.948   2.767  1.00  0.00    -0.066 N 
ATOM      5  H11 UNL     1     -13.166  -4.042   3.160  1.00  0.00     0.278 HD
ATOM      6  H12 UNL     1     -11.962  -4.742   2.457  1.00  0.00     0.278 HD
HETATM    7  C4  UNL     1     -12.899  -5.949   3.788  1.00  0.00     0.124 C 
HETATM    8  C5  UNL     1     -11.537  -5.988   4.477  1.00  0.00     0.046 C 
HETATM    9  C6  UNL     1     -13.907  -5.643   4.900  1.00  0.00     0.046 C 
HETATM   10  C7  UNL     1     -13.228  -7.313   3.265  1.00  0.00     0.117 C 
HETATM   11  C8  UNL     1     -12.786  -7.536   1.844  1.00  0.00     0.250 C 
HETATM   12  F1  UNL     1     -13.272  -8.789   1.464  1.00  0.00    -0.206 F 
HETATM   13  F2  UNL     1     -11.402  -7.636   1.762  1.00  0.00    -0.206 F 
ENDROOT
TORSDOF 0
ENDMDL
