MODEL 1
REMARK VINA RESULT: -6.077960740      0.000      0.000
REMARK  0 active torsions:
REMARK  status: ('A' for Active; 'I' for Inactive)
ROOT
HETATM    1  F1  UNL     1     -13.448  -5.647   4.561  1.00  0.00    -0.206 F 
HETATM    2  C1  UNL     1     -12.867  -6.056   3.349  1.00  0.00     0.247 C 
HETATM    3  F2  UNL     1     -11.514  -5.711   3.514  1.00  0.00    -0.206 F 
HETATM    4  C2  UNL     1     -13.041  -7.500   3.140  1.00  0.00     0.112 C 
HETATM    5  C3  UNL     1     -13.710  -7.953   1.913  1.00  0.00     0.192 C 
HETATM    6  C4  UNL     1     -12.705  -8.573   0.937  1.00  0.00     0.033 C 
HETATM    7  C5  UNL     1     -11.739  -7.527   0.520  1.00  0.00     0.004 C 
HETATM    8  C6  UNL     1     -12.284  -6.179   0.291  1.00  0.00     0.033 C 
HETATM    9  C7  UNL     1     -13.562  -5.841   0.943  1.00  0.00     0.192 C 
HETATM   10  C8  UNL     1     -13.412  -5.162   2.290  1.00  0.00     0.112 C 
HETATM   11  N1  UNL     1     -14.440  -6.968   1.181  1.00  0.00    -0.066 N 
ATOM     12  H11 UNL     1     -15.309  -6.699   1.642  1.00  0.00     0.278 HD
ATOM     13  H12 UNL     1     -14.848  -7.338   0.323  1.00  0.00     0.278 HD
ENDROOT
TORSDOF 0
ENDMDL
MODEL 2
REMARK VINA RESULT: -5.869880711      1.828      2.455
REMARK  0 active torsions:
REMARK  status: ('A' for Active; 'I' for Inactive)
ROOT
HETATM    1  F1  UNL     1     -14.525  -4.659   1.017  1.00  0.00    -0.206 F 
HETATM    2  C1  UNL     1     -13.550  -5.668   1.084  1.00  0.00     0.247 C 
HETATM    3  F2  UNL     1     -12.514  -5.160   0.282  1.00  0.00    -0.206 F 
HETATM    4  C2  UNL     1     -13.110  -5.886   2.470  1.00  0.00     0.112 C 
HETATM    5  C3  UNL     1     -13.229  -7.237   3.037  1.00  0.00     0.192 C 
HETATM    6  C4  UNL     1     -11.855  -7.902   3.164  1.00  0.00     0.033 C 
HETATM    7  C5  UNL     1     -11.281  -8.071   1.806  1.00  0.00     0.004 C 
HETATM    8  C6  UNL     1     -12.216  -8.462   0.738  1.00  0.00     0.033 C 
HETATM    9  C7  UNL     1     -13.647  -8.176   0.947  1.00  0.00     0.192 C 
HETATM   10  C8  UNL     1     -14.106  -6.850   0.371  1.00  0.00     0.112 C 
HETATM   11  N1  UNL     1     -14.067  -8.154   2.333  1.00  0.00    -0.066 N 
ATOM     12  H11 UNL     1     -15.059  -7.943   2.440  1.00  0.00     0.278 HD
ATOM     13  H12 UNL     1     -14.077  -9.082   2.756  1.00  0.00     0.278 HD
ENDROOT
TORSDOF 0
ENDMDL
MODEL 3
REMARK VINA RESULT: -5.828784060      1.044      1.135
REMARK  0 active torsions:
REMARK  status: ('A' for Active; 'I' for Inactive)
ROOT
HETATM    1  F1  UNL     1     -13.831  -4.646   3.762  1.00  0.00    -0.206 F 
HETATM    2  C1  UNL     1     -13.169  -5.340   2.735  1.00  0.00     0.247 C 
HETATM    3  F2  UNL     1     -12.199  -4.418   2.305  1.00  0.00    -0.206 F 
HETATM    4  C2  UNL     1     -12.560  -6.578   3.242  1.00  0.00     0.112 C 
HETATM    5  C3  UNL     1     -12.934  -7.850   2.611  1.00  0.00     0.192 C 
HETATM    6  C4  UNL     1     -11.791  -8.390   1.744  1.00  0.00     0.033 C 
HETATM    7  C5  UNL     1     -11.542  -7.435   0.636  1.00  0.00     0.004 C 
HETATM    8  C6  UNL     1     -12.727  -6.810   0.025  1.00  0.00     0.033 C 
HETATM    9  C7  UNL     1     -13.964  -6.766   0.825  1.00  0.00     0.192 C 
HETATM   10  C8  UNL     1     -14.144  -5.488   1.621  1.00  0.00     0.112 C 
HETATM   11  N1  UNL     1     -14.102  -7.838   1.790  1.00  0.00    -0.066 N 
ATOM     12  H11 UNL     1     -14.963  -7.770   2.332  1.00  0.00     0.278 HD
ATOM     13  H12 UNL     1     -14.285  -8.740   1.352  1.00  0.00     0.278 HD
ENDROOT
TORSDOF 0
ENDMDL
MODEL 4
REMARK VINA RESULT: -5.333568582      2.129      3.340
REMARK  0 active torsions:
REMARK  status: ('A' for Active; 'I' for Inactive)
ROOT
HETATM    1  F1  UNL     1     -11.511  -9.429   0.110  1.00  0.00    -0.206 F 
HETATM    2  C1  UNL     1     -11.807  -8.190   0.702  1.00  0.00     0.247 C 
HETATM    3  F2  UNL     1     -10.646  -7.436   0.456  1.00  0.00    -0.206 F 
HETATM    4  C2  UNL     1     -12.995  -7.580   0.086  1.00  0.00     0.112 C 
HETATM    5  C3  UNL     1     -14.128  -7.228   0.952  1.00  0.00     0.192 C 
HETATM    6  C4  UNL     1     -14.226  -5.711   1.139  1.00  0.00     0.033 C 
HETATM    7  C5  UNL     1     -13.006  -5.239   1.841  1.00  0.00     0.004 C 
HETATM    8  C6  UNL     1     -12.485  -6.103   2.913  1.00  0.00     0.033 C 
HETATM    9  C7  UNL     1     -12.863  -7.527   2.884  1.00  0.00     0.192 C 
HETATM   10  C8  UNL     1     -11.866  -8.420   2.171  1.00  0.00     0.112 C 
HETATM   11  N1  UNL     1     -14.139  -7.805   2.258  1.00  0.00    -0.066 N 
ATOM     12  H11 UNL     1     -14.363  -8.800   2.246  1.00  0.00     0.278 HD
ATOM     13  H12 UNL     1     -14.930  -7.493   2.820  1.00  0.00     0.278 HD
ENDROOT
TORSDOF 0
ENDMDL
MODEL 5
REMARK VINA RESULT: -4.459380285      1.269      2.447
REMARK  0 active torsions:
REMARK  status: ('A' for Active; 'I' for Inactive)
ROOT
HETATM    1  F1  UNL     1     -11.782  -6.029   4.347  1.00  0.00    -0.206 F 
HETATM    2  C1  UNL     1     -12.600  -6.670   3.401  1.00  0.00     0.247 C 
HETATM    3  F2  UNL     1     -13.482  -7.418   4.200  1.00  0.00    -0.206 F 
HETATM    4  C2  UNL     1     -13.313  -5.690   2.570  1.00  0.00     0.112 C 
HETATM    5  C3  UNL     1     -13.145  -5.756   1.111  1.00  0.00     0.192 C 
HETATM    6  C4  UNL     1     -14.407  -6.303   0.437  1.00  0.00     0.033 C 
HETATM    7  C5  UNL     1     -14.623  -7.698   0.893  1.00  0.00     0.004 C 
HETATM    8  C6  UNL     1     -13.422  -8.536   1.046  1.00  0.00     0.033 C 
HETATM    9  C7  UNL     1     -12.131  -7.849   1.231  1.00  0.00     0.192 C 
HETATM   10  C8  UNL     1     -11.738  -7.647   2.682  1.00  0.00     0.112 C 
HETATM   11  N1  UNL     1     -12.050  -6.535   0.629  1.00  0.00    -0.066 N 
ATOM     12  H11 UNL     1     -11.148  -6.085   0.786  1.00  0.00     0.278 HD
ATOM     13  H12 UNL     1     -12.011  -6.570  -0.390  1.00  0.00     0.278 HD
ENDROOT
TORSDOF 0
ENDMDL
