MODEL 1
REMARK VINA RESULT: -5.079095217      0.000      0.000
REMARK  9 active torsions:
REMARK  status: ('A' for Active; 'I' for Inactive)
REMARK    1  A    between atoms: C2_2  and  C3_3 
REMARK    2  A    between atoms: C2_2  and  N2_8 
REMARK    3  A    between atoms: C3_3  and  O1_4 
REMARK    4  A    between atoms: O1_4  and  N1_5 
REMARK    5  A    between atoms: N2_8  and  C4_10 
REMARK    6  A    between atoms: C4_10  and  C5_11 
REMARK    7  A    between atoms: C4_10  and  C8_18 
REMARK    8  A    between atoms: C8_18  and  C9_19 
REMARK    9  A    between atoms: C8_18  and  C10_22 
ROOT
HETATM    1  C4  UNL     1      -7.424   4.069  -2.918  1.00  0.00     0.143 C 
ENDROOT
BRANCH   1   2
HETATM    2  N2  UNL     1      -6.544   5.098  -2.936  1.00  0.00    -0.405 N 
ATOM      3  H2  UNL     1      -5.617   4.801  -3.239  1.00  0.00     0.154 HD
BRANCH   2   4
HETATM    4  C2  UNL     1      -6.582   6.419  -2.653  1.00  0.00     0.099 C 
HETATM    5  C1  UNL     1      -7.694   7.326  -3.016  1.00  0.00     0.034 C 
BRANCH   4   6
HETATM    6  C3  UNL     1      -6.403   6.556  -1.119  1.00  0.00     0.224 C 
BRANCH   6   7
HETATM    7  O1  UNL     1      -5.085   6.228  -0.787  1.00  0.00    -0.285 OA
BRANCH   7   8
HETATM    8  N1  UNL     1      -4.994   5.445   0.277  1.00  0.00    -0.311 N 
ATOM      9  H12 UNL     1      -5.698   5.438   1.015  1.00  0.00     0.184 HD
ATOM     10  H11 UNL     1      -4.158   4.860   0.275  1.00  0.00     0.184 HD
ENDBRANCH   7   8
ENDBRANCH   6   7
ENDBRANCH   4   6
ENDBRANCH   2   4
ENDBRANCH   1   2
BRANCH   1  11
HETATM   11  C5  UNL     1      -7.827   3.582  -4.262  1.00  0.00     0.049 A 
HETATM   12  C6  UNL     1      -8.748   2.579  -4.554  1.00  0.00     0.116 A 
HETATM   13  N3  UNL     1      -8.794   2.417  -5.871  1.00  0.00    -0.360 N 
HETATM   14  C7  UNL     1      -7.945   3.271  -6.422  1.00  0.00     0.180 A 
ATOM     15  H3  UNL     1      -9.382   1.750  -6.371  1.00  0.00     0.166 HD
HETATM   16  N4  UNL     1      -7.353   3.983  -5.455  1.00  0.00    -0.353 N 
ATOM     17  H4  UNL     1      -6.655   4.712  -5.599  1.00  0.00     0.166 HD
ENDBRANCH   1  11
BRANCH   1  18
HETATM   18  C8  UNL     1      -7.119   2.866  -2.082  1.00  0.00     0.118 C 
BRANCH  18  19
HETATM   19  C9  UNL     1      -5.699   2.481  -2.056  1.00  0.00     0.179 C 
HETATM   20  O2  UNL     1      -4.750   3.291  -1.771  1.00  0.00    -0.648 OA
HETATM   21  O3  UNL     1      -5.261   1.196  -2.342  1.00  0.00    -0.648 OA
ENDBRANCH  18  19
BRANCH  18  22
HETATM   22  C10 UNL     1      -7.559   3.059  -0.654  1.00  0.00    -0.006 C 
HETATM   23  C11 UNL     1      -7.615   1.848   0.194  1.00  0.00     0.010 C 
HETATM   24  C12 UNL     1      -8.876   3.831  -0.551  1.00  0.00     0.010 C 
ENDBRANCH  18  22
ENDBRANCH   1  18
TORSDOF 9
ENDMDL
MODEL 2
REMARK VINA RESULT: -4.838092319      1.378      1.884
REMARK  9 active torsions:
REMARK  status: ('A' for Active; 'I' for Inactive)
REMARK    1  A    between atoms: C2_2  and  C3_3 
REMARK    2  A    between atoms: C2_2  and  N2_8 
REMARK    3  A    between atoms: C3_3  and  O1_4 
REMARK    4  A    between atoms: O1_4  and  N1_5 
REMARK    5  A    between atoms: N2_8  and  C4_10 
REMARK    6  A    between atoms: C4_10  and  C5_11 
REMARK    7  A    between atoms: C4_10  and  C8_18 
REMARK    8  A    between atoms: C8_18  and  C9_19 
REMARK    9  A    between atoms: C8_18  and  C10_22 
ROOT
HETATM    1  C4  UNL     1      -7.549   3.463  -2.682  1.00  0.00     0.143 C 
ENDROOT
BRANCH   1   2
HETATM    2  N2  UNL     1      -6.720   4.509  -2.454  1.00  0.00    -0.405 N 
ATOM      3  H2  UNL     1      -5.957   4.544  -3.130  1.00  0.00     0.154 HD
BRANCH   2   4
HETATM    4  C2  UNL     1      -6.646   5.519  -1.558  1.00  0.00     0.099 C 
HETATM    5  C1  UNL     1      -5.606   5.641  -0.513  1.00  0.00     0.034 C 
BRANCH   4   6
HETATM    6  C3  UNL     1      -6.593   6.838  -2.371  1.00  0.00     0.224 C 
BRANCH   6   7
HETATM    7  O1  UNL     1      -7.900   7.277  -2.605  1.00  0.00    -0.285 OA
BRANCH   7   8
HETATM    8  N1  UNL     1      -7.956   8.395  -3.312  1.00  0.00    -0.311 N 
ATOM      9  H12 UNL     1      -7.166   9.035  -3.389  1.00  0.00     0.184 HD
ATOM     10  H11 UNL     1      -8.860   8.542  -3.761  1.00  0.00     0.184 HD
ENDBRANCH   7   8
ENDBRANCH   6   7
ENDBRANCH   4   6
ENDBRANCH   2   4
ENDBRANCH   1   2
BRANCH   1  11
HETATM   11  C5  UNL     1      -7.900   3.257  -4.110  1.00  0.00     0.049 A 
HETATM   12  C6  UNL     1      -8.782   2.316  -4.635  1.00  0.00     0.116 A 
HETATM   13  N3  UNL     1      -8.787   2.430  -5.957  1.00  0.00    -0.360 N 
HETATM   14  C7  UNL     1      -7.948   3.400  -6.291  1.00  0.00     0.180 A 
ATOM     15  H3  UNL     1      -9.341   1.868  -6.604  1.00  0.00     0.166 HD
HETATM   16  N4  UNL     1      -7.405   3.908  -5.177  1.00  0.00    -0.353 N 
ATOM     17  H4  UNL     1      -6.726   4.668  -5.144  1.00  0.00     0.166 HD
ENDBRANCH   1  11
BRANCH   1  18
HETATM   18  C8  UNL     1      -7.205   2.124  -2.111  1.00  0.00     0.118 C 
BRANCH  18  19
HETATM   19  C9  UNL     1      -5.786   1.753  -2.232  1.00  0.00     0.179 C 
HETATM   20  O2  UNL     1      -4.830   2.429  -1.715  1.00  0.00    -0.648 OA
HETATM   21  O3  UNL     1      -5.357   0.628  -2.921  1.00  0.00    -0.648 OA
ENDBRANCH  18  19
BRANCH  18  22
HETATM   22  C10 UNL     1      -7.571   2.034  -0.652  1.00  0.00    -0.006 C 
HETATM   23  C11 UNL     1      -7.576   0.682  -0.050  1.00  0.00     0.010 C 
HETATM   24  C12 UNL     1      -8.885   2.751  -0.338  1.00  0.00     0.010 C 
ENDBRANCH  18  22
ENDBRANCH   1  18
TORSDOF 9
ENDMDL
MODEL 3
REMARK VINA RESULT: -4.802338138      1.927      2.372
REMARK  9 active torsions:
REMARK  status: ('A' for Active; 'I' for Inactive)
REMARK    1  A    between atoms: C2_2  and  C3_3 
REMARK    2  A    between atoms: C2_2  and  N2_8 
REMARK    3  A    between atoms: C3_3  and  O1_4 
REMARK    4  A    between atoms: O1_4  and  N1_5 
REMARK    5  A    between atoms: N2_8  and  C4_10 
REMARK    6  A    between atoms: C4_10  and  C5_11 
REMARK    7  A    between atoms: C4_10  and  C8_18 
REMARK    8  A    between atoms: C8_18  and  C9_19 
REMARK    9  A    between atoms: C8_18  and  C10_22 
ROOT
HETATM    1  C4  UNL     1      -8.449   3.811  -2.441  1.00  0.00     0.143 C 
ENDROOT
BRANCH   1   2
HETATM    2  N2  UNL     1      -8.151   5.120  -2.259  1.00  0.00    -0.405 N 
ATOM      3  H2  UNL     1      -8.761   5.555  -1.566  1.00  0.00     0.154 HD
BRANCH   2   4
HETATM    4  C2  UNL     1      -7.251   5.995  -2.760  1.00  0.00     0.099 C 
HETATM    5  C1  UNL     1      -7.515   7.433  -2.991  1.00  0.00     0.034 C 
BRANCH   4   6
HETATM    6  C3  UNL     1      -6.002   5.931  -1.843  1.00  0.00     0.224 C 
BRANCH   6   7
HETATM    7  O1  UNL     1      -6.215   6.754  -0.733  1.00  0.00    -0.285 OA
BRANCH   7   8
HETATM    8  N1  UNL     1      -5.978   6.146   0.420  1.00  0.00    -0.311 N 
ATOM      9  H12 UNL     1      -5.201   5.499   0.549  1.00  0.00     0.184 HD
ATOM     10  H11 UNL     1      -6.647   6.393   1.149  1.00  0.00     0.184 HD
ENDBRANCH   7   8
ENDBRANCH   6   7
ENDBRANCH   4   6
ENDBRANCH   2   4
ENDBRANCH   1   2
BRANCH   1  11
HETATM   11  C5  UNL     1      -7.629   3.133  -3.478  1.00  0.00     0.049 A 
HETATM   12  C6  UNL     1      -6.447   2.422  -3.286  1.00  0.00     0.116 A 
HETATM   13  N3  UNL     1      -6.007   2.007  -4.468  1.00  0.00    -0.360 N 
HETATM   14  C7  UNL     1      -6.856   2.424  -5.395  1.00  0.00     0.180 A 
ATOM     15  H3  UNL     1      -5.160   1.462  -4.633  1.00  0.00     0.166 HD
HETATM   16  N4  UNL     1      -7.844   3.108  -4.805  1.00  0.00    -0.353 N 
ATOM     17  H4  UNL     1      -8.633   3.540  -5.285  1.00  0.00     0.166 HD
ENDBRANCH   1  11
BRANCH   1  18
HETATM   18  C8  UNL     1      -8.501   2.904  -1.253  1.00  0.00     0.118 C 
BRANCH  18  19
HETATM   19  C9  UNL     1      -7.943   3.478  -0.018  1.00  0.00     0.179 C 
HETATM   20  O2  UNL     1      -6.936   2.987   0.601  1.00  0.00    -0.648 OA
HETATM   21  O3  UNL     1      -8.463   4.613   0.587  1.00  0.00    -0.648 OA
ENDBRANCH  18  19
BRANCH  18  22
HETATM   22  C10 UNL     1      -9.913   2.471  -0.949  1.00  0.00    -0.006 C 
HETATM   23  C11 UNL     1     -10.110   1.657   0.270  1.00  0.00     0.010 C 
HETATM   24  C12 UNL     1     -10.582   1.792  -2.145  1.00  0.00     0.010 C 
ENDBRANCH  18  22
ENDBRANCH   1  18
TORSDOF 9
ENDMDL
MODEL 4
REMARK VINA RESULT: -4.687014224      1.255      1.418
REMARK  9 active torsions:
REMARK  status: ('A' for Active; 'I' for Inactive)
REMARK    1  A    between atoms: C2_2  and  C3_3 
REMARK    2  A    between atoms: C2_2  and  N2_8 
REMARK    3  A    between atoms: C3_3  and  O1_4 
REMARK    4  A    between atoms: O1_4  and  N1_5 
REMARK    5  A    between atoms: N2_8  and  C4_10 
REMARK    6  A    between atoms: C4_10  and  C5_11 
REMARK    7  A    between atoms: C4_10  and  C8_18 
REMARK    8  A    between atoms: C8_18  and  C9_19 
REMARK    9  A    between atoms: C8_18  and  C10_22 
ROOT
HETATM    1  C4  UNL     1      -7.304   3.236  -2.419  1.00  0.00     0.143 C 
ENDROOT
BRANCH   1   2
HETATM    2  N2  UNL     1      -6.172   3.949  -2.208  1.00  0.00    -0.405 N 
ATOM      3  H2  UNL     1      -5.338   3.427  -2.476  1.00  0.00     0.154 HD
BRANCH   2   4
HETATM    4  C2  UNL     1      -5.867   5.177  -1.734  1.00  0.00     0.099 C 
HETATM    5  C1  UNL     1      -6.697   6.387  -1.933  1.00  0.00     0.034 C 
BRANCH   4   6
HETATM    6  C3  UNL     1      -5.683   5.034  -0.201  1.00  0.00     0.224 C 
BRANCH   6   7
HETATM    7  O1  UNL     1      -6.641   5.822   0.445  1.00  0.00    -0.285 OA
BRANCH   7   8
HETATM    8  N1  UNL     1      -6.604   5.711   1.764  1.00  0.00    -0.311 N 
ATOM      9  H12 UNL     1      -5.743   5.823   2.300  1.00  0.00     0.184 HD
ATOM     10  H11 UNL     1      -7.515   5.507   2.176  1.00  0.00     0.184 HD
ENDBRANCH   7   8
ENDBRANCH   6   7
ENDBRANCH   4   6
ENDBRANCH   2   4
ENDBRANCH   1   2
BRANCH   1  11
HETATM   11  C5  UNL     1      -7.757   3.206  -3.833  1.00  0.00     0.049 A 
HETATM   12  C6  UNL     1      -8.872   2.549  -4.348  1.00  0.00     0.116 A 
HETATM   13  N3  UNL     1      -8.904   2.735  -5.661  1.00  0.00    -0.360 N 
HETATM   14  C7  UNL     1      -7.862   3.480  -5.999  1.00  0.00     0.180 A 
ATOM     15  H3  UNL     1      -9.610   2.369  -6.301  1.00  0.00     0.166 HD
HETATM   16  N4  UNL     1      -7.159   3.771  -4.897  1.00  0.00    -0.353 N 
ATOM     17  H4  UNL     1      -6.308   4.332  -4.869  1.00  0.00     0.166 HD
ENDBRANCH   1  11
BRANCH   1  18
HETATM   18  C8  UNL     1      -7.390   1.837  -1.896  1.00  0.00     0.118 C 
BRANCH  18  19
HETATM   19  C9  UNL     1      -6.200   1.012  -2.153  1.00  0.00     0.179 C 
HETATM   20  O2  UNL     1      -5.019   1.333  -1.777  1.00  0.00    -0.648 OA
HETATM   21  O3  UNL     1      -6.253  -0.197  -2.831  1.00  0.00    -0.648 OA
ENDBRANCH  18  19
BRANCH  18  22
HETATM   22  C10 UNL     1      -7.638   1.818  -0.409  1.00  0.00    -0.006 C 
HETATM   23  C11 UNL     1      -7.990   0.512   0.189  1.00  0.00     0.010 C 
HETATM   24  C12 UNL     1      -8.649   2.881   0.025  1.00  0.00     0.010 C 
ENDBRANCH  18  22
ENDBRANCH   1  18
TORSDOF 9
ENDMDL
MODEL 5
REMARK VINA RESULT: -4.676484223      2.803      3.797
REMARK  9 active torsions:
REMARK  status: ('A' for Active; 'I' for Inactive)
REMARK    1  A    between atoms: C2_2  and  C3_3 
REMARK    2  A    between atoms: C2_2  and  N2_8 
REMARK    3  A    between atoms: C3_3  and  O1_4 
REMARK    4  A    between atoms: O1_4  and  N1_5 
REMARK    5  A    between atoms: N2_8  and  C4_10 
REMARK    6  A    between atoms: C4_10  and  C5_11 
REMARK    7  A    between atoms: C4_10  and  C8_18 
REMARK    8  A    between atoms: C8_18  and  C9_19 
REMARK    9  A    between atoms: C8_18  and  C10_22 
ROOT
HETATM    1  C4  UNL     1      -6.770   2.665  -1.924  1.00  0.00     0.143 C 
ENDROOT
BRANCH   1   2
HETATM    2  N2  UNL     1      -6.020   3.541  -1.214  1.00  0.00    -0.405 N 
ATOM      3  H2  UNL     1      -5.667   3.126  -0.351  1.00  0.00     0.154 HD
BRANCH   2   4
HETATM    4  C2  UNL     1      -5.622   4.824  -1.357  1.00  0.00     0.099 C 
HETATM    5  C1  UNL     1      -6.395   5.872  -2.059  1.00  0.00     0.034 C 
BRANCH   4   6
HETATM    6  C3  UNL     1      -5.354   5.374   0.068  1.00  0.00     0.224 C 
BRANCH   6   7
HETATM    7  O1  UNL     1      -6.536   5.929   0.567  1.00  0.00    -0.285 OA
BRANCH   7   8
HETATM    8  N1  UNL     1      -6.737   5.663   1.849  1.00  0.00    -0.311 N 
ATOM      9  H12 UNL     1      -6.954   4.726   2.187  1.00  0.00     0.184 HD
ATOM     10  H11 UNL     1      -6.652   6.485   2.448  1.00  0.00     0.184 HD
ENDBRANCH   7   8
ENDBRANCH   6   7
ENDBRANCH   4   6
ENDBRANCH   2   4
ENDBRANCH   1   2
BRANCH   1  11
HETATM   11  C5  UNL     1      -6.290   1.261  -1.871  1.00  0.00     0.049 A 
HETATM   12  C6  UNL     1      -6.382   0.378  -0.797  1.00  0.00     0.116 A 
HETATM   13  N3  UNL     1      -5.800  -0.765  -1.138  1.00  0.00    -0.360 N 
HETATM   14  C7  UNL     1      -5.345  -0.644  -2.376  1.00  0.00     0.180 A 
ATOM     15  H3  UNL     1      -5.717  -1.594  -0.548  1.00  0.00     0.166 HD
HETATM   16  N4  UNL     1      -5.637   0.581  -2.830  1.00  0.00    -0.353 N 
ATOM     17  H4  UNL     1      -5.403   0.941  -3.755  1.00  0.00     0.166 HD
ENDBRANCH   1  11
BRANCH   1  18
HETATM   18  C8  UNL     1      -8.251   2.636  -1.712  1.00  0.00     0.118 C 
BRANCH  18  19
HETATM   19  C9  UNL     1      -8.730   3.490  -0.614  1.00  0.00     0.179 C 
HETATM   20  O2  UNL     1      -9.416   4.556  -0.791  1.00  0.00    -0.648 OA
HETATM   21  O3  UNL     1      -8.477   3.211   0.722  1.00  0.00    -0.648 OA
ENDBRANCH  18  19
BRANCH  18  22
HETATM   22  C10 UNL     1      -8.995   3.046  -2.958  1.00  0.00    -0.006 C 
HETATM   23  C11 UNL     1     -10.111   2.172  -3.382  1.00  0.00     0.010 C 
HETATM   24  C12 UNL     1      -8.056   3.305  -4.137  1.00  0.00     0.010 C 
ENDBRANCH  18  22
ENDBRANCH   1  18
TORSDOF 9
ENDMDL
