MODEL 1
REMARK VINA RESULT: -5.061194821      0.000      0.000
REMARK  9 active torsions:
REMARK  status: ('A' for Active; 'I' for Inactive)
REMARK    1  A    between atoms: C2_3  and  C3_5 
REMARK    2  A    between atoms: C3_5  and  N2_6 
REMARK    3  A    between atoms: N2_6  and  C4_9 
REMARK    4  A    between atoms: C4_9  and  C5_10 
REMARK    5  A    between atoms: C4_9  and  C8_15 
REMARK    6  A    between atoms: C5_10  and  C6_11 
REMARK    7  A    between atoms: C6_11  and  C7_12 
REMARK    8  A    between atoms: C8_15  and  C9_16 
REMARK    9  A    between atoms: C11_20  and  N5_21 
ROOT
HETATM    1  N1  UNL     1      -4.750   5.103  -0.121  1.00  0.00    -0.188 NA
HETATM    2  C1  UNL     1      -5.776   5.043   0.411  1.00  0.00     0.140 C 
HETATM    3  C2  UNL     1      -7.059   4.989   1.076  1.00  0.00     0.253 C 
HETATM    4  O1  UNL     1      -7.442   5.855   1.881  1.00  0.00    -0.279 OA
ENDROOT
BRANCH   3   5
HETATM    5  C3  UNL     1      -7.949   3.826   0.761  1.00  0.00     0.327 C 
BRANCH   5   6
HETATM    6  N2  UNL     1      -7.413   3.108  -0.348  1.00  0.00    -0.063 N 
ATOM      7  H22 UNL     1      -6.509   3.494  -0.623  1.00  0.00     0.278 HD
ATOM      8  H21 UNL     1      -7.121   2.173  -0.063  1.00  0.00     0.278 HD
BRANCH   6   9
HETATM    9  C4  UNL     1      -8.298   3.039  -1.478  1.00  0.00     0.191 C 
BRANCH   9  10
HETATM   10  C5  UNL     1      -8.546   4.397  -2.030  1.00  0.00     0.042 C 
BRANCH  10  11
HETATM   11  C6  UNL     1      -7.452   4.898  -2.941  1.00  0.00     0.101 C 
BRANCH  11  12
HETATM   12  C7  UNL     1      -7.240   6.347  -2.716  1.00  0.00     0.231 C 
HETATM   13  N3  UNL     1      -5.950   6.909  -2.723  1.00  0.00    -0.062 NA
HETATM   14  O2  UNL     1      -8.233   7.085  -2.516  1.00  0.00    -0.277 OA
ENDBRANCH  11  12
ENDBRANCH  10  11
ENDBRANCH   9  10
BRANCH   9  15
HETATM   15  C8  UNL     1      -9.560   2.278  -1.169  1.00  0.00     0.080 C 
BRANCH  15  16
HETATM   16  C9  UNL     1      -9.245   0.905  -0.642  1.00  0.00     0.003 A 
HETATM   17  C10 UNL     1      -8.622  -0.129  -1.295  1.00  0.00     0.105 A 
HETATM   18  N4  UNL     1      -8.451  -1.244  -0.637  1.00  0.00    -0.346 N 
HETATM   19  C11 UNL     1      -8.883  -1.322   0.616  1.00  0.00     0.142 A 
ATOM     20  H4  UNL     1      -7.994  -2.041  -1.078  1.00  0.00     0.167 HD
HETATM   21  S1  UNL     1      -9.556   0.219   0.894  1.00  0.00    -0.058 SA
BRANCH  19  22
HETATM   22  N5  UNL     1      -8.814  -2.336   1.446  1.00  0.00    -0.380 N 
ATOM     23  H52 UNL     1      -8.859  -2.319   2.465  1.00  0.00     0.158 HD
ATOM     24  H51 UNL     1      -8.703  -3.327   1.233  1.00  0.00     0.158 HD
ENDBRANCH  19  22
ENDBRANCH  15  16
ENDBRANCH   9  15
ENDBRANCH   6   9
ENDBRANCH   5   6
ENDBRANCH   3   5
TORSDOF 9
ENDMDL
MODEL 2
REMARK VINA RESULT: -5.058021185      1.817      2.085
REMARK  9 active torsions:
REMARK  status: ('A' for Active; 'I' for Inactive)
REMARK    1  A    between atoms: C2_3  and  C3_5 
REMARK    2  A    between atoms: C3_5  and  N2_6 
REMARK    3  A    between atoms: N2_6  and  C4_9 
REMARK    4  A    between atoms: C4_9  and  C5_10 
REMARK    5  A    between atoms: C4_9  and  C8_15 
REMARK    6  A    between atoms: C5_10  and  C6_11 
REMARK    7  A    between atoms: C6_11  and  C7_12 
REMARK    8  A    between atoms: C8_15  and  C9_16 
REMARK    9  A    between atoms: C11_20  and  N5_21 
ROOT
HETATM    1  N1  UNL     1      -7.346   5.394   1.784  1.00  0.00    -0.188 NA
HETATM    2  C1  UNL     1      -6.545   5.208   0.970  1.00  0.00     0.140 C 
HETATM    3  C2  UNL     1      -5.528   4.983  -0.033  1.00  0.00     0.253 C 
HETATM    4  O1  UNL     1      -4.498   5.672  -0.120  1.00  0.00    -0.279 OA
ENDROOT
BRANCH   3   5
HETATM    5  C3  UNL     1      -5.752   3.860  -0.999  1.00  0.00     0.327 C 
BRANCH   5   6
HETATM    6  N2  UNL     1      -7.119   3.460  -0.950  1.00  0.00    -0.063 N 
ATOM      7  H22 UNL     1      -7.224   2.609  -0.398  1.00  0.00     0.278 HD
ATOM      8  H21 UNL     1      -7.661   4.106  -0.377  1.00  0.00     0.278 HD
BRANCH   6   9
HETATM    9  C4  UNL     1      -7.725   3.301  -2.244  1.00  0.00     0.191 C 
BRANCH   9  10
HETATM   10  C5  UNL     1      -7.530   4.526  -3.064  1.00  0.00     0.042 C 
BRANCH  10  11
HETATM   11  C6  UNL     1      -8.090   5.780  -2.437  1.00  0.00     0.101 C 
BRANCH  11  12
HETATM   12  C7  UNL     1      -7.327   6.958  -2.912  1.00  0.00     0.231 C 
HETATM   13  N3  UNL     1      -7.972   8.062  -3.499  1.00  0.00    -0.062 NA
HETATM   14  O2  UNL     1      -6.079   6.968  -2.785  1.00  0.00    -0.277 OA
ENDBRANCH  11  12
ENDBRANCH  10  11
ENDBRANCH   9  10
BRANCH   9  15
HETATM   15  C8  UNL     1      -9.162   2.865  -2.151  1.00  0.00     0.080 C 
BRANCH  15  16
HETATM   16  C9  UNL     1      -9.364   1.917  -1.000  1.00  0.00     0.003 A 
HETATM   17  C10 UNL     1     -10.080   2.126   0.152  1.00  0.00     0.105 A 
HETATM   18  N4  UNL     1     -10.120   1.155   1.023  1.00  0.00    -0.346 N 
HETATM   19  C11 UNL     1      -9.473   0.026   0.755  1.00  0.00     0.142 A 
ATOM     20  H4  UNL     1     -10.638   1.261   1.895  1.00  0.00     0.167 HD
HETATM   21  S1  UNL     1      -8.780   0.325  -0.772  1.00  0.00    -0.058 SA
BRANCH  19  22
HETATM   22  N5  UNL     1      -9.385  -1.061   1.485  1.00  0.00    -0.380 N 
ATOM     23  H52 UNL     1     -10.139  -1.673   1.797  1.00  0.00     0.158 HD
ATOM     24  H51 UNL     1      -8.551  -1.500   1.877  1.00  0.00     0.158 HD
ENDBRANCH  19  22
ENDBRANCH  15  16
ENDBRANCH   9  15
ENDBRANCH   6   9
ENDBRANCH   5   6
ENDBRANCH   3   5
TORSDOF 9
ENDMDL
MODEL 3
REMARK VINA RESULT: -4.987370796      3.682      5.202
REMARK  9 active torsions:
REMARK  status: ('A' for Active; 'I' for Inactive)
REMARK    1  A    between atoms: C2_3  and  C3_5 
REMARK    2  A    between atoms: C3_5  and  N2_6 
REMARK    3  A    between atoms: N2_6  and  C4_9 
REMARK    4  A    between atoms: C4_9  and  C5_10 
REMARK    5  A    between atoms: C4_9  and  C8_15 
REMARK    6  A    between atoms: C5_10  and  C6_11 
REMARK    7  A    between atoms: C6_11  and  C7_12 
REMARK    8  A    between atoms: C8_15  and  C9_16 
REMARK    9  A    between atoms: C11_20  and  N5_21 
ROOT
HETATM    1  N1  UNL     1      -7.478   5.212   1.838  1.00  0.00    -0.188 NA
HETATM    2  C1  UNL     1      -7.633   4.275   1.176  1.00  0.00     0.140 C 
HETATM    3  C2  UNL     1      -7.821   3.092   0.366  1.00  0.00     0.253 C 
HETATM    4  O1  UNL     1      -7.194   2.036   0.553  1.00  0.00    -0.279 OA
ENDROOT
BRANCH   3   5
HETATM    5  C3  UNL     1      -8.827   3.170  -0.741  1.00  0.00     0.327 C 
BRANCH   5   6
HETATM    6  N2  UNL     1      -8.309   2.517  -1.897  1.00  0.00    -0.063 N 
ATOM      7  H22 UNL     1      -7.501   1.944  -1.653  1.00  0.00     0.278 HD
ATOM      8  H21 UNL     1      -8.948   1.788  -2.214  1.00  0.00     0.278 HD
BRANCH   6   9
HETATM    9  C4  UNL     1      -7.987   3.413  -2.975  1.00  0.00     0.191 C 
BRANCH   9  10
HETATM   10  C5  UNL     1      -8.234   4.822  -2.572  1.00  0.00     0.042 C 
BRANCH  10  11
HETATM   11  C6  UNL     1      -7.098   5.761  -2.899  1.00  0.00     0.101 C 
BRANCH  11  12
HETATM   12  C7  UNL     1      -6.187   5.865  -1.735  1.00  0.00     0.231 C 
HETATM   13  N3  UNL     1      -5.197   4.897  -1.488  1.00  0.00    -0.062 NA
HETATM   14  O2  UNL     1      -6.303   6.840  -0.955  1.00  0.00    -0.277 OA
ENDBRANCH  11  12
ENDBRANCH  10  11
ENDBRANCH   9  10
BRANCH   9  15
HETATM   15  C8  UNL     1      -8.671   3.028  -4.259  1.00  0.00     0.080 C 
BRANCH  15  16
HETATM   16  C9  UNL     1      -7.713   3.083  -5.417  1.00  0.00     0.003 A 
HETATM   17  C10 UNL     1      -6.568   2.349  -5.602  1.00  0.00     0.105 A 
HETATM   18  N4  UNL     1      -5.883   2.564  -6.693  1.00  0.00    -0.346 N 
HETATM   19  C11 UNL     1      -6.322   3.470  -7.559  1.00  0.00     0.142 A 
ATOM     20  H4  UNL     1      -5.025   2.044  -6.877  1.00  0.00     0.167 HD
HETATM   21  S1  UNL     1      -7.748   4.049  -6.828  1.00  0.00    -0.058 SA
BRANCH  19  22
HETATM   22  N5  UNL     1      -5.792   3.836  -8.702  1.00  0.00    -0.380 N 
ATOM     23  H52 UNL     1      -4.803   3.897  -8.946  1.00  0.00     0.158 HD
ATOM     24  H51 UNL     1      -6.263   4.127  -9.559  1.00  0.00     0.158 HD
ENDBRANCH  19  22
ENDBRANCH  15  16
ENDBRANCH   9  15
ENDBRANCH   6   9
ENDBRANCH   5   6
ENDBRANCH   3   5
TORSDOF 9
ENDMDL
MODEL 4
REMARK VINA RESULT: -4.966931179      3.548      5.339
REMARK  9 active torsions:
REMARK  status: ('A' for Active; 'I' for Inactive)
REMARK    1  A    between atoms: C2_3  and  C3_5 
REMARK    2  A    between atoms: C3_5  and  N2_6 
REMARK    3  A    between atoms: N2_6  and  C4_9 
REMARK    4  A    between atoms: C4_9  and  C5_10 
REMARK    5  A    between atoms: C4_9  and  C8_15 
REMARK    6  A    between atoms: C5_10  and  C6_11 
REMARK    7  A    between atoms: C6_11  and  C7_12 
REMARK    8  A    between atoms: C8_15  and  C9_16 
REMARK    9  A    between atoms: C11_20  and  N5_21 
ROOT
HETATM    1  N1  UNL     1      -5.013   6.160  -0.823  1.00  0.00    -0.188 NA
HETATM    2  C1  UNL     1      -5.915   6.229  -1.545  1.00  0.00     0.140 C 
HETATM    3  C2  UNL     1      -7.036   6.334  -2.452  1.00  0.00     0.253 C 
HETATM    4  O1  UNL     1      -7.624   7.405  -2.681  1.00  0.00    -0.279 OA
ENDROOT
BRANCH   3   5
HETATM    5  C3  UNL     1      -7.488   5.081  -3.136  1.00  0.00     0.327 C 
BRANCH   5   6
HETATM    6  N2  UNL     1      -6.772   3.969  -2.605  1.00  0.00    -0.063 N 
ATOM      7  H22 UNL     1      -5.880   3.853  -3.087  1.00  0.00     0.278 HD
ATOM      8  H21 UNL     1      -6.435   4.175  -1.665  1.00  0.00     0.278 HD
BRANCH   6   9
HETATM    9  C4  UNL     1      -7.517   2.739  -2.617  1.00  0.00     0.191 C 
BRANCH   9  10
HETATM   10  C5  UNL     1      -7.988   2.402  -1.248  1.00  0.00     0.042 C 
BRANCH  10  11
HETATM   11  C6  UNL     1      -7.146   2.997  -0.146  1.00  0.00     0.101 C 
BRANCH  11  12
HETATM   12  C7  UNL     1      -7.888   4.101   0.507  1.00  0.00     0.231 C 
HETATM   13  N3  UNL     1      -7.475   4.634   1.741  1.00  0.00    -0.062 NA
HETATM   14  O2  UNL     1      -8.905   4.569  -0.057  1.00  0.00    -0.277 OA
ENDBRANCH  11  12
ENDBRANCH  10  11
ENDBRANCH   9  10
BRANCH   9  15
HETATM   15  C8  UNL     1      -6.761   1.621  -3.284  1.00  0.00     0.080 C 
BRANCH  15  16
HETATM   16  C9  UNL     1      -6.470   1.950  -4.723  1.00  0.00     0.003 A 
HETATM   17  C10 UNL     1      -5.284   1.813  -5.399  1.00  0.00     0.105 A 
HETATM   18  N4  UNL     1      -5.261   2.165  -6.656  1.00  0.00    -0.346 N 
HETATM   19  C11 UNL     1      -6.373   2.631  -7.212  1.00  0.00     0.142 A 
ATOM     20  H4  UNL     1      -4.403   2.082  -7.202  1.00  0.00     0.167 HD
HETATM   21  S1  UNL     1      -7.500   2.580  -5.935  1.00  0.00    -0.058 SA
BRANCH  19  22
HETATM   22  N5  UNL     1      -6.565   3.036  -8.445  1.00  0.00    -0.380 N 
ATOM     23  H52 UNL     1      -7.359   2.840  -9.056  1.00  0.00     0.158 HD
ATOM     24  H51 UNL     1      -5.963   3.620  -9.026  1.00  0.00     0.158 HD
ENDBRANCH  19  22
ENDBRANCH  15  16
ENDBRANCH   9  15
ENDBRANCH   6   9
ENDBRANCH   5   6
ENDBRANCH   3   5
TORSDOF 9
ENDMDL
MODEL 5
REMARK VINA RESULT: -4.937841094      3.586      5.386
REMARK  9 active torsions:
REMARK  status: ('A' for Active; 'I' for Inactive)
REMARK    1  A    between atoms: C2_3  and  C3_5 
REMARK    2  A    between atoms: C3_5  and  N2_6 
REMARK    3  A    between atoms: N2_6  and  C4_9 
REMARK    4  A    between atoms: C4_9  and  C5_10 
REMARK    5  A    between atoms: C4_9  and  C8_15 
REMARK    6  A    between atoms: C5_10  and  C6_11 
REMARK    7  A    between atoms: C6_11  and  C7_12 
REMARK    8  A    between atoms: C8_15  and  C9_16 
REMARK    9  A    between atoms: C11_20  and  N5_21 
ROOT
HETATM    1  N1  UNL     1      -7.541   6.776  -2.608  1.00  0.00    -0.188 NA
HETATM    2  C1  UNL     1      -6.656   6.256  -2.074  1.00  0.00     0.140 C 
HETATM    3  C2  UNL     1      -5.552   5.620  -1.390  1.00  0.00     0.253 C 
HETATM    4  O1  UNL     1      -4.754   6.242  -0.667  1.00  0.00    -0.279 OA
ENDROOT
BRANCH   3   5
HETATM    5  C3  UNL     1      -5.385   4.143  -1.576  1.00  0.00     0.327 C 
BRANCH   5   6
HETATM    6  N2  UNL     1      -6.245   3.699  -2.622  1.00  0.00    -0.063 N 
ATOM      7  H22 UNL     1      -6.867   4.452  -2.919  1.00  0.00     0.278 HD
ATOM      8  H21 UNL     1      -5.719   3.560  -3.485  1.00  0.00     0.278 HD
BRANCH   6   9
HETATM    9  C4  UNL     1      -6.999   2.520  -2.294  1.00  0.00     0.191 C 
BRANCH   9  10
HETATM   10  C5  UNL     1      -6.789   2.147  -0.870  1.00  0.00     0.042 C 
BRANCH  10  11
HETATM   11  C6  UNL     1      -8.043   2.196  -0.032  1.00  0.00     0.101 C 
BRANCH  11  12
HETATM   12  C7  UNL     1      -8.356   3.603   0.314  1.00  0.00     0.231 C 
HETATM   13  N3  UNL     1      -9.233   4.373  -0.471  1.00  0.00    -0.062 NA
HETATM   14  O2  UNL     1      -7.827   4.114   1.329  1.00  0.00    -0.277 OA
ENDBRANCH  11  12
ENDBRANCH  10  11
ENDBRANCH   9  10
BRANCH   9  15
HETATM   15  C8  UNL     1      -6.739   1.391  -3.255  1.00  0.00     0.080 C 
BRANCH  15  16
HETATM   16  C9  UNL     1      -6.539   1.909  -4.653  1.00  0.00     0.003 A 
HETATM   17  C10 UNL     1      -5.426   1.791  -5.447  1.00  0.00     0.105 A 
HETATM   18  N4  UNL     1      -5.474   2.322  -6.638  1.00  0.00    -0.346 N 
HETATM   19  C11 UNL     1      -6.585   2.944  -7.019  1.00  0.00     0.142 A 
ATOM     20  H4  UNL     1      -4.673   2.262  -7.267  1.00  0.00     0.167 HD
HETATM   21  S1  UNL     1      -7.606   2.783  -5.664  1.00  0.00    -0.058 SA
BRANCH  19  22
HETATM   22  N5  UNL     1      -6.841   3.540  -8.159  1.00  0.00    -0.380 N 
ATOM     23  H52 UNL     1      -7.448   3.220  -8.914  1.00  0.00     0.158 HD
ATOM     24  H51 UNL     1      -6.486   4.431  -8.506  1.00  0.00     0.158 HD
ENDBRANCH  19  22
ENDBRANCH  15  16
ENDBRANCH   9  15
ENDBRANCH   6   9
ENDBRANCH   5   6
ENDBRANCH   3   5
TORSDOF 9
ENDMDL
