MODEL 1
REMARK VINA RESULT: -5.405651259      0.000      0.000
REMARK  9 active torsions:
REMARK  status: ('A' for Active; 'I' for Inactive)
REMARK    1  A    between atoms: C2_2  and  C4_4 
REMARK    2  A    between atoms: C4_4  and  C5_5 
REMARK    3  A    between atoms: C5_5  and  C6_6 
REMARK    4  A    between atoms: C5_5  and  N4_16 
REMARK    5  A    between atoms: C6_6  and  N1_7 
REMARK    6  A    between atoms: C8_11  and  C9_12 
REMARK    7  A    between atoms: N4_16  and  C11_19 
REMARK    8  A    between atoms: C11_19  and  C12_20 
REMARK       I    between atoms: C12_20  and  N5_22 
REMARK    9  A    between atoms: N5_22  and  N6_24 
ROOT
HETATM    1  C5  UNL     1      -9.092   1.863  -0.527  1.00  0.00     0.205 C 
ENDROOT
BRANCH   1   2
HETATM    2  C4  UNL     1      -9.981   0.798  -0.023  1.00  0.00     0.038 C 
BRANCH   2   3
HETATM    3  C2  UNL     1     -10.431   0.767   1.384  1.00  0.00    -0.021 C 
HETATM    4  C1  UNL     1     -11.986   0.982   1.359  1.00  0.00     0.009 C 
HETATM    5  C3  UNL     1     -10.284  -0.539   2.120  1.00  0.00     0.009 C 
ENDBRANCH   2   3
ENDBRANCH   1   2
BRANCH   1   6
HETATM    6  C6  UNL     1      -9.675   2.631  -1.655  1.00  0.00     0.162 C 
BRANCH   6   7
HETATM    7  N1  UNL     1      -8.723   3.490  -2.360  1.00  0.00    -0.349 N 
HETATM    8  C7  UNL     1      -7.898   3.166  -3.351  1.00  0.00     0.183 A 
HETATM    9  N2  UNL     1      -7.186   4.270  -3.719  1.00  0.00    -0.347 N 
HETATM   10  C8  UNL     1      -7.568   5.300  -2.950  1.00  0.00     0.114 A 
ATOM     11  H2  UNL     1      -6.481   4.306  -4.456  1.00  0.00     0.167 HD
HETATM   12  C10 UNL     1      -8.540   4.785  -2.098  1.00  0.00     0.126 A 
BRANCH  10  13
HETATM   13  C9  UNL     1      -7.099   6.685  -2.955  1.00  0.00     0.282 C 
HETATM   14  N3  UNL     1      -7.954   7.698  -3.464  1.00  0.00    -0.056 NA
HETATM   15  O1  UNL     1      -5.966   6.969  -2.520  1.00  0.00    -0.269 OA
ENDBRANCH  10  13
ENDBRANCH   6   7
ENDBRANCH   1   6
BRANCH   1  16
HETATM   16  N4  UNL     1      -8.768   2.792   0.553  1.00  0.00    -0.061 N 
ATOM     17  H42 UNL     1      -9.161   3.712   0.357  1.00  0.00     0.278 HD
ATOM     18  H41 UNL     1      -9.292   2.552   1.395  1.00  0.00     0.278 HD
BRANCH  16  19
HETATM   19  C11 UNL     1      -7.371   2.899   0.850  1.00  0.00     0.336 C 
BRANCH  19  20
HETATM   20  C12 UNL     1      -7.037   4.342   0.953  1.00  0.00     0.261 C 
HETATM   21  O2  UNL     1      -7.669   5.057   1.752  1.00  0.00    -0.270 OA
HETATM   22  N5  UNL     1      -6.021   4.901   0.160  1.00  0.00    -0.275 N 
ATOM     23  H5  UNL     1      -5.507   4.309  -0.493  1.00  0.00     0.189 HD
BRANCH  22  24
HETATM   24  N6  UNL     1      -5.707   6.261   0.256  1.00  0.00    -0.343 N 
ATOM     25  H62 UNL     1      -5.896   6.746   1.134  1.00  0.00     0.176 HD
ATOM     26  H61 UNL     1      -5.298   6.759  -0.535  1.00  0.00     0.176 HD
ENDBRANCH  22  24
ENDBRANCH  19  20
ENDBRANCH  16  19
ENDBRANCH   1  16
TORSDOF 9
ENDMDL
MODEL 2
REMARK VINA RESULT: -5.311401564      1.951      3.235
REMARK  9 active torsions:
REMARK  status: ('A' for Active; 'I' for Inactive)
REMARK    1  A    between atoms: C2_2  and  C4_4 
REMARK    2  A    between atoms: C4_4  and  C5_5 
REMARK    3  A    between atoms: C5_5  and  C6_6 
REMARK    4  A    between atoms: C5_5  and  N4_16 
REMARK    5  A    between atoms: C6_6  and  N1_7 
REMARK    6  A    between atoms: C8_11  and  C9_12 
REMARK    7  A    between atoms: N4_16  and  C11_19 
REMARK    8  A    between atoms: C11_19  and  C12_20 
REMARK       I    between atoms: C12_20  and  N5_22 
REMARK    9  A    between atoms: N5_22  and  N6_24 
ROOT
HETATM    1  C5  UNL     1      -8.323   1.908  -0.085  1.00  0.00     0.205 C 
ENDROOT
BRANCH   1   2
HETATM    2  C4  UNL     1      -9.516   1.048   0.030  1.00  0.00     0.038 C 
BRANCH   2   3
HETATM    3  C2  UNL     1     -10.173   0.805   1.332  1.00  0.00    -0.021 C 
HETATM    4  C1  UNL     1     -11.707   1.063   1.112  1.00  0.00     0.009 C 
HETATM    5  C3  UNL     1     -10.141  -0.605   1.860  1.00  0.00     0.009 C 
ENDBRANCH   2   3
ENDBRANCH   1   2
BRANCH   1   6
HETATM    6  C6  UNL     1      -8.258   2.965   0.955  1.00  0.00     0.162 C 
BRANCH   6   7
HETATM    7  N1  UNL     1      -7.405   4.103   0.610  1.00  0.00    -0.349 N 
HETATM    8  C7  UNL     1      -6.639   4.833   1.415  1.00  0.00     0.183 A 
HETATM    9  N2  UNL     1      -6.008   5.795   0.682  1.00  0.00    -0.347 N 
HETATM   10  C8  UNL     1      -6.382   5.668  -0.600  1.00  0.00     0.114 A 
ATOM     11  H2  UNL     1      -5.360   6.494   1.047  1.00  0.00     0.167 HD
HETATM   12  C10 UNL     1      -7.265   4.593  -0.623  1.00  0.00     0.126 A 
BRANCH  10  13
HETATM   13  C9  UNL     1      -5.986   6.460  -1.764  1.00  0.00     0.282 C 
HETATM   14  N3  UNL     1      -6.976   7.208  -2.455  1.00  0.00    -0.056 NA
HETATM   15  O1  UNL     1      -4.798   6.476  -2.142  1.00  0.00    -0.269 OA
ENDBRANCH  10  13
ENDBRANCH   6   7
ENDBRANCH   1   6
BRANCH   1  16
HETATM   16  N4  UNL     1      -7.114   1.094   0.000  1.00  0.00    -0.061 N 
ATOM     17  H42 UNL     1      -6.333   1.654   0.342  1.00  0.00     0.278 HD
ATOM     18  H41 UNL     1      -7.193   0.420   0.762  1.00  0.00     0.278 HD
BRANCH  16  19
HETATM   19  C11 UNL     1      -6.755   0.429  -1.217  1.00  0.00     0.336 C 
BRANCH  19  20
HETATM   20  C12 UNL     1      -6.231   1.451  -2.157  1.00  0.00     0.261 C 
HETATM   21  O2  UNL     1      -5.196   2.076  -1.862  1.00  0.00    -0.270 OA
HETATM   22  N5  UNL     1      -6.893   1.717  -3.368  1.00  0.00    -0.275 N 
ATOM     23  H5  UNL     1      -7.741   1.201  -3.603  1.00  0.00     0.189 HD
BRANCH  22  24
HETATM   24  N6  UNL     1      -6.401   2.682  -4.254  1.00  0.00    -0.343 N 
ATOM     25  H62 UNL     1      -7.064   3.305  -4.717  1.00  0.00     0.176 HD
ATOM     26  H61 UNL     1      -5.400   2.762  -4.433  1.00  0.00     0.176 HD
ENDBRANCH  22  24
ENDBRANCH  19  20
ENDBRANCH  16  19
ENDBRANCH   1  16
TORSDOF 9
ENDMDL
MODEL 3
REMARK VINA RESULT: -5.307705154      3.326      4.871
REMARK  9 active torsions:
REMARK  status: ('A' for Active; 'I' for Inactive)
REMARK    1  A    between atoms: C2_2  and  C4_4 
REMARK    2  A    between atoms: C4_4  and  C5_5 
REMARK    3  A    between atoms: C5_5  and  C6_6 
REMARK    4  A    between atoms: C5_5  and  N4_16 
REMARK    5  A    between atoms: C6_6  and  N1_7 
REMARK    6  A    between atoms: C8_11  and  C9_12 
REMARK    7  A    between atoms: N4_16  and  C11_19 
REMARK    8  A    between atoms: C11_19  and  C12_20 
REMARK       I    between atoms: C12_20  and  N5_22 
REMARK    9  A    between atoms: N5_22  and  N6_24 
ROOT
HETATM    1  C5  UNL     1      -7.150   3.791  -2.168  1.00  0.00     0.205 C 
ENDROOT
BRANCH   1   2
HETATM    2  C4  UNL     1      -8.528   4.199  -1.831  1.00  0.00     0.038 C 
BRANCH   2   3
HETATM    3  C2  UNL     1      -9.272   3.570  -0.719  1.00  0.00    -0.021 C 
HETATM    4  C1  UNL     1     -10.086   2.382  -1.345  1.00  0.00     0.009 C 
HETATM    5  C3  UNL     1      -8.457   2.893   0.351  1.00  0.00     0.009 C 
ENDBRANCH   2   3
ENDBRANCH   1   2
BRANCH   1   6
HETATM    6  C6  UNL     1      -7.075   2.887  -3.342  1.00  0.00     0.162 C 
BRANCH   6   7
HETATM    7  N1  UNL     1      -6.439   1.597  -3.074  1.00  0.00    -0.349 N 
HETATM    8  C7  UNL     1      -6.492   0.485  -3.802  1.00  0.00     0.183 A 
HETATM    9  N2  UNL     1      -5.753  -0.485  -3.191  1.00  0.00    -0.347 N 
HETATM   10  C8  UNL     1      -5.228   0.024  -2.066  1.00  0.00     0.114 A 
ATOM     11  H2  UNL     1      -5.621  -1.438  -3.532  1.00  0.00     0.167 HD
HETATM   12  C10 UNL     1      -5.674   1.340  -2.012  1.00  0.00     0.126 A 
BRANCH  10  13
HETATM   13  C9  UNL     1      -4.370  -0.618  -1.070  1.00  0.00     0.282 C 
HETATM   14  N3  UNL     1      -2.965  -0.438  -1.157  1.00  0.00    -0.056 NA
HETATM   15  O1  UNL     1      -4.867  -1.311  -0.161  1.00  0.00    -0.269 OA
ENDBRANCH  10  13
ENDBRANCH   6   7
ENDBRANCH   1   6
BRANCH   1  16
HETATM   16  N4  UNL     1      -6.334   4.973  -2.435  1.00  0.00    -0.061 N 
ATOM     17  H42 UNL     1      -5.349   4.715  -2.503  1.00  0.00     0.278 HD
ATOM     18  H41 UNL     1      -6.495   5.307  -3.386  1.00  0.00     0.278 HD
BRANCH  16  19
HETATM   19  C11 UNL     1      -6.505   6.041  -1.495  1.00  0.00     0.336 C 
BRANCH  19  20
HETATM   20  C12 UNL     1      -5.870   5.629  -0.218  1.00  0.00     0.261 C 
HETATM   21  O2  UNL     1      -4.723   5.147  -0.235  1.00  0.00    -0.270 OA
HETATM   22  N5  UNL     1      -6.553   5.779   1.001  1.00  0.00    -0.275 N 
ATOM     23  H5  UNL     1      -7.493   6.175   1.008  1.00  0.00     0.189 HD
BRANCH  22  24
HETATM   24  N6  UNL     1      -5.956   5.389   2.206  1.00  0.00    -0.343 N 
ATOM     25  H62 UNL     1      -6.541   4.967   2.928  1.00  0.00     0.176 HD
ATOM     26  H61 UNL     1      -4.956   5.525   2.359  1.00  0.00     0.176 HD
ENDBRANCH  22  24
ENDBRANCH  19  20
ENDBRANCH  16  19
ENDBRANCH   1  16
TORSDOF 9
ENDMDL
MODEL 4
REMARK VINA RESULT: -5.149533013      2.750      3.953
REMARK  9 active torsions:
REMARK  status: ('A' for Active; 'I' for Inactive)
REMARK    1  A    between atoms: C2_2  and  C4_4 
REMARK    2  A    between atoms: C4_4  and  C5_5 
REMARK    3  A    between atoms: C5_5  and  C6_6 
REMARK    4  A    between atoms: C5_5  and  N4_16 
REMARK    5  A    between atoms: C6_6  and  N1_7 
REMARK    6  A    between atoms: C8_11  and  C9_12 
REMARK    7  A    between atoms: N4_16  and  C11_19 
REMARK    8  A    between atoms: C11_19  and  C12_20 
REMARK       I    between atoms: C12_20  and  N5_22 
REMARK    9  A    between atoms: N5_22  and  N6_24 
ROOT
HETATM    1  C5  UNL     1      -8.045   3.974  -1.825  1.00  0.00     0.205 C 
ENDROOT
BRANCH   1   2
HETATM    2  C4  UNL     1      -8.897   3.641  -0.667  1.00  0.00     0.038 C 
BRANCH   2   3
HETATM    3  C2  UNL     1      -8.442   2.707   0.385  1.00  0.00    -0.021 C 
HETATM    4  C1  UNL     1      -9.663   1.775   0.711  1.00  0.00     0.009 C 
HETATM    5  C3  UNL     1      -7.362   1.728   0.009  1.00  0.00     0.009 C 
ENDBRANCH   2   3
ENDBRANCH   1   2
BRANCH   1   6
HETATM    6  C6  UNL     1      -8.658   3.614  -3.128  1.00  0.00     0.162 C 
BRANCH   6   7
HETATM    7  N1  UNL     1      -7.709   3.130  -4.131  1.00  0.00    -0.349 N 
HETATM    8  C7  UNL     1      -7.629   3.460  -5.417  1.00  0.00     0.183 A 
HETATM    9  N2  UNL     1      -6.596   2.776  -5.990  1.00  0.00    -0.347 N 
HETATM   10  C8  UNL     1      -6.021   2.008  -5.053  1.00  0.00     0.114 A 
ATOM     11  H2  UNL     1      -6.309   2.839  -6.967  1.00  0.00     0.167 HD
HETATM   12  C10 UNL     1      -6.740   2.247  -3.886  1.00  0.00     0.126 A 
BRANCH  10  13
HETATM   13  C9  UNL     1      -4.886   1.094  -5.172  1.00  0.00     0.282 C 
HETATM   14  N3  UNL     1      -4.825  -0.041  -4.321  1.00  0.00    -0.056 NA
HETATM   15  O1  UNL     1      -3.986   1.310  -6.008  1.00  0.00    -0.269 OA
ENDBRANCH  10  13
ENDBRANCH   6   7
ENDBRANCH   1   6
BRANCH   1  16
HETATM   16  N4  UNL     1      -7.749   5.404  -1.828  1.00  0.00    -0.061 N 
ATOM     17  H42 UNL     1      -8.191   5.856  -2.628  1.00  0.00     0.278 HD
ATOM     18  H41 UNL     1      -8.243   5.870  -1.066  1.00  0.00     0.278 HD
BRANCH  16  19
HETATM   19  C11 UNL     1      -6.352   5.724  -1.785  1.00  0.00     0.336 C 
BRANCH  19  20
HETATM   20  C12 UNL     1      -5.843   5.358  -0.439  1.00  0.00     0.261 C 
HETATM   21  O2  UNL     1      -4.843   4.622  -0.347  1.00  0.00    -0.270 OA
HETATM   22  N5  UNL     1      -6.478   5.833   0.720  1.00  0.00    -0.275 N 
ATOM     23  H5  UNL     1      -7.297   6.435   0.637  1.00  0.00     0.189 HD
BRANCH  22  24
HETATM   24  N6  UNL     1      -5.999   5.487   1.989  1.00  0.00    -0.343 N 
ATOM     25  H62 UNL     1      -5.012   5.639   2.198  1.00  0.00     0.176 HD
ATOM     26  H61 UNL     1      -6.623   5.089   2.691  1.00  0.00     0.176 HD
ENDBRANCH  22  24
ENDBRANCH  19  20
ENDBRANCH  16  19
ENDBRANCH   1  16
TORSDOF 9
ENDMDL
MODEL 5
REMARK VINA RESULT: -5.102726163      2.915      4.013
REMARK  9 active torsions:
REMARK  status: ('A' for Active; 'I' for Inactive)
REMARK    1  A    between atoms: C2_2  and  C4_4 
REMARK    2  A    between atoms: C4_4  and  C5_5 
REMARK    3  A    between atoms: C5_5  and  C6_6 
REMARK    4  A    between atoms: C5_5  and  N4_16 
REMARK    5  A    between atoms: C6_6  and  N1_7 
REMARK    6  A    between atoms: C8_11  and  C9_12 
REMARK    7  A    between atoms: N4_16  and  C11_19 
REMARK    8  A    between atoms: C11_19  and  C12_20 
REMARK       I    between atoms: C12_20  and  N5_22 
REMARK    9  A    between atoms: N5_22  and  N6_24 
ROOT
HETATM    1  C5  UNL     1      -7.947   3.227  -2.231  1.00  0.00     0.205 C 
ENDROOT
BRANCH   1   2
HETATM    2  C4  UNL     1      -8.939   3.192  -1.139  1.00  0.00     0.038 C 
BRANCH   2   3
HETATM    3  C2  UNL     1      -8.663   2.496   0.136  1.00  0.00    -0.021 C 
HETATM    4  C1  UNL     1      -9.984   1.740   0.525  1.00  0.00     0.009 C 
HETATM    5  C3  UNL     1      -7.640   1.392   0.103  1.00  0.00     0.009 C 
ENDBRANCH   2   3
ENDBRANCH   1   2
BRANCH   1   6
HETATM    6  C6  UNL     1      -8.538   2.978  -3.569  1.00  0.00     0.162 C 
BRANCH   6   7
HETATM    7  N1  UNL     1      -7.559   2.825  -4.646  1.00  0.00    -0.349 N 
HETATM    8  C7  UNL     1      -7.465   3.515  -5.779  1.00  0.00     0.183 A 
HETATM    9  N2  UNL     1      -6.404   3.050  -6.499  1.00  0.00    -0.347 N 
HETATM   10  C8  UNL     1      -5.823   2.056  -5.810  1.00  0.00     0.114 A 
ATOM     11  H2  UNL     1      -6.102   3.399  -7.409  1.00  0.00     0.167 HD
HETATM   12  C10 UNL     1      -6.569   1.931  -4.642  1.00  0.00     0.126 A 
BRANCH  10  13
HETATM   13  C9  UNL     1      -4.660   1.242  -6.160  1.00  0.00     0.282 C 
HETATM   14  N3  UNL     1      -4.187   1.260  -7.498  1.00  0.00    -0.056 NA
HETATM   15  O1  UNL     1      -4.095   0.544  -5.295  1.00  0.00    -0.269 OA
ENDBRANCH  10  13
ENDBRANCH   6   7
ENDBRANCH   1   6
BRANCH   1  16
HETATM   16  N4  UNL     1      -7.276   4.524  -2.251  1.00  0.00    -0.061 N 
ATOM     17  H42 UNL     1      -7.190   4.863  -3.208  1.00  0.00     0.278 HD
ATOM     18  H41 UNL     1      -7.886   5.244  -1.863  1.00  0.00     0.278 HD
BRANCH  16  19
HETATM   19  C11 UNL     1      -6.001   4.546  -1.597  1.00  0.00     0.336 C 
BRANCH  19  20
HETATM   20  C12 UNL     1      -6.128   5.384  -0.378  1.00  0.00     0.261 C 
HETATM   21  O2  UNL     1      -6.191   6.621  -0.494  1.00  0.00    -0.270 OA
HETATM   22  N5  UNL     1      -6.177   4.792   0.895  1.00  0.00    -0.275 N 
ATOM     23  H5  UNL     1      -6.126   3.778   0.983  1.00  0.00     0.189 HD
BRANCH  22  24
HETATM   24  N6  UNL     1      -6.296   5.582   2.045  1.00  0.00    -0.343 N 
ATOM     25  H62 UNL     1      -6.499   6.576   1.937  1.00  0.00     0.176 HD
ATOM     26  H61 UNL     1      -6.180   5.172   2.972  1.00  0.00     0.176 HD
ENDBRANCH  22  24
ENDBRANCH  19  20
ENDBRANCH  16  19
ENDBRANCH   1  16
TORSDOF 9
ENDMDL
