MODEL 1
REMARK VINA RESULT: -5.525795681      0.000      0.000
REMARK  9 active torsions:
REMARK  status: ('A' for Active; 'I' for Inactive)
REMARK    1  A    between atoms: C2_2  and  C3_3 
REMARK    2  A    between atoms: N3_11  and  C6_12 
REMARK    3  A    between atoms: C6_12  and  C7_13 
REMARK    4  A    between atoms: C6_12  and  C11_23 
REMARK    5  A    between atoms: C7_13  and  C8_14 
REMARK    6  A    between atoms: C8_14  and  C9_15 
REMARK    7  A    between atoms: C9_15  and  N4_16 
REMARK    8  A    between atoms: C9_15  and  C10_20 
REMARK    9  A    between atoms: C11_23  and  C12_24 
ROOT
HETATM    1  C6  UNL     1      -8.322   2.646  -0.947  1.00  0.00     0.118 C 
ENDROOT
BRANCH   1   2
HETATM    2  N3  UNL     1      -7.958   2.752  -2.318  1.00  0.00    -0.177 N 
HETATM    3  C3  UNL     1      -8.836   2.425  -3.327  1.00  0.00     0.067 A 
HETATM    4  C4  UNL     1      -8.170   2.641  -4.503  1.00  0.00     0.136 A 
HETATM    5  N1  UNL     1      -6.940   3.079  -4.282  1.00  0.00    -0.200 N 
HETATM    6  C5  UNL     1      -6.806   3.149  -2.906  1.00  0.00     0.678 A 
ATOM      7  H1  UNL     1      -6.236   3.316  -4.981  1.00  0.00     0.183 HD
HETATM    8  N2  UNL     1      -5.718   3.533  -2.429  1.00  0.00    -0.234 N 
ATOM      9  H22 UNL     1      -4.850   3.832  -2.872  1.00  0.00     0.174 HD
ATOM     10  H21 UNL     1      -5.619   3.585  -1.415  1.00  0.00     0.174 HD
BRANCH   3  11
HETATM   11  C2  UNL     1     -10.193   1.942  -3.158  1.00  0.00     0.021 C 
HETATM   12  C1  UNL     1     -11.045   1.911  -4.177  1.00  0.00     0.013 C 
ENDBRANCH   3  11
ENDBRANCH   1   2
BRANCH   1  13
HETATM   13  C7  UNL     1      -8.513   3.893  -0.169  1.00  0.00     0.029 C 
BRANCH  13  14
HETATM   14  C8  UNL     1      -7.515   4.043   0.958  1.00  0.00     0.046 C 
BRANCH  14  15
HETATM   15  C9  UNL     1      -6.853   5.364   1.067  1.00  0.00     0.283 C 
BRANCH  15  16
HETATM   16  N4  UNL     1      -6.030   5.316   2.268  1.00  0.00    -0.065 N 
ATOM     17  H43 UNL     1      -5.115   4.891   2.114  1.00  0.00     0.275 HD
ATOM     18  H42 UNL     1      -5.696   6.233   2.565  1.00  0.00     0.275 HD
ATOM     19  H41 UNL     1      -6.582   4.837   2.979  1.00  0.00     0.275 HD
ENDBRANCH  15  16
BRANCH  15  20
HETATM   20  C10 UNL     1      -5.993   5.716  -0.070  1.00  0.00     0.204 C 
HETATM   21  O1  UNL     1      -4.837   5.212  -0.123  1.00  0.00    -0.646 OA
HETATM   22  O2  UNL     1      -6.323   6.558  -1.110  1.00  0.00    -0.646 OA
ENDBRANCH  15  20
ENDBRANCH  14  15
ENDBRANCH  13  14
ENDBRANCH   1  13
BRANCH   1  23
HETATM   23  C11 UNL     1      -7.399   1.648  -0.262  1.00  0.00     0.139 C 
BRANCH  23  24
HETATM   24  C12 UNL     1      -7.984   0.333  -0.038  1.00  0.00     0.174 C 
HETATM   25  O3  UNL     1      -8.942   0.213   0.767  1.00  0.00    -0.648 OA
HETATM   26  O4  UNL     1      -7.537  -0.815  -0.673  1.00  0.00    -0.648 OA
ENDBRANCH  23  24
ENDBRANCH   1  23
TORSDOF 9
ENDMDL
MODEL 2
REMARK VINA RESULT: -5.285519696      2.960      3.920
REMARK  9 active torsions:
REMARK  status: ('A' for Active; 'I' for Inactive)
REMARK    1  A    between atoms: C2_2  and  C3_3 
REMARK    2  A    between atoms: N3_11  and  C6_12 
REMARK    3  A    between atoms: C6_12  and  C7_13 
REMARK    4  A    between atoms: C6_12  and  C11_23 
REMARK    5  A    between atoms: C7_13  and  C8_14 
REMARK    6  A    between atoms: C8_14  and  C9_15 
REMARK    7  A    between atoms: C9_15  and  N4_16 
REMARK    8  A    between atoms: C9_15  and  C10_20 
REMARK    9  A    between atoms: C11_23  and  C12_24 
ROOT
HETATM    1  C6  UNL     1      -7.512   3.225  -0.758  1.00  0.00     0.118 C 
ENDROOT
BRANCH   1   2
HETATM    2  N3  UNL     1      -7.592   1.815  -0.587  1.00  0.00    -0.177 N 
HETATM    3  C3  UNL     1      -8.626   1.228   0.108  1.00  0.00     0.067 A 
HETATM    4  C4  UNL     1      -8.394  -0.120   0.080  1.00  0.00     0.136 A 
HETATM    5  N1  UNL     1      -7.284  -0.399  -0.586  1.00  0.00    -0.200 N 
HETATM    6  C5  UNL     1      -6.778   0.819  -1.005  1.00  0.00     0.678 A 
ATOM      7  H1  UNL     1      -6.884  -1.322  -0.755  1.00  0.00     0.183 HD
HETATM    8  N2  UNL     1      -5.715   0.834  -1.659  1.00  0.00    -0.234 N 
ATOM      9  H22 UNL     1      -5.101   0.082  -1.975  1.00  0.00     0.174 HD
ATOM     10  H21 UNL     1      -5.342   1.731  -1.969  1.00  0.00     0.174 HD
BRANCH   3  11
HETATM   11  C2  UNL     1      -9.733   1.920   0.742  1.00  0.00     0.021 C 
HETATM   12  C1  UNL     1     -10.803   1.259   1.168  1.00  0.00     0.013 C 
ENDBRANCH   3  11
ENDBRANCH   1   2
BRANCH   1  13
HETATM   13  C7  UNL     1      -7.422   3.765  -2.135  1.00  0.00     0.029 C 
BRANCH  13  14
HETATM   14  C8  UNL     1      -8.077   5.120  -2.281  1.00  0.00     0.046 C 
BRANCH  14  15
HETATM   15  C9  UNL     1      -7.208   6.209  -2.784  1.00  0.00     0.283 C 
BRANCH  15  16
HETATM   16  N4  UNL     1      -8.057   7.385  -2.925  1.00  0.00    -0.065 N 
ATOM     17  H43 UNL     1      -8.994   7.168  -3.263  1.00  0.00     0.275 HD
ATOM     18  H42 UNL     1      -8.335   7.791  -2.032  1.00  0.00     0.275 HD
ATOM     19  H41 UNL     1      -7.552   8.036  -3.526  1.00  0.00     0.275 HD
ENDBRANCH  15  16
BRANCH  15  20
HETATM   20  C10 UNL     1      -6.083   6.554  -1.904  1.00  0.00     0.204 C 
HETATM   21  O1  UNL     1      -6.339   7.086  -0.789  1.00  0.00    -0.646 OA
HETATM   22  O2  UNL     1      -4.747   6.352  -2.174  1.00  0.00    -0.646 OA
ENDBRANCH  15  20
ENDBRANCH  14  15
ENDBRANCH  13  14
ENDBRANCH   1  13
BRANCH   1  23
HETATM   23  C11 UNL     1      -6.444   3.781   0.174  1.00  0.00     0.139 C 
BRANCH  23  24
HETATM   24  C12 UNL     1      -6.961   4.481   1.342  1.00  0.00     0.174 C 
HETATM   25  O3  UNL     1      -8.046   5.108   1.256  1.00  0.00    -0.648 OA
HETATM   26  O4  UNL     1      -6.311   4.496   2.566  1.00  0.00    -0.648 OA
ENDBRANCH  23  24
ENDBRANCH   1  23
TORSDOF 9
ENDMDL
MODEL 3
REMARK VINA RESULT: -5.280467577      2.268      3.379
REMARK  9 active torsions:
REMARK  status: ('A' for Active; 'I' for Inactive)
REMARK    1  A    between atoms: C2_2  and  C3_3 
REMARK    2  A    between atoms: N3_11  and  C6_12 
REMARK    3  A    between atoms: C6_12  and  C7_13 
REMARK    4  A    between atoms: C6_12  and  C11_23 
REMARK    5  A    between atoms: C7_13  and  C8_14 
REMARK    6  A    between atoms: C8_14  and  C9_15 
REMARK    7  A    between atoms: C9_15  and  N4_16 
REMARK    8  A    between atoms: C9_15  and  C10_20 
REMARK    9  A    between atoms: C11_23  and  C12_24 
ROOT
HETATM    1  C6  UNL     1      -8.194   2.147  -0.532  1.00  0.00     0.118 C 
ENDROOT
BRANCH   1   2
HETATM    2  N3  UNL     1      -9.468   1.700  -0.982  1.00  0.00    -0.177 N 
HETATM    3  C3  UNL     1     -10.289   0.935  -0.184  1.00  0.00     0.067 A 
HETATM    4  C4  UNL     1     -11.417   0.686  -0.918  1.00  0.00     0.136 A 
HETATM    5  N1  UNL     1     -11.341   1.246  -2.115  1.00  0.00    -0.200 N 
HETATM    6  C5  UNL     1     -10.114   1.885  -2.156  1.00  0.00     0.678 A 
ATOM      7  H1  UNL     1     -12.043   1.215  -2.855  1.00  0.00     0.183 HD
HETATM    8  N2  UNL     1      -9.789   2.494  -3.197  1.00  0.00    -0.234 N 
ATOM      9  H22 UNL     1     -10.277   2.634  -4.082  1.00  0.00     0.174 HD
ATOM     10  H21 UNL     1      -8.885   2.965  -3.227  1.00  0.00     0.174 HD
BRANCH   3  11
HETATM   11  C2  UNL     1      -9.997   0.488   1.165  1.00  0.00     0.021 C 
HETATM   12  C1  UNL     1      -9.577  -0.749   1.403  1.00  0.00     0.013 C 
ENDBRANCH   3  11
ENDBRANCH   1   2
BRANCH   1  13
HETATM   13  C7  UNL     1      -7.962   3.605  -0.407  1.00  0.00     0.029 C 
BRANCH  13  14
HETATM   14  C8  UNL     1      -7.436   4.004   0.954  1.00  0.00     0.046 C 
BRANCH  14  15
HETATM   15  C9  UNL     1      -6.845   5.359   1.049  1.00  0.00     0.283 C 
BRANCH  15  16
HETATM   16  N4  UNL     1      -6.031   5.372   2.257  1.00  0.00    -0.065 N 
ATOM     17  H43 UNL     1      -6.503   5.791   3.058  1.00  0.00     0.275 HD
ATOM     18  H42 UNL     1      -5.894   4.445   2.661  1.00  0.00     0.275 HD
ATOM     19  H41 UNL     1      -5.158   5.840   2.013  1.00  0.00     0.275 HD
ENDBRANCH  15  16
BRANCH  15  20
HETATM   20  C10 UNL     1      -5.994   5.739  -0.086  1.00  0.00     0.204 C 
HETATM   21  O1  UNL     1      -4.841   5.229  -0.166  1.00  0.00    -0.646 OA
HETATM   22  O2  UNL     1      -6.328   6.612  -1.099  1.00  0.00    -0.646 OA
ENDBRANCH  15  20
ENDBRANCH  14  15
ENDBRANCH  13  14
ENDBRANCH   1  13
BRANCH   1  23
HETATM   23  C11 UNL     1      -7.107   1.434  -1.324  1.00  0.00     0.139 C 
BRANCH  23  24
HETATM   24  C12 UNL     1      -6.343   2.294  -2.217  1.00  0.00     0.174 C 
HETATM   25  O3  UNL     1      -5.148   2.566  -1.938  1.00  0.00    -0.648 OA
HETATM   26  O4  UNL     1      -6.867   2.839  -3.379  1.00  0.00    -0.648 OA
ENDBRANCH  23  24
ENDBRANCH   1  23
TORSDOF 9
ENDMDL
MODEL 4
REMARK VINA RESULT: -5.215354994      2.300      3.620
REMARK  9 active torsions:
REMARK  status: ('A' for Active; 'I' for Inactive)
REMARK    1  A    between atoms: C2_2  and  C3_3 
REMARK    2  A    between atoms: N3_11  and  C6_12 
REMARK    3  A    between atoms: C6_12  and  C7_13 
REMARK    4  A    between atoms: C6_12  and  C11_23 
REMARK    5  A    between atoms: C7_13  and  C8_14 
REMARK    6  A    between atoms: C8_14  and  C9_15 
REMARK    7  A    between atoms: C9_15  and  N4_16 
REMARK    8  A    between atoms: C9_15  and  C10_20 
REMARK    9  A    between atoms: C11_23  and  C12_24 
ROOT
HETATM    1  C6  UNL     1      -7.756   2.518  -1.067  1.00  0.00     0.118 C 
ENDROOT
BRANCH   1   2
HETATM    2  N3  UNL     1      -8.530   1.325  -1.076  1.00  0.00    -0.177 N 
HETATM    3  C3  UNL     1      -8.009   0.121  -0.656  1.00  0.00     0.067 A 
HETATM    4  C4  UNL     1      -9.009  -0.803  -0.795  1.00  0.00     0.136 A 
HETATM    5  N1  UNL     1     -10.110  -0.245  -1.275  1.00  0.00    -0.200 N 
HETATM    6  C5  UNL     1      -9.809   1.095  -1.453  1.00  0.00     0.678 A 
ATOM      7  H1  UNL     1     -10.998  -0.706  -1.474  1.00  0.00     0.183 HD
HETATM    8  N2  UNL     1     -10.690   1.852  -1.909  1.00  0.00    -0.234 N 
ATOM      9  H22 UNL     1     -11.655   1.679  -2.193  1.00  0.00     0.174 HD
ATOM     10  H21 UNL     1     -10.469   2.840  -2.040  1.00  0.00     0.174 HD
BRANCH   3  11
HETATM   11  C2  UNL     1      -6.662  -0.105  -0.168  1.00  0.00     0.021 C 
HETATM   12  C1  UNL     1      -5.784  -0.809  -0.874  1.00  0.00     0.013 C 
ENDBRANCH   3  11
ENDBRANCH   1   2
BRANCH   1  13
HETATM   13  C7  UNL     1      -8.274   3.689  -0.321  1.00  0.00     0.029 C 
BRANCH  13  14
HETATM   14  C8  UNL     1      -7.491   3.978   0.940  1.00  0.00     0.046 C 
BRANCH  14  15
HETATM   15  C9  UNL     1      -6.891   5.329   1.036  1.00  0.00     0.283 C 
BRANCH  15  16
HETATM   16  N4  UNL     1      -6.080   5.338   2.246  1.00  0.00    -0.065 N 
ATOM     17  H43 UNL     1      -5.240   4.764   2.174  1.00  0.00     0.275 HD
ATOM     18  H42 UNL     1      -5.612   6.228   2.412  1.00  0.00     0.275 HD
ATOM     19  H41 UNL     1      -6.696   5.057   3.009  1.00  0.00     0.275 HD
ENDBRANCH  15  16
BRANCH  15  20
HETATM   20  C10 UNL     1      -6.034   5.702  -0.097  1.00  0.00     0.204 C 
HETATM   21  O1  UNL     1      -4.890   5.174  -0.181  1.00  0.00    -0.646 OA
HETATM   22  O2  UNL     1      -6.353   6.589  -1.103  1.00  0.00    -0.646 OA
ENDBRANCH  15  20
ENDBRANCH  14  15
ENDBRANCH  13  14
ENDBRANCH   1  13
BRANCH   1  23
HETATM   23  C11 UNL     1      -7.339   2.853  -2.492  1.00  0.00     0.139 C 
BRANCH  23  24
HETATM   24  C12 UNL     1      -5.990   2.432  -2.846  1.00  0.00     0.174 C 
HETATM   25  O3  UNL     1      -5.069   2.537  -1.998  1.00  0.00    -0.648 OA
HETATM   26  O4  UNL     1      -5.658   1.913  -4.087  1.00  0.00    -0.648 OA
ENDBRANCH  23  24
ENDBRANCH   1  23
TORSDOF 9
ENDMDL
MODEL 5
REMARK VINA RESULT: -5.207109109      2.620      4.193
REMARK  9 active torsions:
REMARK  status: ('A' for Active; 'I' for Inactive)
REMARK    1  A    between atoms: C2_2  and  C3_3 
REMARK    2  A    between atoms: N3_11  and  C6_12 
REMARK    3  A    between atoms: C6_12  and  C7_13 
REMARK    4  A    between atoms: C6_12  and  C11_23 
REMARK    5  A    between atoms: C7_13  and  C8_14 
REMARK    6  A    between atoms: C8_14  and  C9_15 
REMARK    7  A    between atoms: C9_15  and  N4_16 
REMARK    8  A    between atoms: C9_15  and  C10_20 
REMARK    9  A    between atoms: C11_23  and  C12_24 
ROOT
HETATM    1  C6  UNL     1      -8.676   2.264  -0.267  1.00  0.00     0.118 C 
ENDROOT
BRANCH   1   2
HETATM    2  N3  UNL     1      -8.965   0.984   0.282  1.00  0.00    -0.177 N 
HETATM    3  C3  UNL     1      -8.209  -0.124  -0.029  1.00  0.00     0.067 A 
HETATM    4  C4  UNL     1      -8.756  -1.171   0.661  1.00  0.00     0.136 A 
HETATM    5  N1  UNL     1      -9.799  -0.779   1.375  1.00  0.00    -0.200 N 
HETATM    6  C5  UNL     1      -9.932   0.578   1.137  1.00  0.00     0.678 A 
ATOM      7  H1  UNL     1     -10.385  -1.357   1.978  1.00  0.00     0.183 HD
HETATM    8  N2  UNL     1     -10.861   1.198   1.696  1.00  0.00    -0.234 N 
ATOM      9  H22 UNL     1     -11.590   0.891   2.341  1.00  0.00     0.174 HD
ATOM     10  H21 UNL     1     -10.959   2.198   1.521  1.00  0.00     0.174 HD
BRANCH   3  11
HETATM   11  C2  UNL     1      -7.065  -0.156  -0.921  1.00  0.00     0.021 C 
HETATM   12  C1  UNL     1      -5.878  -0.579  -0.501  1.00  0.00     0.013 C 
ENDBRANCH   3  11
ENDBRANCH   1   2
BRANCH   1  13
HETATM   13  C7  UNL     1      -8.509   3.408   0.661  1.00  0.00     0.029 C 
BRANCH  13  14
HETATM   14  C8  UNL     1      -7.058   3.764   0.901  1.00  0.00     0.046 C 
BRANCH  14  15
HETATM   15  C9  UNL     1      -6.747   5.211   0.960  1.00  0.00     0.283 C 
BRANCH  15  16
HETATM   16  N4  UNL     1      -6.034   5.431   2.211  1.00  0.00    -0.065 N 
ATOM     17  H43 UNL     1      -5.316   4.731   2.396  1.00  0.00     0.275 HD
ATOM     18  H42 UNL     1      -5.417   6.242   2.187  1.00  0.00     0.275 HD
ATOM     19  H41 UNL     1      -6.743   5.485   2.943  1.00  0.00     0.275 HD
ENDBRANCH  15  16
BRANCH  15  20
HETATM   20  C10 UNL     1      -5.911   5.705  -0.142  1.00  0.00     0.204 C 
HETATM   21  O1  UNL     1      -4.775   5.181  -0.311  1.00  0.00    -0.646 OA
HETATM   22  O2  UNL     1      -6.243   6.703  -1.032  1.00  0.00    -0.646 OA
ENDBRANCH  15  20
ENDBRANCH  14  15
ENDBRANCH  13  14
ENDBRANCH   1  13
BRANCH   1  23
HETATM   23  C11 UNL     1      -9.650   2.552  -1.401  1.00  0.00     0.139 C 
BRANCH  23  24
HETATM   24  C12 UNL     1      -9.032   3.057  -2.619  1.00  0.00     0.174 C 
HETATM   25  O3  UNL     1      -9.180   2.423  -3.694  1.00  0.00    -0.648 OA
HETATM   26  O4  UNL     1      -8.274   4.217  -2.662  1.00  0.00    -0.648 OA
ENDBRANCH  23  24
ENDBRANCH   1  23
TORSDOF 9
ENDMDL
