MODEL 1
REMARK VINA RESULT: -4.526744563      0.000      0.000
REMARK  7 active torsions:
REMARK  status: ('A' for Active; 'I' for Inactive)
REMARK    1  A    between atoms: C1_2  and  C2_4 
REMARK    2  A    between atoms: C2_4  and  N2_5 
REMARK    3  A    between atoms: C2_4  and  C3_9 
REMARK    4  A    between atoms: C3_9  and  N3_10 
REMARK    5  A    between atoms: C3_9  and  C4_14 
REMARK    6  A    between atoms: C4_14  and  C5_16 
REMARK    7  A    between atoms: C5_16  and  C6_17 
ROOT
HETATM    1  C3  UNL     1     -25.579 -14.853  25.577  1.00  0.00     0.291 C 
ENDROOT
BRANCH   1   2
HETATM    2  C2  UNL     1     -26.068 -14.294  26.907  1.00  0.00     0.309 C 
BRANCH   2   3
HETATM    3  C1  UNL     1     -27.106 -15.236  27.410  1.00  0.00     0.264 C 
HETATM    4  N1  UNL     1     -26.829 -16.449  28.076  1.00  0.00    -0.060 NA
HETATM    5  O1  UNL     1     -28.320 -14.948  27.238  1.00  0.00    -0.274 OA
ENDBRANCH   2   3
BRANCH   2   6
HETATM    6  N2  UNL     1     -25.022 -14.217  27.905  1.00  0.00    -0.064 N 
ATOM      7  H23 UNL     1     -25.383 -14.221  28.858  1.00  0.00     0.275 HD
ATOM      8  H22 UNL     1     -24.469 -15.072  27.965  1.00  0.00     0.275 HD
ATOM      9  H21 UNL     1     -24.457 -13.393  27.699  1.00  0.00     0.275 HD
ENDBRANCH   2   6
ENDBRANCH   1   2
BRANCH   1  10
HETATM   10  N3  UNL     1     -26.570 -15.914  25.272  1.00  0.00    -0.066 N 
ATOM     11  H33 UNL     1     -26.200 -16.864  25.309  1.00  0.00     0.275 HD
ATOM     12  H32 UNL     1     -27.281 -16.051  25.990  1.00  0.00     0.275 HD
ATOM     13  H31 UNL     1     -26.935 -15.636  24.361  1.00  0.00     0.275 HD
ENDBRANCH   1  10
BRANCH   1  14
HETATM   14  C4  UNL     1     -25.588 -13.859  24.480  1.00  0.00     0.164 C 
HETATM   15  O2  UNL     1     -26.325 -12.878  24.616  1.00  0.00    -0.295 OA
BRANCH  14  16
HETATM   16  C5  UNL     1     -24.764 -14.034  23.287  1.00  0.00     0.128 C 
BRANCH  16  17
HETATM   17  C6  UNL     1     -25.169 -13.089  22.203  1.00  0.00     0.006 A 
HETATM   18  C7  UNL     1     -24.611 -11.895  21.824  1.00  0.00     0.102 A 
HETATM   19  N4  UNL     1     -25.178 -11.263  20.827  1.00  0.00    -0.368 N 
HETATM   20  C8  UNL     1     -26.238 -11.784  20.239  1.00  0.00     0.138 A 
ATOM     21  H4  UNL     1     -24.801 -10.371  20.505  1.00  0.00     0.165 HD
HETATM   22  S1  UNL     1     -26.467 -13.233  21.113  1.00  0.00    -0.088 SA
ENDBRANCH  16  17
ENDBRANCH  14  16
ENDBRANCH   1  14
TORSDOF 7
ENDMDL
MODEL 2
REMARK VINA RESULT: -4.455684709      1.952      2.712
REMARK  7 active torsions:
REMARK  status: ('A' for Active; 'I' for Inactive)
REMARK    1  A    between atoms: C1_2  and  C2_4 
REMARK    2  A    between atoms: C2_4  and  N2_5 
REMARK    3  A    between atoms: C2_4  and  C3_9 
REMARK    4  A    between atoms: C3_9  and  N3_10 
REMARK    5  A    between atoms: C3_9  and  C4_14 
REMARK    6  A    between atoms: C4_14  and  C5_16 
REMARK    7  A    between atoms: C5_16  and  C6_17 
ROOT
HETATM    1  C3  UNL     1     -26.974 -15.010  27.204  1.00  0.00     0.291 C 
ENDROOT
BRANCH   1   2
HETATM    2  C2  UNL     1     -28.168 -15.796  26.678  1.00  0.00     0.309 C 
BRANCH   2   3
HETATM    3  C1  UNL     1     -28.100 -17.145  27.307  1.00  0.00     0.264 C 
HETATM    4  N1  UNL     1     -28.824 -17.528  28.457  1.00  0.00    -0.060 NA
HETATM    5  O1  UNL     1     -27.351 -18.017  26.793  1.00  0.00    -0.274 OA
ENDBRANCH   2   3
BRANCH   2   6
HETATM    6  N2  UNL     1     -29.437 -15.204  27.041  1.00  0.00    -0.064 N 
ATOM      7  H23 UNL     1     -30.163 -15.899  27.217  1.00  0.00     0.275 HD
ATOM      8  H22 UNL     1     -29.426 -14.782  27.969  1.00  0.00     0.275 HD
ATOM      9  H21 UNL     1     -29.692 -14.543  26.308  1.00  0.00     0.275 HD
ENDBRANCH   2   6
ENDBRANCH   1   2
BRANCH   1  10
HETATM   10  N3  UNL     1     -26.460 -15.867  28.300  1.00  0.00    -0.066 N 
ATOM     11  H33 UNL     1     -26.007 -15.360  29.059  1.00  0.00     0.275 HD
ATOM     12  H32 UNL     1     -27.183 -16.296  28.879  1.00  0.00     0.275 HD
ATOM     13  H31 UNL     1     -25.858 -16.531  27.813  1.00  0.00     0.275 HD
ENDBRANCH   1  10
BRANCH   1  14
HETATM   14  C4  UNL     1     -25.903 -14.821  26.201  1.00  0.00     0.164 C 
HETATM   15  O2  UNL     1     -24.844 -14.323  26.594  1.00  0.00    -0.295 OA
BRANCH  14  16
HETATM   16  C5  UNL     1     -26.092 -15.204  24.804  1.00  0.00     0.128 C 
BRANCH  16  17
HETATM   17  C6  UNL     1     -25.595 -14.143  23.877  1.00  0.00     0.006 A 
HETATM   18  C7  UNL     1     -24.586 -14.189  22.950  1.00  0.00     0.102 A 
HETATM   19  N4  UNL     1     -24.358 -13.096  22.264  1.00  0.00    -0.368 N 
HETATM   20  C8  UNL     1     -25.089 -12.020  22.485  1.00  0.00     0.138 A 
ATOM     21  H4  UNL     1     -23.618 -13.078  21.561  1.00  0.00     0.165 HD
HETATM   22  S1  UNL     1     -26.154 -12.545  23.711  1.00  0.00    -0.088 SA
ENDBRANCH  16  17
ENDBRANCH  14  16
ENDBRANCH   1  14
TORSDOF 7
ENDMDL
MODEL 3
REMARK VINA RESULT: -4.409635446      2.293      6.076
REMARK  7 active torsions:
REMARK  status: ('A' for Active; 'I' for Inactive)
REMARK    1  A    between atoms: C1_2  and  C2_4 
REMARK    2  A    between atoms: C2_4  and  N2_5 
REMARK    3  A    between atoms: C2_4  and  C3_9 
REMARK    4  A    between atoms: C3_9  and  N3_10 
REMARK    5  A    between atoms: C3_9  and  C4_14 
REMARK    6  A    between atoms: C4_14  and  C5_16 
REMARK    7  A    between atoms: C5_16  and  C6_17 
ROOT
HETATM    1  C3  UNL     1     -25.475 -11.981  23.112  1.00  0.00     0.291 C 
ENDROOT
BRANCH   1   2
HETATM    2  C2  UNL     1     -25.227 -12.259  21.635  1.00  0.00     0.309 C 
BRANCH   2   3
HETATM    3  C1  UNL     1     -26.267 -11.509  20.879  1.00  0.00     0.264 C 
HETATM    4  N1  UNL     1     -27.592 -11.957  20.684  1.00  0.00    -0.060 NA
HETATM    5  O1  UNL     1     -25.965 -10.398  20.371  1.00  0.00    -0.274 OA
ENDBRANCH   2   3
BRANCH   2   6
HETATM    6  N2  UNL     1     -23.933 -11.795  21.184  1.00  0.00    -0.064 N 
ATOM      7  H23 UNL     1     -23.504 -11.130  21.828  1.00  0.00     0.275 HD
ATOM      8  H22 UNL     1     -23.213 -12.516  21.234  1.00  0.00     0.275 HD
ATOM      9  H21 UNL     1     -24.049 -11.416  20.244  1.00  0.00     0.275 HD
ENDBRANCH   2   6
ENDBRANCH   1   2
BRANCH   1  10
HETATM   10  N3  UNL     1     -26.423 -10.841  23.086  1.00  0.00    -0.066 N 
ATOM     11  H33 UNL     1     -26.326 -10.226  22.278  1.00  0.00     0.275 HD
ATOM     12  H32 UNL     1     -27.393 -11.099  22.905  1.00  0.00     0.275 HD
ATOM     13  H31 UNL     1     -26.265 -10.387  23.986  1.00  0.00     0.275 HD
ENDBRANCH   1  10
BRANCH   1  14
HETATM   14  C4  UNL     1     -26.106 -13.113  23.828  1.00  0.00     0.164 C 
HETATM   15  O2  UNL     1     -27.319 -13.039  24.041  1.00  0.00    -0.295 OA
BRANCH  14  16
HETATM   16  C5  UNL     1     -25.325 -14.266  24.268  1.00  0.00     0.128 C 
BRANCH  16  17
HETATM   17  C6  UNL     1     -25.781 -14.754  25.604  1.00  0.00     0.006 A 
HETATM   18  C7  UNL     1     -25.358 -14.401  26.860  1.00  0.00     0.102 A 
HETATM   19  N4  UNL     1     -25.937 -14.996  27.872  1.00  0.00    -0.368 N 
HETATM   20  C8  UNL     1     -26.881 -15.891  27.653  1.00  0.00     0.138 A 
ATOM     21  H4  UNL     1     -25.659 -14.769  28.827  1.00  0.00     0.165 HD
HETATM   22  S1  UNL     1     -26.977 -15.914  25.948  1.00  0.00    -0.088 SA
ENDBRANCH  16  17
ENDBRANCH  14  16
ENDBRANCH   1  14
TORSDOF 7
ENDMDL
MODEL 4
REMARK VINA RESULT: -4.408574669      1.185      1.831
REMARK  7 active torsions:
REMARK  status: ('A' for Active; 'I' for Inactive)
REMARK    1  A    between atoms: C1_2  and  C2_4 
REMARK    2  A    between atoms: C2_4  and  N2_5 
REMARK    3  A    between atoms: C2_4  and  C3_9 
REMARK    4  A    between atoms: C3_9  and  N3_10 
REMARK    5  A    between atoms: C3_9  and  C4_14 
REMARK    6  A    between atoms: C4_14  and  C5_16 
REMARK    7  A    between atoms: C5_16  and  C6_17 
ROOT
HETATM    1  C3  UNL     1     -26.278 -14.209  26.543  1.00  0.00     0.291 C 
ENDROOT
BRANCH   1   2
HETATM    2  C2  UNL     1     -26.603 -15.677  26.791  1.00  0.00     0.309 C 
BRANCH   2   3
HETATM    3  C1  UNL     1     -27.834 -15.706  27.628  1.00  0.00     0.264 C 
HETATM    4  N1  UNL     1     -28.119 -16.693  28.596  1.00  0.00    -0.060 NA
HETATM    5  O1  UNL     1     -28.691 -14.796  27.478  1.00  0.00    -0.274 OA
ENDBRANCH   2   3
BRANCH   2   6
HETATM    6  N2  UNL     1     -26.881 -16.406  25.572  1.00  0.00    -0.064 N 
ATOM      7  H23 UNL     1     -27.509 -15.904  24.945  1.00  0.00     0.275 HD
ATOM      8  H22 UNL     1     -26.076 -16.456  24.948  1.00  0.00     0.275 HD
ATOM      9  H21 UNL     1     -27.236 -17.325  25.835  1.00  0.00     0.275 HD
ENDBRANCH   2   6
ENDBRANCH   1   2
BRANCH   1  10
HETATM   10  N3  UNL     1     -25.191 -13.935  27.514  1.00  0.00    -0.066 N 
ATOM     11  H33 UNL     1     -25.393 -13.188  28.178  1.00  0.00     0.275 HD
ATOM     12  H32 UNL     1     -25.054 -14.663  28.215  1.00  0.00     0.275 HD
ATOM     13  H31 UNL     1     -24.383 -13.765  26.916  1.00  0.00     0.275 HD
ENDBRANCH   1  10
BRANCH   1  14
HETATM   14  C4  UNL     1     -25.779 -13.938  25.176  1.00  0.00     0.164 C 
HETATM   15  O2  UNL     1     -24.807 -14.594  24.791  1.00  0.00    -0.295 OA
BRANCH  14  16
HETATM   16  C5  UNL     1     -26.407 -12.935  24.321  1.00  0.00     0.128 C 
BRANCH  16  17
HETATM   17  C6  UNL     1     -25.716 -12.836  23.000  1.00  0.00     0.006 A 
HETATM   18  C7  UNL     1     -24.742 -11.966  22.581  1.00  0.00     0.102 A 
HETATM   19  N4  UNL     1     -24.309 -12.104  21.353  1.00  0.00    -0.368 N 
HETATM   20  C8  UNL     1     -24.812 -13.050  20.584  1.00  0.00     0.138 A 
ATOM     21  H4  UNL     1     -23.585 -11.482  20.992  1.00  0.00     0.165 HD
HETATM   22  S1  UNL     1     -25.951 -13.795  21.615  1.00  0.00    -0.088 SA
ENDBRANCH  16  17
ENDBRANCH  14  16
ENDBRANCH   1  14
TORSDOF 7
ENDMDL
MODEL 5
REMARK VINA RESULT: -4.372053628      1.443      1.509
REMARK  7 active torsions:
REMARK  status: ('A' for Active; 'I' for Inactive)
REMARK    1  A    between atoms: C1_2  and  C2_4 
REMARK    2  A    between atoms: C2_4  and  N2_5 
REMARK    3  A    between atoms: C2_4  and  C3_9 
REMARK    4  A    between atoms: C3_9  and  N3_10 
REMARK    5  A    between atoms: C3_9  and  C4_14 
REMARK    6  A    between atoms: C4_14  and  C5_16 
REMARK    7  A    between atoms: C5_16  and  C6_17 
ROOT
HETATM    1  C3  UNL     1     -26.099 -14.658  25.533  1.00  0.00     0.291 C 
ENDROOT
BRANCH   1   2
HETATM    2  C2  UNL     1     -26.400 -14.490  27.017  1.00  0.00     0.309 C 
BRANCH   2   3
HETATM    3  C1  UNL     1     -27.209 -15.671  27.425  1.00  0.00     0.264 C 
HETATM    4  N1  UNL     1     -28.607 -15.778  27.258  1.00  0.00    -0.060 NA
HETATM    5  O1  UNL     1     -26.627 -16.652  27.958  1.00  0.00    -0.274 OA
ENDBRANCH   2   3
BRANCH   2   6
HETATM    6  N2  UNL     1     -25.206 -14.470  27.835  1.00  0.00    -0.064 N 
ATOM      7  H23 UNL     1     -25.394 -14.219  28.805  1.00  0.00     0.275 HD
ATOM      8  H22 UNL     1     -24.829 -15.402  28.008  1.00  0.00     0.275 HD
ATOM      9  H21 UNL     1     -24.533 -13.848  27.388  1.00  0.00     0.275 HD
ENDBRANCH   2   6
ENDBRANCH   1   2
BRANCH   1  10
HETATM   10  N3  UNL     1     -26.525 -16.052  25.258  1.00  0.00    -0.066 N 
ATOM     11  H33 UNL     1     -26.266 -16.401  24.335  1.00  0.00     0.275 HD
ATOM     12  H32 UNL     1     -26.018 -16.763  25.785  1.00  0.00     0.275 HD
ATOM     13  H31 UNL     1     -27.529 -16.027  25.436  1.00  0.00     0.275 HD
ENDBRANCH   1  10
BRANCH   1  14
HETATM   14  C4  UNL     1     -26.873 -13.740  24.667  1.00  0.00     0.164 C 
HETATM   15  O2  UNL     1     -28.026 -14.076  24.380  1.00  0.00    -0.295 OA
BRANCH  14  16
HETATM   16  C5  UNL     1     -26.296 -12.494  24.170  1.00  0.00     0.128 C 
BRANCH  16  17
HETATM   17  C6  UNL     1     -25.563 -12.708  22.887  1.00  0.00     0.006 A 
HETATM   18  C7  UNL     1     -24.688 -11.883  22.227  1.00  0.00     0.102 A 
HETATM   19  N4  UNL     1     -24.185 -12.328  21.102  1.00  0.00    -0.368 N 
HETATM   20  C8  UNL     1     -24.529 -13.521  20.657  1.00  0.00     0.138 A 
ATOM     21  H4  UNL     1     -23.529 -11.753  20.572  1.00  0.00     0.165 HD
HETATM   22  S1  UNL     1     -25.611 -14.064  21.861  1.00  0.00    -0.088 SA
ENDBRANCH  16  17
ENDBRANCH  14  16
ENDBRANCH   1  14
TORSDOF 7
ENDMDL
