MODEL 1
REMARK VINA RESULT: -4.576673340      0.000      0.000
REMARK  7 active torsions:
REMARK  status: ('A' for Active; 'I' for Inactive)
REMARK    1  A    between atoms: N1_1  and  C1_5 
REMARK    2  A    between atoms: C1_5  and  C2_6 
REMARK    3  A    between atoms: C2_6  and  C3_7 
REMARK    4  A    between atoms: C3_7  and  C4_8 
REMARK    5  A    between atoms: C4_8  and  N2_9 
REMARK    6  A    between atoms: N2_9  and  C5_11 
REMARK    7  A    between atoms: C7_17  and  N5_18 
ROOT
HETATM    1  C5  UNL     1     -25.264 -13.449  23.204  1.00  0.00     0.693 A 
HETATM    2  N3  UNL     1     -24.398 -12.803  22.414  1.00  0.00    -0.187 N 
ATOM      3  H3  UNL     1     -23.417 -13.080  22.394  1.00  0.00     0.185 HD
HETATM    4  C6  UNL     1     -24.829 -11.789  21.650  1.00  0.00     0.215 A 
HETATM    5  N4  UNL     1     -26.127 -11.409  21.664  1.00  0.00    -0.187 N 
ATOM      6  H4  UNL     1     -26.429 -10.634  21.074  1.00  0.00     0.185 HD
HETATM    7  C7  UNL     1     -27.032 -12.039  22.449  1.00  0.00     0.695 A 
HETATM    8  N6  UNL     1     -26.547 -13.046  23.195  1.00  0.00    -0.022 N 
ATOM      9  H6  UNL     1     -27.201 -13.542  23.801  1.00  0.00     0.203 HD
ENDROOT
BRANCH   1  10
HETATM   10  N2  UNL     1     -24.879 -14.448  23.969  1.00  0.00    -0.226 N 
ATOM     11  H2  UNL     1     -24.019 -14.958  23.771  1.00  0.00     0.177 HD
BRANCH  10  12
HETATM   12  C4  UNL     1     -25.708 -14.802  25.095  1.00  0.00     0.138 C 
BRANCH  12  13
HETATM   13  C3  UNL     1     -25.192 -14.167  26.371  1.00  0.00     0.022 C 
BRANCH  13  14
HETATM   14  C2  UNL     1     -25.712 -14.863  27.594  1.00  0.00     0.029 C 
BRANCH  14  15
HETATM   15  C1  UNL     1     -26.789 -15.862  27.279  1.00  0.00     0.229 C 
BRANCH  15  16
HETATM   16  N1  UNL     1     -27.690 -16.017  28.402  1.00  0.00    -0.079 N 
ATOM     17  H13 UNL     1     -28.351 -15.243  28.466  1.00  0.00     0.274 HD
ATOM     18  H12 UNL     1     -28.356 -16.776  28.250  1.00  0.00     0.274 HD
ATOM     19  H11 UNL     1     -27.169 -16.141  29.270  1.00  0.00     0.274 HD
ENDBRANCH  15  16
ENDBRANCH  14  15
ENDBRANCH  13  14
ENDBRANCH  12  13
ENDBRANCH  10  12
ENDBRANCH   1  10
BRANCH   7  20
HETATM   20  N5  UNL     1     -28.393 -11.666  22.487  1.00  0.00    -0.217 N 
HETATM   21  C8  UNL     1     -29.321 -11.939  23.557  1.00  0.00     0.141 C 
HETATM   22  C9  UNL     1     -30.041 -10.595  23.656  1.00  0.00     0.022 C 
HETATM   23  C10 UNL     1     -30.358 -10.377  22.173  1.00  0.00     0.022 C 
HETATM   24  C11 UNL     1     -29.130 -10.948  21.480  1.00  0.00     0.141 C 
ENDBRANCH   7  20
TORSDOF 7
ENDMDL
MODEL 2
REMARK VINA RESULT: -4.552864312      2.549      4.847
REMARK  7 active torsions:
REMARK  status: ('A' for Active; 'I' for Inactive)
REMARK    1  A    between atoms: N1_1  and  C1_5 
REMARK    2  A    between atoms: C1_5  and  C2_6 
REMARK    3  A    between atoms: C2_6  and  C3_7 
REMARK    4  A    between atoms: C3_7  and  C4_8 
REMARK    5  A    between atoms: C4_8  and  N2_9 
REMARK    6  A    between atoms: N2_9  and  C5_11 
REMARK    7  A    between atoms: C7_17  and  N5_18 
ROOT
HETATM    1  C5  UNL     1     -25.689 -12.953  23.526  1.00  0.00     0.693 A 
HETATM    2  N3  UNL     1     -25.411 -11.840  22.836  1.00  0.00    -0.187 N 
ATOM      3  H3  UNL     1     -25.751 -10.936  23.162  1.00  0.00     0.185 HD
HETATM    4  C6  UNL     1     -24.682 -11.922  21.714  1.00  0.00     0.215 A 
HETATM    5  N4  UNL     1     -24.222 -13.113  21.267  1.00  0.00    -0.187 N 
ATOM      6  H4  UNL     1     -23.670 -13.148  20.410  1.00  0.00     0.185 HD
HETATM    7  C7  UNL     1     -24.482 -14.259  21.938  1.00  0.00     0.695 A 
HETATM    8  N6  UNL     1     -25.217 -14.121  23.055  1.00  0.00    -0.022 N 
ATOM      9  H6  UNL     1     -25.434 -14.965  23.585  1.00  0.00     0.203 HD
ENDROOT
BRANCH   1  10
HETATM   10  N2  UNL     1     -26.402 -12.913  24.631  1.00  0.00    -0.226 N 
ATOM     11  H2  UNL     1     -26.888 -12.061  24.911  1.00  0.00     0.177 HD
BRANCH  10  12
HETATM   12  C4  UNL     1     -26.477 -14.108  25.435  1.00  0.00     0.138 C 
BRANCH  12  13
HETATM   13  C3  UNL     1     -25.368 -14.139  26.469  1.00  0.00     0.022 C 
BRANCH  13  14
HETATM   14  C2  UNL     1     -25.766 -14.904  27.696  1.00  0.00     0.029 C 
BRANCH  14  15
HETATM   15  C1  UNL     1     -26.788 -15.968  27.410  1.00  0.00     0.229 C 
BRANCH  15  16
HETATM   16  N1  UNL     1     -27.756 -16.054  28.484  1.00  0.00    -0.079 N 
ATOM     17  H13 UNL     1     -28.678 -15.737  28.187  1.00  0.00     0.274 HD
ATOM     18  H12 UNL     1     -27.989 -17.022  28.706  1.00  0.00     0.274 HD
ATOM     19  H11 UNL     1     -27.429 -15.547  29.306  1.00  0.00     0.274 HD
ENDBRANCH  15  16
ENDBRANCH  14  15
ENDBRANCH  13  14
ENDBRANCH  12  13
ENDBRANCH  10  12
ENDBRANCH   1  10
BRANCH   7  20
HETATM   20  N5  UNL     1     -24.016 -15.518  21.499  1.00  0.00    -0.217 N 
HETATM   21  C8  UNL     1     -23.195 -15.764  20.340  1.00  0.00     0.141 C 
HETATM   22  C9  UNL     1     -22.198 -16.773  20.908  1.00  0.00     0.022 C 
HETATM   23  C10 UNL     1     -23.182 -17.736  21.581  1.00  0.00     0.022 C 
HETATM   24  C11 UNL     1     -24.261 -16.800  22.107  1.00  0.00     0.141 C 
ENDBRANCH   7  20
TORSDOF 7
ENDMDL
MODEL 3
REMARK VINA RESULT: -4.536677110      2.248      5.257
REMARK  7 active torsions:
REMARK  status: ('A' for Active; 'I' for Inactive)
REMARK    1  A    between atoms: N1_1  and  C1_5 
REMARK    2  A    between atoms: C1_5  and  C2_6 
REMARK    3  A    between atoms: C2_6  and  C3_7 
REMARK    4  A    between atoms: C3_7  and  C4_8 
REMARK    5  A    between atoms: C4_8  and  N2_9 
REMARK    6  A    between atoms: N2_9  and  C5_11 
REMARK    7  A    between atoms: C7_17  and  N5_18 
ROOT
HETATM    1  C5  UNL     1     -24.899 -12.527  22.096  1.00  0.00     0.693 A 
HETATM    2  N3  UNL     1     -25.619 -11.403  22.199  1.00  0.00    -0.187 N 
ATOM      3  H3  UNL     1     -25.565 -10.690  21.472  1.00  0.00     0.185 HD
HETATM    4  C6  UNL     1     -26.411 -11.220  23.265  1.00  0.00     0.215 A 
HETATM    5  N4  UNL     1     -26.495 -12.155  24.239  1.00  0.00    -0.187 N 
ATOM      6  H4  UNL     1     -27.104 -11.991  25.040  1.00  0.00     0.185 HD
HETATM    7  C7  UNL     1     -25.783 -13.304  24.169  1.00  0.00     0.695 A 
HETATM    8  N6  UNL     1     -25.004 -13.435  23.081  1.00  0.00    -0.022 N 
ATOM      9  H6  UNL     1     -24.452 -14.289  22.996  1.00  0.00     0.203 HD
ENDROOT
BRANCH   1  10
HETATM   10  N2  UNL     1     -24.110 -12.741  21.065  1.00  0.00    -0.226 N 
ATOM     11  H2  UNL     1     -23.197 -12.291  21.000  1.00  0.00     0.177 HD
BRANCH  10  12
HETATM   12  C4  UNL     1     -24.572 -13.633  20.029  1.00  0.00     0.138 C 
BRANCH  12  13
HETATM   13  C3  UNL     1     -23.738 -14.898  19.988  1.00  0.00     0.022 C 
BRANCH  13  14
HETATM   14  C2  UNL     1     -24.490 -16.082  20.520  1.00  0.00     0.029 C 
BRANCH  14  15
HETATM   15  C1  UNL     1     -23.912 -16.608  21.803  1.00  0.00     0.229 C 
BRANCH  15  16
HETATM   16  N1  UNL     1     -22.659 -15.948  22.111  1.00  0.00    -0.079 N 
ATOM     17  H13 UNL     1     -22.773 -14.937  22.179  1.00  0.00     0.274 HD
ATOM     18  H12 UNL     1     -22.360 -16.135  23.068  1.00  0.00     0.274 HD
ATOM     19  H11 UNL     1     -21.941 -16.203  21.434  1.00  0.00     0.274 HD
ENDBRANCH  15  16
ENDBRANCH  14  15
ENDBRANCH  13  14
ENDBRANCH  12  13
ENDBRANCH  10  12
ENDBRANCH   1  10
BRANCH   7  20
HETATM   20  N5  UNL     1     -25.848 -14.299  25.168  1.00  0.00    -0.217 N 
HETATM   21  C8  UNL     1     -25.087 -14.328  26.392  1.00  0.00     0.141 C 
HETATM   22  C9  UNL     1     -26.166 -14.749  27.388  1.00  0.00     0.022 C 
HETATM   23  C10 UNL     1     -26.754 -15.938  26.622  1.00  0.00     0.022 C 
HETATM   24  C11 UNL     1     -26.676 -15.477  25.174  1.00  0.00     0.141 C 
ENDBRANCH   7  20
TORSDOF 7
ENDMDL
MODEL 4
REMARK VINA RESULT: -4.523981440      2.031      5.380
REMARK  7 active torsions:
REMARK  status: ('A' for Active; 'I' for Inactive)
REMARK    1  A    between atoms: N1_1  and  C1_5 
REMARK    2  A    between atoms: C1_5  and  C2_6 
REMARK    3  A    between atoms: C2_6  and  C3_7 
REMARK    4  A    between atoms: C3_7  and  C4_8 
REMARK    5  A    between atoms: C4_8  and  N2_9 
REMARK    6  A    between atoms: N2_9  and  C5_11 
REMARK    7  A    between atoms: C7_17  and  N5_18 
ROOT
HETATM    1  C5  UNL     1     -24.765 -14.221  21.941  1.00  0.00     0.693 A 
HETATM    2  N3  UNL     1     -24.909 -15.425  21.373  1.00  0.00    -0.187 N 
ATOM      3  H3  UNL     1     -24.659 -15.564  20.394  1.00  0.00     0.185 HD
HETATM    4  C6  UNL     1     -25.385 -16.446  22.099  1.00  0.00     0.215 A 
HETATM    5  N4  UNL     1     -25.721 -16.280  23.399  1.00  0.00    -0.187 N 
ATOM      6  H4  UNL     1     -26.081 -17.074  23.929  1.00  0.00     0.185 HD
HETATM    7  C7  UNL     1     -25.588 -15.079  24.007  1.00  0.00     0.695 A 
HETATM    8  N6  UNL     1     -25.108 -14.089  23.234  1.00  0.00    -0.022 N 
ATOM      9  H6  UNL     1     -24.997 -13.170  23.660  1.00  0.00     0.203 HD
ENDROOT
BRANCH   1  10
HETATM   10  N2  UNL     1     -24.302 -13.194  21.260  1.00  0.00    -0.226 N 
ATOM     11  H2  UNL     1     -23.762 -13.332  20.406  1.00  0.00     0.177 HD
BRANCH  10  12
HETATM   12  C4  UNL     1     -24.581 -11.869  21.756  1.00  0.00     0.138 C 
BRANCH  12  13
HETATM   13  C3  UNL     1     -25.701 -11.218  20.970  1.00  0.00     0.022 C 
BRANCH  13  14
HETATM   14  C2  UNL     1     -26.962 -11.108  21.776  1.00  0.00     0.029 C 
BRANCH  14  15
HETATM   15  C1  UNL     1     -26.699 -11.007  23.252  1.00  0.00     0.229 C 
BRANCH  15  16
HETATM   16  N1  UNL     1     -27.663 -11.790  24.000  1.00  0.00    -0.079 N 
ATOM     17  H13 UNL     1     -27.448 -12.786  23.964  1.00  0.00     0.274 HD
ATOM     18  H12 UNL     1     -27.566 -11.647  25.005  1.00  0.00     0.274 HD
ATOM     19  H11 UNL     1     -28.611 -11.596  23.681  1.00  0.00     0.274 HD
ENDBRANCH  15  16
ENDBRANCH  14  15
ENDBRANCH  13  14
ENDBRANCH  12  13
ENDBRANCH  10  12
ENDBRANCH   1  10
BRANCH   7  20
HETATM   20  N5  UNL     1     -25.929 -14.872  25.361  1.00  0.00    -0.217 N 
HETATM   21  C8  UNL     1     -27.179 -15.228  25.988  1.00  0.00     0.141 C 
HETATM   22  C9  UNL     1     -26.677 -15.825  27.301  1.00  0.00     0.022 C 
HETATM   23  C10 UNL     1     -25.702 -14.718  27.716  1.00  0.00     0.022 C 
HETATM   24  C11 UNL     1     -25.115 -14.272  26.386  1.00  0.00     0.141 C 
ENDBRANCH   7  20
TORSDOF 7
ENDMDL
MODEL 5
REMARK VINA RESULT: -4.522398230      2.425      6.334
REMARK  7 active torsions:
REMARK  status: ('A' for Active; 'I' for Inactive)
REMARK    1  A    between atoms: N1_1  and  C1_5 
REMARK    2  A    between atoms: C1_5  and  C2_6 
REMARK    3  A    between atoms: C2_6  and  C3_7 
REMARK    4  A    between atoms: C3_7  and  C4_8 
REMARK    5  A    between atoms: C4_8  and  N2_9 
REMARK    6  A    between atoms: N2_9  and  C5_11 
REMARK    7  A    between atoms: C7_17  and  N5_18 
ROOT
HETATM    1  C5  UNL     1     -25.596 -14.802  25.421  1.00  0.00     0.693 A 
HETATM    2  N3  UNL     1     -24.954 -14.157  26.403  1.00  0.00    -0.187 N 
ATOM      3  H3  UNL     1     -24.228 -13.476  26.181  1.00  0.00     0.185 HD
HETATM    4  C6  UNL     1     -25.271 -14.413  27.680  1.00  0.00     0.215 A 
HETATM    5  N4  UNL     1     -26.231 -15.313  27.993  1.00  0.00    -0.187 N 
ATOM      6  H4  UNL     1     -26.453 -15.490  28.973  1.00  0.00     0.185 HD
HETATM    7  C7  UNL     1     -26.903 -15.983  27.027  1.00  0.00     0.695 A 
HETATM    8  N6  UNL     1     -26.545 -15.690  25.765  1.00  0.00    -0.022 N 
ATOM      9  H6  UNL     1     -27.029 -16.178  25.012  1.00  0.00     0.203 HD
ENDROOT
BRANCH   1  10
HETATM   10  N2  UNL     1     -25.312 -14.578  24.156  1.00  0.00    -0.226 N 
ATOM     11  H2  UNL     1     -24.394 -14.808  23.776  1.00  0.00     0.177 HD
BRANCH  10  12
HETATM   12  C4  UNL     1     -26.336 -13.998  23.321  1.00  0.00     0.138 C 
BRANCH  12  13
HETATM   13  C3  UNL     1     -26.580 -12.548  23.687  1.00  0.00     0.022 C 
BRANCH  13  14
HETATM   14  C2  UNL     1     -25.607 -11.628  23.010  1.00  0.00     0.029 C 
BRANCH  14  15
HETATM   15  C1  UNL     1     -25.399 -11.968  21.561  1.00  0.00     0.229 C 
BRANCH  15  16
HETATM   16  N1  UNL     1     -23.988 -11.989  21.236  1.00  0.00    -0.079 N 
ATOM     17  H13 UNL     1     -23.432 -11.498  21.936  1.00  0.00     0.274 HD
ATOM     18  H12 UNL     1     -23.589 -12.922  21.348  1.00  0.00     0.274 HD
ATOM     19  H11 UNL     1     -23.827 -11.620  20.299  1.00  0.00     0.274 HD
ENDBRANCH  15  16
ENDBRANCH  14  15
ENDBRANCH  13  14
ENDBRANCH  12  13
ENDBRANCH  10  12
ENDBRANCH   1  10
BRANCH   7  20
HETATM   20  N5  UNL     1     -27.910 -16.927  27.320  1.00  0.00    -0.217 N 
HETATM   21  C8  UNL     1     -28.870 -16.843  28.393  1.00  0.00     0.141 C 
HETATM   22  C9  UNL     1     -30.143 -17.282  27.670  1.00  0.00     0.022 C 
HETATM   23  C10 UNL     1     -29.611 -18.545  26.985  1.00  0.00     0.022 C 
HETATM   24  C11 UNL     1     -28.186 -18.155  26.621  1.00  0.00     0.141 C 
ENDBRANCH   7  20
TORSDOF 7
ENDMDL
