MODEL 1
REMARK VINA RESULT: -4.988948918      0.000      0.000
REMARK  6 active torsions:
REMARK  status: ('A' for Active; 'I' for Inactive)
REMARK    1  A    between atoms: C1_2  and  C2_4 
REMARK    2  A    between atoms: C2_4  and  C3_5 
REMARK    3  A    between atoms: C3_5  and  C4_6 
REMARK    4  A    between atoms: C4_6  and  C5_7 
REMARK    5  A    between atoms: C5_7  and  C6_8 
REMARK    6  A    between atoms: C6_8  and  N2_9 
ROOT
HETATM    1  N2  UNL     1     -27.481 -12.984  24.008  1.00  0.00    -0.241 N 
HETATM    2  N3  UNL     1     -26.478 -13.781  23.678  1.00  0.00    -0.277 N 
ATOM      3  H3  UNL     1     -26.561 -14.769  23.917  1.00  0.00     0.188 HD
HETATM    4  C7  UNL     1     -25.371 -13.392  23.058  1.00  0.00     0.199 A 
HETATM    5  N4  UNL     1     -24.325 -14.315  22.733  1.00  0.00    -0.075 NA
HETATM    6  C8  UNL     1     -25.254 -12.053  22.730  1.00  0.00     0.292 A 
HETATM    7  O2  UNL     1     -24.206 -11.634  22.132  1.00  0.00    -0.264 OA
HETATM    8  N5  UNL     1     -26.257 -11.216  23.051  1.00  0.00    -0.271 N 
ATOM      9  H5  UNL     1     -26.185 -10.226  22.814  1.00  0.00     0.174 HD
HETATM   10  C9  UNL     1     -27.358 -11.678  23.683  1.00  0.00     0.344 A 
HETATM   11  O3  UNL     1     -28.301 -10.876  23.983  1.00  0.00    -0.245 OA
ENDROOT
BRANCH   1  12
HETATM   12  C6  UNL     1     -28.656 -13.491  24.685  1.00  0.00     0.154 C 
BRANCH  12  13
HETATM   13  C5  UNL     1     -28.550 -14.971  24.972  1.00  0.00     0.022 C 
BRANCH  13  14
HETATM   14  C4  UNL     1     -28.263 -15.167  26.440  1.00  0.00     0.002 C 
BRANCH  14  15
HETATM   15  C3  UNL     1     -27.002 -15.919  26.689  1.00  0.00     0.009 C 
BRANCH  15  16
HETATM   16  C2  UNL     1     -26.243 -15.316  27.821  1.00  0.00     0.099 C 
BRANCH  16  17
HETATM   17  C1  UNL     1     -25.355 -14.225  27.321  1.00  0.00     0.231 C 
HETATM   18  N1  UNL     1     -25.100 -13.118  28.183  1.00  0.00    -0.062 NA
HETATM   19  O1  UNL     1     -24.864 -14.312  26.169  1.00  0.00    -0.277 OA
ENDBRANCH  16  17
ENDBRANCH  15  16
ENDBRANCH  14  15
ENDBRANCH  13  14
ENDBRANCH  12  13
ENDBRANCH   1  12
TORSDOF 6
ENDMDL
MODEL 2
REMARK VINA RESULT: -4.936710804      1.428      2.546
REMARK  6 active torsions:
REMARK  status: ('A' for Active; 'I' for Inactive)
REMARK    1  A    between atoms: C1_2  and  C2_4 
REMARK    2  A    between atoms: C2_4  and  C3_5 
REMARK    3  A    between atoms: C3_5  and  C4_6 
REMARK    4  A    between atoms: C4_6  and  C5_7 
REMARK    5  A    between atoms: C5_7  and  C6_8 
REMARK    6  A    between atoms: C6_8  and  N2_9 
ROOT
HETATM    1  N2  UNL     1     -26.181 -14.921  23.388  1.00  0.00    -0.241 N 
HETATM    2  N3  UNL     1     -26.655 -13.719  23.674  1.00  0.00    -0.277 N 
ATOM      3  H3  UNL     1     -27.546 -13.668  24.166  1.00  0.00     0.188 HD
HETATM    4  C7  UNL     1     -26.057 -12.574  23.368  1.00  0.00     0.199 A 
HETATM    5  N4  UNL     1     -26.633 -11.309  23.711  1.00  0.00    -0.075 NA
HETATM    6  C8  UNL     1     -24.847 -12.639  22.701  1.00  0.00     0.292 A 
HETATM    7  O2  UNL     1     -24.235 -11.563  22.387  1.00  0.00    -0.264 OA
HETATM    8  N5  UNL     1     -24.336 -13.846  22.396  1.00  0.00    -0.271 N 
ATOM      9  H5  UNL     1     -23.444 -13.909  21.905  1.00  0.00     0.174 HD
HETATM   10  C9  UNL     1     -24.998 -14.974  22.737  1.00  0.00     0.344 A 
HETATM   11  O3  UNL     1     -24.506 -16.111  22.443  1.00  0.00    -0.245 OA
ENDROOT
BRANCH   1  12
HETATM   12  C6  UNL     1     -26.899 -16.123  23.759  1.00  0.00     0.154 C 
BRANCH  12  13
HETATM   13  C5  UNL     1     -28.060 -15.827  24.680  1.00  0.00     0.022 C 
BRANCH  13  14
HETATM   14  C4  UNL     1     -27.723 -16.320  26.066  1.00  0.00     0.002 C 
BRANCH  14  15
HETATM   15  C3  UNL     1     -27.546 -15.215  27.048  1.00  0.00     0.009 C 
BRANCH  15  16
HETATM   16  C2  UNL     1     -26.228 -15.324  27.734  1.00  0.00     0.099 C 
BRANCH  16  17
HETATM   17  C1  UNL     1     -25.328 -14.215  27.298  1.00  0.00     0.231 C 
HETATM   18  N1  UNL     1     -25.127 -13.122  28.191  1.00  0.00    -0.062 NA
HETATM   19  O1  UNL     1     -24.780 -14.277  26.170  1.00  0.00    -0.277 OA
ENDBRANCH  16  17
ENDBRANCH  15  16
ENDBRANCH  14  15
ENDBRANCH  13  14
ENDBRANCH  12  13
ENDBRANCH   1  12
TORSDOF 6
ENDMDL
MODEL 3
REMARK VINA RESULT: -4.897031310      2.079      5.250
REMARK  6 active torsions:
REMARK  status: ('A' for Active; 'I' for Inactive)
REMARK    1  A    between atoms: C1_2  and  C2_4 
REMARK    2  A    between atoms: C2_4  and  C3_5 
REMARK    3  A    between atoms: C3_5  and  C4_6 
REMARK    4  A    between atoms: C4_6  and  C5_7 
REMARK    5  A    between atoms: C5_7  and  C6_8 
REMARK    6  A    between atoms: C6_8  and  N2_9 
ROOT
HETATM    1  N2  UNL     1     -25.465 -14.805  24.188  1.00  0.00    -0.241 N 
HETATM    2  N3  UNL     1     -25.289 -14.119  25.306  1.00  0.00    -0.277 N 
ATOM      3  H3  UNL     1     -24.729 -13.268  25.255  1.00  0.00     0.188 HD
HETATM    4  C7  UNL     1     -25.785 -14.455  26.490  1.00  0.00     0.199 A 
HETATM    5  N4  UNL     1     -25.551 -13.662  27.658  1.00  0.00    -0.075 NA
HETATM    6  C8  UNL     1     -26.547 -15.609  26.563  1.00  0.00     0.292 A 
HETATM    7  O2  UNL     1     -27.045 -15.971  27.682  1.00  0.00    -0.264 OA
HETATM    8  N5  UNL     1     -26.746 -16.328  25.445  1.00  0.00    -0.271 N 
ATOM      9  H5  UNL     1     -27.306 -17.180  25.484  1.00  0.00     0.174 HD
HETATM   10  C9  UNL     1     -26.210 -15.929  24.270  1.00  0.00     0.344 A 
HETATM   11  O3  UNL     1     -26.405 -16.618  23.217  1.00  0.00    -0.245 OA
ENDROOT
BRANCH   1  12
HETATM   12  C6  UNL     1     -24.886 -14.366  22.935  1.00  0.00     0.154 C 
BRANCH  12  13
HETATM   13  C5  UNL     1     -24.784 -12.860  22.855  1.00  0.00     0.022 C 
BRANCH  13  14
HETATM   14  C4  UNL     1     -25.679 -12.367  21.745  1.00  0.00     0.002 C 
BRANCH  14  15
HETATM   15  C3  UNL     1     -26.504 -11.193  22.143  1.00  0.00     0.009 C 
BRANCH  15  16
HETATM   16  C2  UNL     1     -26.705 -11.166  23.619  1.00  0.00     0.099 C 
BRANCH  16  17
HETATM   17  C1  UNL     1     -28.089 -11.613  23.957  1.00  0.00     0.231 C 
HETATM   18  N1  UNL     1     -28.295 -12.992  24.255  1.00  0.00    -0.062 NA
HETATM   19  O1  UNL     1     -29.020 -10.771  23.970  1.00  0.00    -0.277 OA
ENDBRANCH  16  17
ENDBRANCH  15  16
ENDBRANCH  14  15
ENDBRANCH  13  14
ENDBRANCH  12  13
ENDBRANCH   1  12
TORSDOF 6
ENDMDL
MODEL 4
REMARK VINA RESULT: -4.870667918      2.492      3.241
REMARK  6 active torsions:
REMARK  status: ('A' for Active; 'I' for Inactive)
REMARK    1  A    between atoms: C1_2  and  C2_4 
REMARK    2  A    between atoms: C2_4  and  C3_5 
REMARK    3  A    between atoms: C3_5  and  C4_6 
REMARK    4  A    between atoms: C4_6  and  C5_7 
REMARK    5  A    between atoms: C5_7  and  C6_8 
REMARK    6  A    between atoms: C6_8  and  N2_9 
ROOT
HETATM    1  N2  UNL     1     -25.342 -13.602  22.722  1.00  0.00    -0.241 N 
HETATM    2  N3  UNL     1     -25.510 -14.733  22.056  1.00  0.00    -0.277 N 
ATOM      3  H3  UNL     1     -26.032 -15.479  22.516  1.00  0.00     0.188 HD
HETATM    4  C7  UNL     1     -25.050 -14.970  20.834  1.00  0.00     0.199 A 
HETATM    5  N4  UNL     1     -25.272 -16.222  20.175  1.00  0.00    -0.075 NA
HETATM    6  C8  UNL     1     -24.342 -13.960  20.206  1.00  0.00     0.292 A 
HETATM    7  O2  UNL     1     -23.882 -14.144  19.029  1.00  0.00    -0.264 OA
HETATM    8  N5  UNL     1     -24.155 -12.798  20.856  1.00  0.00    -0.271 N 
ATOM      9  H5  UNL     1     -23.635 -12.044  20.405  1.00  0.00     0.174 HD
HETATM   10  C9  UNL     1     -24.650 -12.622  22.101  1.00  0.00     0.344 A 
HETATM   11  O3  UNL     1     -24.465 -11.517  22.707  1.00  0.00    -0.245 OA
ENDROOT
BRANCH   1  12
HETATM   12  C6  UNL     1     -25.878 -13.426  24.056  1.00  0.00     0.154 C 
BRANCH  12  13
HETATM   13  C5  UNL     1     -25.633 -14.635  24.929  1.00  0.00     0.022 C 
BRANCH  13  14
HETATM   14  C4  UNL     1     -25.164 -14.173  26.287  1.00  0.00     0.002 C 
BRANCH  14  15
HETATM   15  C3  UNL     1     -25.822 -14.902  27.406  1.00  0.00     0.009 C 
BRANCH  15  16
HETATM   16  C2  UNL     1     -27.215 -15.285  27.041  1.00  0.00     0.099 C 
BRANCH  16  17
HETATM   17  C1  UNL     1     -27.537 -16.636  27.590  1.00  0.00     0.231 C 
HETATM   18  N1  UNL     1     -28.229 -16.707  28.834  1.00  0.00    -0.062 NA
HETATM   19  O1  UNL     1     -27.193 -17.658  26.947  1.00  0.00    -0.277 OA
ENDBRANCH  16  17
ENDBRANCH  15  16
ENDBRANCH  14  15
ENDBRANCH  13  14
ENDBRANCH  12  13
ENDBRANCH   1  12
TORSDOF 6
ENDMDL
MODEL 5
REMARK VINA RESULT: -4.812643450      2.503      3.417
REMARK  6 active torsions:
REMARK  status: ('A' for Active; 'I' for Inactive)
REMARK    1  A    between atoms: C1_2  and  C2_4 
REMARK    2  A    between atoms: C2_4  and  C3_5 
REMARK    3  A    between atoms: C3_5  and  C4_6 
REMARK    4  A    between atoms: C4_6  and  C5_7 
REMARK    5  A    between atoms: C5_7  and  C6_8 
REMARK    6  A    between atoms: C6_8  and  N2_9 
ROOT
HETATM    1  N2  UNL     1     -26.472 -11.802  22.612  1.00  0.00    -0.241 N 
HETATM    2  N3  UNL     1     -27.612 -11.517  22.001  1.00  0.00    -0.277 N 
ATOM      3  H3  UNL     1     -28.477 -11.713  22.503  1.00  0.00     0.188 HD
HETATM    4  C7  UNL     1     -27.712 -10.996  20.785  1.00  0.00     0.199 A 
HETATM    5  N4  UNL     1     -28.983 -10.716  20.188  1.00  0.00    -0.075 NA
HETATM    6  C8  UNL     1     -26.539 -10.728  20.102  1.00  0.00     0.292 A 
HETATM    7  O2  UNL     1     -26.588 -10.225  18.928  1.00  0.00    -0.264 OA
HETATM    8  N5  UNL     1     -25.364 -11.004  20.695  1.00  0.00    -0.271 N 
ATOM      9  H5  UNL     1     -24.491 -10.810  20.203  1.00  0.00     0.174 HD
HETATM   10  C9  UNL     1     -25.332 -11.535  21.937  1.00  0.00     0.344 A 
HETATM   11  O3  UNL     1     -24.214 -11.793  22.489  1.00  0.00    -0.245 OA
ENDROOT
BRANCH   1  12
HETATM   12  C6  UNL     1     -26.452 -12.370  23.944  1.00  0.00     0.154 C 
BRANCH  12  13
HETATM   13  C5  UNL     1     -26.537 -13.879  23.916  1.00  0.00     0.022 C 
BRANCH  13  14
HETATM   14  C4  UNL     1     -25.584 -14.442  24.941  1.00  0.00     0.002 C 
BRANCH  14  15
HETATM   15  C3  UNL     1     -25.730 -13.808  26.280  1.00  0.00     0.009 C 
BRANCH  15  16
HETATM   16  C2  UNL     1     -25.703 -14.837  27.357  1.00  0.00     0.099 C 
BRANCH  16  17
HETATM   17  C1  UNL     1     -27.021 -15.535  27.436  1.00  0.00     0.231 C 
HETATM   18  N1  UNL     1     -27.027 -16.961  27.453  1.00  0.00    -0.062 NA
HETATM   19  O1  UNL     1     -28.074 -14.853  27.483  1.00  0.00    -0.277 OA
ENDBRANCH  16  17
ENDBRANCH  15  16
ENDBRANCH  14  15
ENDBRANCH  13  14
ENDBRANCH  12  13
ENDBRANCH   1  12
TORSDOF 6
ENDMDL
