MODEL 1
REMARK VINA RESULT: -5.587517365      0.000      0.000
REMARK  7 active torsions:
REMARK  status: ('A' for Active; 'I' for Inactive)
REMARK    1  A    between atoms: N1_1  and  C1_5 
REMARK    2  A    between atoms: C1_5  and  C2_6 
REMARK    3  A    between atoms: C2_6  and  C3_7 
REMARK    4  A    between atoms: C3_7  and  C4_8 
REMARK    5  A    between atoms: C4_8  and  C5_9 
REMARK    6  A    between atoms: C7_11  and  N2_12 
REMARK    7  A    between atoms: N6_23  and  O3_24 
ROOT
HETATM    1  C5  UNL     1     -26.137 -13.311  23.963  1.00  0.00    -0.022 A 
HETATM    2  C6  UNL     1     -27.448 -12.994  24.245  1.00  0.00     0.064 A 
HETATM    3  C7  UNL     1     -28.140 -12.058  23.463  1.00  0.00     0.176 A 
HETATM    4  N3  UNL     1     -27.512 -11.468  22.429  1.00  0.00    -0.319 N 
ATOM      5  H3  UNL     1     -28.019 -10.787  21.863  1.00  0.00     0.169 HD
HETATM    6  C8  UNL     1     -26.234 -11.753  22.121  1.00  0.00     0.184 A 
HETATM    7  C9  UNL     1     -25.532 -12.686  22.896  1.00  0.00     0.104 A 
HETATM    8  N4  UNL     1     -24.292 -12.786  22.383  1.00  0.00    -0.280 N 
ATOM      9  H4  UNL     1     -23.537 -13.383  22.722  1.00  0.00     0.188 HD
HETATM   10  N5  UNL     1     -24.248 -11.962  21.360  1.00  0.00    -0.214 N 
ATOM     11  H5  UNL     1     -23.420 -11.832  20.779  1.00  0.00     0.211 HD
HETATM   12  N6  UNL     1     -25.373 -11.325  21.160  1.00  0.00    -0.129 N 
ENDROOT
BRANCH   1  13
HETATM   13  C4  UNL     1     -25.357 -14.289  24.756  1.00  0.00     0.041 C 
BRANCH  13  14
HETATM   14  C3  UNL     1     -26.192 -15.232  25.559  1.00  0.00     0.006 C 
BRANCH  14  15
HETATM   15  C2  UNL     1     -26.030 -14.893  27.015  1.00  0.00     0.027 C 
BRANCH  15  16
HETATM   16  C1  UNL     1     -24.776 -14.160  27.345  1.00  0.00     0.229 C 
BRANCH  16  17
HETATM   17  N1  UNL     1     -25.014 -13.188  28.427  1.00  0.00    -0.079 N 
ATOM     18  H13 UNL     1     -25.012 -12.228  28.082  1.00  0.00     0.274 HD
ATOM     19  H12 UNL     1     -25.975 -13.227  28.766  1.00  0.00     0.274 HD
ATOM     20  H11 UNL     1     -24.340 -13.320  29.183  1.00  0.00     0.274 HD
ENDBRANCH  16  17
ENDBRANCH  15  16
ENDBRANCH  14  15
ENDBRANCH  13  14
ENDBRANCH   1  13
BRANCH   3  21
HETATM   21  N2  UNL     1     -29.486 -11.742  23.773  1.00  0.00    -0.098 N 
HETATM   22  O1  UNL     1     -29.732 -10.675  24.372  1.00  0.00    -0.531 OA
HETATM   23  O2  UNL     1     -30.467 -12.622  23.402  1.00  0.00    -0.531 OA
ENDBRANCH   3  21
BRANCH  12  24
HETATM   24  O3  UNL     1     -25.668 -10.391  20.175  1.00  0.00    -0.265 OA
ATOM     25  H3  UNL     1     -25.279 -10.366  19.308  1.00  0.00     0.247 HD
ENDBRANCH  12  24
TORSDOF 7
ENDMDL
MODEL 2
REMARK VINA RESULT: -5.533321363      3.102      4.340
REMARK  7 active torsions:
REMARK  status: ('A' for Active; 'I' for Inactive)
REMARK    1  A    between atoms: N1_1  and  C1_5 
REMARK    2  A    between atoms: C1_5  and  C2_6 
REMARK    3  A    between atoms: C2_6  and  C3_7 
REMARK    4  A    between atoms: C3_7  and  C4_8 
REMARK    5  A    between atoms: C4_8  and  C5_9 
REMARK    6  A    between atoms: C7_11  and  N2_12 
REMARK    7  A    between atoms: N6_23  and  O3_24 
ROOT
HETATM    1  C5  UNL     1     -26.092 -14.897  23.907  1.00  0.00    -0.022 A 
HETATM    2  C6  UNL     1     -25.398 -15.982  23.417  1.00  0.00     0.064 A 
HETATM    3  C7  UNL     1     -24.377 -15.809  22.473  1.00  0.00     0.176 A 
HETATM    4  N3  UNL     1     -24.076 -14.569  22.045  1.00  0.00    -0.319 N 
ATOM      5  H3  UNL     1     -23.332 -14.448  21.358  1.00  0.00     0.169 HD
HETATM    6  C8  UNL     1     -24.728 -13.485  22.501  1.00  0.00     0.184 A 
HETATM    7  C9  UNL     1     -25.752 -13.646  23.444  1.00  0.00     0.104 A 
HETATM    8  N4  UNL     1     -26.234 -12.423  23.730  1.00  0.00    -0.280 N 
ATOM      9  H4  UNL     1     -26.987 -12.199  24.381  1.00  0.00     0.188 HD
HETATM   10  N5  UNL     1     -25.543 -11.574  23.001  1.00  0.00    -0.214 N 
ATOM     11  H5  UNL     1     -25.698 -10.566  23.015  1.00  0.00     0.211 HD
HETATM   12  N6  UNL     1     -24.638 -12.151  22.255  1.00  0.00    -0.129 N 
ENDROOT
BRANCH   1  13
HETATM   13  C4  UNL     1     -27.182 -15.020  24.902  1.00  0.00     0.041 C 
BRANCH  13  14
HETATM   14  C3  UNL     1     -26.836 -15.861  26.088  1.00  0.00     0.006 C 
BRANCH  14  15
HETATM   15  C2  UNL     1     -26.472 -14.951  27.229  1.00  0.00     0.027 C 
BRANCH  15  16
HETATM   16  C1  UNL     1     -25.127 -14.323  27.117  1.00  0.00     0.229 C 
BRANCH  16  17
HETATM   17  N1  UNL     1     -24.825 -13.525  28.319  1.00  0.00    -0.079 N 
ATOM     18  H13 UNL     1     -25.557 -12.841  28.513  1.00  0.00     0.274 HD
ATOM     19  H12 UNL     1     -24.905 -14.080  29.171  1.00  0.00     0.274 HD
ATOM     20  H11 UNL     1     -23.908 -13.085  28.237  1.00  0.00     0.274 HD
ENDBRANCH  16  17
ENDBRANCH  15  16
ENDBRANCH  14  15
ENDBRANCH  13  14
ENDBRANCH   1  13
BRANCH   3  21
HETATM   21  N2  UNL     1     -23.679 -16.939  21.978  1.00  0.00    -0.098 N 
HETATM   22  O1  UNL     1     -24.331 -17.874  21.468  1.00  0.00    -0.531 OA
HETATM   23  O2  UNL     1     -22.315 -16.961  22.080  1.00  0.00    -0.531 OA
ENDBRANCH   3  21
BRANCH  12  24
HETATM   24  O3  UNL     1     -23.742 -11.555  21.376  1.00  0.00    -0.265 OA
ATOM     25  H3  UNL     1     -22.845 -11.319  21.581  1.00  0.00     0.247 HD
ENDBRANCH  12  24
TORSDOF 7
ENDMDL
MODEL 3
REMARK VINA RESULT: -5.401820270      2.848      4.284
REMARK  7 active torsions:
REMARK  status: ('A' for Active; 'I' for Inactive)
REMARK    1  A    between atoms: N1_1  and  C1_5 
REMARK    2  A    between atoms: C1_5  and  C2_6 
REMARK    3  A    between atoms: C2_6  and  C3_7 
REMARK    4  A    between atoms: C3_7  and  C4_8 
REMARK    5  A    between atoms: C4_8  and  C5_9 
REMARK    6  A    between atoms: C7_11  and  N2_12 
REMARK    7  A    between atoms: N6_23  and  O3_24 
ROOT
HETATM    1  C5  UNL     1     -25.505 -14.312  24.028  1.00  0.00    -0.022 A 
HETATM    2  C6  UNL     1     -24.749 -15.275  23.395  1.00  0.00     0.064 A 
HETATM    3  C7  UNL     1     -24.188 -15.027  22.135  1.00  0.00     0.176 A 
HETATM    4  N3  UNL     1     -24.393 -13.836  21.543  1.00  0.00    -0.319 N 
ATOM      5  H3  UNL     1     -23.983 -13.660  20.626  1.00  0.00     0.169 HD
HETATM    6  C8  UNL     1     -25.123 -12.870  22.129  1.00  0.00     0.184 A 
HETATM    7  C9  UNL     1     -25.690 -13.106  23.388  1.00  0.00     0.104 A 
HETATM    8  N4  UNL     1     -26.361 -11.996  23.745  1.00  0.00    -0.280 N 
ATOM      9  H4  UNL     1     -26.883 -11.848  24.608  1.00  0.00     0.188 HD
HETATM   10  N5  UNL     1     -26.209 -11.140  22.758  1.00  0.00    -0.214 N 
ATOM     11  H5  UNL     1     -26.616 -10.205  22.758  1.00  0.00     0.211 HD
HETATM   12  N6  UNL     1     -25.483 -11.608  21.776  1.00  0.00    -0.129 N 
ENDROOT
BRANCH   1  13
HETATM   13  C4  UNL     1     -26.125 -14.518  25.358  1.00  0.00     0.041 C 
BRANCH  13  14
HETATM   14  C3  UNL     1     -25.208 -14.252  26.508  1.00  0.00     0.006 C 
BRANCH  14  15
HETATM   15  C2  UNL     1     -25.756 -14.945  27.725  1.00  0.00     0.027 C 
BRANCH  15  16
HETATM   16  C1  UNL     1     -26.768 -15.999  27.437  1.00  0.00     0.229 C 
BRANCH  16  17
HETATM   17  N1  UNL     1     -27.789 -16.042  28.498  1.00  0.00    -0.079 N 
ATOM     18  H13 UNL     1     -27.479 -16.592  29.300  1.00  0.00     0.274 HD
ATOM     19  H12 UNL     1     -27.890 -15.139  28.963  1.00  0.00     0.274 HD
ATOM     20  H11 UNL     1     -28.678 -16.380  28.129  1.00  0.00     0.274 HD
ENDBRANCH  16  17
ENDBRANCH  15  16
ENDBRANCH  14  15
ENDBRANCH  13  14
ENDBRANCH   1  13
BRANCH   3  21
HETATM   21  N2  UNL     1     -23.417 -16.033  21.500  1.00  0.00    -0.098 N 
HETATM   22  O1  UNL     1     -23.776 -16.447  20.378  1.00  0.00    -0.531 OA
HETATM   23  O2  UNL     1     -22.307 -16.510  22.142  1.00  0.00    -0.531 OA
ENDBRANCH   3  21
BRANCH  12  24
HETATM   24  O3  UNL     1     -25.128 -10.973  20.592  1.00  0.00    -0.265 OA
ATOM     25  H3  UNL     1     -24.533 -10.236  20.522  1.00  0.00     0.247 HD
ENDBRANCH  12  24
TORSDOF 7
ENDMDL
MODEL 4
REMARK VINA RESULT: -5.298101947      1.428      1.531
REMARK  7 active torsions:
REMARK  status: ('A' for Active; 'I' for Inactive)
REMARK    1  A    between atoms: N1_1  and  C1_5 
REMARK    2  A    between atoms: C1_5  and  C2_6 
REMARK    3  A    between atoms: C2_6  and  C3_7 
REMARK    4  A    between atoms: C3_7  and  C4_8 
REMARK    5  A    between atoms: C4_8  and  C5_9 
REMARK    6  A    between atoms: C7_11  and  N2_12 
REMARK    7  A    between atoms: N6_23  and  O3_24 
ROOT
HETATM    1  C5  UNL     1     -25.739 -13.651  23.812  1.00  0.00    -0.022 A 
HETATM    2  C6  UNL     1     -26.825 -12.807  23.897  1.00  0.00     0.064 A 
HETATM    3  C7  UNL     1     -27.273 -12.104  22.771  1.00  0.00     0.176 A 
HETATM    4  N3  UNL     1     -26.634 -12.260  21.596  1.00  0.00    -0.319 N 
ATOM      5  H3  UNL     1     -26.963 -11.746  20.780  1.00  0.00     0.169 HD
HETATM    6  C8  UNL     1     -25.572 -13.076  21.472  1.00  0.00     0.184 A 
HETATM    7  C9  UNL     1     -25.114 -13.783  22.592  1.00  0.00     0.104 A 
HETATM    8  N4  UNL     1     -24.056 -14.517  22.202  1.00  0.00    -0.280 N 
ATOM      9  H4  UNL     1     -23.497 -15.142  22.783  1.00  0.00     0.188 HD
HETATM   10  N5  UNL     1     -23.884 -14.267  20.922  1.00  0.00    -0.214 N 
ATOM     11  H5  UNL     1     -23.145 -14.690  20.362  1.00  0.00     0.211 HD
HETATM   12  N6  UNL     1     -24.757 -13.420  20.440  1.00  0.00    -0.129 N 
ENDROOT
BRANCH   1  13
HETATM   13  C4  UNL     1     -25.220 -14.416  24.968  1.00  0.00     0.041 C 
BRANCH  13  14
HETATM   14  C3  UNL     1     -26.271 -15.138  25.747  1.00  0.00     0.006 C 
BRANCH  14  15
HETATM   15  C2  UNL     1     -26.029 -14.898  27.212  1.00  0.00     0.027 C 
BRANCH  15  16
HETATM   16  C1  UNL     1     -24.763 -14.178  27.523  1.00  0.00     0.229 C 
BRANCH  16  17
HETATM   17  N1  UNL     1     -25.009 -13.086  28.482  1.00  0.00    -0.079 N 
ATOM     18  H13 UNL     1     -24.617 -12.202  28.157  1.00  0.00     0.274 HD
ATOM     19  H12 UNL     1     -25.993 -12.818  28.505  1.00  0.00     0.274 HD
ATOM     20  H11 UNL     1     -24.662 -13.337  29.408  1.00  0.00     0.274 HD
ENDBRANCH  16  17
ENDBRANCH  15  16
ENDBRANCH  14  15
ENDBRANCH  13  14
ENDBRANCH   1  13
BRANCH   3  21
HETATM   21  N2  UNL     1     -28.389 -11.237  22.882  1.00  0.00    -0.098 N 
HETATM   22  O1  UNL     1     -28.763 -10.880  24.018  1.00  0.00    -0.531 OA
HETATM   23  O2  UNL     1     -29.013 -10.824  21.736  1.00  0.00    -0.531 OA
ENDBRANCH   3  21
BRANCH  12  24
HETATM   24  O3  UNL     1     -24.862 -12.943  19.139  1.00  0.00    -0.265 OA
ATOM     25  H3  UNL     1     -24.798 -13.473  18.353  1.00  0.00     0.247 HD
ENDBRANCH  12  24
TORSDOF 7
ENDMDL
MODEL 5
REMARK VINA RESULT: -5.273949150      1.200      1.369
REMARK  7 active torsions:
REMARK  status: ('A' for Active; 'I' for Inactive)
REMARK    1  A    between atoms: N1_1  and  C1_5 
REMARK    2  A    between atoms: C1_5  and  C2_6 
REMARK    3  A    between atoms: C2_6  and  C3_7 
REMARK    4  A    between atoms: C3_7  and  C4_8 
REMARK    5  A    between atoms: C4_8  and  C5_9 
REMARK    6  A    between atoms: C7_11  and  N2_12 
REMARK    7  A    between atoms: N6_23  and  O3_24 
ROOT
HETATM    1  C5  UNL     1     -26.399 -13.557  24.218  1.00  0.00    -0.022 A 
HETATM    2  C6  UNL     1     -27.627 -12.977  24.450  1.00  0.00     0.064 A 
HETATM    3  C7  UNL     1     -28.087 -11.930  23.640  1.00  0.00     0.176 A 
HETATM    4  N3  UNL     1     -27.317 -11.492  22.626  1.00  0.00    -0.319 N 
ATOM      5  H3  UNL     1     -27.656 -10.730  22.040  1.00  0.00     0.169 HD
HETATM    6  C8  UNL     1     -26.115 -12.033  22.366  1.00  0.00     0.184 A 
HETATM    7  C9  UNL     1     -25.643 -13.080  23.170  1.00  0.00     0.104 A 
HETATM    8  N4  UNL     1     -24.433 -13.436  22.703  1.00  0.00    -0.280 N 
ATOM      9  H4  UNL     1     -23.827 -14.169  23.071  1.00  0.00     0.188 HD
HETATM   10  N5  UNL     1     -24.187 -12.650  21.678  1.00  0.00    -0.214 N 
ATOM     11  H5  UNL     1     -23.330 -12.697  21.127  1.00  0.00     0.211 HD
HETATM   12  N6  UNL     1     -25.152 -11.801  21.435  1.00  0.00    -0.129 N 
ENDROOT
BRANCH   1  13
HETATM   13  C4  UNL     1     -25.860 -14.663  25.043  1.00  0.00     0.041 C 
BRANCH  13  14
HETATM   14  C3  UNL     1     -25.129 -14.214  26.266  1.00  0.00     0.006 C 
BRANCH  14  15
HETATM   15  C2  UNL     1     -25.790 -14.826  27.470  1.00  0.00     0.027 C 
BRANCH  15  16
HETATM   16  C1  UNL     1     -26.919 -15.745  27.158  1.00  0.00     0.229 C 
BRANCH  16  17
HETATM   17  N1  UNL     1     -27.738 -15.988  28.358  1.00  0.00    -0.079 N 
ATOM     18  H13 UNL     1     -27.220 -16.499  29.073  1.00  0.00     0.274 HD
ATOM     19  H12 UNL     1     -27.909 -15.127  28.880  1.00  0.00     0.274 HD
ATOM     20  H11 UNL     1     -28.608 -16.460  28.111  1.00  0.00     0.274 HD
ENDBRANCH  16  17
ENDBRANCH  15  16
ENDBRANCH  14  15
ENDBRANCH  13  14
ENDBRANCH   1  13
BRANCH   3  21
HETATM   21  N2  UNL     1     -29.351 -11.344  23.899  1.00  0.00    -0.098 N 
HETATM   22  O1  UNL     1     -29.775 -10.459  23.127  1.00  0.00    -0.531 OA
HETATM   23  O2  UNL     1     -30.060 -11.773  24.989  1.00  0.00    -0.531 OA
ENDBRANCH   3  21
BRANCH  12  24
HETATM   24  O3  UNL     1     -25.217 -10.838  20.435  1.00  0.00    -0.265 OA
ATOM     25  H3  UNL     1     -24.541 -10.200  20.242  1.00  0.00     0.247 HD
ENDBRANCH  12  24
TORSDOF 7
ENDMDL
