MODEL 1
REMARK VINA RESULT: -4.969152920      0.000      0.000
REMARK  6 active torsions:
REMARK  status: ('A' for Active; 'I' for Inactive)
REMARK    1  A    between atoms: S1_2  and  C2_3 
REMARK    2  A    between atoms: C2_3  and  N2_7 
REMARK    3  A    between atoms: N2_7  and  O1_9 
REMARK    4  A    between atoms: O1_9  and  N3_10 
REMARK    5  A    between atoms: N3_10  and  O2_11 
REMARK    6  A    between atoms: N3_10  and  N4_13 
ROOT
HETATM    1  N2  UNL     1      13.247  19.937   3.297  1.00  0.00    -0.222 N 
ATOM      2  H2  UNL     1      13.755  19.502   2.527  1.00  0.00     0.198 HD
ENDROOT
BRANCH   1   3
HETATM    3  C2  UNL     1      13.986  20.243   4.463  1.00  0.00     0.159 C 
HETATM    4  N1  UNL     1      14.608  19.279   5.050  1.00  0.00    -0.379 N 
ATOM      5  H12 UNL     1      15.141  19.499   5.891  1.00  0.00     0.158 HD
ATOM      6  H11 UNL     1      14.528  18.350   4.636  1.00  0.00     0.158 HD
BRANCH   3   7
HETATM    7  S1  UNL     1      14.125  21.861   5.186  1.00  0.00    -0.097 SA
HETATM    8  C1  UNL     1      12.569  22.446   5.867  1.00  0.00     0.099 C 
ENDBRANCH   3   7
ENDBRANCH   1   3
BRANCH   1   9
HETATM    9  O1  UNL     1      11.953  20.166   3.113  1.00  0.00    -0.138 OA
BRANCH   9  10
HETATM   10  N3  UNL     1      11.190  19.089   2.970  1.00  0.00     0.036 NA
BRANCH  10  11
HETATM   11  O2  UNL     1      11.513  18.323   1.909  1.00  0.00    -0.273 OA
ATOM     12  H2  UNL     1      12.251  18.649   1.406  1.00  0.00     0.241 HD
ENDBRANCH  10  11
BRANCH  10  13
HETATM   13  N4  UNL     1      10.955  18.368   4.117  1.00  0.00    -0.208 NA
HETATM   14  C3  UNL     1      10.449  19.179   5.218  1.00  0.00     0.134 C 
HETATM   15  C4  UNL     1       9.948  17.312   3.917  1.00  0.00     0.134 C 
ENDBRANCH  10  13
ENDBRANCH   9  10
ENDBRANCH   1   9
TORSDOF 6
ENDMDL
MODEL 2
REMARK VINA RESULT: -4.912210013      1.139      1.488
REMARK  6 active torsions:
REMARK  status: ('A' for Active; 'I' for Inactive)
REMARK    1  A    between atoms: S1_2  and  C2_3 
REMARK    2  A    between atoms: C2_3  and  N2_7 
REMARK    3  A    between atoms: N2_7  and  O1_9 
REMARK    4  A    between atoms: O1_9  and  N3_10 
REMARK    5  A    between atoms: N3_10  and  O2_11 
REMARK    6  A    between atoms: N3_10  and  N4_13 
ROOT
HETATM    1  N2  UNL     1      13.529  20.321   3.304  1.00  0.00    -0.222 N 
ATOM      2  H2  UNL     1      13.981  20.303   2.390  1.00  0.00     0.198 HD
ENDROOT
BRANCH   1   3
HETATM    3  C2  UNL     1      14.367  20.200   4.437  1.00  0.00     0.159 C 
HETATM    4  N1  UNL     1      14.273  19.127   5.142  1.00  0.00    -0.379 N 
ATOM      5  H12 UNL     1      14.877  19.039   5.959  1.00  0.00     0.158 HD
ATOM      6  H11 UNL     1      13.596  18.426   4.839  1.00  0.00     0.158 HD
BRANCH   3   7
HETATM    7  S1  UNL     1      15.547  21.422   4.965  1.00  0.00    -0.097 SA
HETATM    8  C1  UNL     1      16.482  22.112   3.596  1.00  0.00     0.099 C 
ENDBRANCH   3   7
ENDBRANCH   1   3
BRANCH   1   9
HETATM    9  O1  UNL     1      12.209  20.456   3.324  1.00  0.00    -0.138 OA
BRANCH   9  10
HETATM   10  N3  UNL     1      11.512  19.363   3.036  1.00  0.00     0.036 NA
BRANCH  10  11
HETATM   11  O2  UNL     1      11.958  18.695   1.952  1.00  0.00    -0.273 OA
ATOM     12  H2  UNL     1      12.581  18.005   2.151  1.00  0.00     0.241 HD
ENDBRANCH  10  11
BRANCH  10  13
HETATM   13  N4  UNL     1      11.218  18.545   4.101  1.00  0.00    -0.208 NA
HETATM   14  C3  UNL     1      10.607  19.251   5.222  1.00  0.00     0.134 C 
HETATM   15  C4  UNL     1      10.264  17.483   3.744  1.00  0.00     0.134 C 
ENDBRANCH  10  13
ENDBRANCH   9  10
ENDBRANCH   1   9
TORSDOF 6
ENDMDL
MODEL 3
REMARK VINA RESULT: -4.864688068      2.541      2.924
REMARK  6 active torsions:
REMARK  status: ('A' for Active; 'I' for Inactive)
REMARK    1  A    between atoms: S1_2  and  C2_3 
REMARK    2  A    between atoms: C2_3  and  N2_7 
REMARK    3  A    between atoms: N2_7  and  O1_9 
REMARK    4  A    between atoms: O1_9  and  N3_10 
REMARK    5  A    between atoms: N3_10  and  O2_11 
REMARK    6  A    between atoms: N3_10  and  N4_13 
ROOT
HETATM    1  N2  UNL     1       9.737  21.907   3.781  1.00  0.00    -0.222 N 
ATOM      2  H2  UNL     1       9.023  22.633   3.732  1.00  0.00     0.198 HD
ENDROOT
BRANCH   1   3
HETATM    3  C2  UNL     1      10.661  21.985   4.849  1.00  0.00     0.159 C 
HETATM    4  N1  UNL     1      10.616  21.066   5.751  1.00  0.00    -0.379 N 
ATOM      5  H12 UNL     1      11.282  21.122   6.520  1.00  0.00     0.158 HD
ATOM      6  H11 UNL     1       9.913  20.335   5.638  1.00  0.00     0.158 HD
BRANCH   3   7
HETATM    7  S1  UNL     1      11.886  23.259   5.044  1.00  0.00    -0.097 SA
HETATM    8  C1  UNL     1      13.446  22.623   5.667  1.00  0.00     0.099 C 
ENDBRANCH   3   7
ENDBRANCH   1   3
BRANCH   1   9
HETATM    9  O1  UNL     1       9.716  20.974   2.837  1.00  0.00    -0.138 OA
BRANCH   9  10
HETATM   10  N3  UNL     1       9.287  19.776   3.217  1.00  0.00     0.036 NA
BRANCH  10  11
HETATM   11  O2  UNL     1       7.979  19.558   2.975  1.00  0.00    -0.273 OA
ATOM     12  H2  UNL     1       7.785  19.326   2.074  1.00  0.00     0.241 HD
ENDBRANCH  10  11
BRANCH  10  13
HETATM   13  N4  UNL     1      10.094  18.717   2.873  1.00  0.00    -0.208 NA
HETATM   14  C3  UNL     1      11.458  19.112   2.541  1.00  0.00     0.134 C 
HETATM   15  C4  UNL     1      10.226  17.738   3.965  1.00  0.00     0.134 C 
ENDBRANCH  10  13
ENDBRANCH   9  10
ENDBRANCH   1   9
TORSDOF 6
ENDMDL
MODEL 4
REMARK VINA RESULT: -4.841205310      2.364      4.149
REMARK  6 active torsions:
REMARK  status: ('A' for Active; 'I' for Inactive)
REMARK    1  A    between atoms: S1_2  and  C2_3 
REMARK    2  A    between atoms: C2_3  and  N2_7 
REMARK    3  A    between atoms: N2_7  and  O1_9 
REMARK    4  A    between atoms: O1_9  and  N3_10 
REMARK    5  A    between atoms: N3_10  and  O2_11 
REMARK    6  A    between atoms: N3_10  and  N4_13 
ROOT
HETATM    1  N2  UNL     1      12.827  19.818   3.144  1.00  0.00    -0.222 N 
ATOM      2  H2  UNL     1      12.658  19.605   2.161  1.00  0.00     0.198 HD
ENDROOT
BRANCH   1   3
HETATM    3  C2  UNL     1      11.735  19.668   4.031  1.00  0.00     0.159 C 
HETATM    4  N1  UNL     1      11.708  18.618   4.778  1.00  0.00    -0.379 N 
ATOM      5  H12 UNL     1      10.921  18.510   5.418  1.00  0.00     0.158 HD
ATOM      6  H11 UNL     1      12.479  17.957   4.683  1.00  0.00     0.158 HD
BRANCH   3   7
HETATM    7  S1  UNL     1      10.392  20.820   4.196  1.00  0.00    -0.097 SA
HETATM    8  C1  UNL     1      10.801  22.449   3.559  1.00  0.00     0.099 C 
ENDBRANCH   3   7
ENDBRANCH   1   3
BRANCH   1   9
HETATM    9  O1  UNL     1      14.050  20.210   3.475  1.00  0.00    -0.138 OA
BRANCH   9  10
HETATM   10  N3  UNL     1      14.336  20.181   4.772  1.00  0.00     0.036 NA
BRANCH  10  11
HETATM   11  O2  UNL     1      14.872  19.016   5.190  1.00  0.00    -0.273 OA
ATOM     12  H2  UNL     1      14.245  18.420   5.583  1.00  0.00     0.241 HD
ENDBRANCH  10  11
BRANCH  10  13
HETATM   13  N4  UNL     1      14.978  21.291   5.266  1.00  0.00    -0.208 NA
HETATM   14  C3  UNL     1      15.853  21.935   4.294  1.00  0.00     0.134 C 
HETATM   15  C4  UNL     1      14.036  22.337   5.696  1.00  0.00     0.134 C 
ENDBRANCH  10  13
ENDBRANCH   9  10
ENDBRANCH   1   9
TORSDOF 6
ENDMDL
MODEL 5
REMARK VINA RESULT: -4.828848958      1.066      1.363
REMARK  6 active torsions:
REMARK  status: ('A' for Active; 'I' for Inactive)
REMARK    1  A    between atoms: S1_2  and  C2_3 
REMARK    2  A    between atoms: C2_3  and  N2_7 
REMARK    3  A    between atoms: N2_7  and  O1_9 
REMARK    4  A    between atoms: O1_9  and  N3_10 
REMARK    5  A    between atoms: N3_10  and  O2_11 
REMARK    6  A    between atoms: N3_10  and  N4_13 
ROOT
HETATM    1  N2  UNL     1      13.203  19.818   3.606  1.00  0.00    -0.222 N 
ATOM      2  H2  UNL     1      13.523  19.974   2.650  1.00  0.00     0.198 HD
ENDROOT
BRANCH   1   3
HETATM    3  C2  UNL     1      14.101  20.154   4.646  1.00  0.00     0.159 C 
HETATM    4  N1  UNL     1      14.782  19.201   5.183  1.00  0.00    -0.379 N 
ATOM      5  H12 UNL     1      15.429  19.443   5.933  1.00  0.00     0.158 HD
ATOM      6  H11 UNL     1      14.632  18.259   4.823  1.00  0.00     0.158 HD
BRANCH   3   7
HETATM    7  S1  UNL     1      14.362  21.797   5.274  1.00  0.00    -0.097 SA
HETATM    8  C1  UNL     1      12.853  22.540   5.905  1.00  0.00     0.099 C 
ENDBRANCH   3   7
ENDBRANCH   1   3
BRANCH   1   9
HETATM    9  O1  UNL     1      11.984  19.319   3.761  1.00  0.00    -0.138 OA
BRANCH   9  10
HETATM   10  N3  UNL     1      11.243  19.250   2.661  1.00  0.00     0.036 NA
BRANCH  10  11
HETATM   11  O2  UNL     1      11.632  18.292   1.795  1.00  0.00    -0.273 OA
ATOM     12  H2  UNL     1      11.951  18.627   0.965  1.00  0.00     0.241 HD
ENDBRANCH  10  11
BRANCH  10  13
HETATM   13  N4  UNL     1       9.883  19.295   2.854  1.00  0.00    -0.208 NA
HETATM   14  C3  UNL     1       9.426  18.463   3.961  1.00  0.00     0.134 C 
HETATM   15  C4  UNL     1       9.407  20.653   3.167  1.00  0.00     0.134 C 
ENDBRANCH  10  13
ENDBRANCH   9  10
ENDBRANCH   1   9
TORSDOF 6
ENDMDL
