MODEL 1
REMARK VINA RESULT: -6.329666030      0.000      0.000
REMARK  4 active torsions:
REMARK  status: ('A' for Active; 'I' for Inactive)
REMARK    1  A    between atoms: C1_2  and  N1_3 
REMARK    2  A    between atoms: N1_3  and  N2_5 
REMARK    3  A    between atoms: C2_7  and  C3_8 
REMARK    4  A    between atoms: C6_11  and  N3_12 
ROOT
HETATM    1  C3  UNL     1      15.163  20.919   4.345  1.00  0.00     0.095 A 
HETATM    2  C4  UNL     1      16.312  20.888   5.132  1.00  0.00     0.043 A 
HETATM    3  C5  UNL     1      17.266  21.706   4.563  1.00  0.00     0.065 A 
HETATM    4  C6  UNL     1      16.625  22.207   3.420  1.00  0.00     0.215 A 
HETATM    5  O4  UNL     1      15.415  21.715   3.352  1.00  0.00    -0.287 OA
ENDROOT
BRANCH   1   6
HETATM    6  C2  UNL     1      13.964  20.163   4.666  1.00  0.00     0.144 C 
HETATM    7  N2  UNL     1      13.130  19.759   3.782  1.00  0.00    -0.307 N 
ATOM      8  H2  UNL     1      13.304  19.972   2.799  1.00  0.00     0.186 HD
BRANCH   7   9
HETATM    9  N1  UNL     1      11.989  19.034   4.128  1.00  0.00    -0.278 N 
ATOM     10  H1  UNL     1      11.955  18.034   3.928  1.00  0.00     0.189 HD
BRANCH   9  11
HETATM   11  C1  UNL     1      10.874  19.654   4.753  1.00  0.00     0.368 C 
HETATM   12  O1  UNL     1      10.182  18.990   5.537  1.00  0.00    -0.282 OA
ENDBRANCH   9  11
ENDBRANCH   7   9
ENDBRANCH   1   6
BRANCH   4  13
HETATM   13  N3  UNL     1      17.229  23.107   2.505  1.00  0.00    -0.090 N 
HETATM   14  O2  UNL     1      18.421  23.008   2.150  1.00  0.00    -0.530 OA
HETATM   15  O3  UNL     1      16.462  24.125   1.994  1.00  0.00    -0.530 OA
ENDBRANCH   4  13
TORSDOF 4
ENDMDL
MODEL 2
REMARK VINA RESULT: -6.280764855      1.920      2.335
REMARK  4 active torsions:
REMARK  status: ('A' for Active; 'I' for Inactive)
REMARK    1  A    between atoms: C1_2  and  N1_3 
REMARK    2  A    between atoms: N1_3  and  N2_5 
REMARK    3  A    between atoms: C2_7  and  C3_8 
REMARK    4  A    between atoms: C6_11  and  N3_12 
ROOT
HETATM    1  C3  UNL     1      13.473  21.054   3.737  1.00  0.00     0.095 A 
HETATM    2  C4  UNL     1      13.354  22.357   4.218  1.00  0.00     0.043 A 
HETATM    3  C5  UNL     1      14.616  22.901   4.349  1.00  0.00     0.065 A 
HETATM    4  C6  UNL     1      15.463  21.865   3.928  1.00  0.00     0.215 A 
HETATM    5  O4  UNL     1      14.742  20.828   3.588  1.00  0.00    -0.287 OA
ENDROOT
BRANCH   1   6
HETATM    6  C2  UNL     1      12.326  20.197   3.486  1.00  0.00     0.144 C 
HETATM    7  N2  UNL     1      12.337  19.240   2.635  1.00  0.00    -0.307 N 
ATOM      8  H2  UNL     1      13.187  19.059   2.100  1.00  0.00     0.186 HD
BRANCH   7   9
HETATM    9  N1  UNL     1      11.217  18.437   2.421  1.00  0.00    -0.278 N 
ATOM     10  H1  UNL     1      10.901  18.268   1.465  1.00  0.00     0.189 HD
BRANCH   9  11
HETATM   11  C1  UNL     1      10.504  17.850   3.501  1.00  0.00     0.368 C 
HETATM   12  O1  UNL     1       9.267  17.797   3.442  1.00  0.00    -0.282 OA
ENDBRANCH   9  11
ENDBRANCH   7   9
ENDBRANCH   1   6
BRANCH   4  13
HETATM   13  N3  UNL     1      16.877  21.965   3.890  1.00  0.00    -0.090 N 
HETATM   14  O2  UNL     1      17.480  22.655   3.043  1.00  0.00    -0.530 OA
HETATM   15  O3  UNL     1      17.603  21.273   4.828  1.00  0.00    -0.530 OA
ENDBRANCH   4  13
TORSDOF 4
ENDMDL
MODEL 3
REMARK VINA RESULT: -6.176984025      2.220      6.222
REMARK  4 active torsions:
REMARK  status: ('A' for Active; 'I' for Inactive)
REMARK    1  A    between atoms: C1_2  and  N1_3 
REMARK    2  A    between atoms: N1_3  and  N2_5 
REMARK    3  A    between atoms: C2_7  and  C3_8 
REMARK    4  A    between atoms: C6_11  and  N3_12 
ROOT
HETATM    1  C3  UNL     1      14.098  22.484   4.337  1.00  0.00     0.095 A 
HETATM    2  C4  UNL     1      13.958  22.789   5.690  1.00  0.00     0.043 A 
HETATM    3  C5  UNL     1      12.685  22.442   6.096  1.00  0.00     0.065 A 
HETATM    4  C6  UNL     1      12.100  21.928   4.930  1.00  0.00     0.215 A 
HETATM    5  O4  UNL     1      12.967  21.980   3.951  1.00  0.00    -0.287 OA
ENDROOT
BRANCH   1   6
HETATM    6  C2  UNL     1      15.325  22.727   3.596  1.00  0.00     0.144 C 
HETATM    7  N2  UNL     1      16.441  22.167   3.882  1.00  0.00    -0.307 N 
ATOM      8  H2  UNL     1      16.485  21.515   4.666  1.00  0.00     0.186 HD
BRANCH   7   9
HETATM    9  N1  UNL     1      17.599  22.424   3.147  1.00  0.00    -0.278 N 
ATOM     10  H1  UNL     1      18.480  22.004   3.445  1.00  0.00     0.189 HD
BRANCH   9  11
HETATM   11  C1  UNL     1      17.581  23.256   1.996  1.00  0.00     0.368 C 
HETATM   12  O1  UNL     1      18.658  23.596   1.487  1.00  0.00    -0.282 OA
ENDBRANCH   9  11
ENDBRANCH   7   9
ENDBRANCH   1   6
BRANCH   4  13
HETATM   13  N3  UNL     1      10.772  21.437   4.861  1.00  0.00    -0.090 N 
HETATM   14  O2  UNL     1       9.817  22.132   4.460  1.00  0.00    -0.530 OA
HETATM   15  O3  UNL     1      10.537  20.142   5.252  1.00  0.00    -0.530 OA
ENDBRANCH   4  13
TORSDOF 4
ENDMDL
MODEL 4
REMARK VINA RESULT: -6.110885757      3.007      3.487
REMARK  4 active torsions:
REMARK  status: ('A' for Active; 'I' for Inactive)
REMARK    1  A    between atoms: C1_2  and  N1_3 
REMARK    2  A    between atoms: N1_3  and  N2_5 
REMARK    3  A    between atoms: C2_7  and  C3_8 
REMARK    4  A    between atoms: C6_11  and  N3_12 
ROOT
HETATM    1  C3  UNL     1      16.507  21.004   4.891  1.00  0.00     0.095 A 
HETATM    2  C4  UNL     1      15.283  21.647   4.718  1.00  0.00     0.043 A 
HETATM    3  C5  UNL     1      15.422  22.620   3.750  1.00  0.00     0.065 A 
HETATM    4  C6  UNL     1      16.770  22.515   3.374  1.00  0.00     0.215 A 
HETATM    5  O4  UNL     1      17.340  21.564   4.069  1.00  0.00    -0.287 OA
ENDROOT
BRANCH   1   6
HETATM    6  C2  UNL     1      16.704  19.923   5.843  1.00  0.00     0.144 C 
HETATM    7  N2  UNL     1      16.185  18.760   5.702  1.00  0.00    -0.307 N 
ATOM      8  H2  UNL     1      15.602  18.571   4.886  1.00  0.00     0.186 HD
BRANCH   7   9
HETATM    9  N1  UNL     1      16.396  17.746   6.636  1.00  0.00    -0.278 N 
ATOM     10  H1  UNL     1      16.495  16.783   6.312  1.00  0.00     0.189 HD
BRANCH   9  11
HETATM   11  C1  UNL     1      16.478  18.020   8.028  1.00  0.00     0.368 C 
HETATM   12  O1  UNL     1      16.115  17.150   8.831  1.00  0.00    -0.282 OA
ENDBRANCH   9  11
ENDBRANCH   7   9
ENDBRANCH   1   6
BRANCH   4  13
HETATM   13  N3  UNL     1      17.383  23.330   2.389  1.00  0.00    -0.090 N 
HETATM   14  O2  UNL     1      18.561  23.162   2.014  1.00  0.00    -0.530 OA
HETATM   15  O3  UNL     1      16.641  24.341   1.829  1.00  0.00    -0.530 OA
ENDBRANCH   4  13
TORSDOF 4
ENDMDL
MODEL 5
REMARK VINA RESULT: -6.048491364      1.700      2.172
REMARK  4 active torsions:
REMARK  status: ('A' for Active; 'I' for Inactive)
REMARK    1  A    between atoms: C1_2  and  N1_3 
REMARK    2  A    between atoms: N1_3  and  N2_5 
REMARK    3  A    between atoms: C2_7  and  C3_8 
REMARK    4  A    between atoms: C6_11  and  N3_12 
ROOT
HETATM    1  C3  UNL     1      13.375  20.984   4.036  1.00  0.00     0.095 A 
HETATM    2  C4  UNL     1      13.382  21.925   5.064  1.00  0.00     0.043 A 
HETATM    3  C5  UNL     1      14.681  22.337   5.283  1.00  0.00     0.065 A 
HETATM    4  C6  UNL     1      15.419  21.599   4.346  1.00  0.00     0.215 A 
HETATM    5  O4  UNL     1      14.607  20.838   3.658  1.00  0.00    -0.287 OA
ENDROOT
BRANCH   1   6
HETATM    6  C2  UNL     1      12.159  20.348   3.556  1.00  0.00     0.144 C 
HETATM    7  N2  UNL     1      11.963  19.083   3.601  1.00  0.00    -0.307 N 
ATOM      8  H2  UNL     1      12.689  18.480   3.990  1.00  0.00     0.186 HD
BRANCH   7   9
HETATM    9  N1  UNL     1      10.783  18.507   3.131  1.00  0.00    -0.278 N 
ATOM     10  H1  UNL     1      10.589  18.517   2.130  1.00  0.00     0.189 HD
BRANCH   9  11
HETATM   11  C1  UNL     1       9.844  17.907   4.013  1.00  0.00     0.368 C 
HETATM   12  O1  UNL     1       9.694  18.389   5.145  1.00  0.00    -0.282 OA
ENDBRANCH   9  11
ENDBRANCH   7   9
ENDBRANCH   1   6
BRANCH   4  13
HETATM   13  N3  UNL     1      16.826  21.691   4.198  1.00  0.00    -0.090 N 
HETATM   14  O2  UNL     1      17.623  21.085   4.942  1.00  0.00    -0.530 OA
HETATM   15  O3  UNL     1      17.322  22.481   3.190  1.00  0.00    -0.530 OA
ENDBRANCH   4  13
TORSDOF 4
ENDMDL
