MODEL 1
REMARK VINA RESULT: -5.080093793      0.000      0.000
REMARK  2 active torsions:
REMARK  status: ('A' for Active; 'I' for Inactive)
REMARK    1  A    between atoms: C3_3  and  O1_4 
REMARK    2  A    between atoms: C4_6  and  O2_7 
ROOT
HETATM    1  C1  UNL     1       9.721  20.161   1.016  1.00  0.00     0.035 C 
HETATM    2  C2  UNL     1      10.188  20.028   2.418  1.00  0.00     0.110 C 
HETATM    3  C3  UNL     1       9.566  18.849   3.146  1.00  0.00     0.173 C 
HETATM    4  C4  UNL     1      10.252  18.693   4.469  1.00  0.00     0.173 C 
HETATM    5  C5  UNL     1      10.522  19.950   5.185  1.00  0.00     0.024 C 
HETATM    6  C6  UNL     1      10.368  21.110   4.589  1.00  0.00     0.084 C 
HETATM    7  N1  UNL     1       9.939  21.171   3.246  1.00  0.00    -0.388 N 
HETATM    8  C7  UNL     1       9.277  22.380   2.796  1.00  0.00     0.149 C 
ENDROOT
BRANCH   3   9
HETATM    9  O1  UNL     1       8.203  19.090   3.313  1.00  0.00    -0.391 OA
ATOM     10  H1  UNL     1       7.832  18.399   3.849  1.00  0.00     0.210 HD
ENDBRANCH   3   9
BRANCH   4  11
HETATM   11  O2  UNL     1       9.436  17.931   5.344  1.00  0.00    -0.389 OA
ATOM     12  H2  UNL     1       8.760  18.485   5.715  1.00  0.00     0.210 HD
ENDBRANCH   4  11
TORSDOF 2
ENDMDL
MODEL 2
REMARK VINA RESULT: -4.999978002      6.528      7.340
REMARK  2 active torsions:
REMARK  status: ('A' for Active; 'I' for Inactive)
REMARK    1  A    between atoms: C3_3  and  O1_4 
REMARK    2  A    between atoms: C4_6  and  O2_7 
ROOT
HETATM    1  C1  UNL     1      14.100  22.138   5.469  1.00  0.00     0.035 C 
HETATM    2  C2  UNL     1      15.285  22.525   4.666  1.00  0.00     0.110 C 
HETATM    3  C3  UNL     1      14.962  22.772   3.202  1.00  0.00     0.173 C 
HETATM    4  C4  UNL     1      16.176  23.345   2.538  1.00  0.00     0.173 C 
HETATM    5  C5  UNL     1      17.453  22.721   2.922  1.00  0.00     0.024 C 
HETATM    6  C6  UNL     1      17.515  21.886   3.933  1.00  0.00     0.084 C 
HETATM    7  N1  UNL     1      16.355  21.571   4.672  1.00  0.00    -0.388 N 
HETATM    8  C7  UNL     1      16.321  20.308   5.384  1.00  0.00     0.149 C 
ENDROOT
BRANCH   3   9
HETATM    9  O1  UNL     1      14.592  21.564   2.613  1.00  0.00    -0.391 OA
ATOM     10  H1  UNL     1      13.660  21.584   2.431  1.00  0.00     0.210 HD
ENDBRANCH   3   9
BRANCH   4  11
HETATM   11  O2  UNL     1      16.081  23.170   1.134  1.00  0.00    -0.389 OA
ATOM     12  H2  UNL     1      16.933  23.303   0.736  1.00  0.00     0.210 HD
ENDBRANCH   4  11
TORSDOF 2
ENDMDL
MODEL 3
REMARK VINA RESULT: -4.919398806      2.832      3.765
REMARK  2 active torsions:
REMARK  status: ('A' for Active; 'I' for Inactive)
REMARK    1  A    between atoms: C3_3  and  O1_4 
REMARK    2  A    between atoms: C4_6  and  O2_7 
ROOT
HETATM    1  C1  UNL     1      10.366  22.505   4.770  1.00  0.00     0.035 C 
HETATM    2  C2  UNL     1      11.353  22.110   3.736  1.00  0.00     0.110 C 
HETATM    3  C3  UNL     1      11.071  20.745   3.130  1.00  0.00     0.173 C 
HETATM    4  C4  UNL     1      11.998  20.539   1.972  1.00  0.00     0.173 C 
HETATM    5  C5  UNL     1      13.385  20.982   2.194  1.00  0.00     0.024 C 
HETATM    6  C6  UNL     1      13.700  21.699   3.247  1.00  0.00     0.084 C 
HETATM    7  N1  UNL     1      12.713  22.060   4.188  1.00  0.00    -0.388 N 
HETATM    8  C7  UNL     1      13.136  22.355   5.543  1.00  0.00     0.149 C 
ENDROOT
BRANCH   3   9
HETATM    9  O1  UNL     1      11.265  19.770   4.108  1.00  0.00    -0.391 OA
ATOM     10  H1  UNL     1      10.499  19.740   4.668  1.00  0.00     0.210 HD
ENDBRANCH   3   9
BRANCH   4  11
HETATM   11  O2  UNL     1      12.090  19.156   1.672  1.00  0.00    -0.389 OA
ATOM     12  H2  UNL     1      11.278  18.723   1.907  1.00  0.00     0.210 HD
ENDBRANCH   4  11
TORSDOF 2
ENDMDL
MODEL 4
REMARK VINA RESULT: -4.897612503      2.792      3.613
REMARK  2 active torsions:
REMARK  status: ('A' for Active; 'I' for Inactive)
REMARK    1  A    between atoms: C3_3  and  O1_4 
REMARK    2  A    between atoms: C4_6  and  O2_7 
ROOT
HETATM    1  C1  UNL     1      13.045  20.732   1.973  1.00  0.00     0.035 C 
HETATM    2  C2  UNL     1      12.080  21.472   2.822  1.00  0.00     0.110 C 
HETATM    3  C3  UNL     1      12.637  21.829   4.189  1.00  0.00     0.173 C 
HETATM    4  C4  UNL     1      11.663  22.737   4.876  1.00  0.00     0.173 C 
HETATM    5  C5  UNL     1      10.246  22.365   4.724  1.00  0.00     0.024 C 
HETATM    6  C6  UNL     1       9.883  21.439   3.867  1.00  0.00     0.084 C 
HETATM    7  N1  UNL     1      10.847  20.783   3.073  1.00  0.00    -0.388 N 
HETATM    8  C7  UNL     1      10.530  19.462   2.566  1.00  0.00     0.149 C 
ENDROOT
BRANCH   3   9
HETATM    9  O1  UNL     1      12.828  20.656   4.918  1.00  0.00    -0.391 OA
ATOM     10  H1  UNL     1      13.230  20.874   5.751  1.00  0.00     0.210 HD
ENDBRANCH   3   9
BRANCH   4  11
HETATM   11  O2  UNL     1      11.905  22.729   6.273  1.00  0.00    -0.389 OA
ATOM     12  H2  UNL     1      12.145  21.854   6.552  1.00  0.00     0.210 HD
ENDBRANCH   4  11
TORSDOF 2
ENDMDL
MODEL 5
REMARK VINA RESULT: -4.885528501      4.366      4.934
REMARK  2 active torsions:
REMARK  status: ('A' for Active; 'I' for Inactive)
REMARK    1  A    between atoms: C3_3  and  O1_4 
REMARK    2  A    between atoms: C4_6  and  O2_7 
ROOT
HETATM    1  C1  UNL     1      11.835  21.352   2.306  1.00  0.00     0.035 C 
HETATM    2  C2  UNL     1      12.682  22.020   3.324  1.00  0.00     0.110 C 
HETATM    3  C3  UNL     1      14.164  21.741   3.146  1.00  0.00     0.173 C 
HETATM    4  C4  UNL     1      14.928  22.616   4.092  1.00  0.00     0.173 C 
HETATM    5  C5  UNL     1      14.350  22.733   5.441  1.00  0.00     0.024 C 
HETATM    6  C6  UNL     1      13.146  22.280   5.698  1.00  0.00     0.084 C 
HETATM    7  N1  UNL     1      12.380  21.669   4.681  1.00  0.00    -0.388 N 
HETATM    8  C7  UNL     1      11.346  20.733   5.075  1.00  0.00     0.149 C 
ENDROOT
BRANCH   3   9
HETATM    9  O1  UNL     1      14.403  20.392   3.407  1.00  0.00    -0.391 OA
ATOM     10  H1  UNL     1      13.617  19.898   3.209  1.00  0.00     0.210 HD
ENDBRANCH   3   9
BRANCH   4  11
HETATM   11  O2  UNL     1      16.230  22.088   4.287  1.00  0.00    -0.389 OA
ATOM     12  H2  UNL     1      16.660  22.550   4.997  1.00  0.00     0.210 HD
ENDBRANCH   4  11
TORSDOF 2
ENDMDL
