MODEL 1
REMARK VINA RESULT: -5.985955678      0.000      0.000
REMARK  1 active torsions:
REMARK  status: ('A' for Active; 'I' for Inactive)
REMARK    1  A    between atoms: N1_1  and  C1_5 
ROOT
HETATM    1  C1  UNL     1      16.734  20.979   4.834  1.00  0.00     0.272 C 
HETATM    2  C2  UNL     1      17.311  21.967   3.869  1.00  0.00     0.051 C 
HETATM    3  C3  UNL     1      16.219  22.647   3.087  1.00  0.00     0.026 C 
HETATM    4  C4  UNL     1      14.935  22.514   3.804  1.00  0.00     0.094 C 
HETATM    5  C5  UNL     1      14.493  21.138   4.115  1.00  0.00     0.097 C 
HETATM    6  C6  UNL     1      13.170  21.397   4.819  1.00  0.00     0.039 C 
HETATM    7  C7  UNL     1      13.664  22.588   5.665  1.00  0.00     0.110 C 
HETATM    8  N2  UNL     1      15.074  22.613   5.265  1.00  0.00    -0.241 NA
HETATM    9  N3  UNL     1      15.396  21.232   5.229  1.00  0.00    -0.213 NA
ENDROOT
BRANCH   1  10
HETATM   10  N1  UNL     1      17.618  20.867   5.987  1.00  0.00    -0.061 N 
ATOM     11  H13 UNL     1      18.253  20.072   5.913  1.00  0.00     0.276 HD
ATOM     12  H12 UNL     1      18.318  21.608   6.013  1.00  0.00     0.276 HD
ATOM     13  H11 UNL     1      17.055  20.835   6.838  1.00  0.00     0.276 HD
ENDBRANCH   1  10
TORSDOF 1
ENDMDL
MODEL 2
REMARK VINA RESULT: -5.622077106      1.480      2.414
REMARK  1 active torsions:
REMARK  status: ('A' for Active; 'I' for Inactive)
REMARK    1  A    between atoms: N1_1  and  C1_5 
ROOT
HETATM    1  C1  UNL     1      16.064  22.989   3.216  1.00  0.00     0.272 C 
HETATM    2  C2  UNL     1      17.179  22.062   3.587  1.00  0.00     0.051 C 
HETATM    3  C3  UNL     1      16.896  21.390   4.904  1.00  0.00     0.026 C 
HETATM    4  C4  UNL     1      15.450  21.457   5.199  1.00  0.00     0.094 C 
HETATM    5  C5  UNL     1      14.846  22.807   5.228  1.00  0.00     0.097 C 
HETATM    6  C6  UNL     1      13.398  22.482   5.565  1.00  0.00     0.039 C 
HETATM    7  C7  UNL     1      13.279  21.266   4.623  1.00  0.00     0.110 C 
HETATM    8  N2  UNL     1      14.607  21.295   4.005  1.00  0.00    -0.241 NA
HETATM    9  N3  UNL     1      14.806  22.685   3.796  1.00  0.00    -0.213 NA
ENDROOT
BRANCH   1  10
HETATM   10  N1  UNL     1      15.975  23.071   1.764  1.00  0.00    -0.061 N 
ATOM     11  H13 UNL     1      15.009  23.108   1.436  1.00  0.00     0.276 HD
ATOM     12  H12 UNL     1      16.282  23.976   1.407  1.00  0.00     0.276 HD
ATOM     13  H11 UNL     1      16.494  22.296   1.353  1.00  0.00     0.276 HD
ENDBRANCH   1  10
TORSDOF 1
ENDMDL
MODEL 3
REMARK VINA RESULT: -5.384858407      1.962      3.610
REMARK  1 active torsions:
REMARK  status: ('A' for Active; 'I' for Inactive)
REMARK    1  A    between atoms: N1_1  and  C1_5 
ROOT
HETATM    1  C1  UNL     1      13.991  21.096   3.191  1.00  0.00     0.272 C 
HETATM    2  C2  UNL     1      13.205  21.946   4.141  1.00  0.00     0.051 C 
HETATM    3  C3  UNL     1      14.105  22.926   4.845  1.00  0.00     0.026 C 
HETATM    4  C4  UNL     1      15.355  23.098   4.079  1.00  0.00     0.094 C 
HETATM    5  C5  UNL     1      16.133  21.870   3.804  1.00  0.00     0.097 C 
HETATM    6  C6  UNL     1      17.318  22.431   3.033  1.00  0.00     0.039 C 
HETATM    7  C7  UNL     1      16.501  23.408   2.162  1.00  0.00     0.110 C 
HETATM    8  N2  UNL     1      15.149  23.084   2.622  1.00  0.00    -0.241 NA
HETATM    9  N3  UNL     1      15.202  21.670   2.727  1.00  0.00    -0.213 NA
ENDROOT
BRANCH   1  10
HETATM   10  N1  UNL     1      13.132  20.699   2.083  1.00  0.00    -0.061 N 
ATOM     11  H13 UNL     1      12.508  19.931   2.332  1.00  0.00     0.276 HD
ATOM     12  H12 UNL     1      12.420  21.399   1.874  1.00  0.00     0.276 HD
ATOM     13  H11 UNL     1      13.711  20.481   1.272  1.00  0.00     0.276 HD
ENDBRANCH   1  10
TORSDOF 1
ENDMDL
MODEL 4
REMARK VINA RESULT: -5.268877300      2.258      3.582
REMARK  1 active torsions:
REMARK  status: ('A' for Active; 'I' for Inactive)
REMARK    1  A    between atoms: N1_1  and  C1_5 
ROOT
HETATM    1  C1  UNL     1      13.894  21.546   4.651  1.00  0.00     0.272 C 
HETATM    2  C2  UNL     1      13.560  22.583   5.678  1.00  0.00     0.051 C 
HETATM    3  C3  UNL     1      12.144  23.064   5.507  1.00  0.00     0.026 C 
HETATM    4  C4  UNL     1      11.370  22.074   4.731  1.00  0.00     0.094 C 
HETATM    5  C5  UNL     1      11.904  21.720   3.398  1.00  0.00     0.097 C 
HETATM    6  C6  UNL     1      10.865  20.719   2.914  1.00  0.00     0.039 C 
HETATM    7  C7  UNL     1      10.724  19.968   4.253  1.00  0.00     0.110 C 
HETATM    8  N2  UNL     1      11.725  20.682   5.049  1.00  0.00    -0.241 NA
HETATM    9  N3  UNL     1      12.784  20.843   4.119  1.00  0.00    -0.213 NA
ENDROOT
BRANCH   1  10
HETATM   10  N1  UNL     1      14.890  20.635   5.199  1.00  0.00    -0.061 N 
ATOM     11  H13 UNL     1      14.766  20.481   6.200  1.00  0.00     0.276 HD
ATOM     12  H12 UNL     1      14.749  19.673   4.887  1.00  0.00     0.276 HD
ATOM     13  H11 UNL     1      15.822  20.982   4.972  1.00  0.00     0.276 HD
ENDBRANCH   1  10
TORSDOF 1
ENDMDL
MODEL 5
REMARK VINA RESULT: -5.262870013      1.636      2.133
REMARK  1 active torsions:
REMARK  status: ('A' for Active; 'I' for Inactive)
REMARK    1  A    between atoms: N1_1  and  C1_5 
ROOT
HETATM    1  C1  UNL     1      15.835  21.014   4.692  1.00  0.00     0.272 C 
HETATM    2  C2  UNL     1      15.639  22.196   5.589  1.00  0.00     0.051 C 
HETATM    3  C3  UNL     1      14.593  23.122   5.027  1.00  0.00     0.026 C 
HETATM    4  C4  UNL     1      13.751  22.395   4.057  1.00  0.00     0.094 C 
HETATM    5  C5  UNL     1      14.454  21.749   2.927  1.00  0.00     0.097 C 
HETATM    6  C6  UNL     1      13.292  21.132   2.162  1.00  0.00     0.039 C 
HETATM    7  C7  UNL     1      12.537  20.611   3.402  1.00  0.00     0.110 C 
HETATM    8  N2  UNL     1      13.478  21.004   4.454  1.00  0.00    -0.241 NA
HETATM    9  N3  UNL     1      14.730  20.694   3.863  1.00  0.00    -0.213 NA
ENDROOT
BRANCH   1  10
HETATM   10  N1  UNL     1      16.249  19.869   5.494  1.00  0.00    -0.061 N 
ATOM     11  H13 UNL     1      16.906  19.266   4.998  1.00  0.00     0.276 HD
ATOM     12  H12 UNL     1      16.855  20.137   6.269  1.00  0.00     0.276 HD
ATOM     13  H11 UNL     1      15.420  19.364   5.807  1.00  0.00     0.276 HD
ENDBRANCH   1  10
TORSDOF 1
ENDMDL
