MODEL 1
REMARK VINA RESULT: -5.890674124      0.000      0.000
REMARK  2 active torsions:
REMARK  status: ('A' for Active; 'I' for Inactive)
REMARK    1  A    between atoms: O1_1  and  C1_3 
REMARK    2  A    between atoms: C7_10  and  O3_11 
ROOT
HETATM    1  C1  UNL     1      16.858  21.112   4.921  1.00  0.00     0.172 C 
HETATM    2  C2  UNL     1      17.312  21.973   3.806  1.00  0.00     0.004 C 
HETATM    3  C3  UNL     1      16.500  22.628   3.000  1.00  0.00    -0.019 C 
HETATM    4  C4  UNL     1      15.045  22.504   3.212  1.00  0.00     0.063 C 
HETATM    5  C5  UNL     1      14.721  23.263   4.493  1.00  0.00     0.179 C 
HETATM    6  O2  UNL     1      14.962  22.425   5.545  1.00  0.00    -0.380 OA
HETATM    7  C6  UNL     1      15.346  21.191   5.088  1.00  0.00     0.183 C 
HETATM    8  C7  UNL     1      14.783  21.079   3.664  1.00  0.00     0.159 C 
ENDROOT
BRANCH   1   9
HETATM    9  O1  UNL     1      17.523  21.358   6.106  1.00  0.00    -0.389 OA
ATOM     10  H1  UNL     1      18.028  22.162   6.092  1.00  0.00     0.210 HD
ENDBRANCH   1   9
BRANCH   8  11
HETATM   11  O3  UNL     1      13.457  20.738   3.653  1.00  0.00    -0.392 OA
ATOM     12  H3  UNL     1      13.297  19.846   3.369  1.00  0.00     0.210 HD
ENDBRANCH   8  11
TORSDOF 2
ENDMDL
MODEL 2
REMARK VINA RESULT: -5.517005211      1.460      2.958
REMARK  2 active torsions:
REMARK  status: ('A' for Active; 'I' for Inactive)
REMARK    1  A    between atoms: O1_1  and  C1_3 
REMARK    2  A    between atoms: C7_10  and  O3_11 
ROOT
HETATM    1  C1  UNL     1      14.057  21.810   2.529  1.00  0.00     0.172 C 
HETATM    2  C2  UNL     1      15.419  22.319   2.252  1.00  0.00     0.004 C 
HETATM    3  C3  UNL     1      16.317  22.576   3.182  1.00  0.00    -0.019 C 
HETATM    4  C4  UNL     1      15.953  22.345   4.593  1.00  0.00     0.063 C 
HETATM    5  C5  UNL     1      15.881  20.836   4.788  1.00  0.00     0.179 C 
HETATM    6  O2  UNL     1      14.642  20.424   4.386  1.00  0.00    -0.380 OA
HETATM    7  C6  UNL     1      13.884  21.503   4.011  1.00  0.00     0.183 C 
HETATM    8  C7  UNL     1      14.488  22.712   4.740  1.00  0.00     0.159 C 
ENDROOT
BRANCH   1   9
HETATM    9  O1  UNL     1      13.703  20.738   1.735  1.00  0.00    -0.389 OA
ATOM     10  H1  UNL     1      12.990  20.224   2.094  1.00  0.00     0.210 HD
ENDBRANCH   1   9
BRANCH   8  11
HETATM   11  O3  UNL     1      14.074  22.795   6.042  1.00  0.00    -0.392 OA
ATOM     12  H3  UNL     1      13.747  23.654   6.282  1.00  0.00     0.210 HD
ENDBRANCH   8  11
TORSDOF 2
ENDMDL
MODEL 3
REMARK VINA RESULT: -5.431505108      1.872      3.065
REMARK  2 active torsions:
REMARK  status: ('A' for Active; 'I' for Inactive)
REMARK    1  A    between atoms: O1_1  and  C1_3 
REMARK    2  A    between atoms: C7_10  and  O3_11 
ROOT
HETATM    1  C1  UNL     1      13.576  21.476   2.590  1.00  0.00     0.172 C 
HETATM    2  C2  UNL     1      14.867  22.192   2.490  1.00  0.00     0.004 C 
HETATM    3  C3  UNL     1      15.458  22.797   3.501  1.00  0.00    -0.019 C 
HETATM    4  C4  UNL     1      14.801  22.765   4.822  1.00  0.00     0.063 C 
HETATM    5  C5  UNL     1      14.921  21.336   5.338  1.00  0.00     0.179 C 
HETATM    6  O2  UNL     1      13.898  20.611   4.795  1.00  0.00    -0.380 OA
HETATM    7  C6  UNL     1      13.095  21.422   4.035  1.00  0.00     0.183 C 
HETATM    8  C7  UNL     1      13.306  22.844   4.576  1.00  0.00     0.159 C 
ENDROOT
BRANCH   1   9
HETATM    9  O1  UNL     1      13.599  20.225   2.007  1.00  0.00    -0.389 OA
ATOM     10  H1  UNL     1      12.829  19.705   2.203  1.00  0.00     0.210 HD
ENDBRANCH   1   9
BRANCH   8  11
HETATM   11  O3  UNL     1      12.579  23.082   5.711  1.00  0.00    -0.392 OA
ATOM     12  H3  UNL     1      11.752  22.614   5.737  1.00  0.00     0.210 HD
ENDBRANCH   8  11
TORSDOF 2
ENDMDL
MODEL 4
REMARK VINA RESULT: -5.272522775      2.917      4.032
REMARK  2 active torsions:
REMARK  status: ('A' for Active; 'I' for Inactive)
REMARK    1  A    between atoms: O1_1  and  C1_3 
REMARK    2  A    between atoms: C7_10  and  O3_11 
ROOT
HETATM    1  C1  UNL     1      13.599  21.593   4.343  1.00  0.00     0.172 C 
HETATM    2  C2  UNL     1      13.295  22.574   5.408  1.00  0.00     0.004 C 
HETATM    3  C3  UNL     1      12.085  23.023   5.677  1.00  0.00    -0.019 C 
HETATM    4  C4  UNL     1      10.954  22.524   4.872  1.00  0.00     0.063 C 
HETATM    5  C5  UNL     1      10.730  21.073   5.280  1.00  0.00     0.179 C 
HETATM    6  O2  UNL     1      11.601  20.301   4.563  1.00  0.00    -0.380 OA
HETATM    7  C6  UNL     1      12.319  21.081   3.694  1.00  0.00     0.183 C 
HETATM    8  C7  UNL     1      11.466  22.336   3.456  1.00  0.00     0.159 C 
ENDROOT
BRANCH   1   9
HETATM    9  O1  UNL     1      14.412  20.561   4.767  1.00  0.00    -0.389 OA
ATOM     10  H1  UNL     1      14.609  19.933   4.082  1.00  0.00     0.210 HD
ENDBRANCH   1   9
BRANCH   8  11
HETATM   11  O3  UNL     1      10.471  22.123   2.540  1.00  0.00    -0.392 OA
ATOM     12  H3  UNL     1      10.315  21.203   2.358  1.00  0.00     0.210 HD
ENDBRANCH   8  11
TORSDOF 2
ENDMDL
MODEL 5
REMARK VINA RESULT: -5.180508770      1.415      2.948
REMARK  2 active torsions:
REMARK  status: ('A' for Active; 'I' for Inactive)
REMARK    1  A    between atoms: O1_1  and  C1_3 
REMARK    2  A    between atoms: C7_10  and  O3_11 
ROOT
HETATM    1  C1  UNL     1      14.211  21.261   5.308  1.00  0.00     0.172 C 
HETATM    2  C2  UNL     1      13.887  22.701   5.190  1.00  0.00     0.004 C 
HETATM    3  C3  UNL     1      14.568  23.555   4.453  1.00  0.00    -0.019 C 
HETATM    4  C4  UNL     1      15.730  23.057   3.691  1.00  0.00     0.063 C 
HETATM    5  C5  UNL     1      15.179  22.201   2.558  1.00  0.00     0.179 C 
HETATM    6  O2  UNL     1      14.950  20.949   3.056  1.00  0.00    -0.380 OA
HETATM    7  C6  UNL     1      15.347  20.882   4.367  1.00  0.00     0.183 C 
HETATM    8  C7  UNL     1      16.395  21.992   4.542  1.00  0.00     0.159 C 
ENDROOT
BRANCH   1   9
HETATM    9  O1  UNL     1      13.113  20.440   5.149  1.00  0.00    -0.389 OA
ATOM     10  H1  UNL     1      12.901  20.270   4.239  1.00  0.00     0.210 HD
ENDBRANCH   1   9
BRANCH   8  11
HETATM   11  O3  UNL     1      17.630  21.619   4.083  1.00  0.00    -0.392 OA
ATOM     12  H3  UNL     1      18.302  21.628   4.755  1.00  0.00     0.210 HD
ENDBRANCH   8  11
TORSDOF 2
ENDMDL
