MODEL 1
REMARK VINA RESULT: -5.964432609      0.000      0.000
REMARK  3 active torsions:
REMARK  status: ('A' for Active; 'I' for Inactive)
REMARK    1  A    between atoms: C2_2  and  C3_3 
REMARK    2  A    between atoms: C5_6  and  O2_7 
REMARK    3  A    between atoms: C7_10  and  O3_11 
ROOT
HETATM    1  C3  UNL     1      16.301  22.452   3.633  1.00  0.00     0.133 A 
HETATM    2  O1  UNL     1      15.217  23.315   3.554  1.00  0.00    -0.359 OA
HETATM    3  C4  UNL     1      15.040  22.084   2.994  1.00  0.00     0.193 A 
HETATM    4  C5  UNL     1      14.538  20.914   3.796  1.00  0.00     0.153 C 
HETATM    5  C6  UNL     1      15.193  20.976   5.136  1.00  0.00     0.069 C 
HETATM    6  C7  UNL     1      16.462  21.747   4.931  1.00  0.00     0.162 C 
ENDROOT
BRANCH   1   7
HETATM    7  C2  UNL     1      17.469  22.650   2.738  1.00  0.00     0.006 C 
HETATM    8  C1  UNL     1      17.449  23.586   1.807  1.00  0.00     0.010 C 
ENDBRANCH   1   7
BRANCH   6   9
HETATM    9  O3  UNL     1      17.603  20.988   5.033  1.00  0.00    -0.392 OA
ATOM     10  H3  UNL     1      17.486  20.152   5.470  1.00  0.00     0.210 HD
ENDBRANCH   6   9
BRANCH   4  11
HETATM   11  O2  UNL     1      13.168  20.897   3.834  1.00  0.00    -0.393 OA
ATOM     12  H2  UNL     1      12.849  20.108   4.256  1.00  0.00     0.210 HD
ENDBRANCH   4  11
TORSDOF 3
ENDMDL
MODEL 2
REMARK VINA RESULT: -5.779165701      1.882      2.497
REMARK  3 active torsions:
REMARK  status: ('A' for Active; 'I' for Inactive)
REMARK    1  A    between atoms: C2_2  and  C3_3 
REMARK    2  A    between atoms: C5_6  and  O2_7 
REMARK    3  A    between atoms: C7_10  and  O3_11 
ROOT
HETATM    1  C3  UNL     1      15.012  22.343   4.153  1.00  0.00     0.133 A 
HETATM    2  O1  UNL     1      15.364  22.657   5.458  1.00  0.00    -0.359 OA
HETATM    3  C4  UNL     1      14.195  23.199   5.008  1.00  0.00     0.193 A 
HETATM    4  C5  UNL     1      12.886  22.469   5.132  1.00  0.00     0.153 C 
HETATM    5  C6  UNL     1      13.144  21.031   4.825  1.00  0.00     0.069 C 
HETATM    6  C7  UNL     1      14.372  21.015   3.966  1.00  0.00     0.162 C 
ENDROOT
BRANCH   1   7
HETATM    7  C2  UNL     1      15.710  23.004   3.020  1.00  0.00     0.006 C 
HETATM    8  C1  UNL     1      16.987  22.760   2.788  1.00  0.00     0.010 C 
ENDBRANCH   1   7
BRANCH   6   9
HETATM    9  O3  UNL     1      14.138  20.670   2.656  1.00  0.00    -0.392 OA
ATOM     10  H3  UNL     1      14.821  20.143   2.257  1.00  0.00     0.210 HD
ENDBRANCH   6   9
BRANCH   4  11
HETATM   11  O2  UNL     1      12.311  22.694   6.356  1.00  0.00    -0.393 OA
ATOM     12  H2  UNL     1      11.400  22.427   6.359  1.00  0.00     0.210 HD
ENDBRANCH   4  11
TORSDOF 3
ENDMDL
MODEL 3
REMARK VINA RESULT: -5.523617049      1.533      1.796
REMARK  3 active torsions:
REMARK  status: ('A' for Active; 'I' for Inactive)
REMARK    1  A    between atoms: C2_2  and  C3_3 
REMARK    2  A    between atoms: C5_6  and  O2_7 
REMARK    3  A    between atoms: C7_10  and  O3_11 
ROOT
HETATM    1  C3  UNL     1      15.119  22.279   3.789  1.00  0.00     0.133 A 
HETATM    2  O1  UNL     1      14.281  22.349   2.684  1.00  0.00    -0.359 OA
HETATM    3  C4  UNL     1      14.231  21.187   3.398  1.00  0.00     0.193 A 
HETATM    4  C5  UNL     1      13.302  21.018   4.570  1.00  0.00     0.153 C 
HETATM    5  C6  UNL     1      13.310  22.300   5.335  1.00  0.00     0.069 C 
HETATM    6  C7  UNL     1      14.618  22.956   5.013  1.00  0.00     0.162 C 
ENDROOT
BRANCH   1   7
HETATM    7  C2  UNL     1      16.574  22.055   3.599  1.00  0.00     0.006 C 
HETATM    8  C1  UNL     1      17.258  22.788   2.739  1.00  0.00     0.010 C 
ENDBRANCH   1   7
BRANCH   6   9
HETATM    9  O3  UNL     1      15.508  22.978   6.061  1.00  0.00    -0.392 OA
ATOM     10  H3  UNL     1      16.234  23.582   5.951  1.00  0.00     0.210 HD
ENDBRANCH   6   9
BRANCH   4  11
HETATM   11  O2  UNL     1      12.060  20.611   4.157  1.00  0.00    -0.393 OA
ATOM     12  H2  UNL     1      11.381  20.973   4.713  1.00  0.00     0.210 HD
ENDBRANCH   4  11
TORSDOF 3
ENDMDL
MODEL 4
REMARK VINA RESULT: -5.442962987      1.532      3.281
REMARK  3 active torsions:
REMARK  status: ('A' for Active; 'I' for Inactive)
REMARK    1  A    between atoms: C2_2  and  C3_3 
REMARK    2  A    between atoms: C5_6  and  O2_7 
REMARK    3  A    between atoms: C7_10  and  O3_11 
ROOT
HETATM    1  C3  UNL     1      15.038  21.728   4.093  1.00  0.00     0.133 A 
HETATM    2  O1  UNL     1      14.726  21.240   2.832  1.00  0.00    -0.359 OA
HETATM    3  C4  UNL     1      15.051  22.563   2.895  1.00  0.00     0.193 A 
HETATM    4  C5  UNL     1      16.475  23.034   2.779  1.00  0.00     0.153 C 
HETATM    5  C6  UNL     1      17.327  22.076   3.543  1.00  0.00     0.069 C 
HETATM    6  C7  UNL     1      16.421  21.451   4.560  1.00  0.00     0.162 C 
ENDROOT
BRANCH   1   7
HETATM    7  C2  UNL     1      13.954  21.986   5.074  1.00  0.00     0.006 C 
HETATM    8  C1  UNL     1      12.890  21.206   5.116  1.00  0.00     0.010 C 
ENDBRANCH   1   7
BRANCH   6   9
HETATM    9  O3  UNL     1      16.678  21.837   5.854  1.00  0.00    -0.392 OA
ATOM     10  H3  UNL     1      17.600  21.916   6.068  1.00  0.00     0.210 HD
ENDBRANCH   6   9
BRANCH   4  11
HETATM   11  O2  UNL     1      16.836  23.191   1.465  1.00  0.00    -0.393 OA
ATOM     12  H2  UNL     1      17.775  23.100   1.356  1.00  0.00     0.210 HD
ENDBRANCH   4  11
TORSDOF 3
ENDMDL
MODEL 5
REMARK VINA RESULT: -5.430155106      1.683      3.627
REMARK  3 active torsions:
REMARK  status: ('A' for Active; 'I' for Inactive)
REMARK    1  A    between atoms: C2_2  and  C3_3 
REMARK    2  A    between atoms: C5_6  and  O2_7 
REMARK    3  A    between atoms: C7_10  and  O3_11 
ROOT
HETATM    1  C3  UNL     1      14.729  22.435   4.710  1.00  0.00     0.133 A 
HETATM    2  O1  UNL     1      15.315  22.823   5.907  1.00  0.00    -0.359 OA
HETATM    3  C4  UNL     1      15.489  21.517   5.554  1.00  0.00     0.193 A 
HETATM    4  C5  UNL     1      16.640  21.077   4.692  1.00  0.00     0.153 C 
HETATM    5  C6  UNL     1      16.824  22.110   3.630  1.00  0.00     0.069 C 
HETATM    6  C7  UNL     1      15.493  22.782   3.484  1.00  0.00     0.162 C 
ENDROOT
BRANCH   1   7
HETATM    7  C2  UNL     1      13.262  22.219   4.642  1.00  0.00     0.006 C 
HETATM    8  C1  UNL     1      12.432  23.076   5.209  1.00  0.00     0.010 C 
ENDBRANCH   1   7
BRANCH   6   9
HETATM    9  O3  UNL     1      14.846  22.496   2.305  1.00  0.00    -0.392 OA
ATOM     10  H3  UNL     1      14.611  21.582   2.193  1.00  0.00     0.210 HD
ENDBRANCH   6   9
BRANCH   4  11
HETATM   11  O2  UNL     1      17.757  20.836   5.449  1.00  0.00    -0.393 OA
ATOM     12  H2  UNL     1      17.615  20.109   6.045  1.00  0.00     0.210 HD
ENDBRANCH   4  11
TORSDOF 3
ENDMDL
