MODEL 1
REMARK VINA RESULT: -9.786707104      0.000      0.000
REMARK  9 active torsions:
REMARK  status: ('A' for Active; 'I' for Inactive)
REMARK       I    between atoms: C2_2  and  N1_4 
REMARK    1  A    between atoms: N1_4  and  C3_6 
REMARK    2  A    between atoms: C5_8  and  N2_9 
REMARK    3  A    between atoms: N2_9  and  C6_11 
REMARK    4  A    between atoms: C6_11  and  N3_12 
REMARK    5  A    between atoms: C6_11  and  C7_16 
REMARK    6  A    between atoms: C8_19  and  C9_20 
REMARK       I    between atoms: N6_24  and  C11_26 
REMARK       I    between atoms: C11_26  and  N7_27 
REMARK       I    between atoms: C11_26  and  N8_31 
REMARK    7  A    between atoms: N12_42  and  C13_43 
REMARK    8  A    between atoms: C13_43  and  O3_44 
REMARK    9  A    between atoms: C14_46  and  O4_47 
ROOT
HETATM    1  C7  UNL     1      63.061   7.994  82.734  1.00  0.00     0.148 A 
HETATM    2  N4  UNL     1      63.845   7.772  83.804  1.00  0.00    -0.323 N 
ATOM      3  H4  UNL     1      64.383   8.491  84.288  1.00  0.00     0.169 HD
HETATM    4  C8  UNL     1      63.821   6.478  84.150  1.00  0.00     0.170 A 
HETATM    5  N10 UNL     1      63.001   5.876  83.272  1.00  0.00    -0.276 N 
HETATM    6  C12 UNL     1      62.665   4.457  83.251  1.00  0.00     0.179 C 
HETATM    7  N11 UNL     1      62.539   6.797  82.411  1.00  0.00    -0.282 N 
ATOM      8  H11 UNL     1      61.898   6.618  81.638  1.00  0.00     0.188 HD
ENDROOT
BRANCH   1   9
HETATM    9  C6  UNL     1      62.807   9.287  82.033  1.00  0.00     0.352 C 
BRANCH   9  10
HETATM   10  N2  UNL     1      64.003   9.870  81.512  1.00  0.00    -0.343 N 
ATOM     11  H2  UNL     1      64.551  10.506  82.092  1.00  0.00     0.163 HD
BRANCH  10  12
HETATM   12  C5  UNL     1      64.433   9.571  80.196  1.00  0.00     0.111 A 
HETATM   13  C4  UNL     1      64.359   8.323  79.567  1.00  0.00     0.082 A 
HETATM   14  C3  UNL     1      64.862   8.388  78.291  1.00  0.00     0.090 A 
HETATM   15  C14 UNL     1      65.250   9.728  78.155  1.00  0.00     0.173 A 
HETATM   16  N12 UNL     1      64.980  10.375  79.286  1.00  0.00    -0.290 N 
BRANCH  14  17
HETATM   17  N1  UNL     1      64.986   7.391  77.311  1.00  0.00    -0.324 N 
HETATM   18  C2  UNL     1      64.262   6.201  77.298  1.00  0.00     0.218 C 
HETATM   19  C1  UNL     1      64.443   5.170  76.214  1.00  0.00     0.117 C 
HETATM   20  O1  UNL     1      63.427   5.953  78.202  1.00  0.00    -0.274 OA
ATOM     21  H1  UNL     1      65.653   7.548  76.555  1.00  0.00     0.169 HD
ENDBRANCH  14  17
BRANCH  15  22
HETATM   22  O4  UNL     1      65.818  10.247  77.003  1.00  0.00    -0.344 OA
ATOM     23  H4  UNL     1      65.576  11.086  76.630  1.00  0.00     0.219 HD
ENDBRANCH  15  22
BRANCH  16  24
HETATM   24  C13 UNL     1      65.279  11.809  79.446  1.00  0.00     0.299 C 
BRANCH  24  25
HETATM   25  O3  UNL     1      64.069  12.457  79.591  1.00  0.00    -0.382 OA
ATOM     26  H3  UNL     1      63.752  12.649  78.717  1.00  0.00     0.211 HD
ENDBRANCH  24  25
ENDBRANCH  16  24
ENDBRANCH  10  12
ENDBRANCH   9  10
BRANCH   9  27
HETATM   27  N3  UNL     1      62.109  10.214  82.870  1.00  0.00    -0.051 N 
ATOM     28  H33 UNL     1      62.199   9.971  83.856  1.00  0.00     0.277 HD
ATOM     29  H32 UNL     1      62.572  11.123  82.892  1.00  0.00     0.277 HD
ATOM     30  H31 UNL     1      61.132  10.295  82.588  1.00  0.00     0.277 HD
ENDBRANCH   9  27
ENDBRANCH   1   9
BRANCH   4  31
HETATM   31  C9  UNL     1      64.517   5.801  85.239  1.00  0.00     0.175 A 
HETATM   32  N5  UNL     1      65.032   4.568  85.275  1.00  0.00    -0.302 N 
HETATM   33  C10 UNL     1      65.585   4.343  86.471  1.00  0.00     0.247 A 
ATOM     34  H5  UNL     1      65.007   3.899  84.505  1.00  0.00     0.171 HD
HETATM   35  N6  UNL     1      66.186   3.295  86.926  1.00  0.00    -0.305 N 
HETATM   36  O2  UNL     1      65.415   5.429  87.172  1.00  0.00    -0.199 OA
HETATM   37  C11 UNL     1      66.374   2.092  86.146  1.00  0.00     0.483 C 
ATOM     38  H6  UNL     1      66.544   3.317  87.881  1.00  0.00     0.166 HD
HETATM   39  N7  UNL     1      65.296   1.987  85.208  1.00  0.00    -0.033 N 
HETATM   40  N8  UNL     1      67.649   2.087  85.460  1.00  0.00    -0.033 N 
ATOM     41  H73 UNL     1      64.381   2.024  85.657  1.00  0.00     0.278 HD
ATOM     42  H72 UNL     1      65.200   2.819  84.626  1.00  0.00     0.278 HD
ATOM     43  H71 UNL     1      65.429   1.139  84.658  1.00  0.00     0.278 HD
ATOM     44  H83 UNL     1      67.765   2.922  84.886  1.00  0.00     0.278 HD
ATOM     45  H82 UNL     1      68.421   2.232  86.111  1.00  0.00     0.278 HD
ATOM     46  H81 UNL     1      67.782   1.239  84.911  1.00  0.00     0.278 HD
HETATM   47  N9  UNL     1      64.782   6.317  86.467  1.00  0.00    -0.238 N 
ATOM     48  H9  UNL     1      64.525   7.251  86.785  1.00  0.00     0.197 HD
ENDBRANCH   4  31
TORSDOF 9
ENDMDL
MODEL 2
REMARK VINA RESULT: -9.122084022      2.267      3.775
REMARK  9 active torsions:
REMARK  status: ('A' for Active; 'I' for Inactive)
REMARK       I    between atoms: C2_2  and  N1_4 
REMARK    1  A    between atoms: N1_4  and  C3_6 
REMARK    2  A    between atoms: C5_8  and  N2_9 
REMARK    3  A    between atoms: N2_9  and  C6_11 
REMARK    4  A    between atoms: C6_11  and  N3_12 
REMARK    5  A    between atoms: C6_11  and  C7_16 
REMARK    6  A    between atoms: C8_19  and  C9_20 
REMARK       I    between atoms: N6_24  and  C11_26 
REMARK       I    between atoms: C11_26  and  N7_27 
REMARK       I    between atoms: C11_26  and  N8_31 
REMARK    7  A    between atoms: N12_42  and  C13_43 
REMARK    8  A    between atoms: C13_43  and  O3_44 
REMARK    9  A    between atoms: C14_46  and  O4_47 
ROOT
HETATM    1  C7  UNL     1      64.205   6.014  84.768  1.00  0.00     0.148 A 
HETATM    2  N4  UNL     1      64.370   4.782  84.254  1.00  0.00    -0.323 N 
ATOM      3  H4  UNL     1      64.000   4.474  83.354  1.00  0.00     0.169 HD
HETATM    4  C8  UNL     1      65.087   4.013  85.084  1.00  0.00     0.170 A 
HETATM    5  N10 UNL     1      65.379   4.785  86.145  1.00  0.00    -0.276 N 
HETATM    6  C12 UNL     1      66.148   4.376  87.314  1.00  0.00     0.179 C 
HETATM    7  N11 UNL     1      64.842   6.001  85.953  1.00  0.00    -0.282 N 
ATOM      8  H11 UNL     1      64.907   6.787  86.601  1.00  0.00     0.188 HD
ENDROOT
BRANCH   1   9
HETATM    9  C6  UNL     1      63.475   7.170  84.169  1.00  0.00     0.352 C 
BRANCH   9  10
HETATM   10  N2  UNL     1      62.875   6.845  82.914  1.00  0.00    -0.343 N 
ATOM     11  H2  UNL     1      62.316   5.996  82.824  1.00  0.00     0.163 HD
BRANCH  10  12
HETATM   12  C5  UNL     1      63.051   7.693  81.793  1.00  0.00     0.111 A 
HETATM   13  C4  UNL     1      64.029   7.557  80.801  1.00  0.00     0.082 A 
HETATM   14  C3  UNL     1      63.912   8.551  79.861  1.00  0.00     0.090 A 
HETATM   15  C14 UNL     1      62.822   9.308  80.310  1.00  0.00     0.173 A 
HETATM   16  N12 UNL     1      62.356   8.770  81.435  1.00  0.00    -0.290 N 
BRANCH  14  17
HETATM   17  N1  UNL     1      64.669   8.803  78.705  1.00  0.00    -0.324 N 
HETATM   18  C2  UNL     1      64.885   7.879  77.686  1.00  0.00     0.218 C 
HETATM   19  C1  UNL     1      65.710   8.215  76.469  1.00  0.00     0.117 C 
HETATM   20  O1  UNL     1      64.392   6.727  77.753  1.00  0.00    -0.274 OA
ATOM     21  H1  UNL     1      65.090   9.727  78.605  1.00  0.00     0.169 HD
ENDBRANCH  14  17
BRANCH  15  22
HETATM   22  O4  UNL     1      62.344  10.428  79.651  1.00  0.00    -0.344 OA
ATOM     23  H4  UNL     1      61.759  11.063  80.049  1.00  0.00     0.219 HD
ENDBRANCH  15  22
BRANCH  16  24
HETATM   24  C13 UNL     1      61.204   9.350  82.149  1.00  0.00     0.299 C 
BRANCH  24  25
HETATM   25  O3  UNL     1      61.704   9.995  83.261  1.00  0.00    -0.382 OA
ATOM     26  H3  UNL     1      61.525   9.436  84.008  1.00  0.00     0.211 HD
ENDBRANCH  24  25
ENDBRANCH  16  24
ENDBRANCH  10  12
ENDBRANCH   9  10
BRANCH   9  27
HETATM   27  N3  UNL     1      64.313   8.322  84.053  1.00  0.00    -0.051 N 
ATOM     28  H33 UNL     1      64.966   8.235  83.274  1.00  0.00     0.277 HD
ATOM     29  H32 UNL     1      63.791   9.135  83.726  1.00  0.00     0.277 HD
ATOM     30  H31 UNL     1      64.796   8.512  84.931  1.00  0.00     0.277 HD
ENDBRANCH   9  27
ENDBRANCH   1   9
BRANCH   4  31
HETATM   31  C9  UNL     1      65.500   2.622  84.928  1.00  0.00     0.175 A 
HETATM   32  N5  UNL     1      64.919   1.512  85.395  1.00  0.00    -0.302 N 
HETATM   33  C10 UNL     1      65.626   0.440  85.022  1.00  0.00     0.247 A 
ATOM     34  H5  UNL     1      64.066   1.486  85.953  1.00  0.00     0.171 HD
HETATM   35  N6  UNL     1      65.423  -0.812  85.256  1.00  0.00    -0.305 N 
HETATM   36  O2  UNL     1      66.637   0.882  84.328  1.00  0.00    -0.199 OA
HETATM   37  C11 UNL     1      64.301  -1.301  86.026  1.00  0.00     0.483 C 
ATOM     38  H6  UNL     1      66.087  -1.490  84.881  1.00  0.00     0.166 HD
HETATM   39  N7  UNL     1      63.931  -0.294  86.976  1.00  0.00    -0.033 N 
HETATM   40  N8  UNL     1      63.175  -1.643  85.182  1.00  0.00    -0.033 N 
ATOM     41  H73 UNL     1      64.713  -0.004  87.564  1.00  0.00     0.278 HD
ATOM     42  H72 UNL     1      63.743   0.608  86.539  1.00  0.00     0.278 HD
ATOM     43  H71 UNL     1      63.140  -0.638  87.519  1.00  0.00     0.278 HD
ATOM     44  H83 UNL     1      62.905  -0.858  84.589  1.00  0.00     0.278 HD
ATOM     45  H82 UNL     1      63.444  -2.307  84.457  1.00  0.00     0.278 HD
ATOM     46  H81 UNL     1      62.384  -1.987  85.724  1.00  0.00     0.278 HD
HETATM   47  N9  UNL     1      66.591   2.178  84.253  1.00  0.00    -0.238 N 
ATOM     48  H9  UNL     1      67.266   2.767  83.767  1.00  0.00     0.197 HD
ENDBRANCH   4  31
TORSDOF 9
ENDMDL
MODEL 3
REMARK VINA RESULT: -9.118248690      1.422      2.058
REMARK  9 active torsions:
REMARK  status: ('A' for Active; 'I' for Inactive)
REMARK       I    between atoms: C2_2  and  N1_4 
REMARK    1  A    between atoms: N1_4  and  C3_6 
REMARK    2  A    between atoms: C5_8  and  N2_9 
REMARK    3  A    between atoms: N2_9  and  C6_11 
REMARK    4  A    between atoms: C6_11  and  N3_12 
REMARK    5  A    between atoms: C6_11  and  C7_16 
REMARK    6  A    between atoms: C8_19  and  C9_20 
REMARK       I    between atoms: N6_24  and  C11_26 
REMARK       I    between atoms: C11_26  and  N7_27 
REMARK       I    between atoms: C11_26  and  N8_31 
REMARK    7  A    between atoms: N12_42  and  C13_43 
REMARK    8  A    between atoms: C13_43  and  O3_44 
REMARK    9  A    between atoms: C14_46  and  O4_47 
ROOT
HETATM    1  C7  UNL     1      63.132   8.099  82.833  1.00  0.00     0.148 A 
HETATM    2  N4  UNL     1      63.010   6.812  82.460  1.00  0.00    -0.323 N 
ATOM      3  H4  UNL     1      62.647   6.502  81.558  1.00  0.00     0.169 HD
HETATM    4  C8  UNL     1      63.429   5.993  83.433  1.00  0.00     0.170 A 
HETATM    5  N10 UNL     1      63.825   6.790  84.441  1.00  0.00    -0.276 N 
HETATM    6  C12 UNL     1      64.361   6.344  85.722  1.00  0.00     0.179 C 
HETATM    7  N11 UNL     1      63.644   8.069  84.077  1.00  0.00    -0.282 N 
ATOM      8  H11 UNL     1      63.859   8.885  84.650  1.00  0.00     0.188 HD
ENDROOT
BRANCH   1   9
HETATM    9  C6  UNL     1      62.781   9.321  82.050  1.00  0.00     0.352 C 
BRANCH   9  10
HETATM   10  N2  UNL     1      63.933   9.969  81.507  1.00  0.00    -0.343 N 
ATOM     11  H2  UNL     1      64.432  10.665  82.062  1.00  0.00     0.163 HD
BRANCH  10  12
HETATM   12  C5  UNL     1      64.387   9.651  80.203  1.00  0.00     0.111 A 
HETATM   13  C4  UNL     1      64.326   8.394  79.592  1.00  0.00     0.082 A 
HETATM   14  C3  UNL     1      64.853   8.441  78.324  1.00  0.00     0.090 A 
HETATM   15  C14 UNL     1      65.242   9.779  78.175  1.00  0.00     0.173 A 
HETATM   16  N12 UNL     1      64.950  10.442  79.292  1.00  0.00    -0.290 N 
BRANCH  14  17
HETATM   17  N1  UNL     1      64.996   7.430  77.361  1.00  0.00    -0.324 N 
HETATM   18  C2  UNL     1      64.271   6.241  77.350  1.00  0.00     0.218 C 
HETATM   19  C1  UNL     1      64.473   5.194  76.284  1.00  0.00     0.117 C 
HETATM   20  O1  UNL     1      63.416   6.007  78.240  1.00  0.00    -0.274 OA
ATOM     21  H1  UNL     1      65.679   7.576  76.617  1.00  0.00     0.169 HD
ENDBRANCH  14  17
BRANCH  15  22
HETATM   22  O4  UNL     1      65.830  10.282  77.027  1.00  0.00    -0.344 OA
ATOM     23  H4  UNL     1      65.357  10.770  76.364  1.00  0.00     0.219 HD
ENDBRANCH  15  22
BRANCH  16  24
HETATM   24  C13 UNL     1      65.244  11.879  79.436  1.00  0.00     0.299 C 
BRANCH  24  25
HETATM   25  O3  UNL     1      64.037  12.518  79.633  1.00  0.00    -0.382 OA
ATOM     26  H3  UNL     1      63.922  12.607  80.571  1.00  0.00     0.211 HD
ENDBRANCH  24  25
ENDBRANCH  16  24
ENDBRANCH  10  12
ENDBRANCH   9  10
BRANCH   9  27
HETATM   27  N3  UNL     1      61.996  10.235  82.819  1.00  0.00    -0.051 N 
ATOM     28  H33 UNL     1      61.405  10.816  82.225  1.00  0.00     0.277 HD
ATOM     29  H32 UNL     1      61.263   9.754  83.342  1.00  0.00     0.277 HD
ATOM     30  H31 UNL     1      62.587  10.799  83.431  1.00  0.00     0.277 HD
ENDBRANCH   9  27
ENDBRANCH   1   9
BRANCH   4  31
HETATM   31  C9  UNL     1      63.474   4.535  83.457  1.00  0.00     0.175 A 
HETATM   32  N5  UNL     1      64.385   3.727  84.009  1.00  0.00    -0.302 N 
HETATM   33  C10 UNL     1      64.044   2.451  83.799  1.00  0.00     0.247 A 
ATOM     34  H5  UNL     1      65.214   4.037  84.515  1.00  0.00     0.171 HD
HETATM   35  N6  UNL     1      64.638   1.363  84.156  1.00  0.00    -0.305 N 
HETATM   36  O2  UNL     1      62.931   2.468  83.121  1.00  0.00    -0.199 OA
HETATM   37  C11 UNL     1      65.873   1.346  84.908  1.00  0.00     0.483 C 
ATOM     38  H6  UNL     1      64.216   0.472  83.895  1.00  0.00     0.166 HD
HETATM   39  N7  UNL     1      66.614   2.531  84.588  1.00  0.00    -0.033 N 
HETATM   40  N8  UNL     1      65.636   1.264  86.334  1.00  0.00    -0.033 N 
ATOM     41  H73 UNL     1      66.767   2.638  83.585  1.00  0.00     0.278 HD
ATOM     42  H72 UNL     1      66.075   3.383  84.738  1.00  0.00     0.278 HD
ATOM     43  H71 UNL     1      67.484   2.519  85.118  1.00  0.00     0.278 HD
ATOM     44  H83 UNL     1      65.018   2.011  86.651  1.00  0.00     0.278 HD
ATOM     45  H82 UNL     1      65.049   0.463  86.566  1.00  0.00     0.278 HD
ATOM     46  H81 UNL     1      66.506   1.252  86.865  1.00  0.00     0.278 HD
HETATM   47  N9  UNL     1      62.564   3.694  82.901  1.00  0.00    -0.238 N 
ATOM     48  H9  UNL     1      61.728   3.979  82.392  1.00  0.00     0.197 HD
ENDBRANCH   4  31
TORSDOF 9
ENDMDL
MODEL 4
REMARK VINA RESULT: -9.094159145      1.764      2.554
REMARK  9 active torsions:
REMARK  status: ('A' for Active; 'I' for Inactive)
REMARK       I    between atoms: C2_2  and  N1_4 
REMARK    1  A    between atoms: N1_4  and  C3_6 
REMARK    2  A    between atoms: C5_8  and  N2_9 
REMARK    3  A    between atoms: N2_9  and  C6_11 
REMARK    4  A    between atoms: C6_11  and  N3_12 
REMARK    5  A    between atoms: C6_11  and  C7_16 
REMARK    6  A    between atoms: C8_19  and  C9_20 
REMARK       I    between atoms: N6_24  and  C11_26 
REMARK       I    between atoms: C11_26  and  N7_27 
REMARK       I    between atoms: C11_26  and  N8_31 
REMARK    7  A    between atoms: N12_42  and  C13_43 
REMARK    8  A    between atoms: C13_43  and  O3_44 
REMARK    9  A    between atoms: C14_46  and  O4_47 
ROOT
HETATM    1  C7  UNL     1      63.474   5.667  83.201  1.00  0.00     0.148 A 
HETATM    2  N4  UNL     1      64.223   4.609  83.558  1.00  0.00    -0.323 N 
ATOM      3  H4  UNL     1      64.592   3.913  82.909  1.00  0.00     0.169 HD
HETATM    4  C8  UNL     1      64.420   4.591  84.883  1.00  0.00     0.170 A 
HETATM    5  N10 UNL     1      63.777   5.668  85.366  1.00  0.00    -0.276 N 
HETATM    6  C12 UNL     1      63.710   6.065  86.768  1.00  0.00     0.179 C 
HETATM    7  N11 UNL     1      63.202   6.322  84.345  1.00  0.00    -0.282 N 
ATOM      8  H11 UNL     1      62.648   7.175  84.422  1.00  0.00     0.188 HD
ENDROOT
BRANCH   1   9
HETATM    9  C6  UNL     1      63.027   6.057  81.831  1.00  0.00     0.352 C 
BRANCH   9  10
HETATM   10  N2  UNL     1      62.981   7.474  81.655  1.00  0.00    -0.343 N 
ATOM     11  H2  UNL     1      62.438   8.048  82.300  1.00  0.00     0.163 HD
BRANCH  10  12
HETATM   12  C5  UNL     1      63.686   8.088  80.591  1.00  0.00     0.111 A 
HETATM   13  C4  UNL     1      63.977   7.508  79.350  1.00  0.00     0.082 A 
HETATM   14  C3  UNL     1      64.672   8.383  78.553  1.00  0.00     0.090 A 
HETATM   15  C14 UNL     1      64.801   9.529  79.350  1.00  0.00     0.173 A 
HETATM   16  N12 UNL     1      64.212   9.309  80.523  1.00  0.00    -0.290 N 
BRANCH  14  17
HETATM   17  N1  UNL     1      65.164   8.229  77.247  1.00  0.00    -0.324 N 
HETATM   18  C2  UNL     1      65.194   7.023  76.552  1.00  0.00     0.218 C 
HETATM   19  C1  UNL     1      65.736   6.925  75.148  1.00  0.00     0.117 C 
HETATM   20  O1  UNL     1      64.763   5.970  77.082  1.00  0.00    -0.274 OA
ATOM     21  H1  UNL     1      65.525   9.058  76.774  1.00  0.00     0.169 HD
ENDBRANCH  14  17
BRANCH  15  22
HETATM   22  O4  UNL     1      65.446  10.682  78.934  1.00  0.00    -0.344 OA
ATOM     23  H4  UNL     1      65.043  11.338  78.378  1.00  0.00     0.219 HD
ENDBRANCH  15  22
BRANCH  16  24
HETATM   24  C13 UNL     1      64.183  10.339  81.577  1.00  0.00     0.299 C 
BRANCH  24  25
HETATM   25  O3  UNL     1      63.551  11.443  81.043  1.00  0.00    -0.382 OA
ATOM     26  H3  UNL     1      64.212  12.115  80.938  1.00  0.00     0.211 HD
ENDBRANCH  24  25
ENDBRANCH  16  24
ENDBRANCH  10  12
ENDBRANCH   9  10
BRANCH   9  27
HETATM   27  N3  UNL     1      61.772   5.459  81.494  1.00  0.00    -0.051 N 
ATOM     28  H33 UNL     1      61.350   4.992  82.297  1.00  0.00     0.277 HD
ATOM     29  H32 UNL     1      61.053   6.163  81.329  1.00  0.00     0.277 HD
ATOM     30  H31 UNL     1      61.871   4.827  80.700  1.00  0.00     0.277 HD
ENDBRANCH   9  27
ENDBRANCH   1   9
BRANCH   4  31
HETATM   31  C9  UNL     1      65.165   3.633  85.693  1.00  0.00     0.175 A 
HETATM   32  N5  UNL     1      64.941   2.328  85.876  1.00  0.00    -0.302 N 
HETATM   33  C10 UNL     1      65.866   1.821  86.698  1.00  0.00     0.247 A 
ATOM     34  H5  UNL     1      64.179   1.798  85.453  1.00  0.00     0.171 HD
HETATM   35  N6  UNL     1      66.019   0.617  87.135  1.00  0.00    -0.305 N 
HETATM   36  O2  UNL     1      66.658   2.804  87.021  1.00  0.00    -0.199 OA
HETATM   37  C11 UNL     1      65.139  -0.473  86.775  1.00  0.00     0.483 C 
ATOM     38  H6  UNL     1      66.797   0.425  87.766  1.00  0.00     0.166 HD
HETATM   39  N7  UNL     1      63.838   0.065  86.508  1.00  0.00    -0.033 N 
HETATM   40  N8  UNL     1      65.631  -1.208  85.628  1.00  0.00    -0.033 N 
ATOM     41  H73 UNL     1      63.477   0.620  87.284  1.00  0.00     0.278 HD
ATOM     42  H72 UNL     1      63.855   0.804  85.805  1.00  0.00     0.278 HD
ATOM     43  H71 UNL     1      63.218  -0.703  86.254  1.00  0.00     0.278 HD
ATOM     44  H83 UNL     1      65.799  -0.589  84.835  1.00  0.00     0.278 HD
ATOM     45  H82 UNL     1      66.585  -1.536  85.780  1.00  0.00     0.278 HD
ATOM     46  H81 UNL     1      65.011  -1.976  85.374  1.00  0.00     0.278 HD
HETATM   47  N9  UNL     1      66.268   3.897  86.439  1.00  0.00    -0.238 N 
ATOM     48  H9  UNL     1      66.718   4.808  86.529  1.00  0.00     0.197 HD
ENDBRANCH   4  31
TORSDOF 9
ENDMDL
MODEL 5
REMARK VINA RESULT: -9.066970290      1.608      2.029
REMARK  9 active torsions:
REMARK  status: ('A' for Active; 'I' for Inactive)
REMARK       I    between atoms: C2_2  and  N1_4 
REMARK    1  A    between atoms: N1_4  and  C3_6 
REMARK    2  A    between atoms: C5_8  and  N2_9 
REMARK    3  A    between atoms: N2_9  and  C6_11 
REMARK    4  A    between atoms: C6_11  and  N3_12 
REMARK    5  A    between atoms: C6_11  and  C7_16 
REMARK    6  A    between atoms: C8_19  and  C9_20 
REMARK       I    between atoms: N6_24  and  C11_26 
REMARK       I    between atoms: C11_26  and  N7_27 
REMARK       I    between atoms: C11_26  and  N8_31 
REMARK    7  A    between atoms: N12_42  and  C13_43 
REMARK    8  A    between atoms: C13_43  and  O3_44 
REMARK    9  A    between atoms: C14_46  and  O4_47 
ROOT
HETATM    1  C7  UNL     1      63.350   6.996  81.938  1.00  0.00     0.148 A 
HETATM    2  N4  UNL     1      63.530   5.848  82.616  1.00  0.00    -0.323 N 
ATOM      3  H4  UNL     1      63.339   4.918  82.243  1.00  0.00     0.169 HD
HETATM    4  C8  UNL     1      63.994   6.093  83.849  1.00  0.00     0.170 A 
HETATM    5  N10 UNL     1      64.108   7.429  83.942  1.00  0.00    -0.276 N 
HETATM    6  C12 UNL     1      64.577   8.166  85.110  1.00  0.00     0.179 C 
HETATM    7  N11 UNL     1      63.716   7.978  82.782  1.00  0.00    -0.282 N 
ATOM      8  H11 UNL     1      63.698   8.977  82.573  1.00  0.00     0.188 HD
ENDROOT
BRANCH   1   9
HETATM    9  C6  UNL     1      62.851   7.170  80.542  1.00  0.00     0.352 C 
BRANCH   9  10
HETATM   10  N2  UNL     1      62.897   8.532  80.112  1.00  0.00    -0.343 N 
ATOM     11  H2  UNL     1      62.152   9.174  80.384  1.00  0.00     0.163 HD
BRANCH  10  12
HETATM   12  C5  UNL     1      63.969   8.997  79.312  1.00  0.00     0.111 A 
HETATM   13  C4  UNL     1      64.613   8.279  78.297  1.00  0.00     0.082 A 
HETATM   14  C3  UNL     1      65.608   9.032  77.723  1.00  0.00     0.090 A 
HETATM   15  C14 UNL     1      65.554  10.245  78.423  1.00  0.00     0.173 A 
HETATM   16  N12 UNL     1      64.587  10.176  79.335  1.00  0.00    -0.290 N 
BRANCH  14  17
HETATM   17  N1  UNL     1      66.498   8.720  76.683  1.00  0.00    -0.324 N 
HETATM   18  C2  UNL     1      66.494   7.522  75.972  1.00  0.00     0.218 C 
HETATM   19  C1  UNL     1      67.479   7.250  74.864  1.00  0.00     0.117 C 
HETATM   20  O1  UNL     1      65.656   6.626  76.238  1.00  0.00    -0.274 OA
ATOM     21  H1  UNL     1      67.197   9.419  76.431  1.00  0.00     0.169 HD
ENDBRANCH  14  17
BRANCH  15  22
HETATM   22  O4  UNL     1      66.396  11.314  78.168  1.00  0.00    -0.344 OA
ATOM     23  H4  UNL     1      66.781  11.854  78.847  1.00  0.00     0.219 HD
ENDBRANCH  15  22
BRANCH  16  24
HETATM   24  C13 UNL     1      64.289  11.308  80.231  1.00  0.00     0.299 C 
BRANCH  24  25
HETATM   25  O3  UNL     1      64.045  12.403  79.427  1.00  0.00    -0.382 OA
ATOM     26  H3  UNL     1      63.827  13.125  80.004  1.00  0.00     0.211 HD
ENDBRANCH  24  25
ENDBRANCH  16  24
ENDBRANCH  10  12
ENDBRANCH   9  10
BRANCH   9  27
HETATM   27  N3  UNL     1      61.540   6.626  80.376  1.00  0.00    -0.051 N 
ATOM     28  H33 UNL     1      61.350   5.889  81.056  1.00  0.00     0.277 HD
ATOM     29  H32 UNL     1      60.818   7.288  80.662  1.00  0.00     0.277 HD
ATOM     30  H31 UNL     1      61.397   6.302  79.419  1.00  0.00     0.277 HD
ENDBRANCH   9  27
ENDBRANCH   1   9
BRANCH   4  31
HETATM   31  C9  UNL     1      64.327   5.152  84.913  1.00  0.00     0.175 A 
HETATM   32  N5  UNL     1      65.034   4.019  84.847  1.00  0.00    -0.302 N 
HETATM   33  C10 UNL     1      65.101   3.457  86.059  1.00  0.00     0.247 A 
ATOM     34  H5  UNL     1      65.458   3.641  84.001  1.00  0.00     0.171 HD
HETATM   35  N6  UNL     1      65.679   2.368  86.439  1.00  0.00    -0.305 N 
HETATM   36  O2  UNL     1      64.441   4.236  86.869  1.00  0.00    -0.199 OA
HETATM   37  C11 UNL     1      66.411   1.506  85.539  1.00  0.00     0.483 C 
ATOM     38  H6  UNL     1      65.615   2.102  87.422  1.00  0.00     0.166 HD
HETATM   39  N7  UNL     1      65.843   1.632  84.229  1.00  0.00    -0.033 N 
HETATM   40  N8  UNL     1      67.824   1.825  85.514  1.00  0.00    -0.033 N 
ATOM     41  H73 UNL     1      64.840   1.449  84.218  1.00  0.00     0.278 HD
ATOM     42  H72 UNL     1      65.811   2.599  83.907  1.00  0.00     0.278 HD
ATOM     43  H71 UNL     1      66.360   1.024  83.594  1.00  0.00     0.278 HD
ATOM     44  H83 UNL     1      67.977   2.809  85.293  1.00  0.00     0.278 HD
ATOM     45  H82 UNL     1      68.223   1.807  86.452  1.00  0.00     0.278 HD
ATOM     46  H81 UNL     1      68.340   1.218  84.879  1.00  0.00     0.278 HD
HETATM   47  N9  UNL     1      63.967   5.254  86.218  1.00  0.00    -0.238 N 
ATOM     48  H9  UNL     1      63.413   6.009  86.622  1.00  0.00     0.197 HD
ENDBRANCH   4  31
TORSDOF 9
ENDMDL
