MODEL 1
REMARK VINA RESULT: -9.183173342      0.000      0.000
REMARK  12 active torsions:
REMARK  status: ('A' for Active; 'I' for Inactive)
REMARK    1  A    between atoms: C2_2  and  N1_3 
REMARK    2  A    between atoms: C2_2  and  C10_33 
REMARK    3  A    between atoms: N1_3  and  C3_4 
REMARK    4  A    between atoms: C4_10  and  O2_11 
REMARK    5  A    between atoms: O2_11  and  C5_12 
REMARK    6  A    between atoms: C5_12  and  C6_13 
REMARK    7  A    between atoms: C7_14  and  N4_15 
REMARK    8  A    between atoms: N4_15  and  O3_16 
REMARK    9  A    between atoms: N4_15  and  N5_18 
REMARK   10  A    between atoms: N5_18  and  O4_19 
REMARK   11  A    between atoms: C8_23  and  N7_24 
REMARK   12  A    between atoms: C9_29  and  N9_30 
ROOT
HETATM    1  C3  UNL     1      63.635   6.632  84.008  1.00  0.00     0.254 A 
HETATM    2  N2  UNL     1      63.931   7.319  85.166  1.00  0.00    -0.210 N 
ATOM      3  H2  UNL     1      64.316   6.895  86.010  1.00  0.00     0.199 HD
HETATM    4  O1  UNL     1      63.657   8.554  85.037  1.00  0.00    -0.152 OA
HETATM    5  N3  UNL     1      63.190   8.767  83.862  1.00  0.00    -0.215 N 
ATOM      6  H3  UNL     1      62.896   9.679  83.513  1.00  0.00     0.199 HD
HETATM    7  C4  UNL     1      63.140   7.631  83.155  1.00  0.00     0.226 A 
ENDROOT
BRANCH   7   8
HETATM    8  O2  UNL     1      62.692   7.437  81.829  1.00  0.00    -0.326 OA
BRANCH   8   9
HETATM    9  C5  UNL     1      62.747   8.562  81.019  1.00  0.00     0.224 C 
BRANCH   9  10
HETATM   10  C6  UNL     1      63.644   8.596  79.879  1.00  0.00     0.058 A 
HETATM   11  C7  UNL     1      64.508   9.716  79.823  1.00  0.00     0.177 A 
HETATM   12  N6  UNL     1      65.387   9.854  78.830  1.00  0.00    -0.173 N 
HETATM   13  C8  UNL     1      65.470   8.929  77.858  1.00  0.00     0.679 A 
ATOM     14  H6  UNL     1      66.001  10.668  78.807  1.00  0.00     0.186 HD
HETATM   15  N8  UNL     1      64.664   7.878  77.902  1.00  0.00    -0.177 N 
HETATM   16  C9  UNL     1      63.729   7.661  78.894  1.00  0.00     0.127 A 
ATOM     17  H8  UNL     1      64.740   7.185  77.156  1.00  0.00     0.186 HD
BRANCH  11  18
HETATM   18  N4  UNL     1      64.455  10.732  80.818  1.00  0.00    -0.123 N 
BRANCH  18  19
HETATM   19  O3  UNL     1      64.885  10.502  82.071  1.00  0.00    -0.268 OA
ATOM     20  H3  UNL     1      64.903  11.196  82.720  1.00  0.00     0.246 HD
ENDBRANCH  18  19
BRANCH  18  21
HETATM   21  N5  UNL     1      63.974  11.987  80.484  1.00  0.00     0.049 NA
BRANCH  21  22
HETATM   22  O4  UNL     1      64.343  12.418  79.263  1.00  0.00    -0.275 OA
ATOM     23  H4  UNL     1      63.796  12.101  78.554  1.00  0.00     0.240 HD
ENDBRANCH  21  22
ENDBRANCH  18  21
ENDBRANCH  11  18
BRANCH  13  24
HETATM   24  N7  UNL     1      66.306   9.034  76.889  1.00  0.00    -0.234 N 
ATOM     25  H72 UNL     1      66.294   9.876  76.313  1.00  0.00     0.174 HD
ATOM     26  H71 UNL     1      66.983   8.301  76.676  1.00  0.00     0.174 HD
ENDBRANCH  13  24
BRANCH  16  27
HETATM   27  N9  UNL     1      63.032   6.588  78.790  1.00  0.00    -0.384 N 
ATOM     28  H92 UNL     1      62.023   6.696  78.899  1.00  0.00     0.157 HD
ATOM     29  H91 UNL     1      63.381   5.648  78.607  1.00  0.00     0.157 HD
ENDBRANCH  16  27
ENDBRANCH   9  10
ENDBRANCH   8   9
ENDBRANCH   7   8
BRANCH   1  30
HETATM   30  N1  UNL     1      63.809   5.342  83.827  1.00  0.00    -0.382 NA
BRANCH  30  31
HETATM   31  C2  UNL     1      63.805   4.190  83.904  1.00  0.00     0.128 C 
HETATM   32  C1  UNL     1      62.867   3.321  83.094  1.00  0.00     0.089 C 
BRANCH  31  33
HETATM   33  C10 UNL     1      64.713   3.435  84.798  1.00  0.00     0.158 A 
HETATM   34  N10 UNL     1      65.326   4.119  85.768  1.00  0.00    -0.321 N 
HETATM   35  C11 UNL     1      66.150   3.501  86.631  1.00  0.00     0.171 A 
ATOM     36  H10 UNL     1      65.167   5.123  85.855  1.00  0.00     0.169 HD
HETATM   37  N11 UNL     1      66.724   4.195  87.548  1.00  0.00    -0.381 N 
HETATM   38  C12 UNL     1      66.327   2.157  86.466  1.00  0.00     0.305 A 
ATOM     39 2H11 UNL     1      66.592   5.198  87.671  1.00  0.00     0.157 HD
ATOM     40 1H11 UNL     1      67.349   3.726  88.203  1.00  0.00     0.157 HD
HETATM   41  O5  UNL     1      67.093   1.554  87.259  1.00  0.00    -0.262 OA
HETATM   42  N12 UNL     1      65.713   1.447  85.487  1.00  0.00    -0.257 N 
HETATM   43  C13 UNL     1      65.913   0.021  85.334  1.00  0.00     0.181 C 
HETATM   44  N13 UNL     1      64.907   2.126  84.664  1.00  0.00    -0.278 N 
ATOM     45  H13 UNL     1      64.427   1.627  83.914  1.00  0.00     0.189 HD
ENDBRANCH  31  33
ENDBRANCH  30  31
ENDBRANCH   1  30
TORSDOF 12
ENDMDL
MODEL 2
REMARK VINA RESULT: -9.112012647      2.092      8.036
REMARK  12 active torsions:
REMARK  status: ('A' for Active; 'I' for Inactive)
REMARK    1  A    between atoms: C2_2  and  N1_3 
REMARK    2  A    between atoms: C2_2  and  C10_33 
REMARK    3  A    between atoms: N1_3  and  C3_4 
REMARK    4  A    between atoms: C4_10  and  O2_11 
REMARK    5  A    between atoms: O2_11  and  C5_12 
REMARK    6  A    between atoms: C5_12  and  C6_13 
REMARK    7  A    between atoms: C7_14  and  N4_15 
REMARK    8  A    between atoms: N4_15  and  O3_16 
REMARK    9  A    between atoms: N4_15  and  N5_18 
REMARK   10  A    between atoms: N5_18  and  O4_19 
REMARK   11  A    between atoms: C8_23  and  N7_24 
REMARK   12  A    between atoms: C9_29  and  N9_30 
ROOT
HETATM    1  C3  UNL     1      62.112   5.792  80.404  1.00  0.00     0.254 A 
HETATM    2  N2  UNL     1      60.803   5.563  80.035  1.00  0.00    -0.210 N 
ATOM      3  H2  UNL     1      60.408   5.795  79.124  1.00  0.00     0.199 HD
HETATM    4  O1  UNL     1      60.158   5.023  80.988  1.00  0.00    -0.152 OA
HETATM    5  N3  UNL     1      60.936   4.862  81.994  1.00  0.00    -0.215 N 
ATOM      6  H3  UNL     1      60.656   4.448  82.882  1.00  0.00     0.199 HD
HETATM    7  C4  UNL     1      62.168   5.312  81.721  1.00  0.00     0.226 A 
ENDROOT
BRANCH   7   8
HETATM    8  O2  UNL     1      63.308   5.319  82.555  1.00  0.00    -0.326 OA
BRANCH   8   9
HETATM    9  C5  UNL     1      63.056   5.082  83.899  1.00  0.00     0.224 C 
BRANCH   9  10
HETATM   10  C6  UNL     1      64.087   4.506  84.742  1.00  0.00     0.058 A 
HETATM   11  C7  UNL     1      64.398   5.247  85.908  1.00  0.00     0.177 A 
HETATM   12  N6  UNL     1      65.320   4.814  86.768  1.00  0.00    -0.173 N 
HETATM   13  C8  UNL     1      65.976   3.662  86.545  1.00  0.00     0.679 A 
ATOM     14  H6  UNL     1      65.530   5.362  87.603  1.00  0.00     0.186 HD
HETATM   15  N8  UNL     1      65.691   2.962  85.455  1.00  0.00    -0.177 N 
HETATM   16  C9  UNL     1      64.752   3.340  84.517  1.00  0.00     0.127 A 
ATOM     17  H8  UNL     1      66.198   2.091  85.301  1.00  0.00     0.186 HD
BRANCH  11  18
HETATM   18  N4  UNL     1      63.745   6.479  86.188  1.00  0.00    -0.123 N 
BRANCH  18  19
HETATM   19  O3  UNL     1      62.609   6.517  86.908  1.00  0.00    -0.268 OA
ATOM     20  H3  UNL     1      62.248   7.341  87.214  1.00  0.00     0.246 HD
ENDBRANCH  18  19
BRANCH  18  21
HETATM   21  N5  UNL     1      64.299   7.663  85.731  1.00  0.00     0.049 NA
BRANCH  21  22
HETATM   22  O4  UNL     1      63.399   8.574  85.316  1.00  0.00    -0.275 OA
ATOM     23  H4  UNL     1      63.463   8.798  84.395  1.00  0.00     0.240 HD
ENDBRANCH  21  22
ENDBRANCH  18  21
ENDBRANCH  11  18
BRANCH  13  24
HETATM   24  N7  UNL     1      66.869   3.219  87.355  1.00  0.00    -0.234 N 
ATOM     25  H72 UNL     1      67.600   3.852  87.678  1.00  0.00     0.174 HD
ATOM     26  H71 UNL     1      66.868   2.254  87.685  1.00  0.00     0.174 HD
ENDBRANCH  13  24
BRANCH  16  27
HETATM   27  N9  UNL     1      64.595   2.545  83.522  1.00  0.00    -0.384 N 
ATOM     28  H92 UNL     1      63.656   2.169  83.390  1.00  0.00     0.157 HD
ATOM     29  H91 UNL     1      65.308   2.257  82.852  1.00  0.00     0.157 HD
ENDBRANCH  16  27
ENDBRANCH   9  10
ENDBRANCH   8   9
ENDBRANCH   7   8
BRANCH   1  30
HETATM   30  N1  UNL     1      63.030   6.337  79.637  1.00  0.00    -0.382 NA
BRANCH  30  31
HETATM   31  C2  UNL     1      63.680   7.048  78.999  1.00  0.00     0.128 C 
HETATM   32  C1  UNL     1      64.334   6.614  77.705  1.00  0.00     0.089 C 
BRANCH  31  33
HETATM   33  C10 UNL     1      63.944   8.456  79.372  1.00  0.00     0.158 A 
HETATM   34  N10 UNL     1      63.343   8.922  80.470  1.00  0.00    -0.321 N 
HETATM   35  C11 UNL     1      63.548  10.184  80.884  1.00  0.00     0.171 A 
ATOM     36  H10 UNL     1      62.720   8.313  81.001  1.00  0.00     0.169 HD
HETATM   37  N11 UNL     1      62.948  10.597  81.943  1.00  0.00    -0.381 N 
HETATM   38  C12 UNL     1      64.389  10.954  80.134  1.00  0.00     0.305 A 
ATOM     39 2H11 UNL     1      62.320  10.022  82.503  1.00  0.00     0.157 HD
ATOM     40 1H11 UNL     1      63.104  11.554  82.258  1.00  0.00     0.157 HD
HETATM   41  O5  UNL     1      64.600  12.139  80.498  1.00  0.00    -0.262 OA
HETATM   42  N12 UNL     1      65.008  10.498  79.017  1.00  0.00    -0.257 N 
HETATM   43  C13 UNL     1      65.900  11.332  78.239  1.00  0.00     0.181 C 
HETATM   44  N13 UNL     1      64.759   9.233  78.663  1.00  0.00    -0.278 N 
ATOM     45  H13 UNL     1      65.205   8.853  77.827  1.00  0.00     0.189 HD
ENDBRANCH  31  33
ENDBRANCH  30  31
ENDBRANCH   1  30
TORSDOF 12
ENDMDL
MODEL 3
REMARK VINA RESULT: -8.961311777      2.218      8.108
REMARK  12 active torsions:
REMARK  status: ('A' for Active; 'I' for Inactive)
REMARK    1  A    between atoms: C2_2  and  N1_3 
REMARK    2  A    between atoms: C2_2  and  C10_33 
REMARK    3  A    between atoms: N1_3  and  C3_4 
REMARK    4  A    between atoms: C4_10  and  O2_11 
REMARK    5  A    between atoms: O2_11  and  C5_12 
REMARK    6  A    between atoms: C5_12  and  C6_13 
REMARK    7  A    between atoms: C7_14  and  N4_15 
REMARK    8  A    between atoms: N4_15  and  O3_16 
REMARK    9  A    between atoms: N4_15  and  N5_18 
REMARK   10  A    between atoms: N5_18  and  O4_19 
REMARK   11  A    between atoms: C8_23  and  N7_24 
REMARK   12  A    between atoms: C9_29  and  N9_30 
ROOT
HETATM    1  C3  UNL     1      62.016   6.965  81.260  1.00  0.00     0.254 A 
HETATM    2  N2  UNL     1      60.794   6.871  80.627  1.00  0.00    -0.210 N 
ATOM      3  H2  UNL     1      60.343   7.631  80.118  1.00  0.00     0.199 HD
HETATM    4  O1  UNL     1      60.307   5.704  80.766  1.00  0.00    -0.152 OA
HETATM    5  N3  UNL     1      61.114   4.985  81.455  1.00  0.00    -0.215 N 
ATOM      6  H3  UNL     1      60.951   4.009  81.704  1.00  0.00     0.199 HD
HETATM    7  C4  UNL     1      62.200   5.685  81.805  1.00  0.00     0.226 A 
ENDROOT
BRANCH   7   8
HETATM    8  O2  UNL     1      63.316   5.262  82.561  1.00  0.00    -0.326 OA
BRANCH   8   9
HETATM    9  C5  UNL     1      63.066   5.043  83.908  1.00  0.00     0.224 C 
BRANCH   9  10
HETATM   10  C6  UNL     1      64.097   4.475  84.756  1.00  0.00     0.058 A 
HETATM   11  C7  UNL     1      64.403   5.224  85.919  1.00  0.00     0.177 A 
HETATM   12  N6  UNL     1      65.325   4.799  86.784  1.00  0.00    -0.173 N 
HETATM   13  C8  UNL     1      65.985   3.649  86.568  1.00  0.00     0.679 A 
ATOM     14  H6  UNL     1      65.531   5.353  87.616  1.00  0.00     0.186 HD
HETATM   15  N8  UNL     1      65.705   2.941  85.482  1.00  0.00    -0.177 N 
HETATM   16  C9  UNL     1      64.767   3.311  84.540  1.00  0.00     0.127 A 
ATOM     17  H8  UNL     1      66.216   2.071  85.333  1.00  0.00     0.186 HD
BRANCH  11  18
HETATM   18  N4  UNL     1      63.745   6.455  86.191  1.00  0.00    -0.123 N 
BRANCH  18  19
HETATM   19  O3  UNL     1      62.602   6.493  86.900  1.00  0.00    -0.268 OA
ATOM     20  H3  UNL     1      62.580   6.226  87.812  1.00  0.00     0.246 HD
ENDBRANCH  18  19
BRANCH  18  21
HETATM   21  N5  UNL     1      64.301   7.640  85.737  1.00  0.00     0.049 NA
BRANCH  21  22
HETATM   22  O4  UNL     1      63.404   8.544  85.301  1.00  0.00    -0.275 OA
ATOM     23  H4  UNL     1      63.432   8.704  84.365  1.00  0.00     0.240 HD
ENDBRANCH  21  22
ENDBRANCH  18  21
ENDBRANCH  11  18
BRANCH  13  24
HETATM   24  N7  UNL     1      66.878   3.213  87.383  1.00  0.00    -0.234 N 
ATOM     25  H72 UNL     1      66.729   3.326  88.385  1.00  0.00     0.174 HD
ATOM     26  H71 UNL     1      67.731   2.758  87.057  1.00  0.00     0.174 HD
ENDBRANCH  13  24
BRANCH  16  27
HETATM   27  N9  UNL     1      64.615   2.510  83.548  1.00  0.00    -0.384 N 
ATOM     28  H92 UNL     1      63.670   2.154  83.398  1.00  0.00     0.157 HD
ATOM     29  H91 UNL     1      65.337   2.198  82.899  1.00  0.00     0.157 HD
ENDBRANCH  16  27
ENDBRANCH   9  10
ENDBRANCH   8   9
ENDBRANCH   7   8
BRANCH   1  30
HETATM   30  N1  UNL     1      62.768   8.042  81.295  1.00  0.00    -0.382 NA
BRANCH  30  31
HETATM   31  C2  UNL     1      63.349   9.012  81.056  1.00  0.00     0.128 C 
HETATM   32  C1  UNL     1      63.336  10.216  81.973  1.00  0.00     0.089 C 
BRANCH  31  33
HETATM   33  C10 UNL     1      64.166   9.185  79.834  1.00  0.00     0.158 A 
HETATM   34  N10 UNL     1      64.777  10.361  79.666  1.00  0.00    -0.321 N 
HETATM   35  C11 UNL     1      65.551  10.588  78.593  1.00  0.00     0.171 A 
ATOM     36  H10 UNL     1      64.653  11.097  80.363  1.00  0.00     0.169 HD
HETATM   37  N11 UNL     1      66.119  11.734  78.465  1.00  0.00    -0.381 N 
HETATM   38  C12 UNL     1      65.679   9.569  77.693  1.00  0.00     0.305 A 
ATOM     39 2H11 UNL     1      66.023  12.495  79.137  1.00  0.00     0.157 HD
ATOM     40 1H11 UNL     1      66.707  11.907  77.650  1.00  0.00     0.157 HD
HETATM   41  O5  UNL     1      66.398   9.754  76.678  1.00  0.00    -0.262 OA
HETATM   42  N12 UNL     1      65.067   8.369  77.846  1.00  0.00    -0.257 N 
HETATM   43  C13 UNL     1      65.220   7.301  76.880  1.00  0.00     0.181 C 
HETATM   44  N13 UNL     1      64.311   8.212  78.938  1.00  0.00    -0.278 N 
ATOM     45  H13 UNL     1      63.833   7.323  79.089  1.00  0.00     0.189 HD
ENDBRANCH  31  33
ENDBRANCH  30  31
ENDBRANCH   1  30
TORSDOF 12
ENDMDL
MODEL 4
REMARK VINA RESULT: -8.948356171      1.944      8.300
REMARK  12 active torsions:
REMARK  status: ('A' for Active; 'I' for Inactive)
REMARK    1  A    between atoms: C2_2  and  N1_3 
REMARK    2  A    between atoms: C2_2  and  C10_33 
REMARK    3  A    between atoms: N1_3  and  C3_4 
REMARK    4  A    between atoms: C4_10  and  O2_11 
REMARK    5  A    between atoms: O2_11  and  C5_12 
REMARK    6  A    between atoms: C5_12  and  C6_13 
REMARK    7  A    between atoms: C7_14  and  N4_15 
REMARK    8  A    between atoms: N4_15  and  O3_16 
REMARK    9  A    between atoms: N4_15  and  N5_18 
REMARK   10  A    between atoms: N5_18  and  O4_19 
REMARK   11  A    between atoms: C8_23  and  N7_24 
REMARK   12  A    between atoms: C9_29  and  N9_30 
ROOT
HETATM    1  C3  UNL     1      63.234   8.359  82.760  1.00  0.00     0.254 A 
HETATM    2  N2  UNL     1      62.609   9.400  83.414  1.00  0.00    -0.210 N 
ATOM      3  H2  UNL     1      61.982  10.072  82.970  1.00  0.00     0.199 HD
HETATM    4  O1  UNL     1      62.923   9.408  84.647  1.00  0.00    -0.152 OA
HETATM    5  N3  UNL     1      63.725   8.437  84.888  1.00  0.00    -0.215 N 
ATOM      6  H3  UNL     1      64.121   8.229  85.805  1.00  0.00     0.199 HD
HETATM    7  C4  UNL     1      63.974   7.735  83.776  1.00  0.00     0.226 A 
ENDROOT
BRANCH   7   8
HETATM    8  O2  UNL     1      64.799   6.599  83.618  1.00  0.00    -0.326 OA
BRANCH   8   9
HETATM    9  C5  UNL     1      64.229   5.397  84.010  1.00  0.00     0.224 C 
BRANCH   9  10
HETATM   10  C6  UNL     1      64.990   4.457  84.811  1.00  0.00     0.058 A 
HETATM   11  C7  UNL     1      64.901   4.647  86.212  1.00  0.00     0.177 A 
HETATM   12  N6  UNL     1      65.547   3.840  87.054  1.00  0.00    -0.173 N 
HETATM   13  C8  UNL     1      66.299   2.827  86.589  1.00  0.00     0.679 A 
ATOM     14  H6  UNL     1      65.470   3.992  88.060  1.00  0.00     0.186 HD
HETATM   15  N8  UNL     1      66.388   2.643  85.280  1.00  0.00    -0.177 N 
HETATM   16  C9  UNL     1      65.752   3.432  84.342  1.00  0.00     0.127 A 
ATOM     17  H8  UNL     1      66.963   1.870  84.944  1.00  0.00     0.186 HD
BRANCH  11  18
HETATM   18  N4  UNL     1      64.131   5.710  86.760  1.00  0.00    -0.123 N 
BRANCH  18  19
HETATM   19  O3  UNL     1      62.786   5.676  86.742  1.00  0.00    -0.268 OA
ATOM     20  H3  UNL     1      62.273   6.462  86.891  1.00  0.00     0.246 HD
ENDBRANCH  18  19
BRANCH  18  21
HETATM   21  N5  UNL     1      64.776   6.789  87.341  1.00  0.00     0.049 NA
BRANCH  21  22
HETATM   22  O4  UNL     1      65.936   6.480  87.951  1.00  0.00    -0.275 OA
ATOM     23  H4  UNL     1      66.630   6.211  87.361  1.00  0.00     0.240 HD
ENDBRANCH  21  22
ENDBRANCH  18  21
ENDBRANCH  11  18
BRANCH  13  24
HETATM   24  N7  UNL     1      66.932   2.033  87.375  1.00  0.00    -0.234 N 
ATOM     25  H72 UNL     1      67.540   1.320  86.973  1.00  0.00     0.174 HD
ATOM     26  H71 UNL     1      66.845   2.093  88.390  1.00  0.00     0.174 HD
ENDBRANCH  13  24
BRANCH  16  27
HETATM   27  N9  UNL     1      65.940   3.114  83.113  1.00  0.00    -0.384 N 
ATOM     28  H92 UNL     1      65.422   2.303  82.774  1.00  0.00     0.157 HD
ATOM     29  H91 UNL     1      66.548   3.588  82.446  1.00  0.00     0.157 HD
ENDBRANCH  16  27
ENDBRANCH   9  10
ENDBRANCH   8   9
ENDBRANCH   7   8
BRANCH   1  30
HETATM   30  N1  UNL     1      63.109   8.085  81.481  1.00  0.00    -0.382 NA
BRANCH  30  31
HETATM   31  C2  UNL     1      63.253   7.967  80.341  1.00  0.00     0.128 C 
HETATM   32  C1  UNL     1      62.599   6.857  79.547  1.00  0.00     0.089 C 
BRANCH  31  33
HETATM   33  C10 UNL     1      64.087   8.884  79.532  1.00  0.00     0.158 A 
HETATM   34  N10 UNL     1      64.128  10.166  79.905  1.00  0.00    -0.321 N 
HETATM   35  C11 UNL     1      64.878  11.056  79.233  1.00  0.00     0.171 A 
ATOM     36  H10 UNL     1      63.583  10.474  80.711  1.00  0.00     0.169 HD
HETATM   37  N11 UNL     1      64.888  12.281  79.621  1.00  0.00    -0.381 N 
HETATM   38  C12 UNL     1      65.585  10.588  78.162  1.00  0.00     0.305 A 
ATOM     39 2H11 UNL     1      64.360  12.630  80.420  1.00  0.00     0.157 HD
ATOM     40 1H11 UNL     1      65.457  12.956  79.111  1.00  0.00     0.157 HD
HETATM   41  O5  UNL     1      66.295  11.398  77.515  1.00  0.00    -0.262 OA
HETATM   42  N12 UNL     1      65.555   9.290  77.769  1.00  0.00    -0.257 N 
HETATM   43  C13 UNL     1      66.316   8.816  76.632  1.00  0.00     0.181 C 
HETATM   44  N13 UNL     1      64.788   8.460  78.484  1.00  0.00    -0.278 N 
ATOM     45  H13 UNL     1      64.739   7.476  78.218  1.00  0.00     0.189 HD
ENDBRANCH  31  33
ENDBRANCH  30  31
ENDBRANCH   1  30
TORSDOF 12
ENDMDL
MODEL 5
REMARK VINA RESULT: -8.917530213      2.088      8.232
REMARK  12 active torsions:
REMARK  status: ('A' for Active; 'I' for Inactive)
REMARK    1  A    between atoms: C2_2  and  N1_3 
REMARK    2  A    between atoms: C2_2  and  C10_33 
REMARK    3  A    between atoms: N1_3  and  C3_4 
REMARK    4  A    between atoms: C4_10  and  O2_11 
REMARK    5  A    between atoms: O2_11  and  C5_12 
REMARK    6  A    between atoms: C5_12  and  C6_13 
REMARK    7  A    between atoms: C7_14  and  N4_15 
REMARK    8  A    between atoms: N4_15  and  O3_16 
REMARK    9  A    between atoms: N4_15  and  N5_18 
REMARK   10  A    between atoms: N5_18  and  O4_19 
REMARK   11  A    between atoms: C8_23  and  N7_24 
REMARK   12  A    between atoms: C9_29  and  N9_30 
ROOT
HETATM    1  C3  UNL     1      62.457   5.738  81.093  1.00  0.00     0.254 A 
HETATM    2  N2  UNL     1      61.169   5.256  81.201  1.00  0.00    -0.210 N 
ATOM      3  H2  UNL     1      60.468   5.302  80.461  1.00  0.00     0.199 HD
HETATM    4  O1  UNL     1      60.976   4.747  82.350  1.00  0.00    -0.152 OA
HETATM    5  N3  UNL     1      62.049   4.845  83.045  1.00  0.00    -0.215 N 
ATOM      6  H3  UNL     1      62.150   4.509  84.003  1.00  0.00     0.199 HD
HETATM    7  C4  UNL     1      63.019   5.447  82.346  1.00  0.00     0.226 A 
ENDROOT
BRANCH   7   8
HETATM    8  O2  UNL     1      64.341   5.744  82.747  1.00  0.00    -0.326 OA
BRANCH   8   9
HETATM    9  C5  UNL     1      64.535   5.824  84.118  1.00  0.00     0.224 C 
BRANCH   9  10
HETATM   10  C6  UNL     1      65.125   4.710  84.836  1.00  0.00     0.058 A 
HETATM   11  C7  UNL     1      64.877   4.689  86.230  1.00  0.00     0.177 A 
HETATM   12  N6  UNL     1      65.357   3.709  86.996  1.00  0.00    -0.173 N 
HETATM   13  C8  UNL     1      66.088   2.717  86.459  1.00  0.00     0.679 A 
ATOM     14  H6  UNL     1      65.167   3.711  87.999  1.00  0.00     0.186 HD
HETATM   15  N8  UNL     1      66.326   2.729  85.155  1.00  0.00    -0.177 N 
HETATM   16  C9  UNL     1      65.867   3.705  84.294  1.00  0.00     0.127 A 
ATOM     17  H8  UNL     1      66.883   1.969  84.763  1.00  0.00     0.186 HD
BRANCH  11  18
HETATM   18  N4  UNL     1      64.121   5.719  86.854  1.00  0.00    -0.123 N 
BRANCH  18  19
HETATM   19  O3  UNL     1      62.777   5.726  86.800  1.00  0.00    -0.268 OA
ATOM     20  H3  UNL     1      62.292   6.540  86.730  1.00  0.00     0.246 HD
ENDBRANCH  18  19
BRANCH  18  21
HETATM   21  N5  UNL     1      64.777   6.721  87.549  1.00  0.00     0.049 NA
BRANCH  21  22
HETATM   22  O4  UNL     1      66.023   6.398  87.945  1.00  0.00    -0.275 OA
ATOM     23  H4  UNL     1      66.677   6.439  87.257  1.00  0.00     0.240 HD
ENDBRANCH  21  22
ENDBRANCH  18  21
ENDBRANCH  11  18
BRANCH  13  24
HETATM   24  N7  UNL     1      66.563   1.759  87.171  1.00  0.00    -0.234 N 
ATOM     25  H72 UNL     1      67.003   1.978  88.064  1.00  0.00     0.174 HD
ATOM     26  H71 UNL     1      66.514   0.786  86.870  1.00  0.00     0.174 HD
ENDBRANCH  13  24
BRANCH  16  27
HETATM   27  N9  UNL     1      66.183   3.564  83.058  1.00  0.00    -0.384 N 
ATOM     28  H92 UNL     1      65.591   4.050  82.384  1.00  0.00     0.157 HD
ATOM     29  H91 UNL     1      66.962   3.022  82.685  1.00  0.00     0.157 HD
ENDBRANCH  16  27
ENDBRANCH   9  10
ENDBRANCH   8   9
ENDBRANCH   7   8
BRANCH   1  30
HETATM   30  N1  UNL     1      62.961   6.319  80.028  1.00  0.00    -0.382 NA
BRANCH  30  31
HETATM   31  C2  UNL     1      63.512   7.008  79.282  1.00  0.00     0.128 C 
HETATM   32  C1  UNL     1      63.970   6.535  77.920  1.00  0.00     0.089 C 
BRANCH  31  33
HETATM   33  C10 UNL     1      63.828   8.425  79.572  1.00  0.00     0.158 A 
HETATM   34  N10 UNL     1      63.249   8.976  80.642  1.00  0.00    -0.321 N 
HETATM   35  C11 UNL     1      63.502  10.251  80.982  1.00  0.00     0.171 A 
ATOM     36  H10 UNL     1      62.607   8.422  81.209  1.00  0.00     0.169 HD
HETATM   37  N11 UNL     1      62.922  10.747  82.017  1.00  0.00    -0.381 N 
HETATM   38  C12 UNL     1      64.368  10.946  80.186  1.00  0.00     0.305 A 
ATOM     39 2H11 UNL     1      62.275  10.228  82.610  1.00  0.00     0.157 HD
ATOM     40 1H11 UNL     1      63.114  11.714  82.275  1.00  0.00     0.157 HD
HETATM   41  O5  UNL     1      64.622  12.141  80.481  1.00  0.00    -0.262 OA
HETATM   42  N12 UNL     1      64.965  10.403  79.096  1.00  0.00    -0.257 N 
HETATM   43  C13 UNL     1      65.883  11.158  78.269  1.00  0.00     0.181 C 
HETATM   44  N13 UNL     1      64.668   9.129  78.817  1.00  0.00    -0.278 N 
ATOM     45  H13 UNL     1      65.097   8.685  78.004  1.00  0.00     0.189 HD
ENDBRANCH  31  33
ENDBRANCH  30  31
ENDBRANCH   1  30
TORSDOF 12
ENDMDL
