MODEL 1
REMARK VINA RESULT: -8.489098449      0.000      0.000
REMARK  8 active torsions:
REMARK  status: ('A' for Active; 'I' for Inactive)
REMARK    1  A    between atoms: C2_3  and  C3_5 
REMARK    2  A    between atoms: C4_6  and  N2_7 
REMARK    3  A    between atoms: N2_7  and  C5_9 
REMARK    4  A    between atoms: C5_9  and  O2_11 
REMARK    5  A    between atoms: N4_18  and  N5_19 
REMARK    6  A    between atoms: N5_19  and  C10_21 
REMARK    7  A    between atoms: C15_32  and  C16_33 
REMARK    8  A    between atoms: C16_33  and  O4_35 
ROOT
HETATM    1  C1  UNL     1      65.520  -0.701  88.096  1.00  0.00     0.233 C 
HETATM    2  N1  UNL     1      65.744   0.345  87.321  1.00  0.00    -0.390 NA
HETATM    3  C2  UNL     1      65.982   1.442  86.510  1.00  0.00     0.345 C 
HETATM    4  O1  UNL     1      66.940   2.237  86.511  1.00  0.00    -0.249 OA
ENDROOT
BRANCH   3   5
HETATM    5  C3  UNL     1      64.945   1.744  85.466  1.00  0.00     0.167 A 
HETATM    6  C4  UNL     1      64.380   0.833  84.610  1.00  0.00     0.093 A 
HETATM    7  C7  UNL     1      63.580   1.562  83.759  1.00  0.00     0.109 A 
HETATM    8  N3  UNL     1      62.801   1.093  82.701  1.00  0.00    -0.097 NA
HETATM    9  C8  UNL     1      63.685   2.896  84.135  1.00  0.00     0.153 A 
HETATM   10  C9  UNL     1      63.129   4.045  83.623  1.00  0.00     0.299 A 
HETATM   11  N12 UNL     1      64.522   2.987  85.177  1.00  0.00    -0.238 N 
HETATM   12  O3  UNL     1      62.347   3.909  82.639  1.00  0.00    -0.263 OA
HETATM   13  N4  UNL     1      63.377   5.310  84.116  1.00  0.00    -0.195 N 
HETATM   14  C15 UNL     1      64.207   5.348  85.149  1.00  0.00     0.194 A 
HETATM   15  N11 UNL     1      64.757   4.182  85.650  1.00  0.00    -0.273 N 
ATOM     16  H11 UNL     1      65.391   4.261  86.444  1.00  0.00     0.189 HD
BRANCH   6  17
HETATM   17  N2  UNL     1      64.548  -0.592  84.622  1.00  0.00    -0.360 N 
ATOM     18  H2  UNL     1      65.485  -0.950  84.435  1.00  0.00     0.162 HD
BRANCH  17  19
HETATM   19  C5  UNL     1      63.532  -1.548  84.868  1.00  0.00     0.213 C 
HETATM   20  C6  UNL     1      62.515  -1.233  85.899  1.00  0.00     0.063 C 
BRANCH  19  21
HETATM   21  O2  UNL     1      62.839  -1.910  83.702  1.00  0.00    -0.377 OA
ATOM     22  H2  UNL     1      62.025  -2.363  83.887  1.00  0.00     0.212 HD
ENDBRANCH  19  21
ENDBRANCH  17  19
ENDBRANCH   6  17
BRANCH  13  23
HETATM   23  N5  UNL     1      62.767   6.337  83.451  1.00  0.00    -0.271 N 
ATOM     24  H5  UNL     1      61.760   6.172  83.436  1.00  0.00     0.189 HD
BRANCH  23  25
HETATM   25  C10 UNL     1      63.034   7.505  82.802  1.00  0.00     0.160 A 
HETATM   26  N6  UNL     1      63.101   8.747  83.353  1.00  0.00    -0.282 N 
HETATM   27  N7  UNL     1      63.454   9.829  82.721  1.00  0.00    -0.289 N 
ATOM     28  H6  UNL     1      62.856   8.838  84.339  1.00  0.00     0.188 HD
HETATM   29  C11 UNL     1      63.787   9.805  81.445  1.00  0.00     0.130 A 
ATOM     30  H7  UNL     1      63.474  10.715  83.224  1.00  0.00     0.188 HD
HETATM   31  C12 UNL     1      64.179  11.040  80.774  1.00  0.00     0.119 C 
HETATM   32  C13 UNL     1      63.763   8.611  80.760  1.00  0.00     0.073 A 
HETATM   33  N8  UNL     1      64.472  12.015  80.225  1.00  0.00    -0.190 NA
HETATM   34  C14 UNL     1      63.389   7.479  81.441  1.00  0.00     0.096 A 
HETATM   35  N9  UNL     1      63.356   6.230  80.795  1.00  0.00    -0.098 NA
ENDBRANCH  23  25
ENDBRANCH  13  23
BRANCH  14  36
HETATM   36  C16 UNL     1      64.580   6.604  85.880  1.00  0.00     0.197 C 
HETATM   37  N10 UNL     1      65.338   6.457  87.052  1.00  0.00    -0.071 NA
BRANCH  36  38
HETATM   38  O4  UNL     1      63.540   7.541  85.892  1.00  0.00    -0.346 OA
ATOM     39  H4  UNL     1      63.053   7.528  86.708  1.00  0.00     0.219 HD
ENDBRANCH  36  38
ENDBRANCH  14  36
ENDBRANCH   3   5
TORSDOF 7
ENDMDL
MODEL 2
REMARK VINA RESULT: -8.106179799      2.611      9.018
REMARK  8 active torsions:
REMARK  status: ('A' for Active; 'I' for Inactive)
REMARK    1  A    between atoms: C2_3  and  C3_5 
REMARK    2  A    between atoms: C4_6  and  N2_7 
REMARK    3  A    between atoms: N2_7  and  C5_9 
REMARK    4  A    between atoms: C5_9  and  O2_11 
REMARK    5  A    between atoms: N4_18  and  N5_19 
REMARK    6  A    between atoms: N5_19  and  C10_21 
REMARK    7  A    between atoms: C15_32  and  C16_33 
REMARK    8  A    between atoms: C16_33  and  O4_35 
ROOT
HETATM    1  C1  UNL     1      60.342   6.468  79.150  1.00  0.00     0.233 C 
HETATM    2  N1  UNL     1      60.884   7.604  79.551  1.00  0.00    -0.390 NA
HETATM    3  C2  UNL     1      61.450   8.796  79.968  1.00  0.00     0.345 C 
HETATM    4  O1  UNL     1      61.259   9.954  79.554  1.00  0.00    -0.249 OA
ENDROOT
BRANCH   3   5
HETATM    5  C3  UNL     1      62.451   8.710  81.086  1.00  0.00     0.167 A 
HETATM    6  C4  UNL     1      63.397   9.655  81.389  1.00  0.00     0.093 A 
HETATM    7  C7  UNL     1      64.160   9.113  82.400  1.00  0.00     0.109 A 
HETATM    8  N3  UNL     1      65.260   9.682  83.045  1.00  0.00    -0.097 NA
HETATM    9  C8  UNL     1      63.643   7.853  82.677  1.00  0.00     0.153 A 
HETATM   10  C9  UNL     1      64.025   6.874  83.565  1.00  0.00     0.299 A 
HETATM   11  N12 UNL     1      62.601   7.625  81.866  1.00  0.00    -0.238 N 
HETATM   12  O3  UNL     1      65.014   7.136  84.308  1.00  0.00    -0.263 OA
HETATM   13  N4  UNL     1      63.399   5.650  83.682  1.00  0.00    -0.195 N 
HETATM   14  C15 UNL     1      62.372   5.473  82.862  1.00  0.00     0.194 A 
HETATM   15  N11 UNL     1      62.003   6.469  81.976  1.00  0.00    -0.273 N 
ATOM     16  H11 UNL     1      61.208   6.287  81.364  1.00  0.00     0.189 HD
BRANCH   6  17
HETATM   17  N2  UNL     1      63.541  10.960  80.810  1.00  0.00    -0.360 N 
ATOM     18  H2  UNL     1      62.829  11.653  81.044  1.00  0.00     0.162 HD
BRANCH  17  19
HETATM   19  C5  UNL     1      64.581  11.375  79.942  1.00  0.00     0.213 C 
HETATM   20  C6  UNL     1      65.147  10.375  79.006  1.00  0.00     0.063 C 
BRANCH  19  21
HETATM   21  O2  UNL     1      64.230  12.501  79.180  1.00  0.00    -0.377 OA
ATOM     22  H2  UNL     1      64.550  12.451  78.287  1.00  0.00     0.212 HD
ENDBRANCH  19  21
ENDBRANCH  17  19
ENDBRANCH   6  17
BRANCH  13  23
HETATM   23  N5  UNL     1      63.946   4.787  84.590  1.00  0.00    -0.271 N 
ATOM     24  H5  UNL     1      64.038   5.264  85.488  1.00  0.00     0.189 HD
BRANCH  23  25
HETATM   25  C10 UNL     1      64.411   3.513  84.716  1.00  0.00     0.160 A 
HETATM   26  N6  UNL     1      64.382   2.538  83.769  1.00  0.00    -0.282 N 
HETATM   27  N7  UNL     1      64.923   1.359  83.890  1.00  0.00    -0.289 N 
ATOM     28  H6  UNL     1      63.899   2.745  82.895  1.00  0.00     0.188 HD
HETATM   29  C11 UNL     1      65.567   1.005  84.985  1.00  0.00     0.130 A 
ATOM     30  H7  UNL     1      64.847   0.695  83.119  1.00  0.00     0.188 HD
HETATM   31  C12 UNL     1      66.160  -0.325  85.078  1.00  0.00     0.119 C 
HETATM   32  C13 UNL     1      65.673   1.896  86.028  1.00  0.00     0.073 A 
HETATM   33  N8  UNL     1      66.619  -1.383  85.174  1.00  0.00    -0.190 NA
HETATM   34  C14 UNL     1      65.098   3.135  85.884  1.00  0.00     0.096 A 
HETATM   35  N9  UNL     1      65.184   4.090  86.913  1.00  0.00    -0.098 NA
ENDBRANCH  23  25
ENDBRANCH  13  23
BRANCH  14  36
HETATM   36  C16 UNL     1      61.512   4.245  82.848  1.00  0.00     0.197 C 
HETATM   37  N10 UNL     1      62.022   3.119  82.183  1.00  0.00    -0.071 NA
BRANCH  36  38
HETATM   38  O4  UNL     1      60.157   4.546  82.668  1.00  0.00    -0.346 OA
ATOM     39  H4  UNL     1      59.796   5.034  83.399  1.00  0.00     0.219 HD
ENDBRANCH  36  38
ENDBRANCH  14  36
ENDBRANCH   3   5
TORSDOF 7
ENDMDL
MODEL 3
REMARK VINA RESULT: -7.773840993      6.865     10.668
REMARK  8 active torsions:
REMARK  status: ('A' for Active; 'I' for Inactive)
REMARK    1  A    between atoms: C2_3  and  C3_5 
REMARK    2  A    between atoms: C4_6  and  N2_7 
REMARK    3  A    between atoms: N2_7  and  C5_9 
REMARK    4  A    between atoms: C5_9  and  O2_11 
REMARK    5  A    between atoms: N4_18  and  N5_19 
REMARK    6  A    between atoms: N5_19  and  C10_21 
REMARK    7  A    between atoms: C15_32  and  C16_33 
REMARK    8  A    between atoms: C16_33  and  O4_35 
ROOT
HETATM    1  C1  UNL     1      60.678   6.650  79.363  1.00  0.00     0.233 C 
HETATM    2  N1  UNL     1      61.908   6.974  79.719  1.00  0.00    -0.390 NA
HETATM    3  C2  UNL     1      63.196   7.314  80.095  1.00  0.00     0.345 C 
HETATM    4  O1  UNL     1      63.711   7.344  81.228  1.00  0.00    -0.249 OA
ENDROOT
BRANCH   3   5
HETATM    5  C3  UNL     1      64.136   7.712  78.993  1.00  0.00     0.167 A 
HETATM    6  C4  UNL     1      64.827   8.894  78.917  1.00  0.00     0.093 A 
HETATM    7  C7  UNL     1      65.464   8.880  77.696  1.00  0.00     0.109 A 
HETATM    8  N3  UNL     1      66.284   9.865  77.143  1.00  0.00    -0.097 NA
HETATM    9  C8  UNL     1      65.137   7.681  77.073  1.00  0.00     0.153 A 
HETATM   10  C9  UNL     1      65.470   7.158  75.845  1.00  0.00     0.299 A 
HETATM   11  N12 UNL     1      64.327   6.982  77.879  1.00  0.00    -0.238 N 
HETATM   12  O3  UNL     1      66.237   7.855  75.120  1.00  0.00    -0.263 OA
HETATM   13  N4  UNL     1      65.019   5.942  75.375  1.00  0.00    -0.195 N 
HETATM   14  C15 UNL     1      64.223   5.287  76.209  1.00  0.00     0.194 A 
HETATM   15  N11 UNL     1      63.899   5.828  77.440  1.00  0.00    -0.273 N 
ATOM     16  H11 UNL     1      63.283   5.289  78.047  1.00  0.00     0.189 HD
BRANCH   6  17
HETATM   17  N2  UNL     1      64.911   9.919  79.918  1.00  0.00    -0.360 N 
ATOM     18  H2  UNL     1      65.794  10.003  80.422  1.00  0.00     0.162 HD
BRANCH  17  19
HETATM   19  C5  UNL     1      63.880  10.825  80.270  1.00  0.00     0.213 C 
HETATM   20  C6  UNL     1      63.299  10.724  81.629  1.00  0.00     0.063 C 
BRANCH  19  21
HETATM   21  O2  UNL     1      64.252  12.165  80.078  1.00  0.00    -0.377 OA
ATOM     22  H2  UNL     1      63.838  12.751  80.701  1.00  0.00     0.212 HD
ENDBRANCH  19  21
ENDBRANCH  17  19
ENDBRANCH   6  17
BRANCH  13  23
HETATM   23  N5  UNL     1      65.421   5.607  74.112  1.00  0.00    -0.271 N 
ATOM     24  H5  UNL     1      65.127   4.650  73.913  1.00  0.00     0.189 HD
BRANCH  23  25
HETATM   25  C10 UNL     1      66.078   6.103  73.027  1.00  0.00     0.160 A 
HETATM   26  N6  UNL     1      67.406   6.381  72.935  1.00  0.00    -0.282 N 
HETATM   27  N7  UNL     1      68.019   6.764  71.852  1.00  0.00    -0.289 N 
ATOM     28  H6  UNL     1      67.967   6.281  73.781  1.00  0.00     0.188 HD
HETATM   29  C11 UNL     1      67.372   6.919  70.712  1.00  0.00     0.130 A 
ATOM     30  H7  UNL     1      69.021   6.947  71.885  1.00  0.00     0.188 HD
HETATM   31  C12 UNL     1      68.097   7.348  69.521  1.00  0.00     0.119 C 
HETATM   32  C13 UNL     1      66.019   6.673  70.661  1.00  0.00     0.073 A 
HETATM   33  N8  UNL     1      68.655   7.706  68.573  1.00  0.00    -0.190 NA
HETATM   34  C14 UNL     1      65.389   6.269  71.812  1.00  0.00     0.096 A 
HETATM   35  N9  UNL     1      64.010   5.993  71.816  1.00  0.00    -0.098 NA
ENDBRANCH  23  25
ENDBRANCH  13  23
BRANCH  14  36
HETATM   36  C16 UNL     1      63.657   3.926  75.934  1.00  0.00     0.197 C 
HETATM   37  N10 UNL     1      64.561   2.853  75.910  1.00  0.00    -0.071 NA
BRANCH  36  38
HETATM   38  O4  UNL     1      62.657   3.954  74.954  1.00  0.00    -0.346 OA
ATOM     39  H4  UNL     1      61.786   4.015  75.329  1.00  0.00     0.219 HD
ENDBRANCH  36  38
ENDBRANCH  14  36
ENDBRANCH   3   5
TORSDOF 7
ENDMDL
MODEL 4
REMARK VINA RESULT: -7.733910543      1.365      1.724
REMARK  8 active torsions:
REMARK  status: ('A' for Active; 'I' for Inactive)
REMARK    1  A    between atoms: C2_3  and  C3_5 
REMARK    2  A    between atoms: C4_6  and  N2_7 
REMARK    3  A    between atoms: N2_7  and  C5_9 
REMARK    4  A    between atoms: C5_9  and  O2_11 
REMARK    5  A    between atoms: N4_18  and  N5_19 
REMARK    6  A    between atoms: N5_19  and  C10_21 
REMARK    7  A    between atoms: C15_32  and  C16_33 
REMARK    8  A    between atoms: C16_33  and  O4_35 
ROOT
HETATM    1  C1  UNL     1      66.583   4.898  87.775  1.00  0.00     0.233 C 
HETATM    2  N1  UNL     1      66.303   3.781  87.129  1.00  0.00    -0.390 NA
HETATM    3  C2  UNL     1      66.013   2.607  86.454  1.00  0.00     0.345 C 
HETATM    4  O1  UNL     1      66.487   1.466  86.604  1.00  0.00    -0.249 OA
ENDROOT
BRANCH   3   5
HETATM    5  C3  UNL     1      64.977   2.695  85.369  1.00  0.00     0.167 A 
HETATM    6  C4  UNL     1      64.415   1.631  84.710  1.00  0.00     0.093 A 
HETATM    7  C7  UNL     1      63.614   2.176  83.731  1.00  0.00     0.109 A 
HETATM    8  N3  UNL     1      62.837   1.505  82.786  1.00  0.00    -0.097 NA
HETATM    9  C8  UNL     1      63.716   3.559  83.836  1.00  0.00     0.153 A 
HETATM   10  C9  UNL     1      63.159   4.583  83.106  1.00  0.00     0.299 A 
HETATM   11  N12 UNL     1      64.552   3.856  84.840  1.00  0.00    -0.238 N 
HETATM   12  O3  UNL     1      62.378   4.252  82.168  1.00  0.00    -0.263 OA
HETATM   13  N4  UNL     1      63.404   5.920  83.340  1.00  0.00    -0.195 N 
HETATM   14  C15 UNL     1      64.233   6.164  84.345  1.00  0.00     0.194 A 
HETATM   15  N11 UNL     1      64.784   5.121  85.067  1.00  0.00    -0.273 N 
ATOM     16  H11 UNL     1      65.417   5.357  85.831  1.00  0.00     0.189 HD
BRANCH   6  17
HETATM   17  N2  UNL     1      64.585   0.237  85.004  1.00  0.00    -0.360 N 
ATOM     18  H2  UNL     1      65.443  -0.205  84.674  1.00  0.00     0.162 HD
BRANCH  17  19
HETATM   19  C5  UNL     1      63.670  -0.583  85.709  1.00  0.00     0.213 C 
HETATM   20  C6  UNL     1      63.464  -0.315  87.152  1.00  0.00     0.063 C 
BRANCH  19  21
HETATM   21  O2  UNL     1      62.400  -0.612  85.109  1.00  0.00    -0.377 OA
ATOM     22  H2  UNL     1      61.698  -0.687  85.746  1.00  0.00     0.212 HD
ENDBRANCH  19  21
ENDBRANCH  17  19
ENDBRANCH   6  17
BRANCH  13  23
HETATM   23  N5  UNL     1      62.793   6.795  82.484  1.00  0.00    -0.271 N 
ATOM     24  H5  UNL     1      61.866   6.437  82.250  1.00  0.00     0.189 HD
BRANCH  23  25
HETATM   25  C10 UNL     1      62.989   7.977  81.836  1.00  0.00     0.160 A 
HETATM   26  N6  UNL     1      62.860   9.225  82.360  1.00  0.00    -0.282 N 
HETATM   27  N7  UNL     1      63.149  10.332  81.739  1.00  0.00    -0.289 N 
ATOM     28  H6  UNL     1      62.510   9.300  83.315  1.00  0.00     0.188 HD
HETATM   29  C11 UNL     1      63.608  10.330  80.502  1.00  0.00     0.130 A 
ATOM     30  H7  UNL     1      63.019  11.222  82.219  1.00  0.00     0.188 HD
HETATM   31  C12 UNL     1      63.921  11.593  79.842  1.00  0.00     0.119 C 
HETATM   32  C13 UNL     1      63.786   9.132  79.847  1.00  0.00     0.073 A 
HETATM   33  N8  UNL     1      64.156  12.588  79.301  1.00  0.00    -0.190 NA
HETATM   34  C14 UNL     1      63.478   7.974  80.517  1.00  0.00     0.096 A 
HETATM   35  N9  UNL     1      63.651   6.721  79.901  1.00  0.00    -0.098 NA
ENDBRANCH  23  25
ENDBRANCH  13  23
BRANCH  14  36
HETATM   36  C16 UNL     1      64.603   7.540  84.813  1.00  0.00     0.197 C 
HETATM   37  N10 UNL     1      63.610   8.272  85.484  1.00  0.00    -0.071 NA
BRANCH  36  38
HETATM   38  O4  UNL     1      65.396   8.222  83.884  1.00  0.00    -0.346 OA
ATOM     39  H4  UNL     1      66.086   8.726  84.300  1.00  0.00     0.219 HD
ENDBRANCH  36  38
ENDBRANCH  14  36
ENDBRANCH   3   5
TORSDOF 7
ENDMDL
MODEL 5
REMARK VINA RESULT: -7.656591405      5.502      9.171
REMARK  8 active torsions:
REMARK  status: ('A' for Active; 'I' for Inactive)
REMARK    1  A    between atoms: C2_3  and  C3_5 
REMARK    2  A    between atoms: C4_6  and  N2_7 
REMARK    3  A    between atoms: N2_7  and  C5_9 
REMARK    4  A    between atoms: C5_9  and  O2_11 
REMARK    5  A    between atoms: N4_18  and  N5_19 
REMARK    6  A    between atoms: N5_19  and  C10_21 
REMARK    7  A    between atoms: C15_32  and  C16_33 
REMARK    8  A    between atoms: C16_33  and  O4_35 
ROOT
HETATM    1  C1  UNL     1      65.044   6.762  71.693  1.00  0.00     0.233 C 
HETATM    2  N1  UNL     1      65.606   6.798  72.887  1.00  0.00    -0.390 NA
HETATM    3  C2  UNL     1      66.198   6.836  74.139  1.00  0.00     0.345 C 
HETATM    4  O1  UNL     1      67.327   7.240  74.471  1.00  0.00    -0.249 OA
ENDROOT
BRANCH   3   5
HETATM    5  C3  UNL     1      65.379   6.315  75.286  1.00  0.00     0.167 A 
HETATM    6  C4  UNL     1      64.672   5.141  75.298  1.00  0.00     0.093 A 
HETATM    7  C7  UNL     1      63.987   5.126  76.493  1.00  0.00     0.109 A 
HETATM    8  N3  UNL     1      63.116   4.146  76.972  1.00  0.00    -0.097 NA
HETATM    9  C8  UNL     1      64.309   6.298  77.168  1.00  0.00     0.153 A 
HETATM   10  C9  UNL     1      63.900   6.808  78.378  1.00  0.00     0.299 A 
HETATM   11  N12 UNL     1      65.159   7.010  76.416  1.00  0.00    -0.238 N 
HETATM   12  O3  UNL     1      63.097   6.099  79.051  1.00  0.00    -0.263 OA
HETATM   13  N4  UNL     1      64.310   8.025  78.882  1.00  0.00    -0.195 N 
HETATM   14  C15 UNL     1      65.153   8.690  78.105  1.00  0.00     0.194 A 
HETATM   15  N11 UNL     1      65.553   8.162  76.891  1.00  0.00    -0.273 N 
ATOM     16  H11 UNL     1      66.202   8.710  76.327  1.00  0.00     0.189 HD
BRANCH   6  17
HETATM   17  N2  UNL     1      64.675   4.112  74.297  1.00  0.00    -0.360 N 
ATOM     18  H2  UNL     1      65.584   3.763  73.994  1.00  0.00     0.162 HD
BRANCH  17  19
HETATM   19  C5  UNL     1      63.531   3.538  73.691  1.00  0.00     0.213 C 
HETATM   20  C6  UNL     1      63.523   3.389  72.217  1.00  0.00     0.063 C 
BRANCH  19  21
HETATM   21  O2  UNL     1      63.205   2.285  74.234  1.00  0.00    -0.377 OA
ATOM     22  H2  UNL     1      63.774   1.592  73.918  1.00  0.00     0.212 HD
ENDBRANCH  19  21
ENDBRANCH  17  19
ENDBRANCH   6  17
BRANCH  13  23
HETATM   23  N5  UNL     1      63.763   8.385  80.083  1.00  0.00    -0.271 N 
ATOM     24  H5  UNL     1      63.196   9.223  79.951  1.00  0.00     0.189 HD
BRANCH  23  25
HETATM   25  C10 UNL     1      63.712   8.017  81.393  1.00  0.00     0.160 A 
HETATM   26  N6  UNL     1      63.279   6.826  81.888  1.00  0.00    -0.282 N 
HETATM   27  N7  UNL     1      63.334   6.470  83.140  1.00  0.00    -0.289 N 
ATOM     28  H6  UNL     1      62.881   6.159  81.228  1.00  0.00     0.188 HD
HETATM   29  C11 UNL     1      63.832   7.270  84.063  1.00  0.00     0.130 A 
ATOM     30  H7  UNL     1      62.983   5.553  83.412  1.00  0.00     0.188 HD
HETATM   31  C12 UNL     1      63.877   6.832  85.454  1.00  0.00     0.119 C 
HETATM   32  C13 UNL     1      64.307   8.510  83.701  1.00  0.00     0.073 A 
HETATM   33  N8  UNL     1      63.900   6.505  86.564  1.00  0.00    -0.190 NA
HETATM   34  C14 UNL     1      64.244   8.869  82.378  1.00  0.00     0.096 A 
HETATM   35  N9  UNL     1      64.724  10.120  81.949  1.00  0.00    -0.098 NA
ENDBRANCH  23  25
ENDBRANCH  13  23
BRANCH  14  36
HETATM   36  C16 UNL     1      65.770  10.007  78.471  1.00  0.00     0.197 C 
HETATM   37  N10 UNL     1      64.944  10.939  79.119  1.00  0.00    -0.071 NA
BRANCH  36  38
HETATM   38  O4  UNL     1      66.632  10.485  77.477  1.00  0.00    -0.346 OA
ATOM     39  H4  UNL     1      67.164  11.212  77.780  1.00  0.00     0.219 HD
ENDBRANCH  36  38
ENDBRANCH  14  36
ENDBRANCH   3   5
TORSDOF 7
ENDMDL
