MODEL 1
REMARK VINA RESULT: -7.820554286      0.000      0.000
REMARK  12 active torsions:
REMARK  status: ('A' for Active; 'I' for Inactive)
REMARK    1  A    between atoms: C1_2  and  C2_4 
REMARK    2  A    between atoms: C3_5  and  N2_6 
REMARK    3  A    between atoms: C4_9  and  C5_10 
REMARK    4  A    between atoms: C5_10  and  O4_11 
REMARK    5  A    between atoms: C5_10  and  O5_13 
REMARK    6  A    between atoms: C6_15  and  N3_16 
REMARK    7  A    between atoms: N3_16  and  C7_18 
REMARK    8  A    between atoms: N4_21  and  O6_23 
REMARK    9  A    between atoms: C10_25  and  C11_26 
REMARK   10  A    between atoms: C11_26  and  O7_27 
REMARK   11  A    between atoms: C11_26  and  O8_29 
REMARK   12  A    between atoms: N5_32  and  N6_33 
ROOT
HETATM    1  C2  UNL     1      60.883   6.363  81.328  1.00  0.00     0.132 A 
HETATM    2  C3  UNL     1      61.594   7.480  81.750  1.00  0.00     0.138 A 
HETATM    3  C4  UNL     1      62.722   7.230  82.539  1.00  0.00     0.076 A 
HETATM    4  C6  UNL     1      63.175   6.022  82.928  1.00  0.00     0.140 A 
HETATM    5  N5  UNL     1      62.422   4.941  82.467  1.00  0.00    -0.209 N 
HETATM    6  C12 UNL     1      61.344   5.127  81.714  1.00  0.00     0.285 A 
HETATM    7  O9  UNL     1      60.690   4.099  81.318  1.00  0.00    -0.265 OA
ENDROOT
BRANCH   4   8
HETATM    8  N3  UNL     1      64.126   5.651  83.894  1.00  0.00    -0.360 N 
ATOM      9  H3  UNL     1      65.043   6.082  83.775  1.00  0.00     0.162 HD
BRANCH   8  10
HETATM   10  C7  UNL     1      64.027   4.789  84.993  1.00  0.00     0.151 C 
HETATM   11  C8  UNL     1      64.615   5.392  86.266  1.00  0.00     0.092 C 
HETATM   12  C9  UNL     1      65.585   4.533  86.873  1.00  0.00     0.031 C 
HETATM   13  N4  UNL     1      66.565   4.906  87.665  1.00  0.00    -0.276 N 
HETATM   14  C10 UNL     1      65.429   3.080  86.548  1.00  0.00     0.151 C 
ATOM     15  H4  UNL     1      67.194   4.195  88.037  1.00  0.00     0.193 HD
HETATM   16  S1  UNL     1      65.108   3.289  84.747  1.00  0.00    -0.128 SA
BRANCH  13  17
HETATM   17  O6  UNL     1      66.768   6.210  88.006  1.00  0.00    -0.290 OA
ATOM     18  H6  UNL     1      66.403   6.929  87.505  1.00  0.00     0.244 HD
ENDBRANCH  13  17
BRANCH  14  19
HETATM   19  C11 UNL     1      66.649   2.278  86.796  1.00  0.00     0.273 C 
BRANCH  19  20
HETATM   20  O7  UNL     1      67.508   2.224  85.719  1.00  0.00    -0.370 OA
ATOM     21  H7  UNL     1      67.650   1.346  85.385  1.00  0.00     0.212 HD
ENDBRANCH  19  20
BRANCH  19  22
HETATM   22  O8  UNL     1      66.243   1.007  87.219  1.00  0.00    -0.370 OA
ATOM     23  H8  UNL     1      66.777   0.368  86.761  1.00  0.00     0.212 HD
ENDBRANCH  19  22
ENDBRANCH  14  19
ENDBRANCH   8  10
ENDBRANCH   4   8
BRANCH   3  24
HETATM   24  C5  UNL     1      63.563   8.424  82.874  1.00  0.00     0.294 C 
BRANCH  24  25
HETATM   25  O4  UNL     1      63.319   8.675  84.257  1.00  0.00    -0.367 OA
ATOM     26  H4  UNL     1      64.102   9.111  84.573  1.00  0.00     0.213 HD
ENDBRANCH  24  25
BRANCH  24  27
HETATM   27  O5  UNL     1      64.922   8.189  82.804  1.00  0.00    -0.367 OA
ATOM     28  H5  UNL     1      65.442   8.774  83.342  1.00  0.00     0.213 HD
ENDBRANCH  24  27
ENDBRANCH   3  24
BRANCH   5  29
HETATM   29  N6  UNL     1      62.786   3.633  82.792  1.00  0.00    -0.334 N 
ATOM     30  H62 UNL     1      63.759   3.447  83.034  1.00  0.00     0.177 HD
ATOM     31  H61 UNL     1      62.093   2.884  82.783  1.00  0.00     0.177 HD
ENDBRANCH   5  29
BRANCH   2  32
HETATM   32  N2  UNL     1      61.137   8.769  81.387  1.00  0.00    -0.114 N 
HETATM   33  O2  UNL     1      61.454   9.348  80.305  1.00  0.00    -0.532 OA
HETATM   34  O3  UNL     1      60.282   9.394  82.297  1.00  0.00    -0.532 OA
ENDBRANCH   2  32
BRANCH   1  35
HETATM   35  C1  UNL     1      59.676   6.437  80.522  1.00  0.00     0.273 C 
HETATM   36  N1  UNL     1      59.756   6.449  79.081  1.00  0.00    -0.057 NA
HETATM   37  O1  UNL     1      58.510   6.493  80.975  1.00  0.00    -0.271 OA
ENDBRANCH   1  35
TORSDOF 12
ENDMDL
MODEL 2
REMARK VINA RESULT: -7.407426547      4.413      6.345
REMARK  12 active torsions:
REMARK  status: ('A' for Active; 'I' for Inactive)
REMARK    1  A    between atoms: C1_2  and  C2_4 
REMARK    2  A    between atoms: C3_5  and  N2_6 
REMARK    3  A    between atoms: C4_9  and  C5_10 
REMARK    4  A    between atoms: C5_10  and  O4_11 
REMARK    5  A    between atoms: C5_10  and  O5_13 
REMARK    6  A    between atoms: C6_15  and  N3_16 
REMARK    7  A    between atoms: N3_16  and  C7_18 
REMARK    8  A    between atoms: N4_21  and  O6_23 
REMARK    9  A    between atoms: C10_25  and  C11_26 
REMARK   10  A    between atoms: C11_26  and  O7_27 
REMARK   11  A    between atoms: C11_26  and  O8_29 
REMARK   12  A    between atoms: N5_32  and  N6_33 
ROOT
HETATM    1  C2  UNL     1      65.459   7.573  76.966  1.00  0.00     0.132 A 
HETATM    2  C3  UNL     1      65.239   8.625  77.845  1.00  0.00     0.138 A 
HETATM    3  C4  UNL     1      64.209   8.445  78.775  1.00  0.00     0.076 A 
HETATM    4  C6  UNL     1      63.415   7.364  78.890  1.00  0.00     0.140 A 
HETATM    5  N5  UNL     1      63.690   6.340  77.983  1.00  0.00    -0.209 N 
HETATM    6  C12 UNL     1      64.659   6.461  77.084  1.00  0.00     0.285 A 
HETATM    7  O9  UNL     1      64.868   5.490  76.275  1.00  0.00    -0.265 OA
ENDROOT
BRANCH   4   8
HETATM    8  N3  UNL     1      62.217   7.157  79.598  1.00  0.00    -0.360 N 
ATOM      9  H3  UNL     1      61.377   7.153  79.019  1.00  0.00     0.162 HD
BRANCH   8  10
HETATM   10  C7  UNL     1      61.984   6.958  80.964  1.00  0.00     0.151 C 
HETATM   11  C8  UNL     1      61.579   8.242  81.683  1.00  0.00     0.092 C 
HETATM   12  C9  UNL     1      62.403   8.507  82.822  1.00  0.00     0.031 C 
HETATM   13  N4  UNL     1      62.626   9.683  83.362  1.00  0.00    -0.276 N 
HETATM   14  C10 UNL     1      63.052   7.298  83.423  1.00  0.00     0.151 C 
ATOM     15  H4  UNL     1      63.236   9.743  84.177  1.00  0.00     0.193 HD
HETATM   16  S1  UNL     1      63.570   6.514  81.840  1.00  0.00    -0.128 SA
BRANCH  13  17
HETATM   17  O6  UNL     1      62.070  10.827  82.871  1.00  0.00    -0.290 OA
ATOM     18  H6  UNL     1      61.314  11.238  83.275  1.00  0.00     0.244 HD
ENDBRANCH  13  17
BRANCH  14  19
HETATM   19  C11 UNL     1      64.215   7.612  84.285  1.00  0.00     0.273 C 
BRANCH  19  20
HETATM   20  O7  UNL     1      63.884   8.277  85.446  1.00  0.00    -0.370 OA
ATOM     21  H7  UNL     1      63.672   9.193  85.316  1.00  0.00     0.212 HD
ENDBRANCH  19  20
BRANCH  19  22
HETATM   22  O8  UNL     1      65.139   8.321  83.509  1.00  0.00    -0.370 OA
ATOM     23  H8  UNL     1      65.061   9.240  83.737  1.00  0.00     0.212 HD
ENDBRANCH  19  22
ENDBRANCH  14  19
ENDBRANCH   8  10
ENDBRANCH   4   8
BRANCH   3  24
HETATM   24  C5  UNL     1      64.067   9.521  79.809  1.00  0.00     0.294 C 
BRANCH  24  25
HETATM   25  O4  UNL     1      65.170   9.334  80.695  1.00  0.00    -0.367 OA
ATOM     26  H4  UNL     1      65.934   9.290  80.133  1.00  0.00     0.213 HD
ENDBRANCH  24  25
BRANCH  24  27
HETATM   27  O5  UNL     1      64.239  10.799  79.315  1.00  0.00    -0.367 OA
ATOM     28  H5  UNL     1      64.947  11.279  79.727  1.00  0.00     0.213 HD
ENDBRANCH  24  27
ENDBRANCH   3  24
BRANCH   5  29
HETATM   29  N6  UNL     1      62.945   5.158  77.999  1.00  0.00    -0.334 N 
ATOM     30  H62 UNL     1      62.088   5.119  77.449  1.00  0.00     0.177 HD
ATOM     31  H61 UNL     1      63.255   4.357  78.552  1.00  0.00     0.177 HD
ENDBRANCH   5  29
BRANCH   2  32
HETATM   32  N2  UNL     1      66.032   9.793  77.741  1.00  0.00    -0.114 N 
HETATM   33  O2  UNL     1      67.030  10.033  78.483  1.00  0.00    -0.532 OA
HETATM   34  O3  UNL     1      65.664  10.695  76.740  1.00  0.00    -0.532 OA
ENDBRANCH   2  32
BRANCH   1  35
HETATM   35  C1  UNL     1      66.471   7.596  75.923  1.00  0.00     0.273 C 
HETATM   36  N1  UNL     1      66.113   7.337  74.548  1.00  0.00    -0.057 NA
HETATM   37  O1  UNL     1      67.687   7.829  76.105  1.00  0.00    -0.271 OA
ENDBRANCH   1  35
TORSDOF 12
ENDMDL
MODEL 3
REMARK VINA RESULT: -7.398388686      1.743      2.163
REMARK  12 active torsions:
REMARK  status: ('A' for Active; 'I' for Inactive)
REMARK    1  A    between atoms: C1_2  and  C2_4 
REMARK    2  A    between atoms: C3_5  and  N2_6 
REMARK    3  A    between atoms: C4_9  and  C5_10 
REMARK    4  A    between atoms: C5_10  and  O4_11 
REMARK    5  A    between atoms: C5_10  and  O5_13 
REMARK    6  A    between atoms: C6_15  and  N3_16 
REMARK    7  A    between atoms: N3_16  and  C7_18 
REMARK    8  A    between atoms: N4_21  and  O6_23 
REMARK    9  A    between atoms: C10_25  and  C11_26 
REMARK   10  A    between atoms: C11_26  and  O7_27 
REMARK   11  A    between atoms: C11_26  and  O8_29 
REMARK   12  A    between atoms: N5_32  and  N6_33 
ROOT
HETATM    1  C2  UNL     1      61.671   6.468  80.482  1.00  0.00     0.132 A 
HETATM    2  C3  UNL     1      62.157   7.701  80.900  1.00  0.00     0.138 A 
HETATM    3  C4  UNL     1      62.671   7.752  82.200  1.00  0.00     0.076 A 
HETATM    4  C6  UNL     1      62.731   6.733  83.077  1.00  0.00     0.140 A 
HETATM    5  N5  UNL     1      62.232   5.521  82.598  1.00  0.00    -0.209 N 
HETATM    6  C12 UNL     1      61.737   5.421  81.370  1.00  0.00     0.285 A 
HETATM    7  O9  UNL     1      61.293   4.283  80.981  1.00  0.00    -0.265 OA
ENDROOT
BRANCH   4   8
HETATM    8  N3  UNL     1      62.990   6.706  84.460  1.00  0.00    -0.360 N 
ATOM      9  H3  UNL     1      62.178   6.899  85.047  1.00  0.00     0.162 HD
BRANCH   8  10
HETATM   10  C7  UNL     1      64.174   6.461  85.165  1.00  0.00     0.151 C 
HETATM   11  C8  UNL     1      65.237   5.782  84.305  1.00  0.00     0.092 C 
HETATM   12  C9  UNL     1      65.737   4.584  84.908  1.00  0.00     0.031 C 
HETATM   13  N4  UNL     1      66.280   3.567  84.280  1.00  0.00    -0.276 N 
HETATM   14  C10 UNL     1      65.607   4.531  86.400  1.00  0.00     0.151 C 
ATOM     15  H4  UNL     1      66.600   2.766  84.825  1.00  0.00     0.193 HD
HETATM   16  S1  UNL     1      63.890   5.187  86.496  1.00  0.00    -0.128 SA
BRANCH  13  17
HETATM   17  O6  UNL     1      66.433   3.545  82.925  1.00  0.00    -0.290 OA
ATOM     18  H6  UNL     1      66.604   4.332  82.421  1.00  0.00     0.244 HD
ENDBRANCH  13  17
BRANCH  14  19
HETATM   19  C11 UNL     1      65.703   3.162  86.958  1.00  0.00     0.273 C 
BRANCH  19  20
HETATM   20  O7  UNL     1      66.971   2.625  86.899  1.00  0.00    -0.370 OA
ATOM     21  H7  UNL     1      67.089   1.997  86.196  1.00  0.00     0.212 HD
ENDBRANCH  19  20
BRANCH  19  22
HETATM   22  O8  UNL     1      64.756   2.369  86.300  1.00  0.00    -0.370 OA
ATOM     23  H8  UNL     1      64.593   1.606  86.843  1.00  0.00     0.212 HD
ENDBRANCH  19  22
ENDBRANCH  14  19
ENDBRANCH   8  10
ENDBRANCH   4   8
BRANCH   3  24
HETATM   24  C5  UNL     1      63.321   9.044  82.595  1.00  0.00     0.294 C 
BRANCH  24  25
HETATM   25  O4  UNL     1      62.587   9.497  83.732  1.00  0.00    -0.367 OA
ATOM     26  H4  UNL     1      62.509  10.437  83.618  1.00  0.00     0.213 HD
ENDBRANCH  24  25
BRANCH  24  27
HETATM   27  O5  UNL     1      64.614   8.901  83.058  1.00  0.00    -0.367 OA
ATOM     28  H5  UNL     1      64.689   8.923  84.005  1.00  0.00     0.213 HD
ENDBRANCH  24  27
ENDBRANCH   3  24
BRANCH   5  29
HETATM   29  N6  UNL     1      62.242   4.380  83.404  1.00  0.00    -0.334 N 
ATOM     30  H62 UNL     1      61.700   3.570  83.103  1.00  0.00     0.177 HD
ATOM     31  H61 UNL     1      62.778   4.363  84.272  1.00  0.00     0.177 HD
ENDBRANCH   5  29
BRANCH   2  32
HETATM   32  N2  UNL     1      62.089   8.807  80.018  1.00  0.00    -0.114 N 
HETATM   33  O2  UNL     1      61.053   9.518  79.862  1.00  0.00    -0.532 OA
HETATM   34  O3  UNL     1      63.259   9.099  79.313  1.00  0.00    -0.532 OA
ENDBRANCH   2  32
BRANCH   1  35
HETATM   35  C1  UNL     1      61.082   6.238  79.174  1.00  0.00     0.273 C 
HETATM   36  N1  UNL     1      59.703   6.579  78.920  1.00  0.00    -0.057 NA
HETATM   37  O1  UNL     1      61.682   5.747  78.191  1.00  0.00    -0.271 OA
ENDBRANCH   1  35
TORSDOF 12
ENDMDL
MODEL 4
REMARK VINA RESULT: -7.315871073      2.993      7.509
REMARK  12 active torsions:
REMARK  status: ('A' for Active; 'I' for Inactive)
REMARK    1  A    between atoms: C1_2  and  C2_4 
REMARK    2  A    between atoms: C3_5  and  N2_6 
REMARK    3  A    between atoms: C4_9  and  C5_10 
REMARK    4  A    between atoms: C5_10  and  O4_11 
REMARK    5  A    between atoms: C5_10  and  O5_13 
REMARK    6  A    between atoms: C6_15  and  N3_16 
REMARK    7  A    between atoms: N3_16  and  C7_18 
REMARK    8  A    between atoms: N4_21  and  O6_23 
REMARK    9  A    between atoms: C10_25  and  C11_26 
REMARK   10  A    between atoms: C11_26  and  O7_27 
REMARK   11  A    between atoms: C11_26  and  O8_29 
REMARK   12  A    between atoms: N5_32  and  N6_33 
ROOT
HETATM    1  C2  UNL     1      63.846   0.401  84.219  1.00  0.00     0.132 A 
HETATM    2  C3  UNL     1      64.919   1.210  84.569  1.00  0.00     0.138 A 
HETATM    3  C4  UNL     1      64.837   2.549  84.172  1.00  0.00     0.076 A 
HETATM    4  C6  UNL     1      63.830   3.118  83.483  1.00  0.00     0.140 A 
HETATM    5  N5  UNL     1      62.780   2.255  83.165  1.00  0.00    -0.209 N 
HETATM    6  C12 UNL     1      62.810   0.977  83.523  1.00  0.00     0.285 A 
HETATM    7  O9  UNL     1      61.819   0.230  83.206  1.00  0.00    -0.265 OA
ENDROOT
BRANCH   4   8
HETATM    8  N3  UNL     1      63.734   4.358  82.824  1.00  0.00    -0.360 N 
ATOM      9  H3  UNL     1      64.195   4.392  81.915  1.00  0.00     0.162 HD
BRANCH   8  10
HETATM   10  C7  UNL     1      63.113   5.552  83.208  1.00  0.00     0.151 C 
HETATM   11  C8  UNL     1      62.115   6.054  82.166  1.00  0.00     0.092 C 
HETATM   12  C9  UNL     1      62.371   7.408  81.781  1.00  0.00     0.031 C 
HETATM   13  N4  UNL     1      62.027   7.971  80.646  1.00  0.00    -0.276 N 
HETATM   14  C10 UNL     1      63.103   8.224  82.802  1.00  0.00     0.151 C 
ATOM     15  H4  UNL     1      62.267   8.949  80.488  1.00  0.00     0.193 HD
HETATM   16  S1  UNL     1      64.350   6.947  83.255  1.00  0.00    -0.128 SA
BRANCH  13  17
HETATM   17  O6  UNL     1      61.358   7.292  79.670  1.00  0.00    -0.290 OA
ATOM     18  H6  UNL     1      60.996   6.425  79.813  1.00  0.00     0.244 HD
ENDBRANCH  13  17
BRANCH  14  19
HETATM   19  C11 UNL     1      63.742   9.440  82.248  1.00  0.00     0.273 C 
BRANCH  19  20
HETATM   20  O7  UNL     1      64.951   9.750  82.835  1.00  0.00    -0.370 OA
ATOM     21  H7  UNL     1      65.679   9.234  82.510  1.00  0.00     0.212 HD
ENDBRANCH  19  20
BRANCH  19  22
HETATM   22  O8  UNL     1      62.818  10.486  82.344  1.00  0.00    -0.370 OA
ATOM     23  H8  UNL     1      63.251  11.280  82.054  1.00  0.00     0.212 HD
ENDBRANCH  19  22
ENDBRANCH  14  19
ENDBRANCH   8  10
ENDBRANCH   4   8
BRANCH   3  24
HETATM   24  C5  UNL     1      65.927   3.448  84.672  1.00  0.00     0.294 C 
BRANCH  24  25
HETATM   25  O4  UNL     1      66.477   4.053  83.502  1.00  0.00    -0.367 OA
ATOM     26  H4  UNL     1      66.682   4.945  83.757  1.00  0.00     0.213 HD
ENDBRANCH  24  25
BRANCH  24  27
HETATM   27  O5  UNL     1      65.473   4.512  85.426  1.00  0.00    -0.367 OA
ATOM     28  H5  UNL     1      66.153   4.948  85.926  1.00  0.00     0.213 HD
ENDBRANCH  24  27
ENDBRANCH   3  24
BRANCH   5  29
HETATM   29  N6  UNL     1      61.668   2.719  82.459  1.00  0.00    -0.334 N 
ATOM     30  H62 UNL     1      61.048   3.388  82.916  1.00  0.00     0.177 HD
ATOM     31  H61 UNL     1      61.484   2.393  81.509  1.00  0.00     0.177 HD
ENDBRANCH   5  29
BRANCH   2  32
HETATM   32  N2  UNL     1      66.012   0.647  85.271  1.00  0.00    -0.114 N 
HETATM   33  O2  UNL     1      66.087   0.598  86.535  1.00  0.00    -0.532 OA
HETATM   34  O3  UNL     1      67.035   0.114  84.482  1.00  0.00    -0.532 OA
ENDBRANCH   2  32
BRANCH   1  35
HETATM   35  C1  UNL     1      63.774  -1.017  84.531  1.00  0.00     0.273 C 
HETATM   36  N1  UNL     1      63.129  -1.470  85.741  1.00  0.00    -0.057 NA
HETATM   37  O1  UNL     1      64.238  -1.935  83.818  1.00  0.00    -0.271 OA
ENDBRANCH   1  35
TORSDOF 12
ENDMDL
MODEL 5
REMARK VINA RESULT: -7.290231617      1.707      3.237
REMARK  12 active torsions:
REMARK  status: ('A' for Active; 'I' for Inactive)
REMARK    1  A    between atoms: C1_2  and  C2_4 
REMARK    2  A    between atoms: C3_5  and  N2_6 
REMARK    3  A    between atoms: C4_9  and  C5_10 
REMARK    4  A    between atoms: C5_10  and  O4_11 
REMARK    5  A    between atoms: C5_10  and  O5_13 
REMARK    6  A    between atoms: C6_15  and  N3_16 
REMARK    7  A    between atoms: N3_16  and  C7_18 
REMARK    8  A    between atoms: N4_21  and  O6_23 
REMARK    9  A    between atoms: C10_25  and  C11_26 
REMARK   10  A    between atoms: C11_26  and  O7_27 
REMARK   11  A    between atoms: C11_26  and  O8_29 
REMARK   12  A    between atoms: N5_32  and  N6_33 
ROOT
HETATM    1  C2  UNL     1      62.838   8.655  81.121  1.00  0.00     0.132 A 
HETATM    2  C3  UNL     1      62.442   7.324  81.111  1.00  0.00     0.138 A 
HETATM    3  C4  UNL     1      62.989   6.511  82.110  1.00  0.00     0.076 A 
HETATM    4  C6  UNL     1      63.859   6.893  83.064  1.00  0.00     0.140 A 
HETATM    5  N5  UNL     1      64.214   8.242  83.024  1.00  0.00    -0.209 N 
HETATM    6  C12 UNL     1      63.719   9.054  82.098  1.00  0.00     0.285 A 
HETATM    7  O9  UNL     1      64.079  10.284  82.108  1.00  0.00    -0.265 OA
ENDROOT
BRANCH   4   8
HETATM    8  N3  UNL     1      64.654   6.146  83.953  1.00  0.00    -0.360 N 
ATOM      9  H3  UNL     1      65.639   6.413  83.968  1.00  0.00     0.162 HD
BRANCH   8  10
HETATM   10  C7  UNL     1      64.321   5.099  84.820  1.00  0.00     0.151 C 
HETATM   11  C8  UNL     1      64.915   5.283  86.215  1.00  0.00     0.092 C 
HETATM   12  C9  UNL     1      65.667   4.141  86.636  1.00  0.00     0.031 C 
HETATM   13  N4  UNL     1      66.638   4.134  87.521  1.00  0.00    -0.276 N 
HETATM   14  C10 UNL     1      65.275   2.853  85.981  1.00  0.00     0.151 C 
ATOM     15  H4  UNL     1      67.100   3.252  87.738  1.00  0.00     0.193 HD
HETATM   16  S1  UNL     1      65.128   3.511  84.268  1.00  0.00    -0.128 SA
BRANCH  13  17
HETATM   17  O6  UNL     1      67.048   5.267  88.160  1.00  0.00    -0.290 OA
ATOM     18  H6  UNL     1      66.885   5.417  89.083  1.00  0.00     0.244 HD
ENDBRANCH  13  17
BRANCH  14  19
HETATM   19  C11 UNL     1      66.309   1.796  86.074  1.00  0.00     0.273 C 
BRANCH  19  20
HETATM   20  O7  UNL     1      66.503   1.319  87.353  1.00  0.00    -0.370 OA
ATOM     21  H7  UNL     1      65.697   1.102  87.807  1.00  0.00     0.212 HD
ENDBRANCH  19  20
BRANCH  19  22
HETATM   22  O8  UNL     1      67.486   2.303  85.511  1.00  0.00    -0.370 OA
ATOM     23  H8  UNL     1      67.309   2.491  84.597  1.00  0.00     0.212 HD
ENDBRANCH  19  22
ENDBRANCH  14  19
ENDBRANCH   8  10
ENDBRANCH   4   8
BRANCH   3  24
HETATM   24  C5  UNL     1      62.453   5.113  82.182  1.00  0.00     0.294 C 
BRANCH  24  25
HETATM   25  O4  UNL     1      61.269   5.209  82.972  1.00  0.00    -0.367 OA
ATOM     26  H4  UNL     1      61.272   4.431  83.519  1.00  0.00     0.213 HD
ENDBRANCH  24  25
BRANCH  24  27
HETATM   27  O5  UNL     1      62.015   4.619  80.969  1.00  0.00    -0.367 OA
ATOM     28  H5  UNL     1      61.385   3.912  81.046  1.00  0.00     0.213 HD
ENDBRANCH  24  27
ENDBRANCH   3  24
BRANCH   5  29
HETATM   29  N6  UNL     1      65.104   8.770  83.962  1.00  0.00    -0.334 N 
ATOM     30  H62 UNL     1      64.787   9.544  84.547  1.00  0.00     0.177 HD
ATOM     31  H61 UNL     1      66.046   8.390  84.055  1.00  0.00     0.177 HD
ENDBRANCH   5  29
BRANCH   2  32
HETATM   32  N2  UNL     1      61.550   6.874  80.109  1.00  0.00    -0.114 N 
HETATM   33  O2  UNL     1      61.921   6.462  78.970  1.00  0.00    -0.532 OA
HETATM   34  O3  UNL     1      60.194   6.892  80.445  1.00  0.00    -0.532 OA
ENDBRANCH   2  32
BRANCH   1  35
HETATM   35  C1  UNL     1      62.388   9.635  80.146  1.00  0.00     0.273 C 
HETATM   36  N1  UNL     1      63.339  10.472  79.454  1.00  0.00    -0.057 NA
HETATM   37  O1  UNL     1      61.194   9.838  79.829  1.00  0.00    -0.271 OA
ENDBRANCH   1  35
TORSDOF 12
ENDMDL
