MODEL 1
REMARK VINA RESULT: -8.528482222      0.000      0.000
REMARK  13 active torsions:
REMARK  status: ('A' for Active; 'I' for Inactive)
REMARK    1  A    between atoms: C2_2  and  C11_28 
REMARK    2  A    between atoms: N1_3  and  C3_5 
REMARK    3  A    between atoms: C4_6  and  C5_7 
REMARK       I    between atoms: C5_7  and  N2_9 
REMARK    4  A    between atoms: N2_9  and  C6_10 
REMARK    5  A    between atoms: N2_9  and  S2_17 
REMARK    6  A    between atoms: C6_10  and  C7_11 
REMARK    7  A    between atoms: C7_11  and  S1_12 
REMARK    8  A    between atoms: S1_12  and  C8_13 
REMARK    9  A    between atoms: C8_13  and  C9_14 
REMARK   10  A    between atoms: C9_14  and  O2_15 
REMARK   11  A    between atoms: N7_32  and  N8_33 
REMARK   12  A    between atoms: C13_36  and  N9_37 
REMARK   13  A    between atoms: C16_45  and  O9_46 
ROOT
HETATM    1  C1  UNL     1      29.376   8.716  12.632  1.00  0.00     0.071 C 
HETATM    2  C2  UNL     1      29.118   7.256  12.674  1.00  0.00     0.040 C 
HETATM    3  N1  UNL     1      27.930   6.897  12.875  1.00  0.00    -0.376 N 
ATOM      4  H1  UNL     1      27.318   7.704  12.981  1.00  0.00     0.160 HD
ENDROOT
BRANCH   3   5
HETATM    5  C3  UNL     1      27.216   5.711  12.994  1.00  0.00     0.214 C 
HETATM    6  C4  UNL     1      26.071   5.687  11.988  1.00  0.00     0.129 C 
HETATM    7  N3  UNL     1      25.030   6.058  12.614  1.00  0.00    -0.259 N 
HETATM    8  O6  UNL     1      25.277   6.344  13.935  1.00  0.00    -0.228 OA
ATOM      9  H3  UNL     1      24.109   6.135  12.183  1.00  0.00     0.194 HD
HETATM   10  C10 UNL     1      26.415   5.567  14.271  1.00  0.00     0.288 A 
HETATM   11  N4  UNL     1      27.047   5.871  15.500  1.00  0.00    -0.068 NA
HETATM   12  N6  UNL     1      26.165   4.242  14.736  1.00  0.00    -0.068 NA
HETATM   13  N5  UNL     1      26.899   4.534  15.892  1.00  0.00    -0.031 NA
BRANCH   6  14
HETATM   14  C5  UNL     1      26.242   5.300  10.598  1.00  0.00     0.285 C 
HETATM   15  O1  UNL     1      27.334   4.705  10.297  1.00  0.00    -0.265 OA
HETATM   16  N2  UNL     1      25.292   5.534   9.573  1.00  0.00    -0.220 N 
BRANCH  16  17
HETATM   17  C6  UNL     1      25.618   5.072   8.204  1.00  0.00     0.158 C 
BRANCH  17  18
HETATM   18  C7  UNL     1      26.458   6.080   7.497  1.00  0.00     0.095 C 
BRANCH  18  19
HETATM   19  S1  UNL     1      26.304   6.034   5.745  1.00  0.00    -0.165 SA
BRANCH  19  20
HETATM   20  C8  UNL     1      24.696   6.244   5.023  1.00  0.00     0.100 C 
BRANCH  20  21
HETATM   21  C9  UNL     1      23.741   5.114   5.268  1.00  0.00     0.174 C 
BRANCH  21  22
HETATM   22  O2  UNL     1      24.313   3.913   4.852  1.00  0.00    -0.400 OA
ATOM     23  H2  UNL     1      23.632   3.273   4.685  1.00  0.00     0.209 HD
ENDBRANCH  21  22
ENDBRANCH  20  21
ENDBRANCH  19  20
ENDBRANCH  18  19
ENDBRANCH  17  18
ENDBRANCH  16  17
BRANCH  16  24
HETATM   24  S2  UNL     1      23.784   6.320   9.793  1.00  0.00     0.213 S 
HETATM   25  O3  UNL     1      22.910   5.544  10.773  1.00  0.00    -0.578 OA
HETATM   26  O4  UNL     1      22.973   6.413   8.534  1.00  0.00    -0.578 OA
HETATM   27  O5  UNL     1      23.963   7.858  10.465  1.00  0.00    -0.578 OA
ENDBRANCH  16  24
ENDBRANCH   6  14
ENDBRANCH   3   5
BRANCH   2  28
HETATM   28  C11 UNL     1      30.181   6.296  12.493  1.00  0.00     0.150 A 
HETATM   29  O7  UNL     1      30.150   5.023  12.926  1.00  0.00    -0.254 OA
HETATM   30  C12 UNL     1      31.230   4.391  12.630  1.00  0.00     0.393 A 
HETATM   31  O8  UNL     1      31.527   3.174  12.891  1.00  0.00    -0.236 OA
HETATM   32  N7  UNL     1      32.043   5.219  11.981  1.00  0.00    -0.184 N 
HETATM   33  C13 UNL     1      31.391   6.441  11.883  1.00  0.00     0.192 A 
BRANCH  32  34
HETATM   34  N8  UNL     1      33.321   4.994  11.460  1.00  0.00    -0.332 N 
ATOM     35  H82 UNL     1      34.083   4.597  12.010  1.00  0.00     0.177 HD
ATOM     36  H81 UNL     1      33.686   5.171  10.525  1.00  0.00     0.177 HD
ENDBRANCH  32  34
BRANCH  33  37
HETATM   37  N9  UNL     1      31.973   7.555  11.244  1.00  0.00    -0.211 N 
HETATM   38  N10 UNL     1      31.856   7.888   9.987  1.00  0.00    -0.275 N 
HETATM   39  C14 UNL     1      32.521   9.028   9.724  1.00  0.00     0.118 A 
ATOM     40  H10 UNL     1      31.330   7.354   9.295  1.00  0.00     0.189 HD
HETATM   41  N11 UNL     1      32.590   9.607   8.570  1.00  0.00    -0.384 N 
HETATM   42  C15 UNL     1      33.096   9.437  10.908  1.00  0.00     0.107 A 
ATOM     43 2H11 UNL     1      32.164   9.305   7.694  1.00  0.00     0.157 HD
ATOM     44 1H11 UNL     1      33.094  10.472   8.371  1.00  0.00     0.157 HD
HETATM   45  C16 UNL     1      32.730   8.484  11.843  1.00  0.00     0.167 A 
BRANCH  45  46
HETATM   46  O9  UNL     1      33.102   8.522  13.167  1.00  0.00    -0.345 OA
ATOM     47  H9  UNL     1      33.651   7.896  13.625  1.00  0.00     0.219 HD
ENDBRANCH  45  46
ENDBRANCH  33  37
ENDBRANCH   2  28
TORSDOF 13
ENDMDL
MODEL 2
REMARK VINA RESULT: -8.210055929      1.020      1.339
REMARK  13 active torsions:
REMARK  status: ('A' for Active; 'I' for Inactive)
REMARK    1  A    between atoms: C2_2  and  C11_28 
REMARK    2  A    between atoms: N1_3  and  C3_5 
REMARK    3  A    between atoms: C4_6  and  C5_7 
REMARK       I    between atoms: C5_7  and  N2_9 
REMARK    4  A    between atoms: N2_9  and  C6_10 
REMARK    5  A    between atoms: N2_9  and  S2_17 
REMARK    6  A    between atoms: C6_10  and  C7_11 
REMARK    7  A    between atoms: C7_11  and  S1_12 
REMARK    8  A    between atoms: S1_12  and  C8_13 
REMARK    9  A    between atoms: C8_13  and  C9_14 
REMARK   10  A    between atoms: C9_14  and  O2_15 
REMARK   11  A    between atoms: N7_32  and  N8_33 
REMARK   12  A    between atoms: C13_36  and  N9_37 
REMARK   13  A    between atoms: C16_45  and  O9_46 
ROOT
HETATM    1  C1  UNL     1      29.301   8.861  12.676  1.00  0.00     0.071 C 
HETATM    2  C2  UNL     1      29.094   7.393  12.702  1.00  0.00     0.040 C 
HETATM    3  N1  UNL     1      27.933   6.990  12.966  1.00  0.00    -0.376 N 
ATOM      4  H1  UNL     1      27.302   7.774  13.127  1.00  0.00     0.160 HD
ENDROOT
BRANCH   3   5
HETATM    5  C3  UNL     1      27.266   5.779  13.102  1.00  0.00     0.214 C 
HETATM    6  C4  UNL     1      26.117   5.700  12.104  1.00  0.00     0.129 C 
HETATM    7  N3  UNL     1      25.066   6.036  12.733  1.00  0.00    -0.259 N 
HETATM    8  O6  UNL     1      25.311   6.344  14.050  1.00  0.00    -0.228 OA
ATOM      9  H3  UNL     1      24.140   6.073  12.308  1.00  0.00     0.194 HD
HETATM   10  C10 UNL     1      26.479   5.617  14.385  1.00  0.00     0.288 A 
HETATM   11  N4  UNL     1      27.108   5.957  15.607  1.00  0.00    -0.068 NA
HETATM   12  N6  UNL     1      26.284   4.287  14.866  1.00  0.00    -0.068 NA
HETATM   13  N5  UNL     1      27.014   4.619  16.014  1.00  0.00    -0.031 NA
BRANCH   6  14
HETATM   14  C5  UNL     1      26.294   5.305  10.717  1.00  0.00     0.285 C 
HETATM   15  O1  UNL     1      27.371   4.677  10.430  1.00  0.00    -0.265 OA
HETATM   16  N2  UNL     1      25.364   5.567   9.679  1.00  0.00    -0.220 N 
BRANCH  16  17
HETATM   17  C6  UNL     1      25.694   5.093   8.315  1.00  0.00     0.158 C 
BRANCH  17  18
HETATM   18  C7  UNL     1      26.476   6.125   7.577  1.00  0.00     0.095 C 
BRANCH  18  19
HETATM   19  S1  UNL     1      26.284   6.049   5.829  1.00  0.00    -0.165 SA
BRANCH  19  20
HETATM   20  C8  UNL     1      24.669   6.294   5.135  1.00  0.00     0.100 C 
BRANCH  20  21
HETATM   21  C9  UNL     1      23.737   5.127   5.278  1.00  0.00     0.174 C 
BRANCH  21  22
HETATM   22  O2  UNL     1      24.364   3.965   4.830  1.00  0.00    -0.400 OA
ATOM     23  H2  UNL     1      23.748   3.437   4.337  1.00  0.00     0.209 HD
ENDBRANCH  21  22
ENDBRANCH  20  21
ENDBRANCH  19  20
ENDBRANCH  18  19
ENDBRANCH  17  18
ENDBRANCH  16  17
BRANCH  16  24
HETATM   24  S2  UNL     1      23.878   6.398   9.879  1.00  0.00     0.213 S 
HETATM   25  O3  UNL     1      23.156   6.540   8.543  1.00  0.00    -0.578 OA
HETATM   26  O4  UNL     1      24.045   7.801  10.384  1.00  0.00    -0.578 OA
HETATM   27  O5  UNL     1      22.812   5.558  10.883  1.00  0.00    -0.578 OA
ENDBRANCH  16  24
ENDBRANCH   6  14
ENDBRANCH   3   5
BRANCH   2  28
HETATM   28  C11 UNL     1      30.175   6.474  12.437  1.00  0.00     0.150 A 
HETATM   29  O7  UNL     1      30.138   5.152  12.683  1.00  0.00    -0.254 OA
HETATM   30  C12 UNL     1      31.238   4.573  12.352  1.00  0.00     0.393 A 
HETATM   31  O8  UNL     1      31.537   3.333  12.451  1.00  0.00    -0.236 OA
HETATM   32  N7  UNL     1      32.071   5.489  11.865  1.00  0.00    -0.184 N 
HETATM   33  C13 UNL     1      31.409   6.710  11.911  1.00  0.00     0.192 A 
BRANCH  32  34
HETATM   34  N8  UNL     1      33.373   5.347  11.379  1.00  0.00    -0.332 N 
ATOM     35  H82 UNL     1      33.594   4.845  10.518  1.00  0.00     0.177 HD
ATOM     36  H81 UNL     1      34.255   5.688  11.761  1.00  0.00     0.177 HD
ENDBRANCH  32  34
BRANCH  33  37
HETATM   37  N9  UNL     1      32.008   7.906  11.465  1.00  0.00    -0.211 N 
HETATM   38  N10 UNL     1      32.822   8.674  12.137  1.00  0.00    -0.275 N 
HETATM   39  C14 UNL     1      33.227   9.720  11.391  1.00  0.00     0.118 A 
ATOM     40  H10 UNL     1      33.113   8.505  13.099  1.00  0.00     0.189 HD
HETATM   41  N11 UNL     1      34.034  10.651  11.782  1.00  0.00    -0.384 N 
HETATM   42  C15 UNL     1      32.618   9.593  10.162  1.00  0.00     0.107 A 
ATOM     43 2H11 UNL     1      34.485  10.745  12.692  1.00  0.00     0.157 HD
ATOM     44 1H11 UNL     1      34.341  11.443  11.217  1.00  0.00     0.157 HD
HETATM   45  C16 UNL     1      31.858   8.439  10.245  1.00  0.00     0.167 A 
BRANCH  45  46
HETATM   46  O9  UNL     1      31.087   7.949   9.216  1.00  0.00    -0.345 OA
ATOM     47  H9  UNL     1      30.624   8.454   8.558  1.00  0.00     0.219 HD
ENDBRANCH  45  46
ENDBRANCH  33  37
ENDBRANCH   2  28
TORSDOF 13
ENDMDL
MODEL 3
REMARK VINA RESULT: -7.806334102      3.306      8.267
REMARK  13 active torsions:
REMARK  status: ('A' for Active; 'I' for Inactive)
REMARK    1  A    between atoms: C2_2  and  C11_28 
REMARK    2  A    between atoms: N1_3  and  C3_5 
REMARK    3  A    between atoms: C4_6  and  C5_7 
REMARK       I    between atoms: C5_7  and  N2_9 
REMARK    4  A    between atoms: N2_9  and  C6_10 
REMARK    5  A    between atoms: N2_9  and  S2_17 
REMARK    6  A    between atoms: C6_10  and  C7_11 
REMARK    7  A    between atoms: C7_11  and  S1_12 
REMARK    8  A    between atoms: S1_12  and  C8_13 
REMARK    9  A    between atoms: C8_13  and  C9_14 
REMARK   10  A    between atoms: C9_14  and  O2_15 
REMARK   11  A    between atoms: N7_32  and  N8_33 
REMARK   12  A    between atoms: C13_36  and  N9_37 
REMARK   13  A    between atoms: C16_45  and  O9_46 
ROOT
HETATM    1  C1  UNL     1      29.022   9.204  13.416  1.00  0.00     0.071 C 
HETATM    2  C2  UNL     1      29.404   8.329  12.281  1.00  0.00     0.040 C 
HETATM    3  N1  UNL     1      30.612   8.348  11.934  1.00  0.00    -0.376 N 
ATOM      4  H1  UNL     1      31.149   8.990  12.515  1.00  0.00     0.160 HD
ENDROOT
BRANCH   3   5
HETATM    5  C3  UNL     1      31.423   7.742  10.982  1.00  0.00     0.214 C 
HETATM    6  C4  UNL     1      32.360   6.743  11.653  1.00  0.00     0.129 C 
HETATM    7  N3  UNL     1      33.468   7.341  11.819  1.00  0.00    -0.259 N 
HETATM    8  O6  UNL     1      33.450   8.635  11.355  1.00  0.00    -0.228 OA
ATOM      9  H3  UNL     1      34.285   6.908  12.249  1.00  0.00     0.194 HD
HETATM   10  C10 UNL     1      32.456   8.647  10.345  1.00  0.00     0.288 A 
HETATM   11  N4  UNL     1      32.042   9.918   9.882  1.00  0.00    -0.068 NA
HETATM   12  N6  UNL     1      32.887   8.316   9.026  1.00  0.00    -0.068 NA
HETATM   13  N5  UNL     1      32.360   9.532   8.573  1.00  0.00    -0.031 NA
BRANCH   6  14
HETATM   14  C5  UNL     1      31.964   5.389  11.998  1.00  0.00     0.285 C 
HETATM   15  O1  UNL     1      30.913   5.262  12.717  1.00  0.00    -0.265 OA
HETATM   16  N2  UNL     1      32.655   4.219  11.593  1.00  0.00    -0.220 N 
BRANCH  16  17
HETATM   17  C6  UNL     1      32.116   2.909  12.027  1.00  0.00     0.158 C 
BRANCH  17  18
HETATM   18  C7  UNL     1      32.822   2.432  13.250  1.00  0.00     0.095 C 
BRANCH  18  19
HETATM   19  S1  UNL     1      31.832   1.419  14.295  1.00  0.00    -0.165 SA
BRANCH  19  20
HETATM   20  C8  UNL     1      30.356   2.105  15.001  1.00  0.00     0.100 C 
BRANCH  20  21
HETATM   21  C9  UNL     1      29.613   1.188  15.927  1.00  0.00     0.174 C 
BRANCH  21  22
HETATM   22  O2  UNL     1      29.231   1.883  17.073  1.00  0.00    -0.400 OA
ATOM     23  H2  UNL     1      28.377   2.277  16.940  1.00  0.00     0.209 HD
ENDBRANCH  21  22
ENDBRANCH  20  21
ENDBRANCH  19  20
ENDBRANCH  18  19
ENDBRANCH  17  18
ENDBRANCH  16  17
BRANCH  16  24
HETATM   24  S2  UNL     1      34.078   4.200  10.637  1.00  0.00     0.213 S 
HETATM   25  O3  UNL     1      34.516   2.768  10.351  1.00  0.00    -0.578 OA
HETATM   26  O4  UNL     1      35.254   4.842  11.311  1.00  0.00    -0.578 OA
HETATM   27  O5  UNL     1      33.834   4.911   9.125  1.00  0.00    -0.578 OA
ENDBRANCH  16  24
ENDBRANCH   6  14
ENDBRANCH   3   5
BRANCH   2  28
HETATM   28  C11 UNL     1      28.434   7.498  11.608  1.00  0.00     0.150 A 
HETATM   29  O7  UNL     1      28.160   7.547  10.292  1.00  0.00    -0.254 OA
HETATM   30  C12 UNL     1      27.254   6.697   9.960  1.00  0.00     0.393 A 
HETATM   31  O8  UNL     1      26.763   6.482   8.799  1.00  0.00    -0.236 OA
HETATM   32  N7  UNL     1      26.874   6.034  11.049  1.00  0.00    -0.184 N 
HETATM   33  C13 UNL     1      27.617   6.532  12.112  1.00  0.00     0.192 A 
BRANCH  32  34
HETATM   34  N8  UNL     1      25.923   5.020  11.194  1.00  0.00    -0.332 N 
ATOM     35  H82 UNL     1      25.847   4.233  10.550  1.00  0.00     0.177 HD
ATOM     36  H81 UNL     1      25.202   4.897  11.905  1.00  0.00     0.177 HD
ENDBRANCH  32  34
BRANCH  33  37
HETATM   37  N9  UNL     1      27.466   6.045  13.427  1.00  0.00    -0.211 N 
HETATM   38  N10 UNL     1      28.398   5.534  14.186  1.00  0.00    -0.275 N 
HETATM   39  C14 UNL     1      27.908   5.200  15.394  1.00  0.00     0.118 A 
ATOM     40  H10 UNL     1      29.369   5.405  13.900  1.00  0.00     0.189 HD
HETATM   41  N11 UNL     1      28.590   4.673  16.359  1.00  0.00    -0.384 N 
HETATM   42  C15 UNL     1      26.570   5.528  15.388  1.00  0.00     0.107 A 
ATOM     43 2H11 UNL     1      29.580   4.430  16.364  1.00  0.00     0.157 HD
ATOM     44 1H11 UNL     1      28.219   4.420  17.275  1.00  0.00     0.157 HD
HETATM   45  C16 UNL     1      26.328   6.057  14.132  1.00  0.00     0.167 A 
BRANCH  45  46
HETATM   46  O9  UNL     1      25.099   6.514  13.714  1.00  0.00    -0.345 OA
ATOM     47  H9  UNL     1      24.666   7.317  13.979  1.00  0.00     0.219 HD
ENDBRANCH  45  46
ENDBRANCH  33  37
ENDBRANCH   2  28
TORSDOF 13
ENDMDL
MODEL 4
REMARK VINA RESULT: -7.757208030      2.063      2.569
REMARK  13 active torsions:
REMARK  status: ('A' for Active; 'I' for Inactive)
REMARK    1  A    between atoms: C2_2  and  C11_28 
REMARK    2  A    between atoms: N1_3  and  C3_5 
REMARK    3  A    between atoms: C4_6  and  C5_7 
REMARK       I    between atoms: C5_7  and  N2_9 
REMARK    4  A    between atoms: N2_9  and  C6_10 
REMARK    5  A    between atoms: N2_9  and  S2_17 
REMARK    6  A    between atoms: C6_10  and  C7_11 
REMARK    7  A    between atoms: C7_11  and  S1_12 
REMARK    8  A    between atoms: S1_12  and  C8_13 
REMARK    9  A    between atoms: C8_13  and  C9_14 
REMARK   10  A    between atoms: C9_14  and  O2_15 
REMARK   11  A    between atoms: N7_32  and  N8_33 
REMARK   12  A    between atoms: C13_36  and  N9_37 
REMARK   13  A    between atoms: C16_45  and  O9_46 
ROOT
HETATM    1  C1  UNL     1      28.271   8.995  14.598  1.00  0.00     0.071 C 
HETATM    2  C2  UNL     1      28.622   7.731  13.907  1.00  0.00     0.040 C 
HETATM    3  N1  UNL     1      27.843   6.758  14.077  1.00  0.00    -0.376 N 
ATOM      4  H1  UNL     1      27.068   7.013  14.689  1.00  0.00     0.160 HD
ENDROOT
BRANCH   3   5
HETATM    5  C3  UNL     1      27.738   5.435  13.668  1.00  0.00     0.214 C 
HETATM    6  C4  UNL     1      26.556   5.273  12.719  1.00  0.00     0.129 C 
HETATM    7  N3  UNL     1      25.586   4.846  13.419  1.00  0.00    -0.259 N 
HETATM    8  O6  UNL     1      25.916   4.682  14.742  1.00  0.00    -0.228 OA
ATOM      9  H3  UNL     1      24.660   4.648  13.039  1.00  0.00     0.194 HD
HETATM   10  C10 UNL     1      27.315   4.459  14.745  1.00  0.00     0.288 A 
HETATM   11  N4  UNL     1      27.963   4.522  16.002  1.00  0.00    -0.068 NA
HETATM   12  N6  UNL     1      27.744   3.105  14.602  1.00  0.00    -0.068 NA
HETATM   13  N5  UNL     1      28.474   3.234  15.790  1.00  0.00    -0.031 NA
BRANCH   6  14
HETATM   14  C5  UNL     1      26.628   5.576  11.300  1.00  0.00     0.285 C 
HETATM   15  O1  UNL     1      27.731   5.308  10.709  1.00  0.00    -0.265 OA
HETATM   16  N2  UNL     1      25.571   6.139  10.541  1.00  0.00    -0.220 N 
BRANCH  16  17
HETATM   17  C6  UNL     1      25.805   6.384   9.100  1.00  0.00     0.158 C 
BRANCH  17  18
HETATM   18  C7  UNL     1      25.317   5.233   8.287  1.00  0.00     0.095 C 
BRANCH  18  19
HETATM   19  S1  UNL     1      24.142   5.678   7.055  1.00  0.00    -0.165 SA
BRANCH  19  20
HETATM   20  C8  UNL     1      24.200   4.855   5.483  1.00  0.00     0.100 C 
BRANCH  20  21
HETATM   21  C9  UNL     1      25.465   5.068   4.705  1.00  0.00     0.174 C 
BRANCH  21  22
HETATM   22  O2  UNL     1      26.461   4.217   5.182  1.00  0.00    -0.400 OA
ATOM     23  H2  UNL     1      26.922   3.821   4.453  1.00  0.00     0.209 HD
ENDBRANCH  21  22
ENDBRANCH  20  21
ENDBRANCH  19  20
ENDBRANCH  18  19
ENDBRANCH  17  18
ENDBRANCH  16  17
BRANCH  16  24
HETATM   24  S2  UNL     1      24.033   6.566  11.167  1.00  0.00     0.213 S 
HETATM   25  O3  UNL     1      23.630   7.961  10.702  1.00  0.00    -0.578 OA
HETATM   26  O4  UNL     1      23.996   6.626  12.665  1.00  0.00    -0.578 OA
HETATM   27  O5  UNL     1      22.816   5.535  10.612  1.00  0.00    -0.578 OA
ENDBRANCH  16  24
ENDBRANCH   6  14
ENDBRANCH   3   5
BRANCH   2  28
HETATM   28  C11 UNL     1      29.800   7.624  13.081  1.00  0.00     0.150 A 
HETATM   29  O7  UNL     1      30.518   6.499  12.906  1.00  0.00    -0.254 OA
HETATM   30  C12 UNL     1      31.518   6.687  12.120  1.00  0.00     0.393 A 
HETATM   31  O8  UNL     1      32.395   5.835  11.744  1.00  0.00    -0.236 OA
HETATM   32  N7  UNL     1      31.518   7.958  11.729  1.00  0.00    -0.184 N 
HETATM   33  C13 UNL     1      30.428   8.573  12.333  1.00  0.00     0.192 A 
BRANCH  32  34
HETATM   34  N8  UNL     1      32.399   8.634  10.881  1.00  0.00    -0.332 N 
ATOM     35  H82 UNL     1      33.401   8.707  11.063  1.00  0.00     0.177 HD
ATOM     36  H81 UNL     1      32.216   9.129  10.008  1.00  0.00     0.177 HD
ENDBRANCH  32  34
BRANCH  33  37
HETATM   37  N9  UNL     1      30.127   9.935  12.130  1.00  0.00    -0.211 N 
HETATM   38  N10 UNL     1      29.147  10.425  11.419  1.00  0.00    -0.275 N 
HETATM   39  C14 UNL     1      29.138  11.770  11.469  1.00  0.00     0.118 A 
ATOM     40  H10 UNL     1      28.477   9.862  10.896  1.00  0.00     0.189 HD
HETATM   41  N11 UNL     1      28.288  12.536  10.867  1.00  0.00    -0.384 N 
HETATM   42  C15 UNL     1      30.192  12.147  12.272  1.00  0.00     0.107 A 
ATOM     43 2H11 UNL     1      27.507  12.258  10.273  1.00  0.00     0.157 HD
ATOM     44 1H11 UNL     1      28.281  13.556  10.905  1.00  0.00     0.157 HD
HETATM   45  C16 UNL     1      30.792  10.965  12.670  1.00  0.00     0.167 A 
BRANCH  45  46
HETATM   46  O9  UNL     1      31.895  10.900  13.491  1.00  0.00    -0.345 OA
ATOM     47  H9  UNL     1      31.939  11.138  14.409  1.00  0.00     0.219 HD
ENDBRANCH  45  46
ENDBRANCH  33  37
ENDBRANCH   2  28
TORSDOF 13
ENDMDL
MODEL 5
REMARK VINA RESULT: -7.740642643      3.296      8.194
REMARK  13 active torsions:
REMARK  status: ('A' for Active; 'I' for Inactive)
REMARK    1  A    between atoms: C2_2  and  C11_28 
REMARK    2  A    between atoms: N1_3  and  C3_5 
REMARK    3  A    between atoms: C4_6  and  C5_7 
REMARK       I    between atoms: C5_7  and  N2_9 
REMARK    4  A    between atoms: N2_9  and  C6_10 
REMARK    5  A    between atoms: N2_9  and  S2_17 
REMARK    6  A    between atoms: C6_10  and  C7_11 
REMARK    7  A    between atoms: C7_11  and  S1_12 
REMARK    8  A    between atoms: S1_12  and  C8_13 
REMARK    9  A    between atoms: C8_13  and  C9_14 
REMARK   10  A    between atoms: C9_14  and  O2_15 
REMARK   11  A    between atoms: N7_32  and  N8_33 
REMARK   12  A    between atoms: C13_36  and  N9_37 
REMARK   13  A    between atoms: C16_45  and  O9_46 
ROOT
HETATM    1  C1  UNL     1      28.803   8.565  13.843  1.00  0.00     0.071 C 
HETATM    2  C2  UNL     1      29.169   8.048  12.502  1.00  0.00     0.040 C 
HETATM    3  N1  UNL     1      30.338   8.286  12.104  1.00  0.00    -0.376 N 
ATOM      4  H1  UNL     1      30.860   8.818  12.799  1.00  0.00     0.160 HD
ENDROOT
BRANCH   3   5
HETATM    5  C3  UNL     1      31.120   8.029  10.985  1.00  0.00     0.214 C 
HETATM    6  C4  UNL     1      32.377   7.267  11.388  1.00  0.00     0.129 C 
HETATM    7  N3  UNL     1      33.303   8.128  11.499  1.00  0.00    -0.259 N 
HETATM    8  O6  UNL     1      32.877   9.406  11.229  1.00  0.00    -0.228 OA
ATOM      9  H3  UNL     1      34.261   7.896  11.762  1.00  0.00     0.194 HD
HETATM   10  C10 UNL     1      31.769   9.246  10.360  1.00  0.00     0.288 A 
HETATM   11  N4  UNL     1      30.972  10.393  10.134  1.00  0.00    -0.068 NA
HETATM   12  N6  UNL     1      32.060   9.184   8.964  1.00  0.00    -0.068 NA
HETATM   13  N5  UNL     1      31.171  10.245   8.754  1.00  0.00    -0.031 NA
BRANCH   6  14
HETATM   14  C5  UNL     1      32.405   5.827  11.585  1.00  0.00     0.285 C 
HETATM   15  O1  UNL     1      31.665   5.359  12.518  1.00  0.00    -0.265 OA
HETATM   16  N2  UNL     1      33.186   4.925  10.821  1.00  0.00    -0.220 N 
BRANCH  16  17
HETATM   17  C6  UNL     1      33.098   3.482  11.146  1.00  0.00     0.158 C 
BRANCH  17  18
HETATM   18  C7  UNL     1      34.296   3.046  11.919  1.00  0.00     0.095 C 
BRANCH  18  19
HETATM   19  S1  UNL     1      34.012   1.641  12.941  1.00  0.00    -0.165 SA
BRANCH  19  20
HETATM   20  C8  UNL     1      32.343   1.096  13.199  1.00  0.00     0.100 C 
BRANCH  20  21
HETATM   21  C9  UNL     1      31.621   1.779  14.323  1.00  0.00     0.174 C 
BRANCH  21  22
HETATM   22  O2  UNL     1      31.065   2.973  13.869  1.00  0.00    -0.400 OA
ATOM     23  H2  UNL     1      30.385   2.790  13.232  1.00  0.00     0.209 HD
ENDBRANCH  21  22
ENDBRANCH  20  21
ENDBRANCH  19  20
ENDBRANCH  18  19
ENDBRANCH  17  18
ENDBRANCH  16  17
BRANCH  16  24
HETATM   24  S2  UNL     1      34.235   5.374   9.541  1.00  0.00     0.213 S 
HETATM   25  O3  UNL     1      33.460   6.070   8.428  1.00  0.00    -0.578 OA
HETATM   26  O4  UNL     1      34.902   4.204   8.881  1.00  0.00    -0.578 OA
HETATM   27  O5  UNL     1      35.405   6.483  10.041  1.00  0.00    -0.578 OA
ENDBRANCH  16  24
ENDBRANCH   6  14
ENDBRANCH   3   5
BRANCH   2  28
HETATM   28  C11 UNL     1      28.228   7.310  11.695  1.00  0.00     0.150 A 
HETATM   29  O7  UNL     1      27.903   7.609  10.424  1.00  0.00    -0.254 OA
HETATM   30  C12 UNL     1      27.039   6.786   9.945  1.00  0.00     0.393 A 
HETATM   31  O8  UNL     1      26.519   6.781   8.777  1.00  0.00    -0.236 OA
HETATM   32  N7  UNL     1      26.740   5.889  10.881  1.00  0.00    -0.184 N 
HETATM   33  C13 UNL     1      27.490   6.208  12.007  1.00  0.00     0.192 A 
BRANCH  32  34
HETATM   34  N8  UNL     1      25.859   4.805  10.835  1.00  0.00    -0.332 N 
ATOM     35  H82 UNL     1      25.740   4.221  10.008  1.00  0.00     0.177 HD
ATOM     36  H81 UNL     1      25.236   4.438  11.555  1.00  0.00     0.177 HD
ENDBRANCH  32  34
BRANCH  33  37
HETATM   37  N9  UNL     1      27.419   5.452  13.195  1.00  0.00    -0.211 N 
HETATM   38  N10 UNL     1      28.202   4.468  13.548  1.00  0.00    -0.275 N 
HETATM   39  C14 UNL     1      27.866   3.993  14.762  1.00  0.00     0.118 A 
ATOM     40  H10 UNL     1      28.968   4.108  12.978  1.00  0.00     0.189 HD
HETATM   41  N11 UNL     1      28.458   3.021  15.376  1.00  0.00    -0.384 N 
HETATM   42  C15 UNL     1      26.792   4.737  15.198  1.00  0.00     0.107 A 
ATOM     43 2H11 UNL     1      29.253   2.470  15.053  1.00  0.00     0.157 HD
ATOM     44 1H11 UNL     1      28.203   2.662  16.296  1.00  0.00     0.157 HD
HETATM   45  C16 UNL     1      26.538   5.646  14.186  1.00  0.00     0.167 A 
BRANCH  45  46
HETATM   46  O9  UNL     1      25.533   6.585  14.228  1.00  0.00    -0.345 OA
ATOM     47  H9  UNL     1      24.654   6.499  13.877  1.00  0.00     0.219 HD
ENDBRANCH  45  46
ENDBRANCH  33  37
ENDBRANCH   2  28
TORSDOF 13
ENDMDL
