MODEL 1
REMARK VINA RESULT: -8.719516974      0.000      0.000
REMARK  15 active torsions:
REMARK  status: ('A' for Active; 'I' for Inactive)
REMARK    1  A    between atoms: N4_5  and  C2_6 
REMARK    2  A    between atoms: C3_9  and  C4_10 
REMARK    3  A    between atoms: C5_13  and  C6_14 
REMARK    4  A    between atoms: C6_14  and  O3_15 
REMARK    5  A    between atoms: C6_14  and  O4_17 
REMARK    6  A    between atoms: N6_19  and  N7_20 
REMARK    7  A    between atoms: N7_20  and  C7_22 
REMARK    8  A    between atoms: C7_22  and  C8_23 
REMARK    9  A    between atoms: C7_22  and  C10_31 
REMARK   10  A    between atoms: C8_23  and  C9_24 
REMARK   11  A    between atoms: C10_31  and  C11_32 
REMARK   12  A    between atoms: C11_32  and  N12_33 
REMARK   13  A    between atoms: C14_38  and  N14_39 
REMARK   14  A    between atoms: N17_48  and  O5_50 
REMARK   15  A    between atoms: C17_52  and  N18_53 
ROOT
HETATM    1  C7  UNL     1      25.659   5.381   7.790  1.00  0.00     0.156 C 
ENDROOT
BRANCH   1   2
HETATM    2  N7  UNL     1      26.670   5.627   6.814  1.00  0.00    -0.317 N 
ATOM      3  H7  UNL     1      27.574   5.187   6.987  1.00  0.00     0.181 HD
BRANCH   2   4
HETATM    4  N6  UNL     1      26.578   6.386   5.663  1.00  0.00    -0.237 N 
HETATM    5  C5  UNL     1      25.553   6.128   4.787  1.00  0.00     0.123 A 
HETATM    6  C3  UNL     1      25.348   6.943   3.723  1.00  0.00     0.141 A 
HETATM    7  N5  UNL     1      26.167   8.023   3.511  1.00  0.00    -0.330 N 
HETATM    8  C2  UNL     1      27.166   8.316   4.313  1.00  0.00     0.185 A 
ATOM      9  H5  UNL     1      25.994   8.620   2.703  1.00  0.00     0.168 HD
HETATM   10  C17 UNL     1      27.378   7.467   5.430  1.00  0.00     0.168 A 
BRANCH   5  11
HETATM   11  C6  UNL     1      24.758   4.874   4.998  1.00  0.00     0.309 C 
BRANCH  11  12
HETATM   12  O3  UNL     1      23.364   5.132   4.985  1.00  0.00    -0.366 OA
ATOM     13  H3  UNL     1      22.979   5.017   5.847  1.00  0.00     0.213 HD
ENDBRANCH  11  12
BRANCH  11  14
HETATM   14  O4  UNL     1      25.098   3.843   4.173  1.00  0.00    -0.366 OA
ATOM     15  H4  UNL     1      24.410   3.576   3.574  1.00  0.00     0.213 HD
ENDBRANCH  11  14
ENDBRANCH   5  11
BRANCH   6  16
HETATM   16  C4  UNL     1      24.268   6.798   2.767  1.00  0.00     0.229 C 
HETATM   17  O1  UNL     1      23.087   6.978   3.010  1.00  0.00    -0.643 OA
HETATM   18  O2  UNL     1      24.544   6.419   1.425  1.00  0.00    -0.643 OA
ENDBRANCH   6  16
BRANCH   8  19
HETATM   19  N4  UNL     1      28.033   9.428   4.111  1.00  0.00    -0.165 N 
HETATM   20  N1  UNL     1      28.009  10.773   4.443  1.00  0.00    -0.108 NA
HETATM   21  C1  UNL     1      27.569  11.681   3.401  1.00  0.00     0.162 C 
HETATM   22  N2  UNL     1      29.431  10.716   4.400  1.00  0.00    -0.012 NA
HETATM   23  N3  UNL     1      29.260   9.630   3.498  1.00  0.00     0.009 NA
ENDBRANCH   8  19
BRANCH  10  24
HETATM   24  N18 UNL     1      28.293   7.800   6.149  1.00  0.00    -0.381 N 
ATOM     25 2H18 UNL     1      29.076   7.194   6.394  1.00  0.00     0.157 HD
ATOM     26 1H18 UNL     1      28.217   8.746   6.521  1.00  0.00     0.157 HD
ENDBRANCH  10  24
ENDBRANCH   2   4
ENDBRANCH   1   2
BRANCH   1  27
HETATM   27  C8  UNL     1      24.613   6.488   7.872  1.00  0.00     0.111 C 
BRANCH  27  28
HETATM   28  C9  UNL     1      23.385   5.982   8.484  1.00  0.00     0.109 A 
HETATM   29  N8  UNL     1      22.829   6.418   9.623  1.00  0.00    -0.274 N 
HETATM   30  N9  UNL     1      21.724   5.743   9.889  1.00  0.00    -0.007 NA
ATOM     31  H8  UNL     1      23.206   7.167  10.204  1.00  0.00     0.185 HD
HETATM   32  N10 UNL     1      21.557   4.854   8.909  1.00  0.00    -0.007 NA
HETATM   33  N11 UNL     1      22.575   5.000   8.048  1.00  0.00    -0.274 N 
ATOM     34  H11 UNL     1      22.713   4.454   7.197  1.00  0.00     0.185 HD
ENDBRANCH  27  28
ENDBRANCH   1  27
BRANCH   1  35
HETATM   35  C10 UNL     1      26.263   5.331   9.176  1.00  0.00     0.052 C 
HETATM   36  N17 UNL     1      26.642   4.192   9.643  1.00  0.00    -0.274 N 
ATOM     37  H17 UNL     1      27.051   4.142  10.577  1.00  0.00     0.193 HD
BRANCH  35  38
HETATM   38  C11 UNL     1      26.407   6.557   9.956  1.00  0.00     0.188 C 
BRANCH  38  39
HETATM   39  N12 UNL     1      26.147   6.345  11.355  1.00  0.00    -0.322 N 
HETATM   40  C12 UNL     1      24.997   5.917  11.890  1.00  0.00     0.185 A 
HETATM   41  N13 UNL     1      25.152   5.843  13.248  1.00  0.00    -0.346 N 
HETATM   42  C13 UNL     1      26.392   6.222  13.557  1.00  0.00     0.122 A 
ATOM     43  H13 UNL     1      24.437   5.547  13.913  1.00  0.00     0.167 HD
HETATM   44  C14 UNL     1      27.071   6.337  14.732  1.00  0.00     0.131 A 
HETATM   45  C16 UNL     1      27.015   6.538  12.352  1.00  0.00     0.140 A 
HETATM   46  N15 UNL     1      28.364   6.758  14.770  1.00  0.00    -0.337 N 
HETATM   47  C15 UNL     1      28.967   7.064  13.599  1.00  0.00     0.183 A 
ATOM     48  H15 UNL     1      28.865   6.839  15.655  1.00  0.00     0.168 HD
HETATM   49  N16 UNL     1      28.310   6.956  12.430  1.00  0.00    -0.336 N 
ATOM     50  H16 UNL     1      28.799   7.197  11.569  1.00  0.00     0.168 HD
BRANCH  44  51
HETATM   51  N14 UNL     1      26.484   6.041  15.836  1.00  0.00    -0.383 N 
ATOM     52 2H14 UNL     1      25.654   5.450  15.808  1.00  0.00     0.157 HD
ATOM     53 1H14 UNL     1      26.854   6.401  16.716  1.00  0.00     0.157 HD
ENDBRANCH  44  51
ENDBRANCH  38  39
ENDBRANCH  35  38
BRANCH  36  54
HETATM   54  O5  UNL     1      26.506   3.053   8.908  1.00  0.00    -0.290 OA
ATOM     55  H5  UNL     1      26.850   2.224   9.221  1.00  0.00     0.244 HD
ENDBRANCH  36  54
ENDBRANCH   1  35
TORSDOF 15
ENDMDL
MODEL 2
REMARK VINA RESULT: -8.468037059      5.238      9.703
REMARK  15 active torsions:
REMARK  status: ('A' for Active; 'I' for Inactive)
REMARK    1  A    between atoms: N4_5  and  C2_6 
REMARK    2  A    between atoms: C3_9  and  C4_10 
REMARK    3  A    between atoms: C5_13  and  C6_14 
REMARK    4  A    between atoms: C6_14  and  O3_15 
REMARK    5  A    between atoms: C6_14  and  O4_17 
REMARK    6  A    between atoms: N6_19  and  N7_20 
REMARK    7  A    between atoms: N7_20  and  C7_22 
REMARK    8  A    between atoms: C7_22  and  C8_23 
REMARK    9  A    between atoms: C7_22  and  C10_31 
REMARK   10  A    between atoms: C8_23  and  C9_24 
REMARK   11  A    between atoms: C10_31  and  C11_32 
REMARK   12  A    between atoms: C11_32  and  N12_33 
REMARK   13  A    between atoms: C14_38  and  N14_39 
REMARK   14  A    between atoms: N17_48  and  O5_50 
REMARK   15  A    between atoms: C17_52  and  N18_53 
ROOT
HETATM    1  C7  UNL     1      27.918   6.166  13.156  1.00  0.00     0.156 C 
ENDROOT
BRANCH   1   2
HETATM    2  N7  UNL     1      28.778   5.816  14.239  1.00  0.00    -0.317 N 
ATOM      3  H7  UNL     1      28.810   6.476  15.016  1.00  0.00     0.181 HD
BRANCH   2   4
HETATM    4  N6  UNL     1      29.574   4.693  14.368  1.00  0.00    -0.237 N 
HETATM    5  C5  UNL     1      29.225   3.746  15.298  1.00  0.00     0.123 A 
HETATM    6  C3  UNL     1      29.898   2.569  15.353  1.00  0.00     0.141 A 
HETATM    7  N5  UNL     1      30.933   2.323  14.488  1.00  0.00    -0.330 N 
HETATM    8  C2  UNL     1      31.314   3.195  13.582  1.00  0.00     0.185 A 
ATOM      9  H5  UNL     1      31.425   1.432  14.551  1.00  0.00     0.168 HD
HETATM   10  C17 UNL     1      30.608   4.423  13.519  1.00  0.00     0.168 A 
BRANCH   5  11
HETATM   11  C6  UNL     1      28.163   4.106  16.293  1.00  0.00     0.309 C 
BRANCH  11  12
HETATM   12  O3  UNL     1      26.866   3.817  15.800  1.00  0.00    -0.366 OA
ATOM     13  H3  UNL     1      26.425   4.601  15.493  1.00  0.00     0.213 HD
ENDBRANCH  11  12
BRANCH  11  14
HETATM   14  O4  UNL     1      28.363   3.599  17.543  1.00  0.00    -0.366 OA
ATOM     15  H4  UNL     1      28.130   4.190  18.250  1.00  0.00     0.213 HD
ENDBRANCH  11  14
ENDBRANCH   5  11
BRANCH   6  16
HETATM   16  C4  UNL     1      29.583   1.479  16.255  1.00  0.00     0.229 C 
HETATM   17  O1  UNL     1      28.779   0.590  16.029  1.00  0.00    -0.643 OA
HETATM   18  O2  UNL     1      30.229   1.383  17.517  1.00  0.00    -0.643 OA
ENDBRANCH   6  16
BRANCH   8  19
HETATM   19  N4  UNL     1      32.390   2.964  12.676  1.00  0.00    -0.165 N 
HETATM   20  N1  UNL     1      33.078   1.850  12.222  1.00  0.00    -0.108 NA
HETATM   21  C1  UNL     1      34.344   1.572  12.870  1.00  0.00     0.162 C 
HETATM   22  N2  UNL     1      33.347   2.609  11.047  1.00  0.00    -0.012 NA
HETATM   23  N3  UNL     1      33.198   3.756  11.874  1.00  0.00     0.009 NA
ENDBRANCH   8  19
BRANCH  10  24
HETATM   24  N18 UNL     1      30.983   5.176  12.648  1.00  0.00    -0.381 N 
ATOM     25 2H18 UNL     1      30.550   6.077  12.447  1.00  0.00     0.157 HD
ATOM     26 1H18 UNL     1      31.769   4.830  12.099  1.00  0.00     0.157 HD
ENDBRANCH  10  24
ENDBRANCH   2   4
ENDBRANCH   1   2
BRANCH   1  27
HETATM   27  C8  UNL     1      27.890   7.663  12.865  1.00  0.00     0.111 C 
BRANCH  27  28
HETATM   28  C9  UNL     1      28.921   8.009  11.887  1.00  0.00     0.109 A 
HETATM   29  N8  UNL     1      30.169   8.414  12.162  1.00  0.00    -0.274 N 
HETATM   30  N9  UNL     1      30.839   8.643  11.045  1.00  0.00    -0.007 NA
ATOM     31  H8  UNL     1      30.549   8.529  13.102  1.00  0.00     0.185 HD
HETATM   32  N10 UNL     1      30.016   8.384  10.029  1.00  0.00    -0.007 NA
HETATM   33  N11 UNL     1      28.841   7.996  10.545  1.00  0.00    -0.274 N 
ATOM     34  H11 UNL     1      28.016   7.731  10.005  1.00  0.00     0.185 HD
ENDBRANCH  27  28
ENDBRANCH   1  27
BRANCH   1  35
HETATM   35  C10 UNL     1      26.484   5.820  13.486  1.00  0.00     0.052 C 
HETATM   36  N17 UNL     1      25.911   6.432  14.465  1.00  0.00    -0.274 N 
ATOM     37  H17 UNL     1      24.944   6.209  14.701  1.00  0.00     0.193 HD
BRANCH  35  38
HETATM   38  C11 UNL     1      25.776   4.811  12.703  1.00  0.00     0.188 C 
BRANCH  38  39
HETATM   39  N12 UNL     1      25.113   5.378  11.560  1.00  0.00    -0.322 N 
HETATM   40  C12 UNL     1      24.081   6.231  11.586  1.00  0.00     0.185 A 
HETATM   41  N13 UNL     1      23.740   6.537  10.296  1.00  0.00    -0.346 N 
HETATM   42  C13 UNL     1      24.554   5.879   9.471  1.00  0.00     0.122 A 
ATOM     43  H13 UNL     1      22.987   7.165  10.013  1.00  0.00     0.167 HD
HETATM   44  C14 UNL     1      24.661   5.815   8.115  1.00  0.00     0.131 A 
HETATM   45  C16 UNL     1      25.420   5.148  10.280  1.00  0.00     0.140 A 
HETATM   46  N15 UNL     1      25.607   5.045   7.511  1.00  0.00    -0.337 N 
HETATM   47  C15 UNL     1      26.447   4.336   8.298  1.00  0.00     0.183 A 
ATOM     48  H15 UNL     1      25.681   5.005   6.494  1.00  0.00     0.168 HD
HETATM   49  N16 UNL     1      26.353   4.388   9.638  1.00  0.00    -0.336 N 
ATOM     50  H16 UNL     1      27.004   3.838  10.197  1.00  0.00     0.168 HD
BRANCH  44  51
HETATM   51  N14 UNL     1      23.857   6.496   7.381  1.00  0.00    -0.383 N 
ATOM     52 2H14 UNL     1      22.973   6.810   7.781  1.00  0.00     0.157 HD
ATOM     53 1H14 UNL     1      24.112   6.708   6.416  1.00  0.00     0.157 HD
ENDBRANCH  44  51
ENDBRANCH  38  39
ENDBRANCH  35  38
BRANCH  36  54
HETATM   54  O5  UNL     1      26.579   7.374  15.189  1.00  0.00    -0.290 OA
ATOM     55  H5  UNL     1      26.344   8.292  15.131  1.00  0.00     0.244 HD
ENDBRANCH  36  54
ENDBRANCH   1  35
TORSDOF 15
ENDMDL
MODEL 3
REMARK VINA RESULT: -8.424587560      0.739      1.644
REMARK  15 active torsions:
REMARK  status: ('A' for Active; 'I' for Inactive)
REMARK    1  A    between atoms: N4_5  and  C2_6 
REMARK    2  A    between atoms: C3_9  and  C4_10 
REMARK    3  A    between atoms: C5_13  and  C6_14 
REMARK    4  A    between atoms: C6_14  and  O3_15 
REMARK    5  A    between atoms: C6_14  and  O4_17 
REMARK    6  A    between atoms: N6_19  and  N7_20 
REMARK    7  A    between atoms: N7_20  and  C7_22 
REMARK    8  A    between atoms: C7_22  and  C8_23 
REMARK    9  A    between atoms: C7_22  and  C10_31 
REMARK   10  A    between atoms: C8_23  and  C9_24 
REMARK   11  A    between atoms: C10_31  and  C11_32 
REMARK   12  A    between atoms: C11_32  and  N12_33 
REMARK   13  A    between atoms: C14_38  and  N14_39 
REMARK   14  A    between atoms: N17_48  and  O5_50 
REMARK   15  A    between atoms: C17_52  and  N18_53 
ROOT
HETATM    1  C7  UNL     1      25.484   5.338   7.492  1.00  0.00     0.156 C 
ENDROOT
BRANCH   1   2
HETATM    2  N7  UNL     1      26.169   5.342   6.241  1.00  0.00    -0.317 N 
ATOM      3  H7  UNL     1      26.804   4.559   6.077  1.00  0.00     0.181 HD
BRANCH   2   4
HETATM    4  N6  UNL     1      26.082   6.272   5.223  1.00  0.00    -0.237 N 
HETATM    5  C5  UNL     1      25.009   6.212   4.370  1.00  0.00     0.123 A 
HETATM    6  C3  UNL     1      24.816   7.192   3.452  1.00  0.00     0.141 A 
HETATM    7  N5  UNL     1      25.695   8.240   3.365  1.00  0.00    -0.330 N 
HETATM    8  C2  UNL     1      26.743   8.347   4.152  1.00  0.00     0.185 A 
ATOM      9  H5  UNL     1      25.531   8.964   2.665  1.00  0.00     0.168 HD
HETATM   10  C17 UNL     1      26.942   7.327   5.116  1.00  0.00     0.168 A 
BRANCH   5  11
HETATM   11  C6  UNL     1      24.142   4.990   4.429  1.00  0.00     0.309 C 
BRANCH  11  12
HETATM   12  O3  UNL     1      24.912   3.811   4.589  1.00  0.00    -0.366 OA
ATOM     13  H3  UNL     1      24.859   3.251   3.822  1.00  0.00     0.213 HD
ENDBRANCH  11  12
BRANCH  11  14
HETATM   14  O4  UNL     1      23.122   5.064   5.330  1.00  0.00    -0.366 OA
ATOM     15  H4  UNL     1      22.259   4.912   4.961  1.00  0.00     0.213 HD
ENDBRANCH  11  14
ENDBRANCH   5  11
BRANCH   6  16
HETATM   16  C4  UNL     1      23.692   7.259   2.539  1.00  0.00     0.229 C 
HETATM   17  O1  UNL     1      22.595   7.715   2.809  1.00  0.00    -0.643 OA
HETATM   18  O2  UNL     1      23.817   6.771   1.210  1.00  0.00    -0.643 OA
ENDBRANCH   6  16
BRANCH   8  19
HETATM   19  N4  UNL     1      27.673   9.424   4.076  1.00  0.00    -0.165 N 
HETATM   20  N1  UNL     1      27.693  10.744   4.498  1.00  0.00    -0.108 NA
HETATM   21  C1  UNL     1      27.361  11.740   3.498  1.00  0.00     0.162 C 
HETATM   22  N2  UNL     1      29.110  10.616   4.533  1.00  0.00    -0.012 NA
HETATM   23  N3  UNL     1      28.943   9.603   3.550  1.00  0.00     0.009 NA
ENDBRANCH   8  19
BRANCH  10  24
HETATM   24  N18 UNL     1      27.905   7.491   5.831  1.00  0.00    -0.381 N 
ATOM     25 2H18 UNL     1      28.632   8.185   5.659  1.00  0.00     0.157 HD
ATOM     26 1H18 UNL     1      27.954   6.857   6.628  1.00  0.00     0.157 HD
ENDBRANCH  10  24
ENDBRANCH   2   4
ENDBRANCH   1   2
BRANCH   1  27
HETATM   27  C8  UNL     1      24.476   6.475   7.635  1.00  0.00     0.111 C 
BRANCH  27  28
HETATM   28  C9  UNL     1      23.349   6.052   8.465  1.00  0.00     0.109 A 
HETATM   29  N8  UNL     1      22.487   5.064   8.187  1.00  0.00    -0.274 N 
HETATM   30  N9  UNL     1      21.589   4.946   9.150  1.00  0.00    -0.007 NA
ATOM     31  H8  UNL     1      22.518   4.485   7.347  1.00  0.00     0.185 HD
HETATM   32  N10 UNL     1      21.871   5.870  10.070  1.00  0.00    -0.007 NA
HETATM   33  N11 UNL     1      22.950   6.547   9.650  1.00  0.00    -0.274 N 
ATOM     34  H11 UNL     1      23.397   7.316  10.150  1.00  0.00     0.185 HD
ENDBRANCH  27  28
ENDBRANCH   1  27
BRANCH   1  35
HETATM   35  C10 UNL     1      26.457   5.552   8.630  1.00  0.00     0.052 C 
HETATM   36  N17 UNL     1      27.022   4.522   9.160  1.00  0.00    -0.274 N 
ATOM     37  H17 UNL     1      27.680   4.650   9.929  1.00  0.00     0.193 HD
BRANCH  35  38
HETATM   38  C11 UNL     1      26.740   6.903   9.105  1.00  0.00     0.188 C 
BRANCH  38  39
HETATM   39  N12 UNL     1      27.227   6.911  10.459  1.00  0.00    -0.322 N 
HETATM   40  C12 UNL     1      28.443   7.302  10.861  1.00  0.00     0.185 A 
HETATM   41  N13 UNL     1      28.516   7.161  12.220  1.00  0.00    -0.346 N 
HETATM   42  C13 UNL     1      27.352   6.685  12.664  1.00  0.00     0.122 A 
ATOM     43  H13 UNL     1      29.326   7.383  12.798  1.00  0.00     0.167 HD
HETATM   44  C14 UNL     1      26.882   6.363  13.901  1.00  0.00     0.131 A 
HETATM   45  C16 UNL     1      26.542   6.530  11.542  1.00  0.00     0.140 A 
HETATM   46  N15 UNL     1      25.621   5.885  14.081  1.00  0.00    -0.337 N 
HETATM   47  C15 UNL     1      24.835   5.735  12.990  1.00  0.00     0.183 A 
ATOM     48  H15 UNL     1      25.277   5.648  15.012  1.00  0.00     0.168 HD
HETATM   49  N16 UNL     1      25.286   6.048  11.762  1.00  0.00    -0.336 N 
ATOM     50  H16 UNL     1      24.664   5.921  10.965  1.00  0.00     0.168 HD
BRANCH  44  51
HETATM   51  N14 UNL     1      27.639   6.513  14.927  1.00  0.00    -0.383 N 
ATOM     52 2H14 UNL     1      28.644   6.616  14.785  1.00  0.00     0.157 HD
ATOM     53 1H14 UNL     1      27.227   6.524  15.860  1.00  0.00     0.157 HD
ENDBRANCH  44  51
ENDBRANCH  38  39
ENDBRANCH  35  38
BRANCH  36  54
HETATM   54  O5  UNL     1      26.753   3.265   8.709  1.00  0.00    -0.290 OA
ATOM     55  H5  UNL     1      26.844   2.511   9.280  1.00  0.00     0.244 HD
ENDBRANCH  36  54
ENDBRANCH   1  35
TORSDOF 15
ENDMDL
MODEL 4
REMARK VINA RESULT: -8.354934640      5.493      8.882
REMARK  15 active torsions:
REMARK  status: ('A' for Active; 'I' for Inactive)
REMARK    1  A    between atoms: N4_5  and  C2_6 
REMARK    2  A    between atoms: C3_9  and  C4_10 
REMARK    3  A    between atoms: C5_13  and  C6_14 
REMARK    4  A    between atoms: C6_14  and  O3_15 
REMARK    5  A    between atoms: C6_14  and  O4_17 
REMARK    6  A    between atoms: N6_19  and  N7_20 
REMARK    7  A    between atoms: N7_20  and  C7_22 
REMARK    8  A    between atoms: C7_22  and  C8_23 
REMARK    9  A    between atoms: C7_22  and  C10_31 
REMARK   10  A    between atoms: C8_23  and  C9_24 
REMARK   11  A    between atoms: C10_31  and  C11_32 
REMARK   12  A    between atoms: C11_32  and  N12_33 
REMARK   13  A    between atoms: C14_38  and  N14_39 
REMARK   14  A    between atoms: N17_48  and  O5_50 
REMARK   15  A    between atoms: C17_52  and  N18_53 
ROOT
HETATM    1  C7  UNL     1      30.451   7.864  11.665  1.00  0.00     0.156 C 
ENDROOT
BRANCH   1   2
HETATM    2  N7  UNL     1      29.696   6.674  11.443  1.00  0.00    -0.317 N 
ATOM      3  H7  UNL     1      30.154   5.953  10.884  1.00  0.00     0.181 HD
BRANCH   2   4
HETATM    4  N6  UNL     1      28.423   6.374  11.890  1.00  0.00    -0.237 N 
HETATM    5  C5  UNL     1      28.258   6.013  13.204  1.00  0.00     0.123 A 
HETATM    6  C3  UNL     1      27.011   5.852  13.712  1.00  0.00     0.141 A 
HETATM    7  N5  UNL     1      25.910   6.040  12.915  1.00  0.00    -0.330 N 
HETATM    8  C2  UNL     1      26.008   6.380  11.649  1.00  0.00     0.185 A 
ATOM      9  H5  UNL     1      24.983   5.911  13.319  1.00  0.00     0.168 HD
HETATM   10  C17 UNL     1      27.312   6.555  11.119  1.00  0.00     0.168 A 
BRANCH   5  11
HETATM   11  C6  UNL     1      29.491   5.710  14.002  1.00  0.00     0.309 C 
BRANCH  11  12
HETATM   12  O3  UNL     1      29.570   6.514  15.166  1.00  0.00    -0.366 OA
ATOM     13  H3  UNL     1      28.814   6.391  15.729  1.00  0.00     0.213 HD
ENDBRANCH  11  12
BRANCH  11  14
HETATM   14  O4  UNL     1      29.676   4.388  14.277  1.00  0.00    -0.366 OA
ATOM     15  H4  UNL     1      30.328   3.959  13.734  1.00  0.00     0.213 HD
ENDBRANCH  11  14
ENDBRANCH   5  11
BRANCH   6  16
HETATM   16  C4  UNL     1      26.717   5.526  15.093  1.00  0.00     0.229 C 
HETATM   17  O1  UNL     1      26.439   6.335  15.962  1.00  0.00    -0.643 OA
HETATM   18  O2  UNL     1      26.738   4.174  15.531  1.00  0.00    -0.643 OA
ENDBRANCH   6  16
BRANCH   8  19
HETATM   19  N4  UNL     1      24.880   6.576  10.801  1.00  0.00    -0.165 N 
HETATM   20  N1  UNL     1      24.139   5.779   9.943  1.00  0.00    -0.108 NA
HETATM   21  C1  UNL     1      24.471   5.876   8.535  1.00  0.00     0.162 C 
HETATM   22  N2  UNL     1      23.057   6.668  10.198  1.00  0.00    -0.012 NA
HETATM   23  N3  UNL     1      24.053   7.642  10.480  1.00  0.00     0.009 NA
ENDBRANCH   8  19
BRANCH  10  24
HETATM   24  N18 UNL     1      27.341   6.896   9.958  1.00  0.00    -0.381 N 
ATOM     25 2H18 UNL     1      27.357   6.245   9.172  1.00  0.00     0.157 HD
ATOM     26 1H18 UNL     1      27.372   7.905   9.813  1.00  0.00     0.157 HD
ENDBRANCH  10  24
ENDBRANCH   2   4
ENDBRANCH   1   2
BRANCH   1  27
HETATM   27  C8  UNL     1      30.032   9.024  10.767  1.00  0.00     0.111 C 
BRANCH  27  28
HETATM   28  C9  UNL     1      29.570  10.151  11.577  1.00  0.00     0.109 A 
HETATM   29  N8  UNL     1      29.611  10.235  12.914  1.00  0.00    -0.274 N 
HETATM   30  N9  UNL     1      29.114  11.390  13.322  1.00  0.00    -0.007 NA
ATOM     31  H8  UNL     1      29.976   9.508  13.531  1.00  0.00     0.185 HD
HETATM   32  N10 UNL     1      28.744  12.068  12.235  1.00  0.00    -0.007 NA
HETATM   33  N11 UNL     1      29.024  11.309  11.166  1.00  0.00    -0.274 N 
ATOM     34  H11 UNL     1      28.850  11.569  10.194  1.00  0.00     0.185 HD
ENDBRANCH  27  28
ENDBRANCH   1  27
BRANCH   1  35
HETATM   35  C10 UNL     1      31.908   7.637  11.331  1.00  0.00     0.052 C 
HETATM   36  N17 UNL     1      32.805   8.138  12.110  1.00  0.00    -0.274 N 
ATOM     37  H17 UNL     1      33.792   7.994  11.897  1.00  0.00     0.193 HD
BRANCH  35  38
HETATM   38  C11 UNL     1      32.275   6.864  10.148  1.00  0.00     0.188 C 
BRANCH  38  39
HETATM   39  N12 UNL     1      33.289   5.883  10.434  1.00  0.00    -0.322 N 
HETATM   40  C12 UNL     1      34.551   5.896   9.988  1.00  0.00     0.185 A 
HETATM   41  N13 UNL     1      35.196   4.795  10.483  1.00  0.00    -0.346 N 
HETATM   42  C13 UNL     1      34.342   4.099  11.233  1.00  0.00     0.122 A 
ATOM     43  H13 UNL     1      36.170   4.548  10.307  1.00  0.00     0.167 HD
HETATM   44  C14 UNL     1      34.448   2.946  11.949  1.00  0.00     0.131 A 
HETATM   45  C16 UNL     1      33.136   4.796  11.197  1.00  0.00     0.140 A 
HETATM   46  N15 UNL     1      33.393   2.441  12.645  1.00  0.00    -0.337 N 
HETATM   47  C15 UNL     1      32.223   3.118  12.609  1.00  0.00     0.183 A 
ATOM     48  H15 UNL     1      33.483   1.576  13.180  1.00  0.00     0.168 HD
HETATM   49  N16 UNL     1      32.104   4.258  11.906  1.00  0.00    -0.336 N 
ATOM     50  H16 UNL     1      31.205   4.739  11.903  1.00  0.00     0.168 HD
BRANCH  44  51
HETATM   51  N14 UNL     1      35.566   2.315  11.975  1.00  0.00    -0.383 N 
ATOM     52 2H14 UNL     1      36.298   2.585  11.318  1.00  0.00     0.157 HD
ATOM     53 1H14 UNL     1      35.702   1.557  12.644  1.00  0.00     0.157 HD
ENDBRANCH  44  51
ENDBRANCH  38  39
ENDBRANCH  35  38
BRANCH  36  54
HETATM   54  O5  UNL     1      32.453   8.857  13.212  1.00  0.00    -0.290 OA
ATOM     55  H5  UNL     1      33.112   9.280  13.750  1.00  0.00     0.244 HD
ENDBRANCH  36  54
ENDBRANCH   1  35
TORSDOF 15
ENDMDL
MODEL 5
REMARK VINA RESULT: -8.270614694      2.729      7.869
REMARK  15 active torsions:
REMARK  status: ('A' for Active; 'I' for Inactive)
REMARK    1  A    between atoms: N4_5  and  C2_6 
REMARK    2  A    between atoms: C3_9  and  C4_10 
REMARK    3  A    between atoms: C5_13  and  C6_14 
REMARK    4  A    between atoms: C6_14  and  O3_15 
REMARK    5  A    between atoms: C6_14  and  O4_17 
REMARK    6  A    between atoms: N6_19  and  N7_20 
REMARK    7  A    between atoms: N7_20  and  C7_22 
REMARK    8  A    between atoms: C7_22  and  C8_23 
REMARK    9  A    between atoms: C7_22  and  C10_31 
REMARK   10  A    between atoms: C8_23  and  C9_24 
REMARK   11  A    between atoms: C10_31  and  C11_32 
REMARK   12  A    between atoms: C11_32  and  N12_33 
REMARK   13  A    between atoms: C14_38  and  N14_39 
REMARK   14  A    between atoms: N17_48  and  O5_50 
REMARK   15  A    between atoms: C17_52  and  N18_53 
ROOT
HETATM    1  C7  UNL     1      25.507   6.237   8.397  1.00  0.00     0.156 C 
ENDROOT
BRANCH   1   2
HETATM    2  N7  UNL     1      25.595   5.845   9.766  1.00  0.00    -0.317 N 
ATOM      3  H7  UNL     1      24.966   5.097  10.057  1.00  0.00     0.181 HD
BRANCH   2   4
HETATM    4  N6  UNL     1      26.426   6.352  10.747  1.00  0.00    -0.237 N 
HETATM    5  C5  UNL     1      26.175   6.018  12.055  1.00  0.00     0.123 A 
HETATM    6  C3  UNL     1      27.051   6.378  13.026  1.00  0.00     0.141 A 
HETATM    7  N5  UNL     1      28.183   7.084  12.710  1.00  0.00    -0.330 N 
HETATM    8  C2  UNL     1      28.471   7.435  11.477  1.00  0.00     0.185 A 
ATOM      9  H5  UNL     1      28.825   7.345  13.459  1.00  0.00     0.168 HD
HETATM   10  C17 UNL     1      27.560   7.054  10.459  1.00  0.00     0.168 A 
BRANCH   5  11
HETATM   11  C6  UNL     1      24.871   5.346  12.363  1.00  0.00     0.309 C 
BRANCH  11  12
HETATM   12  O3  UNL     1      25.005   4.402  13.411  1.00  0.00    -0.366 OA
ATOM     13  H3  UNL     1      25.037   4.825  14.262  1.00  0.00     0.213 HD
ENDBRANCH  11  12
BRANCH  11  14
HETATM   14  O4  UNL     1      23.830   6.201  12.572  1.00  0.00    -0.366 OA
ATOM     15  H4  UNL     1      23.420   6.122  13.426  1.00  0.00     0.213 HD
ENDBRANCH  11  14
ENDBRANCH   5  11
BRANCH   6  16
HETATM   16  C4  UNL     1      26.916   6.034  14.428  1.00  0.00     0.229 C 
HETATM   17  O1  UNL     1      26.343   6.711  15.264  1.00  0.00    -0.643 OA
HETATM   18  O2  UNL     1      27.474   4.827  14.928  1.00  0.00    -0.643 OA
ENDBRANCH   6  16
BRANCH   8  19
HETATM   19  N4  UNL     1      29.638   8.173  11.125  1.00  0.00    -0.165 N 
HETATM   20  N1  UNL     1      30.974   7.870  10.918  1.00  0.00    -0.108 NA
HETATM   21  C1  UNL     1      31.868   8.125  12.030  1.00  0.00     0.162 C 
HETATM   22  N2  UNL     1      31.006   9.008  10.063  1.00  0.00    -0.012 NA
HETATM   23  N3  UNL     1      29.925   9.501  10.843  1.00  0.00     0.009 NA
ENDBRANCH   8  19
BRANCH  10  24
HETATM   24  N18 UNL     1      27.889   7.380   9.341  1.00  0.00    -0.381 N 
ATOM     25 2H18 UNL     1      28.842   7.309   8.983  1.00  0.00     0.157 HD
ATOM     26 1H18 UNL     1      27.135   7.760   8.770  1.00  0.00     0.157 HD
ENDBRANCH  10  24
ENDBRANCH   2   4
ENDBRANCH   1   2
BRANCH   1  27
HETATM   27  C8  UNL     1      24.135   6.781   8.009  1.00  0.00     0.111 C 
BRANCH  27  28
HETATM   28  C9  UNL     1      23.081   6.024   8.683  1.00  0.00     0.109 A 
HETATM   29  N8  UNL     1      22.623   6.237   9.925  1.00  0.00    -0.274 N 
HETATM   30  N9  UNL     1      21.668   5.373  10.222  1.00  0.00    -0.007 NA
ATOM     31  H8  UNL     1      22.964   6.965  10.553  1.00  0.00     0.185 HD
HETATM   32  N10 UNL     1      21.501   4.585   9.160  1.00  0.00    -0.007 NA
HETATM   33  N11 UNL     1      22.367   4.984   8.216  1.00  0.00    -0.274 N 
ATOM     34  H11 UNL     1      22.468   4.566   7.291  1.00  0.00     0.185 HD
ENDBRANCH  27  28
ENDBRANCH   1  27
BRANCH   1  35
HETATM   35  C10 UNL     1      25.709   5.044   7.491  1.00  0.00     0.052 C 
HETATM   36  N17 UNL     1      26.315   4.008   7.961  1.00  0.00    -0.274 N 
ATOM     37  H17 UNL     1      26.460   3.195   7.362  1.00  0.00     0.193 HD
BRANCH  35  38
HETATM   38  C11 UNL     1      25.222   5.079   6.115  1.00  0.00     0.188 C 
BRANCH  38  39
HETATM   39  N12 UNL     1      25.813   6.150   5.357  1.00  0.00    -0.322 N 
HETATM   40  C12 UNL     1      27.055   6.628   5.498  1.00  0.00     0.185 A 
HETATM   41  N13 UNL     1      27.235   7.640   4.594  1.00  0.00    -0.346 N 
HETATM   42  C13 UNL     1      26.111   7.793   3.895  1.00  0.00     0.122 A 
ATOM     43  H13 UNL     1      28.088   8.187   4.476  1.00  0.00     0.167 HD
HETATM   44  C14 UNL     1      25.740   8.634   2.890  1.00  0.00     0.131 A 
HETATM   45  C16 UNL     1      25.215   6.846   4.384  1.00  0.00     0.140 A 
HETATM   46  N15 UNL     1      24.498   8.578   2.336  1.00  0.00    -0.337 N 
HETATM   47  C15 UNL     1      23.630   7.657   2.813  1.00  0.00     0.183 A 
ATOM     48  H15 UNL     1      24.230   9.211   1.582  1.00  0.00     0.168 HD
HETATM   49  N16 UNL     1      23.982   6.821   3.805  1.00  0.00    -0.336 N 
ATOM     50  H16 UNL     1      23.299   6.141   4.138  1.00  0.00     0.168 HD
BRANCH  44  51
HETATM   51  N14 UNL     1      26.576   9.502   2.447  1.00  0.00    -0.383 N 
ATOM     52 2H14 UNL     1      26.764   9.536   1.445  1.00  0.00     0.157 HD
ATOM     53 1H14 UNL     1      27.037  10.137   3.099  1.00  0.00     0.157 HD
ENDBRANCH  44  51
ENDBRANCH  38  39
ENDBRANCH  35  38
BRANCH  36  54
HETATM   54  O5  UNL     1      26.765   3.983   9.247  1.00  0.00    -0.290 OA
ATOM     55  H5  UNL     1      26.875   3.161   9.710  1.00  0.00     0.244 HD
ENDBRANCH  36  54
ENDBRANCH   1  35
TORSDOF 15
ENDMDL
