MODEL 1
REMARK VINA RESULT: -8.314427841      0.000      0.000
REMARK  16 active torsions:
REMARK  status: ('A' for Active; 'I' for Inactive)
REMARK    1  A    between atoms: C4_5  and  N2_6 
REMARK    2  A    between atoms: N3_8  and  C5_10 
REMARK    3  A    between atoms: C13_24  and  N8_25 
REMARK    4  A    between atoms: N8_25  and  N9_27 
REMARK    5  A    between atoms: N10_30  and  C14_31 
REMARK    6  A    between atoms: C14_31  and  C15_32 
REMARK    7  A    between atoms: C15_32  and  O2_33 
REMARK    8  A    between atoms: C15_32  and  C16_35 
REMARK    9  A    between atoms: C16_35  and  O3_36 
REMARK   10  A    between atoms: C16_35  and  C17_38 
REMARK   11  A    between atoms: C17_38  and  O4_39 
REMARK   12  A    between atoms: C17_38  and  C18_41 
REMARK   13  A    between atoms: C18_41  and  C19_42 
REMARK   14  A    between atoms: C19_42  and  O5_43 
REMARK   15  A    between atoms: N11_45  and  N12_46 
REMARK   16  A    between atoms: C21_51  and  O7_52 
ROOT
HETATM    1  C5  UNL     1      32.089   2.253  13.253  1.00  0.00     0.108 A 
HETATM    2  C6  UNL     1      31.542   1.377  14.123  1.00  0.00     0.144 A 
HETATM    3  N4  UNL     1      32.090   0.097  14.306  1.00  0.00    -0.094 NA
HETATM    4  C7  UNL     1      30.442   1.760  14.824  1.00  0.00     0.275 A 
HETATM    5  O1  UNL     1      29.885   0.964  15.661  1.00  0.00    -0.266 OA
HETATM    6  N5  UNL     1      29.829   2.991  14.718  1.00  0.00    -0.301 N 
HETATM    7  C8  UNL     1      28.779   3.328  15.598  1.00  0.00     0.161 C 
HETATM    8  C9  UNL     1      30.367   3.860  13.849  1.00  0.00     0.143 A 
HETATM    9  C10 UNL     1      31.514   3.493  13.106  1.00  0.00     0.109 A 
HETATM   10  N6  UNL     1      32.091   4.360  12.262  1.00  0.00    -0.340 N 
ATOM     11  H6  UNL     1      32.919   4.091  11.731  1.00  0.00     0.167 HD
HETATM   12  C11 UNL     1      31.569   5.582  12.123  1.00  0.00     0.160 A 
HETATM   13  C12 UNL     1      32.209   6.520  11.197  1.00  0.00     0.121 C 
HETATM   14  N7  UNL     1      32.740   7.244  10.447  1.00  0.00    -0.190 NA
HETATM   15  C13 UNL     1      30.476   5.988  12.797  1.00  0.00     0.162 A 
HETATM   16  N10 UNL     1      29.849   5.085  13.688  1.00  0.00    -0.311 N 
ENDROOT
BRANCH  15  17
HETATM   17  N8  UNL     1      29.966   7.134  12.789  1.00  0.00    -0.289 N 
ATOM     18  H8  UNL     1      30.027   7.668  13.655  1.00  0.00     0.188 HD
BRANCH  17  19
HETATM   19  N9  UNL     1      29.337   7.738  11.739  1.00  0.00    -0.344 N 
ATOM     20  H92 UNL     1      29.514   8.737  11.638  1.00  0.00     0.176 HD
ATOM     21  H91 UNL     1      28.720   7.293  11.060  1.00  0.00     0.176 HD
ENDBRANCH  17  19
ENDBRANCH  15  17
BRANCH  16  22
HETATM   22  C14 UNL     1      28.626   5.540  14.208  1.00  0.00     0.166 C 
BRANCH  22  23
HETATM   23  C15 UNL     1      27.507   5.153  13.222  1.00  0.00     0.167 C 
BRANCH  23  24
HETATM   24  O2  UNL     1      27.873   4.966  11.919  1.00  0.00    -0.391 OA
ATOM     25  H2  UNL     1      27.202   4.646  11.327  1.00  0.00     0.210 HD
ENDBRANCH  23  24
BRANCH  23  26
HETATM   26  C16 UNL     1      26.368   6.180  13.172  1.00  0.00     0.177 C 
BRANCH  26  27
HETATM   27  O3  UNL     1      25.920   6.435  14.499  1.00  0.00    -0.390 OA
ATOM     28  H3  UNL     1      25.277   5.777  14.737  1.00  0.00     0.210 HD
ENDBRANCH  26  27
BRANCH  26  29
HETATM   29  C17 UNL     1      25.142   5.599  12.522  1.00  0.00     0.151 C 
BRANCH  29  30
HETATM   30  O4  UNL     1      24.050   6.351  13.132  1.00  0.00    -0.393 OA
ATOM     31  H4  UNL     1      23.425   6.445  12.422  1.00  0.00     0.210 HD
ENDBRANCH  29  30
BRANCH  29  32
HETATM   32  C18 UNL     1      24.998   5.966  11.088  1.00  0.00     0.060 C 
BRANCH  32  33
HETATM   33  C19 UNL     1      23.751   6.622  10.647  1.00  0.00     0.166 C 
BRANCH  33  34
HETATM   34  O5  UNL     1      23.626   7.964  10.653  1.00  0.00    -0.401 OA
ATOM     35  H5  UNL     1      24.209   8.516  10.144  1.00  0.00     0.209 HD
ENDBRANCH  33  34
ENDBRANCH  32  33
ENDBRANCH  29  32
ENDBRANCH  26  29
ENDBRANCH  23  26
ENDBRANCH  22  23
ENDBRANCH  16  22
BRANCH   1  36
HETATM   36  N3  UNL     1      33.247   1.959  12.466  1.00  0.00    -0.295 N 
HETATM   37  N2  UNL     1      34.324   1.603  13.028  1.00  0.00    -0.282 N 
ATOM     38  H2  UNL     1      34.350   1.528  14.045  1.00  0.00     0.188 HD
ATOM     39  H3  UNL     1      33.205   2.037  11.450  1.00  0.00     0.187 HD
BRANCH  37  40
HETATM   40  C4  UNL     1      35.498   1.302  12.282  1.00  0.00     0.169 A 
HETATM   41  C3  UNL     1      36.045   2.305  11.519  1.00  0.00     0.102 A 
HETATM   42  C2  UNL     1      37.179   2.030  10.792  1.00  0.00     0.005 A 
HETATM   43  N1  UNL     1      35.438   3.608  11.486  1.00  0.00    -0.098 NA
HETATM   44  C1  UNL     1      37.756   3.131   9.971  1.00  0.00     0.053 C 
HETATM   45  C21 UNL     1      37.729   0.783  10.847  1.00  0.00     0.144 A 
HETATM   46  C20 UNL     1      37.137  -0.179  11.628  1.00  0.00     0.301 A 
HETATM   47  N11 UNL     1      36.031   0.073  12.341  1.00  0.00    -0.205 N 
HETATM   48  O6  UNL     1      37.632  -1.346  11.692  1.00  0.00    -0.263 OA
BRANCH  45  49
HETATM   49  O7  UNL     1      38.869   0.509  10.116  1.00  0.00    -0.355 OA
ATOM     50  H7  UNL     1      39.623   0.127  10.550  1.00  0.00     0.218 HD
ENDBRANCH  45  49
BRANCH  47  51
HETATM   51  N12 UNL     1      35.441  -0.930  13.137  1.00  0.00    -0.334 N 
ATOM     52 2H12 UNL     1      34.452  -0.887  13.385  1.00  0.00     0.177 HD
ATOM     53 1H12 UNL     1      35.994  -1.717  13.478  1.00  0.00     0.177 HD
ENDBRANCH  47  51
ENDBRANCH  37  40
ENDBRANCH   1  36
TORSDOF 16
ENDMDL
MODEL 2
REMARK VINA RESULT: -8.010221764      0.578      1.697
REMARK  16 active torsions:
REMARK  status: ('A' for Active; 'I' for Inactive)
REMARK    1  A    between atoms: C4_5  and  N2_6 
REMARK    2  A    between atoms: N3_8  and  C5_10 
REMARK    3  A    between atoms: C13_24  and  N8_25 
REMARK    4  A    between atoms: N8_25  and  N9_27 
REMARK    5  A    between atoms: N10_30  and  C14_31 
REMARK    6  A    between atoms: C14_31  and  C15_32 
REMARK    7  A    between atoms: C15_32  and  O2_33 
REMARK    8  A    between atoms: C15_32  and  C16_35 
REMARK    9  A    between atoms: C16_35  and  O3_36 
REMARK   10  A    between atoms: C16_35  and  C17_38 
REMARK   11  A    between atoms: C17_38  and  O4_39 
REMARK   12  A    between atoms: C17_38  and  C18_41 
REMARK   13  A    between atoms: C18_41  and  C19_42 
REMARK   14  A    between atoms: C19_42  and  O5_43 
REMARK   15  A    between atoms: N11_45  and  N12_46 
REMARK   16  A    between atoms: C21_51  and  O7_52 
ROOT
HETATM    1  C5  UNL     1      32.060   2.208  13.266  1.00  0.00     0.108 A 
HETATM    2  C6  UNL     1      31.508   1.347  14.147  1.00  0.00     0.144 A 
HETATM    3  N4  UNL     1      32.044   0.064  14.341  1.00  0.00    -0.094 NA
HETATM    4  C7  UNL     1      30.414   1.748  14.848  1.00  0.00     0.275 A 
HETATM    5  O1  UNL     1      29.853   0.967  15.696  1.00  0.00    -0.266 OA
HETATM    6  N5  UNL     1      29.813   2.984  14.731  1.00  0.00    -0.301 N 
HETATM    7  C8  UNL     1      28.770   3.340  15.612  1.00  0.00     0.161 C 
HETATM    8  C9  UNL     1      30.356   3.839  13.851  1.00  0.00     0.143 A 
HETATM    9  C10 UNL     1      31.497   3.453  13.108  1.00  0.00     0.109 A 
HETATM   10  N6  UNL     1      32.079   4.305  12.252  1.00  0.00    -0.340 N 
ATOM     11  H6  UNL     1      32.902   4.022  11.721  1.00  0.00     0.167 HD
HETATM   12  C11 UNL     1      31.568   5.531  12.103  1.00  0.00     0.160 A 
HETATM   13  C12 UNL     1      32.213   6.452  11.164  1.00  0.00     0.121 C 
HETATM   14  N7  UNL     1      32.749   7.163  10.404  1.00  0.00    -0.190 NA
HETATM   15  C13 UNL     1      30.481   5.954  12.777  1.00  0.00     0.162 A 
HETATM   16  N10 UNL     1      29.849   5.066  13.679  1.00  0.00    -0.311 N 
ENDROOT
BRANCH  15  17
HETATM   17  N8  UNL     1      29.982   7.104  12.758  1.00  0.00    -0.289 N 
ATOM     18  H8  UNL     1      29.949   7.603  13.646  1.00  0.00     0.188 HD
BRANCH  17  19
HETATM   19  N9  UNL     1      29.480   7.757  11.670  1.00  0.00    -0.344 N 
ATOM     20  H92 UNL     1      30.162   8.267  11.110  1.00  0.00     0.176 HD
ATOM     21  H91 UNL     1      28.506   7.781  11.370  1.00  0.00     0.176 HD
ENDBRANCH  17  19
ENDBRANCH  15  17
BRANCH  16  22
HETATM   22  C14 UNL     1      28.632   5.539  14.199  1.00  0.00     0.166 C 
BRANCH  22  23
HETATM   23  C15 UNL     1      27.506   5.153  13.221  1.00  0.00     0.167 C 
BRANCH  23  24
HETATM   24  O2  UNL     1      27.861   4.975  11.913  1.00  0.00    -0.391 OA
ATOM     25  H2  UNL     1      27.168   5.047  11.268  1.00  0.00     0.210 HD
ENDBRANCH  23  24
BRANCH  23  26
HETATM   26  C16 UNL     1      26.363   6.177  13.187  1.00  0.00     0.177 C 
BRANCH  26  27
HETATM   27  O3  UNL     1      25.925   6.420  14.519  1.00  0.00    -0.390 OA
ATOM     28  H3  UNL     1      26.593   6.116  15.122  1.00  0.00     0.210 HD
ENDBRANCH  26  27
BRANCH  26  29
HETATM   29  C17 UNL     1      25.135   5.595  12.543  1.00  0.00     0.151 C 
BRANCH  29  30
HETATM   30  O4  UNL     1      24.048   6.376  13.126  1.00  0.00    -0.393 OA
ATOM     31  H4  UNL     1      23.693   6.848  12.381  1.00  0.00     0.210 HD
ENDBRANCH  29  30
BRANCH  29  32
HETATM   32  C18 UNL     1      25.005   5.928  11.098  1.00  0.00     0.060 C 
BRANCH  32  33
HETATM   33  C19 UNL     1      23.773   6.598  10.634  1.00  0.00     0.166 C 
BRANCH  33  34
HETATM   34  O5  UNL     1      23.597   7.925  10.790  1.00  0.00    -0.401 OA
ATOM     35  H5  UNL     1      23.212   8.456  10.102  1.00  0.00     0.209 HD
ENDBRANCH  33  34
ENDBRANCH  32  33
ENDBRANCH  29  32
ENDBRANCH  26  29
ENDBRANCH  23  26
ENDBRANCH  22  23
ENDBRANCH  16  22
BRANCH   1  36
HETATM   36  N3  UNL     1      33.212   1.895  12.477  1.00  0.00    -0.295 N 
HETATM   37  N2  UNL     1      34.337   1.728  13.034  1.00  0.00    -0.282 N 
ATOM     38  H2  UNL     1      34.406   1.819  14.047  1.00  0.00     0.188 HD
ATOM     39  H3  UNL     1      33.127   1.806  11.465  1.00  0.00     0.187 HD
BRANCH  37  40
HETATM   40  C4  UNL     1      35.507   1.416  12.286  1.00  0.00     0.169 A 
HETATM   41  C3  UNL     1      35.954   0.117  12.311  1.00  0.00     0.102 A 
HETATM   42  C2  UNL     1      37.083  -0.200  11.595  1.00  0.00     0.005 A 
HETATM   43  N1  UNL     1      35.252  -0.880  13.074  1.00  0.00    -0.098 NA
HETATM   44  C1  UNL     1      37.553  -1.613  11.636  1.00  0.00     0.053 C 
HETATM   45  C21 UNL     1      37.725   0.771  10.883  1.00  0.00     0.144 A 
HETATM   46  C20 UNL     1      37.230   2.051  10.896  1.00  0.00     0.301 A 
HETATM   47  N11 UNL     1      36.131   2.377  11.589  1.00  0.00    -0.205 N 
HETATM   48  O6  UNL     1      37.813   2.970  10.241  1.00  0.00    -0.263 OA
BRANCH  45  49
HETATM   49  O7  UNL     1      38.860   0.450  10.163  1.00  0.00    -0.355 OA
ATOM     50  H7  UNL     1      39.389   1.144   9.788  1.00  0.00     0.218 HD
ENDBRANCH  45  49
BRANCH  47  51
HETATM   51  N12 UNL     1      35.641   3.699  11.588  1.00  0.00    -0.334 N 
ATOM     52 2H12 UNL     1      35.674   4.270  12.433  1.00  0.00     0.177 HD
ATOM     53 1H12 UNL     1      35.245   4.106  10.741  1.00  0.00     0.177 HD
ENDBRANCH  47  51
ENDBRANCH  37  40
ENDBRANCH   1  36
TORSDOF 16
ENDMDL
MODEL 3
REMARK VINA RESULT: -7.898622119      1.045      1.961
REMARK  16 active torsions:
REMARK  status: ('A' for Active; 'I' for Inactive)
REMARK    1  A    between atoms: C4_5  and  N2_6 
REMARK    2  A    between atoms: N3_8  and  C5_10 
REMARK    3  A    between atoms: C13_24  and  N8_25 
REMARK    4  A    between atoms: N8_25  and  N9_27 
REMARK    5  A    between atoms: N10_30  and  C14_31 
REMARK    6  A    between atoms: C14_31  and  C15_32 
REMARK    7  A    between atoms: C15_32  and  O2_33 
REMARK    8  A    between atoms: C15_32  and  C16_35 
REMARK    9  A    between atoms: C16_35  and  O3_36 
REMARK   10  A    between atoms: C16_35  and  C17_38 
REMARK   11  A    between atoms: C17_38  and  O4_39 
REMARK   12  A    between atoms: C17_38  and  C18_41 
REMARK   13  A    between atoms: C18_41  and  C19_42 
REMARK   14  A    between atoms: C19_42  and  O5_43 
REMARK   15  A    between atoms: N11_45  and  N12_46 
REMARK   16  A    between atoms: C21_51  and  O7_52 
ROOT
HETATM    1  C5  UNL     1      32.394   2.728  12.772  1.00  0.00     0.108 A 
HETATM    2  C6  UNL     1      32.014   1.745  13.616  1.00  0.00     0.144 A 
HETATM    3  N4  UNL     1      32.715   0.530  13.678  1.00  0.00    -0.094 NA
HETATM    4  C7  UNL     1      30.930   1.955  14.411  1.00  0.00     0.275 A 
HETATM    5  O1  UNL     1      30.529   1.052  15.227  1.00  0.00    -0.266 OA
HETATM    6  N5  UNL     1      30.176   3.110  14.425  1.00  0.00    -0.301 N 
HETATM    7  C8  UNL     1      29.161   3.269  15.392  1.00  0.00     0.161 C 
HETATM    8  C9  UNL     1      30.548   4.085  13.583  1.00  0.00     0.143 A 
HETATM    9  C10 UNL     1      31.674   3.899  12.745  1.00  0.00     0.109 A 
HETATM   10  N6  UNL     1      32.087   4.876  11.924  1.00  0.00    -0.340 N 
ATOM     11  H6  UNL     1      32.900   4.737  11.324  1.00  0.00     0.167 HD
HETATM   12  C11 UNL     1      31.421   6.034  11.901  1.00  0.00     0.160 A 
HETATM   13  C12 UNL     1      31.882   7.092  10.999  1.00  0.00     0.121 C 
HETATM   14  N7  UNL     1      32.273   7.916  10.265  1.00  0.00    -0.190 NA
HETATM   15  C13 UNL     1      30.340   6.268  12.669  1.00  0.00     0.162 A 
HETATM   16  N10 UNL     1      29.885   5.247  13.537  1.00  0.00    -0.311 N 
ENDROOT
BRANCH  15  17
HETATM   17  N8  UNL     1      29.704   7.345  12.769  1.00  0.00    -0.289 N 
ATOM     18  H8  UNL     1      29.610   7.735  13.706  1.00  0.00     0.188 HD
BRANCH  17  19
HETATM   19  N9  UNL     1      29.125   8.046  11.752  1.00  0.00    -0.344 N 
ATOM     20  H92 UNL     1      29.735   8.707  11.271  1.00  0.00     0.176 HD
ATOM     21  H91 UNL     1      28.159   7.973  11.434  1.00  0.00     0.176 HD
ENDBRANCH  17  19
ENDBRANCH  15  17
BRANCH  16  22
HETATM   22  C14 UNL     1      28.658   5.525  14.164  1.00  0.00     0.166 C 
BRANCH  22  23
HETATM   23  C15 UNL     1      27.523   5.148  13.193  1.00  0.00     0.167 C 
BRANCH  23  24
HETATM   24  O2  UNL     1      27.867   4.976  11.881  1.00  0.00    -0.391 OA
ATOM     25  H2  UNL     1      27.224   5.236  11.232  1.00  0.00     0.210 HD
ENDBRANCH  23  24
BRANCH  23  26
HETATM   26  C16 UNL     1      26.384   6.177  13.173  1.00  0.00     0.177 C 
BRANCH  26  27
HETATM   27  O3  UNL     1      25.975   6.435  14.511  1.00  0.00    -0.390 OA
ATOM     28  H3  UNL     1      26.251   5.712  15.062  1.00  0.00     0.210 HD
ENDBRANCH  26  27
BRANCH  26  29
HETATM   29  C17 UNL     1      25.139   5.594  12.561  1.00  0.00     0.151 C 
BRANCH  29  30
HETATM   30  O4  UNL     1      24.068   6.382  13.164  1.00  0.00    -0.393 OA
ATOM     31  H4  UNL     1      23.300   5.834  13.047  1.00  0.00     0.210 HD
ENDBRANCH  29  30
BRANCH  29  32
HETATM   32  C18 UNL     1      24.977   5.918  11.118  1.00  0.00     0.060 C 
BRANCH  32  33
HETATM   33  C19 UNL     1      23.746   6.609  10.682  1.00  0.00     0.166 C 
BRANCH  33  34
HETATM   34  O5  UNL     1      23.653   7.953  10.704  1.00  0.00    -0.401 OA
ATOM     35  H5  UNL     1      23.119   8.421  10.072  1.00  0.00     0.209 HD
ENDBRANCH  33  34
ENDBRANCH  32  33
ENDBRANCH  29  32
ENDBRANCH  26  29
ENDBRANCH  23  26
ENDBRANCH  22  23
ENDBRANCH  16  22
BRANCH   1  36
HETATM   36  N3  UNL     1      33.519   2.619  11.894  1.00  0.00    -0.295 N 
HETATM   37  N2  UNL     1      34.695   2.695  12.356  1.00  0.00    -0.282 N 
ATOM     38  H2  UNL     1      34.825   2.835  13.358  1.00  0.00     0.188 HD
ATOM     39  H3  UNL     1      33.372   2.479  10.895  1.00  0.00     0.187 HD
BRANCH  37  40
HETATM   40  C4  UNL     1      35.840   2.592  11.517  1.00  0.00     0.169 A 
HETATM   41  C3  UNL     1      36.472   1.375  11.445  1.00  0.00     0.102 A 
HETATM   42  C2  UNL     1      37.580   1.259  10.640  1.00  0.00     0.005 A 
HETATM   43  N1  UNL     1      35.980   0.253  12.199  1.00  0.00    -0.098 NA
HETATM   44  C1  UNL     1      38.252  -0.069  10.576  1.00  0.00     0.053 C 
HETATM   45  C21 UNL     1      38.020   2.343   9.938  1.00  0.00     0.144 A 
HETATM   46  C20 UNL     1      37.346   3.534  10.050  1.00  0.00     0.301 A 
HETATM   47  N11 UNL     1      36.265   3.664  10.831  1.00  0.00    -0.205 N 
HETATM   48  O6  UNL     1      37.739   4.556   9.406  1.00  0.00    -0.263 OA
BRANCH  45  49
HETATM   49  O7  UNL     1      39.133   2.225   9.129  1.00  0.00    -0.355 OA
ATOM     50  H7  UNL     1      39.311   2.891   8.475  1.00  0.00     0.218 HD
ENDBRANCH  45  49
BRANCH  47  51
HETATM   51  N12 UNL     1      35.589   4.897  10.931  1.00  0.00    -0.334 N 
ATOM     52 2H12 UNL     1      35.935   5.635  11.544  1.00  0.00     0.177 HD
ATOM     53 1H12 UNL     1      34.741   5.070  10.390  1.00  0.00     0.177 HD
ENDBRANCH  47  51
ENDBRANCH  37  40
ENDBRANCH   1  36
TORSDOF 16
ENDMDL
MODEL 4
REMARK VINA RESULT: -7.583253388      1.720      2.371
REMARK  16 active torsions:
REMARK  status: ('A' for Active; 'I' for Inactive)
REMARK    1  A    between atoms: C4_5  and  N2_6 
REMARK    2  A    between atoms: N3_8  and  C5_10 
REMARK    3  A    between atoms: C13_24  and  N8_25 
REMARK    4  A    between atoms: N8_25  and  N9_27 
REMARK    5  A    between atoms: N10_30  and  C14_31 
REMARK    6  A    between atoms: C14_31  and  C15_32 
REMARK    7  A    between atoms: C15_32  and  O2_33 
REMARK    8  A    between atoms: C15_32  and  C16_35 
REMARK    9  A    between atoms: C16_35  and  O3_36 
REMARK   10  A    between atoms: C16_35  and  C17_38 
REMARK   11  A    between atoms: C17_38  and  O4_39 
REMARK   12  A    between atoms: C17_38  and  C18_41 
REMARK   13  A    between atoms: C18_41  and  C19_42 
REMARK   14  A    between atoms: C19_42  and  O5_43 
REMARK   15  A    between atoms: N11_45  and  N12_46 
REMARK   16  A    between atoms: C21_51  and  O7_52 
ROOT
HETATM    1  C5  UNL     1      31.684   3.362  12.904  1.00  0.00     0.108 A 
HETATM    2  C6  UNL     1      31.573   2.239  13.645  1.00  0.00     0.144 A 
HETATM    3  N4  UNL     1      32.444   1.154  13.453  1.00  0.00    -0.094 NA
HETATM    4  C7  UNL     1      30.595   2.177  14.588  1.00  0.00     0.275 A 
HETATM    5  O1  UNL     1      30.448   1.132  15.315  1.00  0.00    -0.266 OA
HETATM    6  N5  UNL     1      29.692   3.185  14.853  1.00  0.00    -0.301 N 
HETATM    7  C8  UNL     1      28.812   3.064  15.950  1.00  0.00     0.161 C 
HETATM    8  C9  UNL     1      29.796   4.299  14.114  1.00  0.00     0.143 A 
HETATM    9  C10 UNL     1      30.806   4.397  13.127  1.00  0.00     0.109 A 
HETATM   10  N6  UNL     1      30.953   5.516  12.403  1.00  0.00    -0.340 N 
ATOM     11  H6  UNL     1      31.683   5.581  11.695  1.00  0.00     0.167 HD
HETATM   12  C11 UNL     1      30.131   6.546  12.621  1.00  0.00     0.160 A 
HETATM   13  C12 UNL     1      30.302   7.764  11.823  1.00  0.00     0.121 C 
HETATM   14  N7  UNL     1      30.461   8.720  11.168  1.00  0.00    -0.190 NA
HETATM   15  C13 UNL     1      29.147   6.512  13.541  1.00  0.00     0.162 A 
HETATM   16  N10 UNL     1      28.972   5.336  14.309  1.00  0.00    -0.311 N 
ENDROOT
BRANCH  15  17
HETATM   17  N8  UNL     1      28.384   7.453  13.865  1.00  0.00    -0.289 N 
ATOM     18  H8  UNL     1      27.522   7.548  13.327  1.00  0.00     0.188 HD
BRANCH  17  19
HETATM   19  N9  UNL     1      28.587   8.362  14.862  1.00  0.00    -0.344 N 
ATOM     20  H92 UNL     1      29.559   8.507  15.132  1.00  0.00     0.176 HD
ATOM     21  H91 UNL     1      27.872   8.898  15.352  1.00  0.00     0.176 HD
ENDBRANCH  17  19
ENDBRANCH  15  17
BRANCH  16  22
HETATM   22  C14 UNL     1      27.820   5.338  15.114  1.00  0.00     0.166 C 
BRANCH  22  23
HETATM   23  C15 UNL     1      26.648   5.888  14.279  1.00  0.00     0.167 C 
BRANCH  23  24
HETATM   24  O2  UNL     1      25.859   6.832  14.872  1.00  0.00    -0.391 OA
ATOM     25  H2  UNL     1      24.937   6.623  14.963  1.00  0.00     0.210 HD
ENDBRANCH  23  24
BRANCH  23  26
HETATM   26  C16 UNL     1      25.677   4.794  13.813  1.00  0.00     0.177 C 
BRANCH  26  27
HETATM   27  O3  UNL     1      26.429   3.662  13.390  1.00  0.00    -0.390 OA
ATOM     28  H3  UNL     1      26.603   3.739  12.459  1.00  0.00     0.210 HD
ENDBRANCH  26  27
BRANCH  26  29
HETATM   29  C17 UNL     1      24.968   5.201  12.551  1.00  0.00     0.151 C 
BRANCH  29  30
HETATM   30  O4  UNL     1      23.992   6.183  13.016  1.00  0.00    -0.393 OA
ATOM     31  H4  UNL     1      23.466   6.352  12.243  1.00  0.00     0.210 HD
ENDBRANCH  29  30
BRANCH  29  32
HETATM   32  C18 UNL     1      25.806   6.020  11.634  1.00  0.00     0.060 C 
BRANCH  32  33
HETATM   33  C19 UNL     1      25.170   6.638  10.454  1.00  0.00     0.166 C 
BRANCH  33  34
HETATM   34  O5  UNL     1      24.215   7.581  10.587  1.00  0.00    -0.401 OA
ATOM     35  H5  UNL     1      24.439   8.501  10.671  1.00  0.00     0.209 HD
ENDBRANCH  33  34
ENDBRANCH  32  33
ENDBRANCH  29  32
ENDBRANCH  26  29
ENDBRANCH  23  26
ENDBRANCH  22  23
ENDBRANCH  16  22
BRANCH   1  36
HETATM   36  N3  UNL     1      32.676   3.539  11.888  1.00  0.00    -0.295 N 
HETATM   37  N2  UNL     1      33.897   3.645  12.204  1.00  0.00    -0.282 N 
ATOM     38  H2  UNL     1      34.159   3.602  13.189  1.00  0.00     0.188 HD
ATOM     39  H3  UNL     1      32.399   3.580  10.908  1.00  0.00     0.187 HD
BRANCH  37  40
HETATM   40  C4  UNL     1      34.915   3.822  11.226  1.00  0.00     0.169 A 
HETATM   41  C3  UNL     1      34.887   4.973  10.475  1.00  0.00     0.102 A 
HETATM   42  C2  UNL     1      35.862   5.159   9.525  1.00  0.00     0.005 A 
HETATM   43  N1  UNL     1      33.855   5.953  10.684  1.00  0.00    -0.098 NA
HETATM   44  C1  UNL     1      35.814   6.412   8.721  1.00  0.00     0.053 C 
HETATM   45  C21 UNL     1      36.826   4.208   9.353  1.00  0.00     0.144 A 
HETATM   46  C20 UNL     1      36.802   3.079  10.134  1.00  0.00     0.301 A 
HETATM   47  N11 UNL     1      35.858   2.882  11.063  1.00  0.00    -0.205 N 
HETATM   48  O6  UNL     1      37.689   2.181   9.989  1.00  0.00    -0.263 OA
BRANCH  45  49
HETATM   49  O7  UNL     1      37.806   4.397   8.398  1.00  0.00    -0.355 OA
ATOM     50  H7  UNL     1      38.588   4.889   8.620  1.00  0.00     0.218 HD
ENDBRANCH  45  49
BRANCH  47  51
HETATM   51  N12 UNL     1      35.853   1.715  11.854  1.00  0.00    -0.334 N 
ATOM     52 2H12 UNL     1      36.710   1.181  12.003  1.00  0.00     0.177 HD
ATOM     53 1H12 UNL     1      34.992   1.385  12.290  1.00  0.00     0.177 HD
ENDBRANCH  47  51
ENDBRANCH  37  40
ENDBRANCH   1  36
TORSDOF 16
ENDMDL
MODEL 5
REMARK VINA RESULT: -7.580603823      1.480      2.076
REMARK  16 active torsions:
REMARK  status: ('A' for Active; 'I' for Inactive)
REMARK    1  A    between atoms: C4_5  and  N2_6 
REMARK    2  A    between atoms: N3_8  and  C5_10 
REMARK    3  A    between atoms: C13_24  and  N8_25 
REMARK    4  A    between atoms: N8_25  and  N9_27 
REMARK    5  A    between atoms: N10_30  and  C14_31 
REMARK    6  A    between atoms: C14_31  and  C15_32 
REMARK    7  A    between atoms: C15_32  and  O2_33 
REMARK    8  A    between atoms: C15_32  and  C16_35 
REMARK    9  A    between atoms: C16_35  and  O3_36 
REMARK   10  A    between atoms: C16_35  and  C17_38 
REMARK   11  A    between atoms: C17_38  and  O4_39 
REMARK   12  A    between atoms: C17_38  and  C18_41 
REMARK   13  A    between atoms: C18_41  and  C19_42 
REMARK   14  A    between atoms: C19_42  and  O5_43 
REMARK   15  A    between atoms: N11_45  and  N12_46 
REMARK   16  A    between atoms: C21_51  and  O7_52 
ROOT
HETATM    1  C5  UNL     1      32.652   3.330  12.272  1.00  0.00     0.108 A 
HETATM    2  C6  UNL     1      31.924   2.662  13.193  1.00  0.00     0.144 A 
HETATM    3  N4  UNL     1      32.257   1.351  13.570  1.00  0.00    -0.094 NA
HETATM    4  C7  UNL     1      30.855   3.288  13.753  1.00  0.00     0.275 A 
HETATM    5  O1  UNL     1      30.132   2.696  14.631  1.00  0.00    -0.266 OA
HETATM    6  N5  UNL     1      30.447   4.571  13.452  1.00  0.00    -0.301 N 
HETATM    7  C8  UNL     1      29.409   5.167  14.199  1.00  0.00     0.161 C 
HETATM    8  C9  UNL     1      31.164   5.233  12.533  1.00  0.00     0.143 A 
HETATM    9  C10 UNL     1      32.285   4.611  11.933  1.00  0.00     0.109 A 
HETATM   10  N6  UNL     1      33.040   5.269  11.042  1.00  0.00    -0.340 N 
ATOM     11  H6  UNL     1      33.848   4.816  10.615  1.00  0.00     0.167 HD
HETATM   12  C11 UNL     1      32.722   6.525  10.718  1.00  0.00     0.160 A 
HETATM   13  C12 UNL     1      33.554   7.232   9.741  1.00  0.00     0.121 C 
HETATM   14  N7  UNL     1      34.236   7.769   8.956  1.00  0.00    -0.190 NA
HETATM   15  C13 UNL     1      31.664   7.169  11.248  1.00  0.00     0.162 A 
HETATM   16  N10 UNL     1      30.852   6.488  12.187  1.00  0.00    -0.311 N 
ENDROOT
BRANCH  15  17
HETATM   17  N8  UNL     1      31.338   8.365  11.063  1.00  0.00    -0.289 N 
ATOM     18  H8  UNL     1      30.587   8.535  10.394  1.00  0.00     0.188 HD
BRANCH  17  19
HETATM   19  N9  UNL     1      31.884   9.462  11.663  1.00  0.00    -0.344 N 
ATOM     20  H92 UNL     1      32.368  10.107  11.040  1.00  0.00     0.176 HD
ATOM     21  H91 UNL     1      31.854   9.692  12.655  1.00  0.00     0.176 HD
ENDBRANCH  17  19
ENDBRANCH  15  17
BRANCH  16  22
HETATM   22  C14 UNL     1      29.683   7.179  12.549  1.00  0.00     0.166 C 
BRANCH  22  23
HETATM   23  C15 UNL     1      28.733   7.190  11.336  1.00  0.00     0.167 C 
BRANCH  23  24
HETATM   24  O2  UNL     1      28.342   8.415  10.871  1.00  0.00    -0.391 OA
ATOM     25  H2  UNL     1      28.055   9.047  11.519  1.00  0.00     0.210 HD
ENDBRANCH  23  24
BRANCH  23  26
HETATM   26  C16 UNL     1      27.426   6.426  11.590  1.00  0.00     0.177 C 
BRANCH  26  27
HETATM   27  O3  UNL     1      27.642   5.046  11.319  1.00  0.00    -0.390 OA
ATOM     28  H3  UNL     1      27.094   4.530  11.899  1.00  0.00     0.210 HD
ENDBRANCH  26  27
BRANCH  26  29
HETATM   29  C17 UNL     1      26.378   6.795  10.576  1.00  0.00     0.151 C 
BRANCH  29  30
HETATM   30  O4  UNL     1      26.994   6.423   9.305  1.00  0.00    -0.393 OA
ATOM     31  H4  UNL     1      26.248   6.297   8.729  1.00  0.00     0.210 HD
ENDBRANCH  29  30
BRANCH  29  32
HETATM   32  C18 UNL     1      25.184   5.907  10.604  1.00  0.00     0.060 C 
BRANCH  32  33
HETATM   33  C19 UNL     1      24.017   6.314  11.413  1.00  0.00     0.166 C 
BRANCH  33  34
HETATM   34  O5  UNL     1      24.063   6.305  12.760  1.00  0.00    -0.401 OA
ATOM     35  H5  UNL     1      24.157   5.493  13.245  1.00  0.00     0.209 HD
ENDBRANCH  33  34
ENDBRANCH  32  33
ENDBRANCH  29  32
ENDBRANCH  26  29
ENDBRANCH  23  26
ENDBRANCH  22  23
ENDBRANCH  16  22
BRANCH   1  36
HETATM   36  N3  UNL     1      33.798   2.772  11.621  1.00  0.00    -0.295 N 
HETATM   37  N2  UNL     1      34.806   2.419  12.301  1.00  0.00    -0.282 N 
ATOM     38  H2  UNL     1      34.787   2.538  13.314  1.00  0.00     0.188 HD
ATOM     39  H3  UNL     1      33.803   2.659  10.608  1.00  0.00     0.187 HD
BRANCH  37  40
HETATM   40  C4  UNL     1      35.965   1.861  11.693  1.00  0.00     0.169 A 
HETATM   41  C3  UNL     1      36.659   2.643  10.801  1.00  0.00     0.102 A 
HETATM   42  C2  UNL     1      37.781   2.118  10.205  1.00  0.00     0.005 A 
HETATM   43  N1  UNL     1      36.213   3.978  10.503  1.00  0.00    -0.098 NA
HETATM   44  C1  UNL     1      38.518   2.982   9.241  1.00  0.00     0.053 C 
HETATM   45  C21 UNL     1      38.175   0.848  10.511  1.00  0.00     0.144 A 
HETATM   46  C20 UNL     1      37.442   0.115  11.411  1.00  0.00     0.301 A 
HETATM   47  N11 UNL     1      36.346   0.612  11.999  1.00  0.00    -0.205 N 
HETATM   48  O6  UNL     1      37.791  -1.069  11.708  1.00  0.00    -0.263 OA
BRANCH  45  49
HETATM   49  O7  UNL     1      39.303   0.323   9.911  1.00  0.00    -0.355 OA
ATOM     50  H7  UNL     1      39.404   0.384   8.968  1.00  0.00     0.218 HD
ENDBRANCH  45  49
BRANCH  47  51
HETATM   51  N12 UNL     1      35.608  -0.159  12.920  1.00  0.00    -0.334 N 
ATOM     52 2H12 UNL     1      35.237  -1.073  12.659  1.00  0.00     0.177 HD
ATOM     53 1H12 UNL     1      35.433   0.185  13.865  1.00  0.00     0.177 HD
ENDBRANCH  47  51
ENDBRANCH  37  40
ENDBRANCH   1  36
TORSDOF 16
ENDMDL
