MODEL 1
REMARK VINA RESULT: -9.394368672      0.000      0.000
REMARK  14 active torsions:
REMARK  status: ('A' for Active; 'I' for Inactive)
REMARK    1  A    between atoms: N1_1  and  C1_4 
REMARK    2  A    between atoms: C2_7  and  C3_8 
REMARK    3  A    between atoms: C4_14  and  N5_15 
REMARK    4  A    between atoms: N6_18  and  C5_19 
REMARK    5  A    between atoms: C6_21  and  O3_22 
REMARK    6  A    between atoms: C6_21  and  C7_24 
REMARK       I    between atoms: C7_24  and  N7_26 
REMARK    7  A    between atoms: N7_26  and  N8_28 
REMARK    8  A    between atoms: C8_30  and  C9_31 
REMARK    9  A    between atoms: C10_34  and  C11_35 
REMARK   10  A    between atoms: C12_39  and  O6_40 
REMARK   11  A    between atoms: C12_39  and  C13_42 
REMARK   12  A    between atoms: C13_42  and  O7_43 
REMARK   13  A    between atoms: C14_45  and  O8_46 
REMARK   14  A    between atoms: C16_49  and  N11_50 
ROOT
HETATM    1  C7  UNL     1      25.184   4.972   5.848  1.00  0.00     0.329 C 
HETATM    2  O4  UNL     1      23.988   5.081   6.188  1.00  0.00    -0.263 OA
HETATM    3  N7  UNL     1      26.165   4.795   6.850  1.00  0.00    -0.263 N 
ATOM      4  H7  UNL     1      27.140   4.706   6.563  1.00  0.00     0.190 HD
ENDROOT
BRANCH   1   5
HETATM    5  C6  UNL     1      25.579   5.024   4.448  1.00  0.00     0.376 C 
HETATM    6  O2  UNL     1      26.737   5.794   4.183  1.00  0.00    -0.274 OA
HETATM    7  C5  UNL     1      26.110   6.120   2.960  1.00  0.00     0.406 C 
HETATM    8  O11 UNL     1      24.902   5.973   3.646  1.00  0.00    -0.274 OA
BRANCH   7   9
HETATM    9  N6  UNL     1      26.399   7.473   2.520  1.00  0.00    -0.205 N 
HETATM   10  C2  UNL     1      25.638   8.112   1.607  1.00  0.00     0.175 A 
HETATM   11  N2  UNL     1      26.151   9.344   1.403  1.00  0.00    -0.172 N 
HETATM   12  C1  UNL     1      27.224   9.429   2.206  1.00  0.00     0.692 A 
ATOM     13  H2  UNL     1      25.796  10.062   0.771  1.00  0.00     0.186 HD
HETATM   14  N12 UNL     1      27.357   8.278   2.877  1.00  0.00    -0.124 N 
ATOM     15  H12 UNL     1      28.088   8.068   3.556  1.00  0.00     0.206 HD
BRANCH  10  16
HETATM   16  C3  UNL     1      24.461   7.586   0.938  1.00  0.00     0.148 A 
HETATM   17  N3  UNL     1      24.459   7.086  -0.334  1.00  0.00    -0.234 N 
HETATM   18  O1  UNL     1      23.264   6.699  -0.642  1.00  0.00    -0.155 OA
ATOM     19  H3  UNL     1      25.273   7.027  -0.946  1.00  0.00     0.197 HD
HETATM   20  N4  UNL     1      22.445   6.898   0.329  1.00  0.00    -0.224 N 
HETATM   21  C4  UNL     1      23.165   7.462   1.357  1.00  0.00     0.154 A 
ATOM     22  H4  UNL     1      21.449   6.679   0.336  1.00  0.00     0.198 HD
BRANCH  21  23
HETATM   23  N5  UNL     1      22.703   7.805   2.492  1.00  0.00    -0.382 N 
ATOM     24  H52 UNL     1      23.249   7.960   3.338  1.00  0.00     0.157 HD
ATOM     25  H51 UNL     1      21.723   7.974   2.720  1.00  0.00     0.157 HD
ENDBRANCH  21  23
ENDBRANCH  10  16
BRANCH  12  26
HETATM   26  N1  UNL     1      28.000  10.469   2.307  1.00  0.00    -0.233 N 
ATOM     27  H12 UNL     1      27.721  11.442   2.181  1.00  0.00     0.174 HD
ATOM     28  H11 UNL     1      28.996  10.437   2.527  1.00  0.00     0.174 HD
ENDBRANCH  12  26
ENDBRANCH   7   9
BRANCH   5  29
HETATM   29  O3  UNL     1      25.548   3.806   3.769  1.00  0.00    -0.335 OA
ATOM     30  H3  UNL     1      25.868   3.074   4.283  1.00  0.00     0.216 HD
ENDBRANCH   5  29
ENDBRANCH   1   5
BRANCH   3  31
HETATM   31  N8  UNL     1      25.867   4.735   8.211  1.00  0.00    -0.307 N 
HETATM   32  C8  UNL     1      26.078   5.696   9.001  1.00  0.00     0.139 C 
ATOM     33  H8  UNL     1      25.461   3.877   8.584  1.00  0.00     0.186 HD
BRANCH  32  34
HETATM   34  C9  UNL     1      25.774   5.655  10.426  1.00  0.00     0.083 A 
HETATM   35  N9  UNL     1      26.663   5.114  11.319  1.00  0.00    -0.351 N 
HETATM   36  C10 UNL     1      26.218   5.194  12.574  1.00  0.00     0.062 A 
ATOM     37  H9  UNL     1      27.557   4.699  11.055  1.00  0.00     0.166 HD
HETATM   38  C15 UNL     1      24.998   5.809  12.494  1.00  0.00     0.070 A 
HETATM   39  C16 UNL     1      24.710   6.102  11.144  1.00  0.00     0.133 A 
BRANCH  36  40
HETATM   40  C11 UNL     1      26.891   4.724  13.797  1.00  0.00     0.093 C 
HETATM   41  N10 UNL     1      26.481   3.798  14.589  1.00  0.00    -0.262 N 
HETATM   42  O5  UNL     1      27.378   3.634  15.631  1.00  0.00    -0.235 OA
ATOM     43  H10 UNL     1      25.622   3.263  14.467  1.00  0.00     0.194 HD
HETATM   44  C12 UNL     1      28.596   4.307  15.359  1.00  0.00     0.240 C 
HETATM   45  C14 UNL     1      28.172   5.283  14.283  1.00  0.00     0.238 C 
BRANCH  44  46
HETATM   46  O6  UNL     1      28.989   4.933  16.520  1.00  0.00    -0.360 OA
ATOM     47  H6  UNL     1      29.938   4.956  16.524  1.00  0.00     0.213 HD
ENDBRANCH  44  46
BRANCH  44  48
HETATM   48  C13 UNL     1      29.634   3.398  14.783  1.00  0.00     0.238 C 
BRANCH  48  49
HETATM   49  O7  UNL     1      30.364   3.975  13.757  1.00  0.00    -0.395 OA
ATOM     50  H7  UNL     1      31.211   4.304  14.034  1.00  0.00     0.209 HD
ENDBRANCH  48  49
ENDBRANCH  44  48
BRANCH  45  51
HETATM   51  O8  UNL     1      28.009   6.573  14.801  1.00  0.00    -0.384 OA
ATOM     52  H8  UNL     1      28.654   6.765  15.472  1.00  0.00     0.210 HD
ENDBRANCH  45  51
ENDBRANCH  36  40
BRANCH  39  53
HETATM   53  N11 UNL     1      23.546   6.741  10.705  1.00  0.00    -0.113 N 
HETATM   54  O9  UNL     1      23.475   8.020  10.776  1.00  0.00    -0.532 OA
HETATM   55  O10 UNL     1      22.436   6.160  10.192  1.00  0.00    -0.532 OA
ENDBRANCH  39  53
ENDBRANCH  32  34
ENDBRANCH   3  31
TORSDOF 14
ENDMDL
MODEL 2
REMARK VINA RESULT: -9.377085436      1.246      1.742
REMARK  14 active torsions:
REMARK  status: ('A' for Active; 'I' for Inactive)
REMARK    1  A    between atoms: N1_1  and  C1_4 
REMARK    2  A    between atoms: C2_7  and  C3_8 
REMARK    3  A    between atoms: C4_14  and  N5_15 
REMARK    4  A    between atoms: N6_18  and  C5_19 
REMARK    5  A    between atoms: C6_21  and  O3_22 
REMARK    6  A    between atoms: C6_21  and  C7_24 
REMARK       I    between atoms: C7_24  and  N7_26 
REMARK    7  A    between atoms: N7_26  and  N8_28 
REMARK    8  A    between atoms: C8_30  and  C9_31 
REMARK    9  A    between atoms: C10_34  and  C11_35 
REMARK   10  A    between atoms: C12_39  and  O6_40 
REMARK   11  A    between atoms: C12_39  and  C13_42 
REMARK   12  A    between atoms: C13_42  and  O7_43 
REMARK   13  A    between atoms: C14_45  and  O8_46 
REMARK   14  A    between atoms: C16_49  and  N11_50 
ROOT
HETATM    1  C7  UNL     1      25.169   5.283   5.921  1.00  0.00     0.329 C 
HETATM    2  O4  UNL     1      24.140   5.907   6.251  1.00  0.00    -0.263 OA
HETATM    3  N7  UNL     1      25.939   4.655   6.925  1.00  0.00    -0.263 N 
ATOM      4  H7  UNL     1      26.778   4.146   6.646  1.00  0.00     0.190 HD
ENDROOT
BRANCH   1   5
HETATM    5  C6  UNL     1      25.583   5.194   4.528  1.00  0.00     0.376 C 
HETATM    6  O2  UNL     1      26.765   5.906   4.210  1.00  0.00    -0.274 OA
HETATM    7  C5  UNL     1      26.163   6.131   2.952  1.00  0.00     0.406 C 
HETATM    8  O11 UNL     1      24.942   6.081   3.630  1.00  0.00    -0.274 OA
BRANCH   7   9
HETATM    9  N6  UNL     1      26.494   7.430   2.393  1.00  0.00    -0.205 N 
HETATM   10  C2  UNL     1      26.643   7.625   1.065  1.00  0.00     0.175 A 
HETATM   11  N2  UNL     1      26.946   8.924   0.852  1.00  0.00    -0.172 N 
HETATM   12  C1  UNL     1      26.974   9.496   2.067  1.00  0.00     0.692 A 
ATOM     13  H2  UNL     1      27.117   9.377  -0.046  1.00  0.00     0.186 HD
HETATM   14  N12 UNL     1      26.696   8.567   2.991  1.00  0.00    -0.124 N 
ATOM     15  H12 UNL     1      26.651   8.726   3.997  1.00  0.00     0.206 HD
BRANCH  10  16
HETATM   16  C3  UNL     1      26.508   6.626   0.020  1.00  0.00     0.148 A 
HETATM   17  N3  UNL     1      25.341   6.357  -0.639  1.00  0.00    -0.234 N 
HETATM   18  O1  UNL     1      25.544   5.421  -1.508  1.00  0.00    -0.155 OA
ATOM     19  H3  UNL     1      24.449   6.823  -0.472  1.00  0.00     0.197 HD
HETATM   20  N4  UNL     1      26.768   5.028  -1.491  1.00  0.00    -0.224 N 
HETATM   21  C4  UNL     1      27.419   5.769  -0.531  1.00  0.00     0.154 A 
ATOM     22  H4  UNL     1      27.179   4.303  -2.078  1.00  0.00     0.198 HD
BRANCH  21  23
HETATM   23  N5  UNL     1      28.648   5.670  -0.219  1.00  0.00    -0.382 N 
ATOM     24  H52 UNL     1      29.128   6.213   0.499  1.00  0.00     0.157 HD
ATOM     25  H51 UNL     1      29.330   5.038  -0.637  1.00  0.00     0.157 HD
ENDBRANCH  21  23
ENDBRANCH  10  16
BRANCH  12  26
HETATM   26  N1  UNL     1      27.231  10.751   2.295  1.00  0.00    -0.233 N 
ATOM     27  H12 UNL     1      26.543  11.481   2.483  1.00  0.00     0.174 HD
ATOM     28  H11 UNL     1      28.164  11.164   2.316  1.00  0.00     0.174 HD
ENDBRANCH  12  26
ENDBRANCH   7   9
BRANCH   5  29
HETATM   29  O3  UNL     1      25.528   3.919   3.965  1.00  0.00    -0.335 OA
ATOM     30  H3  UNL     1      24.879   3.352   4.366  1.00  0.00     0.216 HD
ENDBRANCH   5  29
ENDBRANCH   1   5
BRANCH   3  31
HETATM   31  N8  UNL     1      25.609   4.695   8.280  1.00  0.00    -0.307 N 
HETATM   32  C8  UNL     1      26.148   5.495   9.093  1.00  0.00     0.139 C 
ATOM     33  H8  UNL     1      24.901   4.048   8.628  1.00  0.00     0.186 HD
BRANCH  32  34
HETATM   34  C9  UNL     1      25.818   5.554  10.511  1.00  0.00     0.083 A 
HETATM   35  N9  UNL     1      26.671   5.039  11.453  1.00  0.00    -0.351 N 
HETATM   36  C10 UNL     1      26.208   5.213  12.691  1.00  0.00     0.062 A 
ATOM     37  H9  UNL     1      27.554   4.578  11.232  1.00  0.00     0.166 HD
HETATM   38  C15 UNL     1      25.012   5.863  12.550  1.00  0.00     0.070 A 
HETATM   39  C16 UNL     1      24.758   6.081  11.179  1.00  0.00     0.133 A 
BRANCH  36  40
HETATM   40  C11 UNL     1      26.842   4.797  13.955  1.00  0.00     0.093 C 
HETATM   41  N10 UNL     1      26.324   4.050  14.862  1.00  0.00    -0.262 N 
HETATM   42  O5  UNL     1      27.219   3.878  15.903  1.00  0.00    -0.235 OA
ATOM     43  H10 UNL     1      25.390   3.643  14.821  1.00  0.00     0.194 HD
HETATM   44  C12 UNL     1      28.516   4.315  15.532  1.00  0.00     0.240 C 
HETATM   45  C14 UNL     1      28.209   5.207  14.348  1.00  0.00     0.238 C 
BRANCH  44  46
HETATM   46  O6  UNL     1      29.038   5.010  16.599  1.00  0.00    -0.360 OA
ATOM     47  H6  UNL     1      28.527   5.804  16.698  1.00  0.00     0.213 HD
ENDBRANCH  44  46
BRANCH  44  48
HETATM   48  C13 UNL     1      29.384   3.193  15.059  1.00  0.00     0.238 C 
BRANCH  48  49
HETATM   49  O7  UNL     1      30.308   3.576  14.101  1.00  0.00    -0.395 OA
ATOM     50  H7  UNL     1      31.127   3.097  14.152  1.00  0.00     0.209 HD
ENDBRANCH  48  49
ENDBRANCH  44  48
BRANCH  45  51
HETATM   51  O8  UNL     1      28.261   6.560  14.702  1.00  0.00    -0.384 OA
ATOM     52  H8  UNL     1      29.145   6.902  14.648  1.00  0.00     0.210 HD
ENDBRANCH  45  51
ENDBRANCH  36  40
BRANCH  39  53
HETATM   53  N11 UNL     1      23.625   6.732  10.679  1.00  0.00    -0.113 N 
HETATM   54  O9  UNL     1      23.566   8.012  10.740  1.00  0.00    -0.532 OA
HETATM   55  O10 UNL     1      22.536   6.161  10.114  1.00  0.00    -0.532 OA
ENDBRANCH  39  53
ENDBRANCH  32  34
ENDBRANCH   3  31
TORSDOF 14
ENDMDL
MODEL 3
REMARK VINA RESULT: -9.248528475      1.592      2.155
REMARK  14 active torsions:
REMARK  status: ('A' for Active; 'I' for Inactive)
REMARK    1  A    between atoms: N1_1  and  C1_4 
REMARK    2  A    between atoms: C2_7  and  C3_8 
REMARK    3  A    between atoms: C4_14  and  N5_15 
REMARK    4  A    between atoms: N6_18  and  C5_19 
REMARK    5  A    between atoms: C6_21  and  O3_22 
REMARK    6  A    between atoms: C6_21  and  C7_24 
REMARK       I    between atoms: C7_24  and  N7_26 
REMARK    7  A    between atoms: N7_26  and  N8_28 
REMARK    8  A    between atoms: C8_30  and  C9_31 
REMARK    9  A    between atoms: C10_34  and  C11_35 
REMARK   10  A    between atoms: C12_39  and  O6_40 
REMARK   11  A    between atoms: C12_39  and  C13_42 
REMARK   12  A    between atoms: C13_42  and  O7_43 
REMARK   13  A    between atoms: C14_45  and  O8_46 
REMARK   14  A    between atoms: C16_49  and  N11_50 
ROOT
HETATM    1  C7  UNL     1      25.187   5.300   5.898  1.00  0.00     0.329 C 
HETATM    2  O4  UNL     1      24.164   5.935   6.227  1.00  0.00    -0.263 OA
HETATM    3  N7  UNL     1      25.947   4.661   6.905  1.00  0.00    -0.263 N 
ATOM      4  H7  UNL     1      26.781   4.145   6.627  1.00  0.00     0.190 HD
ENDROOT
BRANCH   1   5
HETATM    5  C6  UNL     1      25.606   5.209   4.507  1.00  0.00     0.376 C 
HETATM    6  O2  UNL     1      26.771   5.946   4.185  1.00  0.00    -0.274 OA
HETATM    7  C5  UNL     1      26.166   6.148   2.925  1.00  0.00     0.406 C 
HETATM    8  O11 UNL     1      24.946   6.075   3.602  1.00  0.00    -0.274 OA
BRANCH   7   9
HETATM    9  N6  UNL     1      26.469   7.449   2.356  1.00  0.00    -0.205 N 
HETATM   10  C2  UNL     1      27.229   7.592   1.250  1.00  0.00     0.175 A 
HETATM   11  N2  UNL     1      27.332   8.908   0.965  1.00  0.00    -0.172 N 
HETATM   12  C1  UNL     1      26.624   9.543   1.913  1.00  0.00     0.692 A 
ATOM     13  H2  UNL     1      27.841   9.332   0.189  1.00  0.00     0.186 HD
HETATM   14  N12 UNL     1      26.107   8.635   2.750  1.00  0.00    -0.124 N 
ATOM     15  H12 UNL     1      25.526   8.839   3.563  1.00  0.00     0.206 HD
BRANCH  10  16
HETATM   16  C3  UNL     1      27.846   6.529   0.477  1.00  0.00     0.148 A 
HETATM   17  N3  UNL     1      29.154   6.151   0.598  1.00  0.00    -0.234 N 
HETATM   18  O1  UNL     1      29.400   5.182  -0.223  1.00  0.00    -0.155 OA
ATOM     19  H3  UNL     1      29.832   6.569   1.236  1.00  0.00     0.197 HD
HETATM   20  N4  UNL     1      28.352   4.867  -0.898  1.00  0.00    -0.224 N 
HETATM   21  C4  UNL     1      27.337   5.701  -0.485  1.00  0.00     0.154 A 
ATOM     22  H4  UNL     1      28.285   4.137  -1.607  1.00  0.00     0.198 HD
BRANCH  21  23
HETATM   23  N5  UNL     1      26.143   5.697  -0.922  1.00  0.00    -0.382 N 
ATOM     24  H52 UNL     1      25.499   4.907  -0.896  1.00  0.00     0.157 HD
ATOM     25  H51 UNL     1      25.657   6.478  -1.361  1.00  0.00     0.157 HD
ENDBRANCH  21  23
ENDBRANCH  10  16
BRANCH  12  26
HETATM   26  N1  UNL     1      26.472  10.833   1.993  1.00  0.00    -0.233 N 
ATOM     27  H12 UNL     1      27.147  11.537   1.693  1.00  0.00     0.174 HD
ATOM     28  H11 UNL     1      25.649  11.304   2.370  1.00  0.00     0.174 HD
ENDBRANCH  12  26
ENDBRANCH   7   9
BRANCH   5  29
HETATM   29  O3  UNL     1      25.580   3.929   3.954  1.00  0.00    -0.335 OA
ATOM     30  H3  UNL     1      26.383   3.439   4.087  1.00  0.00     0.216 HD
ENDBRANCH   5  29
ENDBRANCH   1   5
BRANCH   3  31
HETATM   31  N8  UNL     1      25.613   4.702   8.258  1.00  0.00    -0.307 N 
HETATM   32  C8  UNL     1      26.167   5.484   9.078  1.00  0.00     0.139 C 
ATOM     33  H8  UNL     1      24.888   4.071   8.600  1.00  0.00     0.186 HD
BRANCH  32  34
HETATM   34  C9  UNL     1      25.833   5.544  10.495  1.00  0.00     0.083 A 
HETATM   35  N9  UNL     1      26.691   5.043  11.440  1.00  0.00    -0.351 N 
HETATM   36  C10 UNL     1      26.222   5.215  12.677  1.00  0.00     0.062 A 
ATOM     37  H9  UNL     1      27.580   4.593  11.223  1.00  0.00     0.166 HD
HETATM   38  C15 UNL     1      25.018   5.849  12.531  1.00  0.00     0.070 A 
HETATM   39  C16 UNL     1      24.765   6.059  11.159  1.00  0.00     0.133 A 
BRANCH  36  40
HETATM   40  C11 UNL     1      26.858   4.811  13.943  1.00  0.00     0.093 C 
HETATM   41  N10 UNL     1      26.324   4.113  14.880  1.00  0.00    -0.262 N 
HETATM   42  O5  UNL     1      27.228   3.935  15.913  1.00  0.00    -0.235 OA
ATOM     43  H10 UNL     1      25.374   3.743  14.865  1.00  0.00     0.194 HD
HETATM   44  C12 UNL     1      28.536   4.308  15.510  1.00  0.00     0.240 C 
HETATM   45  C14 UNL     1      28.246   5.176  14.304  1.00  0.00     0.238 C 
BRANCH  44  46
HETATM   46  O6  UNL     1      29.101   5.012  16.548  1.00  0.00    -0.360 OA
ATOM     47  H6  UNL     1      28.509   5.722  16.766  1.00  0.00     0.213 HD
ENDBRANCH  44  46
BRANCH  44  48
HETATM   48  C13 UNL     1      29.350   3.138  15.060  1.00  0.00     0.238 C 
BRANCH  48  49
HETATM   49  O7  UNL     1      30.302   3.462  14.107  1.00  0.00    -0.395 OA
ATOM     50  H7  UNL     1      29.959   3.985  13.392  1.00  0.00     0.209 HD
ENDBRANCH  48  49
ENDBRANCH  44  48
BRANCH  45  51
HETATM   51  O8  UNL     1      28.358   6.535  14.616  1.00  0.00    -0.384 OA
ATOM     52  H8  UNL     1      29.180   6.728  15.053  1.00  0.00     0.210 HD
ENDBRANCH  45  51
ENDBRANCH  36  40
BRANCH  39  53
HETATM   53  N11 UNL     1      23.625   6.693  10.653  1.00  0.00    -0.113 N 
HETATM   54  O9  UNL     1      23.575   7.975  10.656  1.00  0.00    -0.532 OA
HETATM   55  O10 UNL     1      22.520   6.104  10.140  1.00  0.00    -0.532 OA
ENDBRANCH  39  53
ENDBRANCH  32  34
ENDBRANCH   3  31
TORSDOF 14
ENDMDL
MODEL 4
REMARK VINA RESULT: -9.073533300      2.619     11.503
REMARK  14 active torsions:
REMARK  status: ('A' for Active; 'I' for Inactive)
REMARK    1  A    between atoms: N1_1  and  C1_4 
REMARK    2  A    between atoms: C2_7  and  C3_8 
REMARK    3  A    between atoms: C4_14  and  N5_15 
REMARK    4  A    between atoms: N6_18  and  C5_19 
REMARK    5  A    between atoms: C6_21  and  O3_22 
REMARK    6  A    between atoms: C6_21  and  C7_24 
REMARK       I    between atoms: C7_24  and  N7_26 
REMARK    7  A    between atoms: N7_26  and  N8_28 
REMARK    8  A    between atoms: C8_30  and  C9_31 
REMARK    9  A    between atoms: C10_34  and  C11_35 
REMARK   10  A    between atoms: C12_39  and  O6_40 
REMARK   11  A    between atoms: C12_39  and  C13_42 
REMARK   12  A    between atoms: C13_42  and  O7_43 
REMARK   13  A    between atoms: C14_45  and  O8_46 
REMARK   14  A    between atoms: C16_49  and  N11_50 
ROOT
HETATM    1  C7  UNL     1      28.052   6.812  11.542  1.00  0.00     0.329 C 
HETATM    2  O4  UNL     1      28.053   7.928  10.984  1.00  0.00    -0.263 OA
HETATM    3  N7  UNL     1      27.324   5.754  10.952  1.00  0.00    -0.263 N 
ATOM      4  H7  UNL     1      27.330   4.844  11.415  1.00  0.00     0.190 HD
ENDROOT
BRANCH   1   5
HETATM    5  C6  UNL     1      28.783   6.586  12.780  1.00  0.00     0.376 C 
HETATM    6  O2  UNL     1      30.082   6.047  12.617  1.00  0.00    -0.274 OA
HETATM    7  C5  UNL     1      29.840   5.372  13.834  1.00  0.00     0.406 C 
HETATM    8  O11 UNL     1      28.493   5.381  13.463  1.00  0.00    -0.274 OA
BRANCH   7   9
HETATM    9  N6  UNL     1      30.449   4.055  13.880  1.00  0.00    -0.205 N 
HETATM   10  C2  UNL     1      30.096   3.130  14.797  1.00  0.00     0.175 A 
HETATM   11  N2  UNL     1      30.829   2.015  14.589  1.00  0.00    -0.172 N 
HETATM   12  C1  UNL     1      31.620   2.289  13.539  1.00  0.00     0.692 A 
ATOM     13  H2  UNL     1      30.790   1.145  15.119  1.00  0.00     0.186 HD
HETATM   14  N12 UNL     1      31.373   3.537  13.123  1.00  0.00    -0.124 N 
ATOM     15  H12 UNL     1      31.832   4.005  12.342  1.00  0.00     0.206 HD
BRANCH  10  16
HETATM   16  C3  UNL     1      29.100   3.280  15.843  1.00  0.00     0.148 A 
HETATM   17  N3  UNL     1      28.176   4.286  15.884  1.00  0.00    -0.234 N 
HETATM   18  O1  UNL     1      27.434   4.146  16.934  1.00  0.00    -0.155 OA
ATOM     19  H3  UNL     1      28.084   5.032  15.193  1.00  0.00     0.197 HD
HETATM   20  N4  UNL     1      27.785   3.115  17.617  1.00  0.00    -0.224 N 
HETATM   21  C4  UNL     1      28.844   2.532  16.958  1.00  0.00     0.154 A 
ATOM     22  H4  UNL     1      27.358   2.789  18.484  1.00  0.00     0.198 HD
BRANCH  21  23
HETATM   23  N5  UNL     1      29.467   1.486  17.325  1.00  0.00    -0.382 N 
ATOM     24  H52 UNL     1      29.995   0.860  16.718  1.00  0.00     0.157 HD
ATOM     25  H51 UNL     1      29.531   1.122  18.276  1.00  0.00     0.157 HD
ENDBRANCH  21  23
ENDBRANCH  10  16
BRANCH  12  26
HETATM   26  N1  UNL     1      32.484   1.465  13.019  1.00  0.00    -0.233 N 
ATOM     27  H12 UNL     1      32.586   1.248  12.028  1.00  0.00     0.174 HD
ATOM     28  H11 UNL     1      33.173   0.929  13.547  1.00  0.00     0.174 HD
ENDBRANCH  12  26
ENDBRANCH   7   9
BRANCH   5  29
HETATM   29  O3  UNL     1      28.719   7.620  13.714  1.00  0.00    -0.335 OA
ATOM     30  H3  UNL     1      29.569   7.907  14.025  1.00  0.00     0.216 HD
ENDBRANCH   5  29
ENDBRANCH   1   5
BRANCH   3  31
HETATM   31  N8  UNL     1      26.599   5.890   9.769  1.00  0.00    -0.307 N 
HETATM   32  C8  UNL     1      25.419   5.466   9.636  1.00  0.00     0.139 C 
ATOM     33  H8  UNL     1      27.044   6.353   8.976  1.00  0.00     0.186 HD
BRANCH  32  34
HETATM   34  C9  UNL     1      24.643   5.598   8.409  1.00  0.00     0.083 A 
HETATM   35  N9  UNL     1      25.263   5.792   7.203  1.00  0.00    -0.351 N 
HETATM   36  C10 UNL     1      24.388   5.861   6.199  1.00  0.00     0.062 A 
ATOM     37  H9  UNL     1      26.273   5.875   7.086  1.00  0.00     0.166 HD
HETATM   38  C15 UNL     1      23.155   5.706   6.773  1.00  0.00     0.070 A 
HETATM   39  C16 UNL     1      23.307   5.541   8.166  1.00  0.00     0.133 A 
BRANCH  36  40
HETATM   40  C11 UNL     1      24.675   6.060   4.767  1.00  0.00     0.093 C 
HETATM   41  N10 UNL     1      24.007   6.788   3.946  1.00  0.00    -0.262 N 
HETATM   42  O5  UNL     1      24.579   6.730   2.687  1.00  0.00    -0.235 OA
ATOM     43  H10 UNL     1      23.177   7.329   4.186  1.00  0.00     0.194 HD
HETATM   44  C12 UNL     1      25.870   6.144   2.745  1.00  0.00     0.240 C 
HETATM   45  C14 UNL     1      25.816   5.421   4.074  1.00  0.00     0.238 C 
BRANCH  44  46
HETATM   46  O6  UNL     1      25.980   5.284   1.677  1.00  0.00    -0.360 OA
ATOM     47  H6  UNL     1      26.852   4.909   1.703  1.00  0.00     0.213 HD
ENDBRANCH  44  46
BRANCH  44  48
HETATM   48  C13 UNL     1      26.958   7.166   2.813  1.00  0.00     0.238 C 
BRANCH  48  49
HETATM   49  O7  UNL     1      26.490   8.468   2.877  1.00  0.00    -0.395 OA
ATOM     50  H7  UNL     1      26.928   8.996   3.535  1.00  0.00     0.209 HD
ENDBRANCH  48  49
ENDBRANCH  44  48
BRANCH  45  51
HETATM   51  O8  UNL     1      25.610   4.048   3.898  1.00  0.00    -0.384 OA
ATOM     52  H8  UNL     1      26.283   3.535   4.329  1.00  0.00     0.210 HD
ENDBRANCH  45  51
ENDBRANCH  36  40
BRANCH  39  53
HETATM   53  N11 UNL     1      22.247   5.346   9.059  1.00  0.00    -0.113 N 
HETATM   54  O9  UNL     1      21.305   4.536   8.738  1.00  0.00    -0.532 OA
HETATM   55  O10 UNL     1      22.080   5.926  10.270  1.00  0.00    -0.532 OA
ENDBRANCH  39  53
ENDBRANCH  32  34
ENDBRANCH   3  31
TORSDOF 14
ENDMDL
MODEL 5
REMARK VINA RESULT: -8.964231419      1.616      2.596
REMARK  14 active torsions:
REMARK  status: ('A' for Active; 'I' for Inactive)
REMARK    1  A    between atoms: N1_1  and  C1_4 
REMARK    2  A    between atoms: C2_7  and  C3_8 
REMARK    3  A    between atoms: C4_14  and  N5_15 
REMARK    4  A    between atoms: N6_18  and  C5_19 
REMARK    5  A    between atoms: C6_21  and  O3_22 
REMARK    6  A    between atoms: C6_21  and  C7_24 
REMARK       I    between atoms: C7_24  and  N7_26 
REMARK    7  A    between atoms: N7_26  and  N8_28 
REMARK    8  A    between atoms: C8_30  and  C9_31 
REMARK    9  A    between atoms: C10_34  and  C11_35 
REMARK   10  A    between atoms: C12_39  and  O6_40 
REMARK   11  A    between atoms: C12_39  and  C13_42 
REMARK   12  A    between atoms: C13_42  and  O7_43 
REMARK   13  A    between atoms: C14_45  and  O8_46 
REMARK   14  A    between atoms: C16_49  and  N11_50 
ROOT
HETATM    1  C7  UNL     1      25.244   5.410   5.830  1.00  0.00     0.329 C 
HETATM    2  O4  UNL     1      24.247   6.082   6.165  1.00  0.00    -0.263 OA
HETATM    3  N7  UNL     1      25.967   4.719   6.828  1.00  0.00    -0.263 N 
ATOM      4  H7  UNL     1      26.780   4.171   6.546  1.00  0.00     0.190 HD
ENDROOT
BRANCH   1   5
HETATM    5  C6  UNL     1      25.667   5.327   4.440  1.00  0.00     0.376 C 
HETATM    6  O2  UNL     1      26.726   6.197   4.086  1.00  0.00    -0.274 OA
HETATM    7  C5  UNL     1      26.097   6.276   2.824  1.00  0.00     0.406 C 
HETATM    8  O11 UNL     1      24.899   6.068   3.511  1.00  0.00    -0.274 OA
BRANCH   7   9
HETATM    9  N6  UNL     1      26.226   7.585   2.210  1.00  0.00    -0.205 N 
HETATM   10  C2  UNL     1      27.271   7.910   1.419  1.00  0.00     0.175 A 
HETATM   11  N2  UNL     1      27.113   9.184   0.999  1.00  0.00    -0.172 N 
HETATM   12  C1  UNL     1      25.965   9.610   1.549  1.00  0.00     0.692 A 
ATOM     13  H2  UNL     1      27.738   9.713   0.390  1.00  0.00     0.186 HD
HETATM   14  N12 UNL     1      25.442   8.621   2.283  1.00  0.00    -0.124 N 
ATOM     15  H12 UNL     1      24.571   8.671   2.812  1.00  0.00     0.206 HD
BRANCH  10  16
HETATM   16  C3  UNL     1      28.389   7.055   1.063  1.00  0.00     0.148 A 
HETATM   17  N3  UNL     1      28.321   6.043   0.146  1.00  0.00    -0.234 N 
HETATM   18  O1  UNL     1      29.477   5.469   0.052  1.00  0.00    -0.155 OA
ATOM     19  H3  UNL     1      27.488   5.781  -0.382  1.00  0.00     0.197 HD
HETATM   20  N4  UNL     1      30.332   6.016   0.840  1.00  0.00    -0.224 N 
HETATM   21  C4  UNL     1      29.683   7.031   1.505  1.00  0.00     0.154 A 
ATOM     22  H4  UNL     1      31.310   5.747   0.953  1.00  0.00     0.198 HD
BRANCH  21  23
HETATM   23  N5  UNL     1      30.198   7.806   2.372  1.00  0.00    -0.382 N 
ATOM     24  H52 UNL     1      30.258   7.627   3.374  1.00  0.00     0.157 HD
ATOM     25  H51 UNL     1      30.625   8.715   2.194  1.00  0.00     0.157 HD
ENDBRANCH  21  23
ENDBRANCH  10  16
BRANCH  12  26
HETATM   26  N1  UNL     1      25.455  10.797   1.386  1.00  0.00    -0.233 N 
ATOM     27  H12 UNL     1      25.901  11.681   1.631  1.00  0.00     0.174 HD
ATOM     28  H11 UNL     1      24.535  10.989   0.989  1.00  0.00     0.174 HD
ENDBRANCH  12  26
ENDBRANCH   7   9
BRANCH   5  29
HETATM   29  O3  UNL     1      25.807   4.036   3.930  1.00  0.00    -0.335 OA
ATOM     30  H3  UNL     1      25.364   3.372   4.445  1.00  0.00     0.216 HD
ENDBRANCH   5  29
ENDBRANCH   1   5
BRANCH   3  31
HETATM   31  N8  UNL     1      25.626   4.748   8.180  1.00  0.00    -0.307 N 
HETATM   32  C8  UNL     1      26.214   5.483   9.020  1.00  0.00     0.139 C 
ATOM     33  H8  UNL     1      24.866   4.149   8.504  1.00  0.00     0.186 HD
BRANCH  32  34
HETATM   34  C9  UNL     1      25.874   5.529  10.436  1.00  0.00     0.083 A 
HETATM   35  N9  UNL     1      26.740   5.048  11.383  1.00  0.00    -0.351 N 
HETATM   36  C10 UNL     1      26.263   5.204  12.619  1.00  0.00     0.062 A 
ATOM     37  H9  UNL     1      27.641   4.621  11.169  1.00  0.00     0.166 HD
HETATM   38  C15 UNL     1      25.043   5.808  12.470  1.00  0.00     0.070 A 
HETATM   39  C16 UNL     1      24.790   6.016  11.097  1.00  0.00     0.133 A 
BRANCH  36  40
HETATM   40  C11 UNL     1      26.904   4.813  13.887  1.00  0.00     0.093 C 
HETATM   41  N10 UNL     1      26.412   4.041  14.788  1.00  0.00    -0.262 N 
HETATM   42  O5  UNL     1      27.305   3.905  15.836  1.00  0.00    -0.235 OA
ATOM     43  H10 UNL     1      25.498   3.593  14.737  1.00  0.00     0.194 HD
HETATM   44  C12 UNL     1      28.585   4.401  15.476  1.00  0.00     0.240 C 
HETATM   45  C14 UNL     1      28.248   5.281  14.292  1.00  0.00     0.238 C 
BRANCH  44  46
HETATM   46  O6  UNL     1      29.066   5.115  16.550  1.00  0.00    -0.360 OA
ATOM     47  H6  UNL     1      28.702   5.990  16.495  1.00  0.00     0.213 HD
ENDBRANCH  44  46
BRANCH  44  48
HETATM   48  C13 UNL     1      29.506   3.320  15.008  1.00  0.00     0.238 C 
BRANCH  48  49
HETATM   49  O7  UNL     1      29.099   2.050  15.380  1.00  0.00    -0.395 OA
ATOM     50  H7  UNL     1      29.414   1.367  14.800  1.00  0.00     0.209 HD
ENDBRANCH  48  49
ENDBRANCH  44  48
BRANCH  45  51
HETATM   51  O8  UNL     1      28.237   6.634  14.650  1.00  0.00    -0.384 OA
ATOM     52  H8  UNL     1      27.788   7.164  14.002  1.00  0.00     0.210 HD
ENDBRANCH  45  51
ENDBRANCH  36  40
BRANCH  39  53
HETATM   53  N11 UNL     1      23.636   6.622  10.589  1.00  0.00    -0.113 N 
HETATM   54  O9  UNL     1      23.564   7.903  10.572  1.00  0.00    -0.532 OA
HETATM   55  O10 UNL     1      22.539   6.006  10.092  1.00  0.00    -0.532 OA
ENDBRANCH  39  53
ENDBRANCH  32  34
ENDBRANCH   3  31
TORSDOF 14
ENDMDL
