MODEL 1
REMARK VINA RESULT: -8.481083764      0.000      0.000
REMARK  9 active torsions:
REMARK  status: ('A' for Active; 'I' for Inactive)
REMARK    1  A    between atoms: C2_2  and  C4_4 
REMARK    2  A    between atoms: C4_4  and  N1_5 
REMARK    3  A    between atoms: C4_4  and  C23_34 
REMARK       I    between atoms: N1_5  and  C5_7 
REMARK       I    between atoms: C5_7  and  N2_9 
REMARK    4  A    between atoms: C7_11  and  O2_12 
REMARK    5  A    between atoms: C9_15  and  C10_16 
REMARK       I    between atoms: C10_16  and  N3_18 
REMARK    6  A    between atoms: N3_18  and  C11_20 
REMARK    7  A    between atoms: C11_20  and  C13_22 
REMARK    8  A    between atoms: C11_20  and  C19_30 
REMARK       I    between atoms: C23_34  and  N4_36 
REMARK    9  A    between atoms: N4_36  and  C24_38 
ROOT
HETATM    1  C24 UNL     1       3.883  16.038   8.866  1.00  0.00     0.122 A 
HETATM    2  C25 UNL     1       4.411  14.649   8.816  1.00  0.00     0.091 C 
HETATM    3  N5  UNL     1       4.812  13.568   8.758  1.00  0.00    -0.195 NA
HETATM    4  C26 UNL     1       2.748  16.214   9.809  1.00  0.00     0.050 A 
HETATM    5  C27 UNL     1       2.508  16.250   8.352  1.00  0.00     0.050 A 
ENDROOT
BRANCH   1   6
HETATM    6  N4  UNL     1       4.912  17.044   8.809  1.00  0.00    -0.337 N 
HETATM    7  C23 UNL     1       5.412  17.644   7.643  1.00  0.00     0.242 C 
HETATM    8  O4  UNL     1       4.933  17.301   6.529  1.00  0.00    -0.271 OA
ATOM      9  H4  UNL     1       5.314  17.348   9.695  1.00  0.00     0.164 HD
BRANCH   7  10
HETATM   10  C4  UNL     1       6.481  18.662   7.687  1.00  0.00     0.181 C 
BRANCH  10  11
HETATM   11  C2  UNL     1       7.854  18.012   7.932  1.00  0.00     0.009 C 
HETATM   12  C1  UNL     1       7.748  16.595   8.379  1.00  0.00     0.012 C 
HETATM   13  C3  UNL     1       8.820  18.865   8.663  1.00  0.00     0.012 C 
ENDBRANCH  10  11
BRANCH  10  14
HETATM   14  N1  UNL     1       6.559  19.338   6.373  1.00  0.00    -0.329 N 
HETATM   15  C5  UNL     1       6.513  20.732   6.185  1.00  0.00     0.319 C 
HETATM   16  O1  UNL     1       6.395  21.439   7.224  1.00  0.00    -0.247 OA
HETATM   17  N2  UNL     1       6.600  21.315   4.909  1.00  0.00    -0.318 N 
HETATM   18  C6  UNL     1       6.694  20.591   3.657  1.00  0.00     0.160 C 
HETATM   19  C9  UNL     1       6.658  22.706   4.513  1.00  0.00     0.183 C 
HETATM   20  C7  UNL     1       7.875  21.277   3.008  1.00  0.00     0.138 C 
HETATM   21  C8  UNL     1       7.726  22.716   3.441  1.00  0.00     0.068 C 
ATOM     22  H1  UNL     1       6.652  18.751   5.544  1.00  0.00     0.165 HD
BRANCH  20  23
HETATM   23  O2  UNL     1       7.955  21.099   1.648  1.00  0.00    -0.394 OA
ATOM     24  H2  UNL     1       8.402  20.304   1.383  1.00  0.00     0.210 HD
ENDBRANCH  20  23
BRANCH  19  25
HETATM   25  C10 UNL     1       5.323  23.179   4.010  1.00  0.00     0.241 C 
HETATM   26  O3  UNL     1       5.309  23.435   2.791  1.00  0.00    -0.271 OA
HETATM   27  N3  UNL     1       4.186  23.336   4.799  1.00  0.00    -0.345 N 
ATOM     28  H3  UNL     1       4.345  23.089   5.776  1.00  0.00     0.163 HD
BRANCH  27  29
HETATM   29  C11 UNL     1       2.860  23.759   4.552  1.00  0.00     0.063 C 
HETATM   30  C12 UNL     1       2.569  23.534   3.051  1.00  0.00     0.044 C 
BRANCH  29  31
HETATM   31  C13 UNL     1       1.934  22.780   5.236  1.00  0.00    -0.028 A 
HETATM   32  C14 UNL     1       0.575  22.817   5.146  1.00  0.00     0.011 A 
HETATM   33  C15 UNL     1      -0.184  21.873   5.781  1.00  0.00     0.026 A 
HETATM   34  C16 UNL     1       0.379  20.862   6.523  1.00  0.00     0.055 A 
HETATM   35 CL1  UNL     1      -0.545  19.626   7.352  1.00  0.00    -0.083 Cl
HETATM   36  C17 UNL     1       1.757  20.813   6.619  1.00  0.00     0.056 A 
HETATM   37 CL2  UNL     1       2.570  19.560   7.539  1.00  0.00    -0.083 Cl
HETATM   38  C18 UNL     1       2.498  21.767   5.977  1.00  0.00     0.035 A 
ENDBRANCH  29  31
BRANCH  29  39
HETATM   39  C19 UNL     1       2.472  25.142   4.864  1.00  0.00    -0.022 C 
HETATM   40  C20 UNL     1       1.330  25.676   4.013  1.00  0.00     0.017 C 
HETATM   41  C21 UNL     1       3.625  26.108   4.518  1.00  0.00     0.017 C 
HETATM   42  C22 UNL     1       2.158  25.465   6.297  1.00  0.00     0.017 C 
ENDBRANCH  29  39
ENDBRANCH  27  29
ENDBRANCH  19  25
ENDBRANCH  10  14
ENDBRANCH   7  10
ENDBRANCH   1   6
TORSDOF 9
ENDMDL
MODEL 2
REMARK VINA RESULT: -8.401035109      1.004      1.074
REMARK  9 active torsions:
REMARK  status: ('A' for Active; 'I' for Inactive)
REMARK    1  A    between atoms: C2_2  and  C4_4 
REMARK    2  A    between atoms: C4_4  and  N1_5 
REMARK    3  A    between atoms: C4_4  and  C23_34 
REMARK       I    between atoms: N1_5  and  C5_7 
REMARK       I    between atoms: C5_7  and  N2_9 
REMARK    4  A    between atoms: C7_11  and  O2_12 
REMARK    5  A    between atoms: C9_15  and  C10_16 
REMARK       I    between atoms: C10_16  and  N3_18 
REMARK    6  A    between atoms: N3_18  and  C11_20 
REMARK    7  A    between atoms: C11_20  and  C13_22 
REMARK    8  A    between atoms: C11_20  and  C19_30 
REMARK       I    between atoms: C23_34  and  N4_36 
REMARK    9  A    between atoms: N4_36  and  C24_38 
ROOT
HETATM    1  C24 UNL     1       3.716  16.181   8.773  1.00  0.00     0.122 A 
HETATM    2  C25 UNL     1       4.388  14.855   8.804  1.00  0.00     0.091 C 
HETATM    3  N5  UNL     1       4.902  13.821   8.809  1.00  0.00    -0.195 NA
HETATM    4  C26 UNL     1       2.541  16.278   9.679  1.00  0.00     0.050 A 
HETATM    5  C27 UNL     1       2.342  16.221   8.217  1.00  0.00     0.050 A 
ENDROOT
BRANCH   1   6
HETATM    6  N4  UNL     1       4.634  17.288   8.692  1.00  0.00    -0.337 N 
HETATM    7  C23 UNL     1       5.091  17.892   7.511  1.00  0.00     0.242 C 
HETATM    8  O4  UNL     1       4.672  17.459   6.404  1.00  0.00    -0.271 OA
ATOM      9  H4  UNL     1       4.985  17.665   9.572  1.00  0.00     0.164 HD
BRANCH   7  10
HETATM   10  C4  UNL     1       6.046  19.018   7.531  1.00  0.00     0.181 C 
BRANCH  10  11
HETATM   11  C2  UNL     1       7.498  18.512   7.582  1.00  0.00     0.009 C 
HETATM   12  C1  UNL     1       7.600  17.107   8.069  1.00  0.00     0.012 C 
HETATM   13  C3  UNL     1       8.471  19.478   8.143  1.00  0.00     0.012 C 
ENDBRANCH  10  11
BRANCH  10  14
HETATM   14  N1  UNL     1       5.909  19.790   6.276  1.00  0.00    -0.329 N 
HETATM   15  C5  UNL     1       5.767  21.189   6.208  1.00  0.00     0.319 C 
HETATM   16  O1  UNL     1       5.757  21.811   7.306  1.00  0.00    -0.247 OA
HETATM   17  N2  UNL     1       5.649  21.866   4.982  1.00  0.00    -0.318 N 
HETATM   18  C6  UNL     1       5.607  21.242   3.674  1.00  0.00     0.160 C 
HETATM   19  C9  UNL     1       5.582  23.283   4.694  1.00  0.00     0.183 C 
HETATM   20  C7  UNL     1       6.651  22.043   2.932  1.00  0.00     0.138 C 
HETATM   21  C8  UNL     1       6.491  23.435   3.493  1.00  0.00     0.068 C 
ATOM     22  H1  UNL     1       5.917  19.271   5.398  1.00  0.00     0.165 HD
BRANCH  20  23
HETATM   23  O2  UNL     1       6.553  21.969   1.563  1.00  0.00    -0.394 OA
ATOM     24  H2  UNL     1       7.015  21.233   1.177  1.00  0.00     0.210 HD
ENDBRANCH  20  23
BRANCH  19  25
HETATM   25  C10 UNL     1       4.168  23.710   4.412  1.00  0.00     0.241 C 
HETATM   26  O3  UNL     1       3.975  24.054   3.230  1.00  0.00    -0.271 OA
HETATM   27  N3  UNL     1       3.143  23.736   5.353  1.00  0.00    -0.345 N 
ATOM     28  H3  UNL     1       3.446  23.427   6.277  1.00  0.00     0.163 HD
BRANCH  27  29
HETATM   29  C11 UNL     1       1.776  24.094   5.319  1.00  0.00     0.063 C 
HETATM   30  C12 UNL     1       1.354  24.185   3.835  1.00  0.00     0.044 C 
BRANCH  29  31
HETATM   31  C13 UNL     1       0.983  22.914   5.833  1.00  0.00    -0.028 A 
HETATM   32  C14 UNL     1      -0.374  22.816   5.772  1.00  0.00     0.011 A 
HETATM   33  C15 UNL     1      -1.007  21.698   6.242  1.00  0.00     0.026 A 
HETATM   34  C16 UNL     1      -0.315  20.642   6.786  1.00  0.00     0.055 A 
HETATM   35 CL1  UNL     1      -1.074  19.187   7.398  1.00  0.00    -0.083 Cl
HETATM   36  C17 UNL     1       1.063  20.730   6.851  1.00  0.00     0.056 A 
HETATM   37 CL2  UNL     1       2.035  19.434   7.524  1.00  0.00    -0.083 Cl
HETATM   38  C18 UNL     1       1.676  21.857   6.376  1.00  0.00     0.035 A 
ENDBRANCH  29  31
BRANCH  29  39
HETATM   39  C19 UNL     1       1.336  25.336   5.970  1.00  0.00    -0.022 C 
HETATM   40  C20 UNL     1       0.225  26.068   5.232  1.00  0.00     0.017 C 
HETATM   41  C21 UNL     1       2.479  26.372   5.963  1.00  0.00     0.017 C 
HETATM   42  C22 UNL     1       0.941  25.255   7.418  1.00  0.00     0.017 C 
ENDBRANCH  29  39
ENDBRANCH  27  29
ENDBRANCH  19  25
ENDBRANCH  10  14
ENDBRANCH   7  10
ENDBRANCH   1   6
TORSDOF 9
ENDMDL
MODEL 3
REMARK VINA RESULT: -8.306499627      3.607      7.550
REMARK  9 active torsions:
REMARK  status: ('A' for Active; 'I' for Inactive)
REMARK    1  A    between atoms: C2_2  and  C4_4 
REMARK    2  A    between atoms: C4_4  and  N1_5 
REMARK    3  A    between atoms: C4_4  and  C23_34 
REMARK       I    between atoms: N1_5  and  C5_7 
REMARK       I    between atoms: C5_7  and  N2_9 
REMARK    4  A    between atoms: C7_11  and  O2_12 
REMARK    5  A    between atoms: C9_15  and  C10_16 
REMARK       I    between atoms: C10_16  and  N3_18 
REMARK    6  A    between atoms: N3_18  and  C11_20 
REMARK    7  A    between atoms: C11_20  and  C13_22 
REMARK    8  A    between atoms: C11_20  and  C19_30 
REMARK       I    between atoms: C23_34  and  N4_36 
REMARK    9  A    between atoms: N4_36  and  C24_38 
ROOT
HETATM    1  C24 UNL     1      12.158  22.508   6.334  1.00  0.00     0.122 A 
HETATM    2  C25 UNL     1      13.638  22.439   6.206  1.00  0.00     0.091 C 
HETATM    3  N5  UNL     1      14.786  22.365   6.103  1.00  0.00    -0.195 NA
HETATM    4  C26 UNL     1      11.689  22.752   7.723  1.00  0.00     0.050 A 
HETATM    5  C27 UNL     1      11.503  21.424   7.104  1.00  0.00     0.050 A 
ENDROOT
BRANCH   1   6
HETATM    6  N4  UNL     1      11.521  23.201   5.244  1.00  0.00    -0.337 N 
HETATM    7  C23 UNL     1      11.259  22.668   3.972  1.00  0.00     0.242 C 
HETATM    8  O4  UNL     1      11.591  21.477   3.732  1.00  0.00    -0.271 OA
ATOM      9  H4  UNL     1      11.234  24.165   5.411  1.00  0.00     0.164 HD
BRANCH   7  10
HETATM   10  C4  UNL     1      10.608  23.465   2.913  1.00  0.00     0.181 C 
BRANCH  10  11
HETATM   11  C2  UNL     1      11.128  23.065   1.521  1.00  0.00     0.009 C 
HETATM   12  C1  UNL     1      12.384  23.775   1.150  1.00  0.00     0.012 C 
HETATM   13  C3  UNL     1      10.084  22.976   0.473  1.00  0.00     0.012 C 
ENDBRANCH  10  11
BRANCH  10  14
HETATM   14  N1  UNL     1       9.156  23.185   2.922  1.00  0.00    -0.329 N 
HETATM   15  C5  UNL     1       8.298  23.438   4.008  1.00  0.00     0.319 C 
HETATM   16  O1  UNL     1       8.824  23.937   5.041  1.00  0.00    -0.247 OA
HETATM   17  N2  UNL     1       6.921  23.156   3.952  1.00  0.00    -0.318 N 
HETATM   18  C6  UNL     1       6.231  22.546   2.833  1.00  0.00     0.160 C 
HETATM   19  C9  UNL     1       5.869  23.416   4.911  1.00  0.00     0.183 C 
HETATM   20  C7  UNL     1       5.077  23.503   2.641  1.00  0.00     0.138 C 
HETATM   21  C8  UNL     1       4.734  23.926   4.049  1.00  0.00     0.068 C 
ATOM     22  H1  UNL     1       8.747  22.780   2.079  1.00  0.00     0.165 HD
BRANCH  20  23
HETATM   23  O2  UNL     1       4.021  22.981   1.932  1.00  0.00    -0.394 OA
ATOM     24  H2  UNL     1       3.386  23.626   1.645  1.00  0.00     0.210 HD
ENDBRANCH  20  23
BRANCH  19  25
HETATM   25  C10 UNL     1       5.510  22.168   5.668  1.00  0.00     0.241 C 
HETATM   26  O3  UNL     1       5.036  22.387   6.799  1.00  0.00    -0.271 OA
HETATM   27  N3  UNL     1       5.680  20.871   5.190  1.00  0.00    -0.345 N 
ATOM     28  H3  UNL     1       6.078  20.845   4.251  1.00  0.00     0.163 HD
BRANCH  27  29
HETATM   29  C11 UNL     1       5.427  19.582   5.712  1.00  0.00     0.063 C 
HETATM   30  C12 UNL     1       5.603  18.568   4.560  1.00  0.00     0.044 C 
BRANCH  29  31
HETATM   31  C13 UNL     1       6.560  19.240   6.652  1.00  0.00    -0.028 A 
HETATM   32  C14 UNL     1       7.446  20.148   7.149  1.00  0.00     0.011 A 
HETATM   33  C15 UNL     1       8.428  19.750   8.014  1.00  0.00     0.026 A 
HETATM   34  C16 UNL     1       8.562  18.442   8.415  1.00  0.00     0.055 A 
HETATM   35 CL1  UNL     1       9.797  17.881   9.523  1.00  0.00    -0.083 Cl
HETATM   36  C17 UNL     1       7.668  17.513   7.918  1.00  0.00     0.056 A 
HETATM   37 CL2  UNL     1       7.753  15.821   8.373  1.00  0.00    -0.083 Cl
HETATM   38  C18 UNL     1       6.694  17.931   7.054  1.00  0.00     0.035 A 
ENDBRANCH  29  31
BRANCH  29  39
HETATM   39  C19 UNL     1       4.129  19.299   6.342  1.00  0.00    -0.022 C 
HETATM   40  C20 UNL     1       3.668  17.857   6.198  1.00  0.00     0.017 C 
HETATM   41  C21 UNL     1       3.009  20.080   5.625  1.00  0.00     0.017 C 
HETATM   42  C22 UNL     1       3.963  19.685   7.785  1.00  0.00     0.017 C 
ENDBRANCH  29  39
ENDBRANCH  27  29
ENDBRANCH  19  25
ENDBRANCH  10  14
ENDBRANCH   7  10
ENDBRANCH   1   6
TORSDOF 9
ENDMDL
MODEL 4
REMARK VINA RESULT: -8.082447280      0.663      1.226
REMARK  9 active torsions:
REMARK  status: ('A' for Active; 'I' for Inactive)
REMARK    1  A    between atoms: C2_2  and  C4_4 
REMARK    2  A    between atoms: C4_4  and  N1_5 
REMARK    3  A    between atoms: C4_4  and  C23_34 
REMARK       I    between atoms: N1_5  and  C5_7 
REMARK       I    between atoms: C5_7  and  N2_9 
REMARK    4  A    between atoms: C7_11  and  O2_12 
REMARK    5  A    between atoms: C9_15  and  C10_16 
REMARK       I    between atoms: C10_16  and  N3_18 
REMARK    6  A    between atoms: N3_18  and  C11_20 
REMARK    7  A    between atoms: C11_20  and  C13_22 
REMARK    8  A    between atoms: C11_20  and  C19_30 
REMARK       I    between atoms: C23_34  and  N4_36 
REMARK    9  A    between atoms: N4_36  and  C24_38 
ROOT
HETATM    1  C24 UNL     1       3.794  16.007   8.990  1.00  0.00     0.122 A 
HETATM    2  C25 UNL     1       4.271  14.600   8.920  1.00  0.00     0.091 C 
HETATM    3  N5  UNL     1       4.632  13.506   8.846  1.00  0.00    -0.195 NA
HETATM    4  C26 UNL     1       2.684  16.215   9.956  1.00  0.00     0.050 A 
HETATM    5  C27 UNL     1       2.419  16.272   8.505  1.00  0.00     0.050 A 
ENDROOT
BRANCH   1   6
HETATM    6  N4  UNL     1       4.858  16.976   8.921  1.00  0.00    -0.337 N 
HETATM    7  C23 UNL     1       5.376  17.546   7.748  1.00  0.00     0.242 C 
HETATM    8  O4  UNL     1       4.884  17.207   6.638  1.00  0.00    -0.271 OA
ATOM      9  H4  UNL     1       5.271  17.275   9.804  1.00  0.00     0.164 HD
BRANCH   7  10
HETATM   10  C4  UNL     1       6.480  18.526   7.780  1.00  0.00     0.181 C 
BRANCH  10  11
HETATM   11  C2  UNL     1       7.838  17.825   7.955  1.00  0.00     0.009 C 
HETATM   12  C1  UNL     1       7.700  16.391   8.334  1.00  0.00     0.012 C 
HETATM   13  C3  UNL     1       8.848  18.611   8.702  1.00  0.00     0.012 C 
ENDBRANCH  10  11
BRANCH  10  14
HETATM   14  N1  UNL     1       6.532  19.236   6.483  1.00  0.00    -0.329 N 
HETATM   15  C5  UNL     1       6.480  20.635   6.333  1.00  0.00     0.319 C 
HETATM   16  O1  UNL     1       6.379  21.315   7.391  1.00  0.00    -0.247 OA
HETATM   17  N2  UNL     1       6.543  21.252   5.071  1.00  0.00    -0.318 N 
HETATM   18  C6  UNL     1       6.615  20.561   3.798  1.00  0.00     0.160 C 
HETATM   19  C9  UNL     1       6.591  22.653   4.711  1.00  0.00     0.183 C 
HETATM   20  C7  UNL     1       7.782  21.267   3.147  1.00  0.00     0.138 C 
HETATM   21  C8  UNL     1       7.639  22.694   3.620  1.00  0.00     0.068 C 
ATOM     22  H1  UNL     1       6.612  18.672   5.637  1.00  0.00     0.165 HD
BRANCH  20  23
HETATM   23  O2  UNL     1       7.838  21.125   1.781  1.00  0.00    -0.394 OA
ATOM     24  H2  UNL     1       8.126  21.903   1.318  1.00  0.00     0.210 HD
ENDBRANCH  20  23
BRANCH  19  25
HETATM   25  C10 UNL     1       5.246  23.136   4.245  1.00  0.00     0.241 C 
HETATM   26  O3  UNL     1       5.238  23.537   3.066  1.00  0.00    -0.271 OA
HETATM   27  N3  UNL     1       4.093  23.154   5.026  1.00  0.00    -0.345 N 
ATOM     28  H3  UNL     1       4.248  22.795   5.968  1.00  0.00     0.163 HD
BRANCH  27  29
HETATM   29  C11 UNL     1       2.755  23.556   4.808  1.00  0.00     0.063 C 
HETATM   30  C12 UNL     1       2.458  23.393   3.301  1.00  0.00     0.044 C 
BRANCH  29  31
HETATM   31  C13 UNL     1       1.858  22.525   5.453  1.00  0.00    -0.028 A 
HETATM   32  C14 UNL     1       2.306  21.473   6.194  1.00  0.00     0.011 A 
HETATM   33  C15 UNL     1       1.418  20.601   6.760  1.00  0.00     0.026 A 
HETATM   34  C16 UNL     1       0.059  20.743   6.611  1.00  0.00     0.055 A 
HETATM   35 CL1  UNL     1      -1.122  19.659   7.317  1.00  0.00    -0.083 Cl
HETATM   36  C17 UNL     1      -0.407  21.808   5.863  1.00  0.00     0.056 A 
HETATM   37 CL2  UNL     1      -2.123  22.078   5.618  1.00  0.00    -0.083 Cl
HETATM   38  C18 UNL     1       0.498  22.668   5.305  1.00  0.00     0.035 A 
ENDBRANCH  29  31
BRANCH  29  39
HETATM   39  C19 UNL     1       2.337  24.914   5.187  1.00  0.00    -0.022 C 
HETATM   40  C20 UNL     1       1.160  25.450   4.386  1.00  0.00     0.017 C 
HETATM   41  C21 UNL     1       3.454  25.925   4.854  1.00  0.00     0.017 C 
HETATM   42  C22 UNL     1       2.050  25.169   6.639  1.00  0.00     0.017 C 
ENDBRANCH  29  39
ENDBRANCH  27  29
ENDBRANCH  19  25
ENDBRANCH  10  14
ENDBRANCH   7  10
ENDBRANCH   1   6
TORSDOF 9
ENDMDL
MODEL 5
REMARK VINA RESULT: -8.065480505      3.936      7.843
REMARK  9 active torsions:
REMARK  status: ('A' for Active; 'I' for Inactive)
REMARK    1  A    between atoms: C2_2  and  C4_4 
REMARK    2  A    between atoms: C4_4  and  N1_5 
REMARK    3  A    between atoms: C4_4  and  C23_34 
REMARK       I    between atoms: N1_5  and  C5_7 
REMARK       I    between atoms: C5_7  and  N2_9 
REMARK    4  A    between atoms: C7_11  and  O2_12 
REMARK    5  A    between atoms: C9_15  and  C10_16 
REMARK       I    between atoms: C10_16  and  N3_18 
REMARK    6  A    between atoms: N3_18  and  C11_20 
REMARK    7  A    between atoms: C11_20  and  C13_22 
REMARK    8  A    between atoms: C11_20  and  C19_30 
REMARK       I    between atoms: C23_34  and  N4_36 
REMARK    9  A    between atoms: N4_36  and  C24_38 
ROOT
HETATM    1  C24 UNL     1      12.428  22.795   6.480  1.00  0.00     0.122 A 
HETATM    2  C25 UNL     1      13.874  23.091   6.660  1.00  0.00     0.091 C 
HETATM    3  N5  UNL     1      15.002  23.301   6.792  1.00  0.00    -0.195 NA
HETATM    4  C26 UNL     1      11.700  22.571   7.756  1.00  0.00     0.050 A 
HETATM    5  C27 UNL     1      11.973  21.434   6.854  1.00  0.00     0.050 A 
ENDROOT
BRANCH   1   6
HETATM    6  N4  UNL     1      11.807  23.580   5.444  1.00  0.00    -0.337 N 
HETATM    7  C23 UNL     1      11.883  23.329   4.066  1.00  0.00     0.242 C 
HETATM    8  O4  UNL     1      12.538  22.331   3.664  1.00  0.00    -0.271 OA
ATOM      9  H4  UNL     1      11.263  24.391   5.739  1.00  0.00     0.164 HD
BRANCH   7  10
HETATM   10  C4  UNL     1      11.218  24.203   3.077  1.00  0.00     0.181 C 
BRANCH  10  11
HETATM   11  C2  UNL     1      12.060  24.328   1.795  1.00  0.00     0.009 C 
HETATM   12  C1  UNL     1      12.925  25.541   1.792  1.00  0.00     0.012 C 
HETATM   13  C3  UNL     1      11.325  24.038   0.543  1.00  0.00     0.012 C 
ENDBRANCH  10  11
BRANCH  10  14
HETATM   14  N1  UNL     1       9.930  23.592   2.683  1.00  0.00    -0.329 N 
HETATM   15  C5  UNL     1       8.849  23.367   3.555  1.00  0.00     0.319 C 
HETATM   16  O1  UNL     1       9.010  23.716   4.758  1.00  0.00    -0.247 OA
HETATM   17  N2  UNL     1       7.645  22.789   3.117  1.00  0.00    -0.318 N 
HETATM   18  C6  UNL     1       7.378  22.317   1.773  1.00  0.00     0.160 C 
HETATM   19  C9  UNL     1       6.403  22.555   3.822  1.00  0.00     0.183 C 
HETATM   20  C7  UNL     1       6.056  22.990   1.482  1.00  0.00     0.138 C 
HETATM   21  C8  UNL     1       5.351  22.971   2.817  1.00  0.00     0.068 C 
ATOM     22  H1  UNL     1       9.817  23.315   1.707  1.00  0.00     0.165 HD
BRANCH  20  23
HETATM   23  O2  UNL     1       5.343  22.418   0.456  1.00  0.00    -0.394 OA
ATOM     24  H2  UNL     1       4.460  22.157   0.691  1.00  0.00     0.210 HD
ENDBRANCH  20  23
BRANCH  19  25
HETATM   25  C10 UNL     1       6.280  21.114   4.232  1.00  0.00     0.241 C 
HETATM   26  O3  UNL     1       6.920  20.330   3.506  1.00  0.00    -0.271 OA
HETATM   27  N3  UNL     1       5.528  20.656   5.312  1.00  0.00    -0.345 N 
ATOM     28  H3  UNL     1       5.059  21.409   5.815  1.00  0.00     0.163 HD
BRANCH  27  29
HETATM   29  C11 UNL     1       5.268  19.382   5.867  1.00  0.00     0.063 C 
HETATM   30  C12 UNL     1       5.374  18.344   4.727  1.00  0.00     0.044 C 
BRANCH  29  31
HETATM   31  C13 UNL     1       6.432  19.031   6.765  1.00  0.00    -0.028 A 
HETATM   32  C14 UNL     1       7.316  19.938   7.266  1.00  0.00     0.011 A 
HETATM   33  C15 UNL     1       8.328  19.531   8.093  1.00  0.00     0.026 A 
HETATM   34  C16 UNL     1       8.494  18.214   8.449  1.00  0.00     0.055 A 
HETATM   35 CL1  UNL     1       9.767  17.640   9.506  1.00  0.00    -0.083 Cl
HETATM   36  C17 UNL     1       7.601  17.285   7.949  1.00  0.00     0.056 A 
HETATM   37 CL2  UNL     1       7.726  15.582   8.349  1.00  0.00    -0.083 Cl
HETATM   38  C18 UNL     1       6.598  17.713   7.124  1.00  0.00     0.035 A 
ENDBRANCH  29  31
BRANCH  29  39
HETATM   39  C19 UNL     1       3.992  19.139   6.556  1.00  0.00    -0.022 C 
HETATM   40  C20 UNL     1       3.497  17.704   6.462  1.00  0.00     0.017 C 
HETATM   41  C21 UNL     1       2.860  19.929   5.867  1.00  0.00     0.017 C 
HETATM   42  C22 UNL     1       3.893  19.559   7.995  1.00  0.00     0.017 C 
ENDBRANCH  29  39
ENDBRANCH  27  29
ENDBRANCH  19  25
ENDBRANCH  10  14
ENDBRANCH   7  10
ENDBRANCH   1   6
TORSDOF 9
ENDMDL
