MODEL 1
REMARK VINA RESULT: -7.711802564      0.000      0.000
REMARK  9 active torsions:
REMARK  status: ('A' for Active; 'I' for Inactive)
REMARK    1  A    between atoms: C7_8  and  C9_10 
REMARK    2  A    between atoms: C9_10  and  N1_11 
REMARK    3  A    between atoms: C9_10  and  C10_15 
REMARK    4  A    between atoms: C11_17  and  O1_18 
REMARK    5  A    between atoms: C20_28  and  C21_29 
REMARK    6  A    between atoms: C21_29  and  C22_30 
REMARK    7  A    between atoms: C22_30  and  C24_33 
REMARK       I    between atoms: C24_33  and  N3_35 
REMARK    8  A    between atoms: N3_35  and  C25_37 
REMARK    9  A    between atoms: C25_37  and  C26_38 
ROOT
HETATM    1  C22 UNL     1       7.225  16.811   8.125  1.00  0.00     0.185 C 
HETATM    2  C23 UNL     1       8.308  17.136   8.996  1.00  0.00     0.073 C 
HETATM    3  N2  UNL     1       9.195  17.355   9.711  1.00  0.00    -0.196 NA
ENDROOT
BRANCH   1   4
HETATM    4  C21 UNL     1       6.117  17.794   7.946  1.00  0.00     0.034 C 
BRANCH   4   5
HETATM    5  C20 UNL     1       5.497  17.751   6.586  1.00  0.00    -0.004 C 
HETATM    6  C18 UNL     1       4.235  18.569   6.504  1.00  0.00    -0.036 C 
HETATM    7  C17 UNL     1       3.989  19.474   7.657  1.00  0.00     0.010 C 
HETATM    8  C19 UNL     1       3.103  17.526   6.539  1.00  0.00     0.016 C 
HETATM    9  C29 UNL     1       4.271  19.323   5.180  1.00  0.00     0.003 C 
HETATM   10  C16 UNL     1       2.762  20.340   7.444  1.00  0.00     0.007 C 
HETATM   11  C15 UNL     1       2.526  20.688   6.004  1.00  0.00     0.003 C 
HETATM   12  C13 UNL     1       1.506  21.708   5.720  1.00  0.00    -0.034 C 
HETATM   13  C30 UNL     1       3.840  20.725   5.248  1.00  0.00     0.026 C 
HETATM   14  C5  UNL     1       1.785  23.129   5.920  1.00  0.00    -0.002 C 
HETATM   15  C12 UNL     1       0.863  21.382   4.377  1.00  0.00     0.042 C 
HETATM   16  C14 UNL     1       0.398  21.370   6.759  1.00  0.00     0.016 C 
HETATM   17  C4  UNL     1       3.105  23.640   5.455  1.00  0.00     0.047 C 
HETATM   18  C6  UNL     1       0.717  24.036   5.363  1.00  0.00     0.019 C 
HETATM   19  C3  UNL     1       4.178  23.066   6.346  1.00  0.00     0.199 C 
HETATM   20  C2  UNL     1       4.702  21.804   5.671  1.00  0.00    -0.051 C 
HETATM   21  F1  UNL     1       5.172  24.065   6.356  1.00  0.00    -0.245 F 
HETATM   22  C1  UNL     1       5.985  21.893   5.538  1.00  0.00     0.017 C 
HETATM   23  C7  UNL     1       0.255  23.752   3.989  1.00  0.00     0.011 C 
HETATM   24  C8  UNL     1      -1.269  23.476   4.087  1.00  0.00     0.020 C 
HETATM   25  C11 UNL     1       0.831  22.494   3.396  1.00  0.00     0.129 C 
HETATM   26  C28 UNL     1       5.397  18.823   4.410  1.00  0.00     0.006 C 
HETATM   27  C27 UNL     1       6.358  18.173   5.442  1.00  0.00     0.006 C 
BRANCH  23  28
HETATM   28  C9  UNL     1       0.328  24.899   3.011  1.00  0.00     0.207 C 
BRANCH  28  29
HETATM   29  N1  UNL     1      -0.910  25.056   2.267  1.00  0.00    -0.073 N 
ATOM     30  H13 UNL     1      -1.011  24.330   1.557  1.00  0.00     0.274 HD
ATOM     31  H12 UNL     1      -1.720  24.829   2.843  1.00  0.00     0.274 HD
ATOM     32  H11 UNL     1      -0.994  25.987   1.860  1.00  0.00     0.274 HD
ENDBRANCH  28  29
BRANCH  28  33
HETATM   33  C10 UNL     1       0.600  26.245   3.634  1.00  0.00     0.148 C 
HETATM   34 CL1  UNL     1       2.351  26.559   3.317  1.00  0.00    -0.128 Cl
ENDBRANCH  28  33
ENDBRANCH  23  28
BRANCH  25  35
HETATM   35  O1  UNL     1      -0.092  22.095   2.392  1.00  0.00    -0.395 OA
ATOM     36  H1  UNL     1      -0.092  21.145   2.415  1.00  0.00     0.210 HD
ENDBRANCH  25  35
ENDBRANCH   4   5
ENDBRANCH   1   4
BRANCH   1  37
HETATM   37  C24 UNL     1       6.635  15.490   8.560  1.00  0.00     0.235 C 
HETATM   38  O2  UNL     1       7.355  14.498   8.620  1.00  0.00    -0.272 OA
HETATM   39  N3  UNL     1       5.269  15.460   8.880  1.00  0.00    -0.352 N 
ATOM     40  H3  UNL     1       4.731  16.323   8.799  1.00  0.00     0.162 HD
BRANCH  39  41
HETATM   41  C25 UNL     1       4.591  14.261   9.318  1.00  0.00     0.222 C 
BRANCH  41  42
HETATM   42  C26 UNL     1       3.711  14.581  10.452  1.00  0.00     0.248 C 
HETATM   43  N4  UNL     1       2.668  15.524  10.406  1.00  0.00    -0.061 NA
HETATM   44  O3  UNL     1       3.916  13.957  11.538  1.00  0.00    -0.275 OA
ENDBRANCH  41  42
ENDBRANCH  39  41
ENDBRANCH   1  37
TORSDOF 9
ENDMDL
MODEL 2
REMARK VINA RESULT: -7.592667180      1.294      1.338
REMARK  9 active torsions:
REMARK  status: ('A' for Active; 'I' for Inactive)
REMARK    1  A    between atoms: C7_8  and  C9_10 
REMARK    2  A    between atoms: C9_10  and  N1_11 
REMARK    3  A    between atoms: C9_10  and  C10_15 
REMARK    4  A    between atoms: C11_17  and  O1_18 
REMARK    5  A    between atoms: C20_28  and  C21_29 
REMARK    6  A    between atoms: C21_29  and  C22_30 
REMARK    7  A    between atoms: C22_30  and  C24_33 
REMARK       I    between atoms: C24_33  and  N3_35 
REMARK    8  A    between atoms: N3_35  and  C25_37 
REMARK    9  A    between atoms: C25_37  and  C26_38 
ROOT
HETATM    1  C22 UNL     1       7.542  17.841   7.758  1.00  0.00     0.185 C 
HETATM    2  C23 UNL     1       8.572  17.995   8.735  1.00  0.00     0.073 C 
HETATM    3  N2  UNL     1       9.406  18.076   9.537  1.00  0.00    -0.196 NA
ENDROOT
BRANCH   1   4
HETATM    4  C21 UNL     1       6.657  19.001   7.447  1.00  0.00     0.034 C 
BRANCH   4   5
HETATM    5  C20 UNL     1       6.130  18.989   6.048  1.00  0.00    -0.004 C 
HETATM    6  C18 UNL     1       4.696  19.444   5.970  1.00  0.00    -0.036 C 
HETATM    7  C17 UNL     1       4.164  20.078   7.204  1.00  0.00     0.010 C 
HETATM    8  C19 UNL     1       3.893  18.144   5.785  1.00  0.00     0.016 C 
HETATM    9  C29 UNL     1       4.579  20.361   4.758  1.00  0.00     0.003 C 
HETATM   10  C16 UNL     1       2.756  20.607   7.006  1.00  0.00     0.007 C 
HETATM   11  C15 UNL     1       2.494  21.080   5.608  1.00  0.00     0.003 C 
HETATM   12  C13 UNL     1       1.246  21.822   5.374  1.00  0.00    -0.034 C 
HETATM   13  C30 UNL     1       3.778  21.573   4.967  1.00  0.00     0.026 C 
HETATM   14  C5  UNL     1       1.116  23.222   5.772  1.00  0.00    -0.002 C 
HETATM   15  C12 UNL     1       0.773  21.531   3.954  1.00  0.00     0.042 C 
HETATM   16  C14 UNL     1       0.231  21.058   6.272  1.00  0.00     0.016 C 
HETATM   17  C4  UNL     1       2.264  24.127   5.480  1.00  0.00     0.047 C 
HETATM   18  C6  UNL     1      -0.136  23.883   5.251  1.00  0.00     0.019 C 
HETATM   19  C3  UNL     1       3.414  23.739   6.373  1.00  0.00     0.199 C 
HETATM   20  C2  UNL     1       4.292  22.771   5.588  1.00  0.00    -0.051 C 
HETATM   21  F1  UNL     1       4.095  24.954   6.586  1.00  0.00    -0.245 F 
HETATM   22  C1  UNL     1       5.505  23.216   5.569  1.00  0.00     0.017 C 
HETATM   23  C7  UNL     1      -0.445  23.684   3.820  1.00  0.00     0.011 C 
HETATM   24  C8  UNL     1      -1.838  23.002   3.763  1.00  0.00     0.020 C 
HETATM   25  C11 UNL     1       0.478  22.722   3.121  1.00  0.00     0.129 C 
HETATM   26  C28 UNL     1       5.830  20.293   4.022  1.00  0.00     0.006 C 
HETATM   27  C27 UNL     1       6.888  19.782   5.037  1.00  0.00     0.006 C 
BRANCH  23  28
HETATM   28  C9  UNL     1      -0.649  24.936   3.003  1.00  0.00     0.207 C 
BRANCH  28  29
HETATM   29  N1  UNL     1      -1.842  24.855   2.177  1.00  0.00    -0.073 N 
ATOM     30  H13 UNL     1      -1.695  25.294   1.268  1.00  0.00     0.274 HD
ATOM     31  H12 UNL     1      -2.014  23.899   1.867  1.00  0.00     0.274 HD
ATOM     32  H11 UNL     1      -2.658  25.244   2.649  1.00  0.00     0.274 HD
ENDBRANCH  28  29
BRANCH  28  33
HETATM   33  C10 UNL     1      -0.799  26.201   3.810  1.00  0.00     0.148 C 
HETATM   34 CL1  UNL     1       0.809  27.017   3.700  1.00  0.00    -0.128 Cl
ENDBRANCH  28  33
ENDBRANCH  23  28
BRANCH  25  35
HETATM   35  O1  UNL     1      -0.258  22.239   2.006  1.00  0.00    -0.395 OA
ATOM     36  H1  UNL     1      -0.742  21.489   2.331  1.00  0.00     0.210 HD
ENDBRANCH  25  35
ENDBRANCH   4   5
ENDBRANCH   1   4
BRANCH   1  37
HETATM   37  C24 UNL     1       6.679  16.664   8.148  1.00  0.00     0.235 C 
HETATM   38  O2  UNL     1       7.159  15.535   8.140  1.00  0.00    -0.272 OA
HETATM   39  N3  UNL     1       5.348  16.923   8.507  1.00  0.00    -0.352 N 
ATOM     40  H3  UNL     1       5.015  17.887   8.484  1.00  0.00     0.162 HD
BRANCH  39  41
HETATM   41  C25 UNL     1       4.426  15.884   8.910  1.00  0.00     0.222 C 
BRANCH  41  42
HETATM   42  C26 UNL     1       3.182  16.494   9.401  1.00  0.00     0.248 C 
HETATM   43  N4  UNL     1       2.135  15.779  10.010  1.00  0.00    -0.061 NA
HETATM   44  O3  UNL     1       3.058  17.749   9.261  1.00  0.00    -0.275 OA
ENDBRANCH  41  42
ENDBRANCH  39  41
ENDBRANCH   1  37
TORSDOF 9
ENDMDL
MODEL 3
REMARK VINA RESULT: -7.398520869      2.583      3.213
REMARK  9 active torsions:
REMARK  status: ('A' for Active; 'I' for Inactive)
REMARK    1  A    between atoms: C7_8  and  C9_10 
REMARK    2  A    between atoms: C9_10  and  N1_11 
REMARK    3  A    between atoms: C9_10  and  C10_15 
REMARK    4  A    between atoms: C11_17  and  O1_18 
REMARK    5  A    between atoms: C20_28  and  C21_29 
REMARK    6  A    between atoms: C21_29  and  C22_30 
REMARK    7  A    between atoms: C22_30  and  C24_33 
REMARK       I    between atoms: C24_33  and  N3_35 
REMARK    8  A    between atoms: N3_35  and  C25_37 
REMARK    9  A    between atoms: C25_37  and  C26_38 
ROOT
HETATM    1  C22 UNL     1       7.488  18.363   7.796  1.00  0.00     0.185 C 
HETATM    2  C23 UNL     1       8.511  19.333   8.026  1.00  0.00     0.073 C 
HETATM    3  N2  UNL     1       9.370  20.087   8.223  1.00  0.00    -0.196 NA
ENDROOT
BRANCH   1   4
HETATM    4  C21 UNL     1       6.061  18.755   7.985  1.00  0.00     0.034 C 
BRANCH   4   5
HETATM    5  C20 UNL     1       5.242  18.638   6.739  1.00  0.00    -0.004 C 
HETATM    6  C18 UNL     1       4.631  19.952   6.327  1.00  0.00    -0.036 C 
HETATM    7  C17 UNL     1       5.160  21.147   7.035  1.00  0.00     0.010 C 
HETATM    8  C19 UNL     1       3.155  19.834   6.748  1.00  0.00     0.016 C 
HETATM    9  C29 UNL     1       4.783  20.067   4.815  1.00  0.00     0.003 C 
HETATM   10  C16 UNL     1       4.576  22.434   6.485  1.00  0.00     0.007 C 
HETATM   11  C15 UNL     1       4.263  22.363   5.020  1.00  0.00     0.003 C 
HETATM   12  C13 UNL     1       3.916  23.624   4.347  1.00  0.00    -0.034 C 
HETATM   13  C30 UNL     1       5.196  21.388   4.327  1.00  0.00     0.026 C 
HETATM   14  C5  UNL     1       4.947  24.593   3.984  1.00  0.00    -0.002 C 
HETATM   15  C12 UNL     1       2.930  23.314   3.226  1.00  0.00     0.042 C 
HETATM   16  C14 UNL     1       3.050  24.347   5.419  1.00  0.00     0.016 C 
HETATM   17  C4  UNL     1       6.201  24.065   3.377  1.00  0.00     0.047 C 
HETATM   18  C6  UNL     1       4.443  25.708   3.103  1.00  0.00     0.019 C 
HETATM   19  C3  UNL     1       6.960  23.306   4.436  1.00  0.00     0.199 C 
HETATM   20  C2  UNL     1       6.568  21.838   4.311  1.00  0.00    -0.051 C 
HETATM   21  F1  UNL     1       8.309  23.486   4.072  1.00  0.00    -0.245 F 
HETATM   22  C1  UNL     1       7.636  21.123   4.173  1.00  0.00     0.017 C 
HETATM   23  C7  UNL     1       3.620  25.315   1.941  1.00  0.00     0.011 C 
HETATM   24  C8  UNL     1       2.248  26.019   2.116  1.00  0.00     0.020 C 
HETATM   25  C11 UNL     1       3.291  23.847   1.890  1.00  0.00     0.129 C 
HETATM   26  C28 UNL     1       5.272  18.793   4.316  1.00  0.00     0.006 C 
HETATM   27  C27 UNL     1       5.928  18.087   5.534  1.00  0.00     0.006 C 
BRANCH  23  28
HETATM   28  C9  UNL     1       4.087  25.816   0.595  1.00  0.00     0.207 C 
BRANCH  28  29
HETATM   29  N1  UNL     1       3.025  26.496  -0.127  1.00  0.00    -0.073 N 
ATOM     30  H13 UNL     1       2.557  25.866  -0.779  1.00  0.00     0.274 HD
ATOM     31  H12 UNL     1       2.237  26.708   0.484  1.00  0.00     0.274 HD
ATOM     32  H11 UNL     1       3.364  27.334  -0.599  1.00  0.00     0.274 HD
ENDBRANCH  28  29
BRANCH  28  33
HETATM   33  C10 UNL     1       5.234  26.794   0.647  1.00  0.00     0.148 C 
HETATM   34 CL1  UNL     1       6.693  25.823   0.207  1.00  0.00    -0.128 Cl
ENDBRANCH  28  33
ENDBRANCH  23  28
BRANCH  25  35
HETATM   35  O1  UNL     1       2.110  23.754   1.107  1.00  0.00    -0.395 OA
ATOM     36  H1  UNL     1       1.509  23.228   1.621  1.00  0.00     0.210 HD
ENDBRANCH  25  35
ENDBRANCH   4   5
ENDBRANCH   1   4
BRANCH   1  37
HETATM   37  C24 UNL     1       7.774  17.148   8.646  1.00  0.00     0.235 C 
HETATM   38  O2  UNL     1       8.210  17.297   9.783  1.00  0.00    -0.272 OA
HETATM   39  N3  UNL     1       7.522  15.886   8.087  1.00  0.00    -0.352 N 
ATOM     40  H3  UNL     1       7.166  15.839   7.132  1.00  0.00     0.162 HD
BRANCH  39  41
HETATM   41  C25 UNL     1       7.744  14.650   8.803  1.00  0.00     0.222 C 
BRANCH  41  42
HETATM   42  C26 UNL     1       6.468  14.158   9.342  1.00  0.00     0.248 C 
HETATM   43  N4  UNL     1       5.342  13.851   8.557  1.00  0.00    -0.061 NA
HETATM   44  O3  UNL     1       6.392  14.003  10.598  1.00  0.00    -0.275 OA
ENDBRANCH  41  42
ENDBRANCH  39  41
ENDBRANCH   1  37
TORSDOF 9
ENDMDL
MODEL 4
REMARK VINA RESULT: -7.284010012      2.289      2.814
REMARK  9 active torsions:
REMARK  status: ('A' for Active; 'I' for Inactive)
REMARK    1  A    between atoms: C7_8  and  C9_10 
REMARK    2  A    between atoms: C9_10  and  N1_11 
REMARK    3  A    between atoms: C9_10  and  C10_15 
REMARK    4  A    between atoms: C11_17  and  O1_18 
REMARK    5  A    between atoms: C20_28  and  C21_29 
REMARK    6  A    between atoms: C21_29  and  C22_30 
REMARK    7  A    between atoms: C22_30  and  C24_33 
REMARK       I    between atoms: C24_33  and  N3_35 
REMARK    8  A    between atoms: N3_35  and  C25_37 
REMARK    9  A    between atoms: C25_37  and  C26_38 
ROOT
HETATM    1  C22 UNL     1       7.391  17.509   7.911  1.00  0.00     0.185 C 
HETATM    2  C23 UNL     1       8.559  17.615   8.725  1.00  0.00     0.073 C 
HETATM    3  N2  UNL     1       9.507  17.656   9.392  1.00  0.00    -0.196 NA
ENDROOT
BRANCH   1   4
HETATM    4  C21 UNL     1       6.476  18.681   7.800  1.00  0.00     0.034 C 
BRANCH   4   5
HETATM    5  C20 UNL     1       5.503  18.571   6.669  1.00  0.00    -0.004 C 
HETATM    6  C18 UNL     1       4.839  19.886   6.353  1.00  0.00    -0.036 C 
HETATM    7  C17 UNL     1       5.450  21.077   6.996  1.00  0.00     0.010 C 
HETATM    8  C19 UNL     1       3.430  19.756   6.959  1.00  0.00     0.016 C 
HETATM    9  C29 UNL     1       4.794  20.014   4.835  1.00  0.00     0.003 C 
HETATM   10  C16 UNL     1       4.795  22.366   6.539  1.00  0.00     0.007 C 
HETATM   11  C15 UNL     1       4.296  22.306   5.126  1.00  0.00     0.003 C 
HETATM   12  C13 UNL     1       3.859  23.570   4.515  1.00  0.00    -0.034 C 
HETATM   13  C30 UNL     1       5.135  21.341   4.309  1.00  0.00     0.026 C 
HETATM   14  C5  UNL     1       4.831  24.548   4.030  1.00  0.00    -0.002 C 
HETATM   15  C12 UNL     1       2.738  23.265   3.528  1.00  0.00     0.042 C 
HETATM   16  C14 UNL     1       3.137  24.280   5.696  1.00  0.00     0.016 C 
HETATM   17  C4  UNL     1       5.998  24.031   3.261  1.00  0.00     0.047 C 
HETATM   18  C6  UNL     1       4.212  25.668   3.232  1.00  0.00     0.019 C 
HETATM   19  C3  UNL     1       6.890  23.267   4.207  1.00  0.00     0.199 C 
HETATM   20  C2  UNL     1       6.491  21.799   4.120  1.00  0.00    -0.051 C 
HETATM   21  F1  UNL     1       8.180  23.457   3.672  1.00  0.00    -0.245 F 
HETATM   22  C1  UNL     1       7.535  21.090   3.838  1.00  0.00     0.017 C 
HETATM   23  C7  UNL     1       3.248  25.281   2.183  1.00  0.00     0.011 C 
HETATM   24  C8  UNL     1       1.908  25.976   2.540  1.00  0.00     0.020 C 
HETATM   25  C11 UNL     1       2.921  23.811   2.162  1.00  0.00     0.129 C 
HETATM   26  C28 UNL     1       5.218  18.747   4.265  1.00  0.00     0.006 C 
HETATM   27  C27 UNL     1       6.029  18.034   5.381  1.00  0.00     0.006 C 
BRANCH  23  28
HETATM   28  C9  UNL     1       3.535  25.795   0.793  1.00  0.00     0.207 C 
BRANCH  28  29
HETATM   29  N1  UNL     1       2.370  26.431   0.200  1.00  0.00    -0.073 N 
ATOM     30  H13 UNL     1       1.592  25.777   0.116  1.00  0.00     0.274 HD
ATOM     31  H12 UNL     1       1.947  27.101   0.842  1.00  0.00     0.274 HD
ATOM     32  H11 UNL     1       2.589  26.865  -0.696  1.00  0.00     0.274 HD
ENDBRANCH  28  29
BRANCH  28  33
HETATM   33  C10 UNL     1       4.640  26.818   0.712  1.00  0.00     0.148 C 
HETATM   34 CL1  UNL     1       6.080  25.900   0.119  1.00  0.00    -0.128 Cl
ENDBRANCH  28  33
ENDBRANCH  23  28
BRANCH  25  35
HETATM   35  O1  UNL     1       1.648  23.719   1.537  1.00  0.00    -0.395 OA
ATOM     36  H1  UNL     1       1.792  23.204   0.752  1.00  0.00     0.210 HD
ENDBRANCH  25  35
ENDBRANCH   4   5
ENDBRANCH   1   4
BRANCH   1  37
HETATM   37  C24 UNL     1       6.592  16.311   8.368  1.00  0.00     0.235 C 
HETATM   38  O2  UNL     1       7.139  15.216   8.450  1.00  0.00    -0.272 OA
HETATM   39  N3  UNL     1       5.239  16.512   8.682  1.00  0.00    -0.352 N 
ATOM     40  H3  UNL     1       4.850  17.450   8.583  1.00  0.00     0.162 HD
BRANCH  39  41
HETATM   41  C25 UNL     1       4.372  15.450   9.140  1.00  0.00     0.222 C 
BRANCH  41  42
HETATM   42  C26 UNL     1       2.996  15.954   9.258  1.00  0.00     0.248 C 
HETATM   43  N4  UNL     1       2.301  16.611   8.226  1.00  0.00    -0.061 NA
HETATM   44  O3  UNL     1       2.408  15.776  10.368  1.00  0.00    -0.275 OA
ENDBRANCH  41  42
ENDBRANCH  39  41
ENDBRANCH   1  37
TORSDOF 9
ENDMDL
MODEL 5
REMARK VINA RESULT: -7.015885907      4.333      5.766
REMARK  9 active torsions:
REMARK  status: ('A' for Active; 'I' for Inactive)
REMARK    1  A    between atoms: C7_8  and  C9_10 
REMARK    2  A    between atoms: C9_10  and  N1_11 
REMARK    3  A    between atoms: C9_10  and  C10_15 
REMARK    4  A    between atoms: C11_17  and  O1_18 
REMARK    5  A    between atoms: C20_28  and  C21_29 
REMARK    6  A    between atoms: C21_29  and  C22_30 
REMARK    7  A    between atoms: C22_30  and  C24_33 
REMARK       I    between atoms: C24_33  and  N3_35 
REMARK    8  A    between atoms: N3_35  and  C25_37 
REMARK    9  A    between atoms: C25_37  and  C26_38 
ROOT
HETATM    1  C22 UNL     1       6.107  17.823   6.330  1.00  0.00     0.185 C 
HETATM    2  C23 UNL     1       7.155  17.956   7.290  1.00  0.00     0.073 C 
HETATM    3  N2  UNL     1       7.989  18.031   8.093  1.00  0.00    -0.196 NA
ENDROOT
BRANCH   1   4
HETATM    4  C21 UNL     1       5.711  19.010   5.517  1.00  0.00     0.034 C 
BRANCH   4   5
HETATM    5  C20 UNL     1       5.872  20.308   6.243  1.00  0.00    -0.004 C 
HETATM    6  C18 UNL     1       6.637  21.326   5.438  1.00  0.00    -0.036 C 
HETATM    7  C17 UNL     1       6.839  20.981   4.007  1.00  0.00     0.010 C 
HETATM    8  C19 UNL     1       8.040  21.336   6.071  1.00  0.00     0.016 C 
HETATM    9  C29 UNL     1       5.926  22.663   5.610  1.00  0.00     0.003 C 
HETATM   10  C16 UNL     1       7.516  22.103   3.244  1.00  0.00     0.007 C 
HETATM   11  C15 UNL     1       7.167  23.466   3.765  1.00  0.00     0.003 C 
HETATM   12  C13 UNL     1       7.582  24.620   2.954  1.00  0.00    -0.034 C 
HETATM   13  C30 UNL     1       5.782  23.456   4.383  1.00  0.00     0.026 C 
HETATM   14  C5  UNL     1       6.847  24.996   1.747  1.00  0.00    -0.002 C 
HETATM   15  C12 UNL     1       7.877  25.785   3.892  1.00  0.00     0.042 C 
HETATM   16  C14 UNL     1       8.985  24.182   2.444  1.00  0.00     0.016 C 
HETATM   17  C4  UNL     1       5.359  24.980   1.819  1.00  0.00     0.047 C 
HETATM   18  C6  UNL     1       7.268  26.327   1.176  1.00  0.00     0.019 C 
HETATM   19  C3  UNL     1       4.903  23.547   1.929  1.00  0.00     0.199 C 
HETATM   20  C2  UNL     1       4.735  23.238   3.412  1.00  0.00    -0.051 C 
HETATM   21  F1  UNL     1       3.651  23.546   1.283  1.00  0.00    -0.245 F 
HETATM   22  C1  UNL     1       3.539  22.793   3.621  1.00  0.00     0.017 C 
HETATM   23  C7  UNL     1       7.381  27.451   2.128  1.00  0.00     0.011 C 
HETATM   24  C8  UNL     1       8.848  27.948   2.049  1.00  0.00     0.020 C 
HETATM   25  C11 UNL     1       7.189  27.058   3.569  1.00  0.00     0.129 C 
HETATM   26  C28 UNL     1       4.909  22.502   6.634  1.00  0.00     0.006 C 
HETATM   27  C27 UNL     1       4.622  20.978   6.707  1.00  0.00     0.006 C 
BRANCH  23  28
HETATM   28  C9  UNL     1       6.587  28.690   1.791  1.00  0.00     0.207 C 
BRANCH  28  29
HETATM   29  N1  UNL     1       5.678  29.059   2.864  1.00  0.00    -0.073 N 
ATOM     30  H13 UNL     1       4.709  28.866   2.612  1.00  0.00     0.274 HD
ATOM     31  H12 UNL     1       5.766  28.425   3.658  1.00  0.00     0.274 HD
ATOM     32  H11 UNL     1       5.801  30.030   3.149  1.00  0.00     0.274 HD
ENDBRANCH  28  29
BRANCH  28  33
HETATM   33  C10 UNL     1       7.417  29.920   1.523  1.00  0.00     0.148 C 
HETATM   34 CL1  UNL     1       7.001  31.062   2.859  1.00  0.00    -0.128 Cl
ENDBRANCH  28  33
ENDBRANCH  23  28
BRANCH  25  35
HETATM   35  O1  UNL     1       7.857  28.059   4.324  1.00  0.00    -0.395 OA
ATOM     36  H1  UNL     1       8.453  27.587   4.893  1.00  0.00     0.210 HD
ENDBRANCH  25  35
ENDBRANCH   4   5
ENDBRANCH   1   4
BRANCH   1  37
HETATM   37  C24 UNL     1       4.881  17.282   7.026  1.00  0.00     0.235 C 
HETATM   38  O2  UNL     1       3.769  17.528   6.569  1.00  0.00    -0.272 OA
HETATM   39  N3  UNL     1       5.074  16.511   8.183  1.00  0.00    -0.352 N 
ATOM     40  H3  UNL     1       6.028  16.354   8.510  1.00  0.00     0.162 HD
BRANCH  39  41
HETATM   41  C25 UNL     1       3.983  15.930   8.932  1.00  0.00     0.222 C 
BRANCH  41  42
HETATM   42  C26 UNL     1       4.369  14.593   9.406  1.00  0.00     0.248 C 
HETATM   43  N4  UNL     1       3.899  14.006  10.595  1.00  0.00    -0.061 NA
HETATM   44  O3  UNL     1       5.180  13.935   8.685  1.00  0.00    -0.275 OA
ENDBRANCH  41  42
ENDBRANCH  39  41
ENDBRANCH   1  37
TORSDOF 9
ENDMDL
