MODEL 1
REMARK VINA RESULT: -7.749210614      0.000      0.000
REMARK  11 active torsions:
REMARK  status: ('A' for Active; 'I' for Inactive)
REMARK    1  A    between atoms: O1_2  and  C2_3 
REMARK    2  A    between atoms: C2_3  and  C3_4 
REMARK    3  A    between atoms: C8_9  and  C9_10 
REMARK       I    between atoms: C9_10  and  N1_12 
REMARK    4  A    between atoms: N1_12  and  C10_14 
REMARK    5  A    between atoms: C10_14  and  C11_15 
REMARK    6  A    between atoms: C13_19  and  C14_20 
REMARK    7  A    between atoms: N2_23  and  C15_24 
REMARK    8  A    between atoms: C15_24  and  O7_25 
REMARK    9  A    between atoms: C15_24  and  N3_27 
REMARK   10  A    between atoms: N3_27  and  C16_29 
REMARK   11  A    between atoms: C16_29  and  C17_30 
ROOT
HETATM    1  C2  UNL     1       4.780  23.688   2.722  1.00  0.00     0.085 C 
HETATM    2  C7  UNL     1       5.461  24.870   3.366  1.00  0.00     0.075 C 
HETATM    3  C8  UNL     1       6.179  24.323   4.573  1.00  0.00     0.182 C 
HETATM    4  N2  UNL     1       5.730  22.933   4.685  1.00  0.00    -0.331 N 
HETATM    5  C25 UNL     1       5.654  22.532   3.281  1.00  0.00     0.166 C 
ENDROOT
BRANCH   4   6
HETATM    6  C15 UNL     1       5.383  22.251   5.868  1.00  0.00     0.219 C 
BRANCH   6   7
HETATM    7  O7  UNL     1       4.104  22.410   6.177  1.00  0.00    -0.332 OA
ATOM      8  H7  UNL     1       3.759  21.667   6.658  1.00  0.00     0.220 HD
ENDBRANCH   6   7
BRANCH   6   9
HETATM    9  N3  UNL     1       6.088  21.470   6.752  1.00  0.00    -0.332 N 
ATOM     10  H3  UNL     1       5.906  21.581   7.749  1.00  0.00     0.168 HD
BRANCH   9  11
HETATM   11  C16 UNL     1       7.058  20.516   6.346  1.00  0.00     0.106 C 
BRANCH  11  12
HETATM   12  C17 UNL     1       7.101  19.163   6.876  1.00  0.00     0.023 A 
HETATM   13  C18 UNL     1       6.075  18.232   6.611  1.00  0.00     0.047 A 
HETATM   14 CL1  UNL     1       4.927  18.657   5.356  1.00  0.00    -0.083 Cl
HETATM   15  C19 UNL     1       5.982  17.049   7.295  1.00  0.00     0.032 A 
HETATM   16  C20 UNL     1       6.892  16.697   8.297  1.00  0.00    -0.053 A 
HETATM   17  C21 UNL     1       6.816  15.395   8.987  1.00  0.00     0.049 C 
HETATM   18  C22 UNL     1       7.906  17.611   8.573  1.00  0.00    -0.033 A 
HETATM   19  C23 UNL     1       8.773  17.275   9.759  1.00  0.00     0.050 C 
HETATM   20  C24 UNL     1       7.990  18.800   7.869  1.00  0.00     0.053 A 
HETATM   21 CL2  UNL     1       9.306  19.904   8.308  1.00  0.00    -0.083 Cl
ENDBRANCH  11  12
ENDBRANCH   9  11
ENDBRANCH   6   9
ENDBRANCH   4   6
BRANCH   3  22
HETATM   22  C9  UNL     1       7.690  24.231   4.290  1.00  0.00     0.241 C 
HETATM   23  O2  UNL     1       8.087  24.645   3.201  1.00  0.00    -0.271 OA
HETATM   24  N1  UNL     1       8.526  23.667   5.261  1.00  0.00    -0.339 N 
ATOM     25  H1  UNL     1       8.122  23.385   6.155  1.00  0.00     0.163 HD
BRANCH  24  26
HETATM   26  C10 UNL     1       9.961  23.468   5.039  1.00  0.00     0.136 A 
HETATM   27  C12 UNL     1      10.550  22.399   4.259  1.00  0.00     0.062 A 
HETATM   28  C13 UNL     1      10.513  22.218   5.708  1.00  0.00     0.128 A 
BRANCH  26  29
HETATM   29  C11 UNL     1      10.681  24.760   5.216  1.00  0.00     0.203 C 
HETATM   30  O3  UNL     1      11.403  25.114   4.222  1.00  0.00    -0.646 OA
HETATM   31  O4  UNL     1      10.616  25.549   6.311  1.00  0.00    -0.646 OA
ENDBRANCH  26  29
BRANCH  28  32
HETATM   32  C14 UNL     1      11.609  22.244   6.639  1.00  0.00     0.180 C 
HETATM   33  O5  UNL     1      12.843  21.970   6.375  1.00  0.00    -0.648 OA
HETATM   34  O6  UNL     1      11.439  22.600   7.991  1.00  0.00    -0.648 OA
ENDBRANCH  28  32
ENDBRANCH  24  26
ENDBRANCH   3  22
BRANCH   1  35
HETATM   35  O1  UNL     1       3.555  23.611   3.286  1.00  0.00    -0.382 OA
HETATM   36  C1  UNL     1       2.872  24.707   3.669  1.00  0.00     0.202 C 
ENDBRANCH   1  35
BRANCH   1  37
HETATM   37  C3  UNL     1       4.840  23.782   1.233  1.00  0.00    -0.018 C 
HETATM   38  C4  UNL     1       3.563  23.673   0.483  1.00  0.00     0.018 C 
HETATM   39  C5  UNL     1       5.840  22.866   0.578  1.00  0.00     0.018 C 
HETATM   40  C6  UNL     1       5.385  25.206   0.943  1.00  0.00     0.018 C 
ENDBRANCH   1  37
TORSDOF 11
ENDMDL
MODEL 2
REMARK VINA RESULT: -7.691893451      2.179      3.593
REMARK  11 active torsions:
REMARK  status: ('A' for Active; 'I' for Inactive)
REMARK    1  A    between atoms: O1_2  and  C2_3 
REMARK    2  A    between atoms: C2_3  and  C3_4 
REMARK    3  A    between atoms: C8_9  and  C9_10 
REMARK       I    between atoms: C9_10  and  N1_12 
REMARK    4  A    between atoms: N1_12  and  C10_14 
REMARK    5  A    between atoms: C10_14  and  C11_15 
REMARK    6  A    between atoms: C13_19  and  C14_20 
REMARK    7  A    between atoms: N2_23  and  C15_24 
REMARK    8  A    between atoms: C15_24  and  O7_25 
REMARK    9  A    between atoms: C15_24  and  N3_27 
REMARK   10  A    between atoms: N3_27  and  C16_29 
REMARK   11  A    between atoms: C16_29  and  C17_30 
ROOT
HETATM    1  C2  UNL     1       3.864  22.293   5.579  1.00  0.00     0.085 C 
HETATM    2  C7  UNL     1       5.129  22.361   6.397  1.00  0.00     0.075 C 
HETATM    3  C8  UNL     1       5.965  21.185   5.958  1.00  0.00     0.182 C 
HETATM    4  N2  UNL     1       5.090  20.403   5.083  1.00  0.00    -0.331 N 
HETATM    5  C25 UNL     1       4.364  21.454   4.372  1.00  0.00     0.166 C 
ENDROOT
BRANCH   4   6
HETATM    6  C15 UNL     1       4.961  19.000   5.055  1.00  0.00     0.219 C 
BRANCH   6   7
HETATM    7  O7  UNL     1       5.543  18.468   3.990  1.00  0.00    -0.332 OA
ATOM      8  H7  UNL     1       6.089  19.095   3.532  1.00  0.00     0.220 HD
ENDBRANCH   6   7
BRANCH   6   9
HETATM    9  N3  UNL     1       4.363  18.087   5.891  1.00  0.00    -0.332 N 
ATOM     10  H3  UNL     1       3.825  17.328   5.474  1.00  0.00     0.168 HD
BRANCH   9  11
HETATM   11  C16 UNL     1       4.458  18.149   7.306  1.00  0.00     0.106 C 
BRANCH  11  12
HETATM   12  C17 UNL     1       5.115  17.120   8.097  1.00  0.00     0.023 A 
HETATM   13  C18 UNL     1       6.516  16.964   8.088  1.00  0.00     0.047 A 
HETATM   14 CL1  UNL     1       7.452  18.256   7.359  1.00  0.00    -0.083 Cl
HETATM   15  C19 UNL     1       7.121  15.860   8.628  1.00  0.00     0.032 A 
HETATM   16  C20 UNL     1       6.387  14.823   9.213  1.00  0.00    -0.053 A 
HETATM   17  C21 UNL     1       7.051  13.666   9.843  1.00  0.00     0.049 C 
HETATM   18  C22 UNL     1       5.002  14.963   9.222  1.00  0.00    -0.033 A 
HETATM   19  C23 UNL     1       4.234  13.763   9.716  1.00  0.00     0.050 C 
HETATM   20  C24 UNL     1       4.406  16.088   8.677  1.00  0.00     0.053 A 
HETATM   21 CL2  UNL     1       2.635  16.162   8.722  1.00  0.00    -0.083 Cl
ENDBRANCH  11  12
ENDBRANCH   9  11
ENDBRANCH   6   9
ENDBRANCH   4   6
BRANCH   3  22
HETATM   22  C9  UNL     1       7.111  21.666   5.049  1.00  0.00     0.241 C 
HETATM   23  O2  UNL     1       7.281  21.066   3.987  1.00  0.00    -0.271 OA
HETATM   24  N1  UNL     1       7.912  22.733   5.477  1.00  0.00    -0.339 N 
ATOM     25  H1  UNL     1       7.679  23.202   6.353  1.00  0.00     0.163 HD
BRANCH  24  26
HETATM   26  C10 UNL     1       9.071  23.197   4.712  1.00  0.00     0.136 A 
HETATM   27  C12 UNL     1      10.234  22.400   4.381  1.00  0.00     0.062 A 
HETATM   28  C13 UNL     1      10.347  23.289   5.535  1.00  0.00     0.128 A 
BRANCH  26  29
HETATM   29  C11 UNL     1       8.679  24.353   3.857  1.00  0.00     0.203 C 
HETATM   30  O3  UNL     1       8.967  24.228   2.618  1.00  0.00    -0.646 OA
HETATM   31  O4  UNL     1       8.059  25.473   4.291  1.00  0.00    -0.646 OA
ENDBRANCH  26  29
BRANCH  28  32
HETATM   32  C14 UNL     1      11.117  24.498   5.660  1.00  0.00     0.180 C 
HETATM   33  O5  UNL     1      12.174  24.804   4.983  1.00  0.00    -0.648 OA
HETATM   34  O6  UNL     1      10.772  25.520   6.564  1.00  0.00    -0.648 OA
ENDBRANCH  28  32
ENDBRANCH  24  26
ENDBRANCH   3  22
BRANCH   1  35
HETATM   35  O1  UNL     1       2.997  21.543   6.293  1.00  0.00    -0.382 OA
HETATM   36  C1  UNL     1       1.930  20.947   5.727  1.00  0.00     0.202 C 
ENDBRANCH   1  35
BRANCH   1  37
HETATM   37  C3  UNL     1       3.413  23.659   5.179  1.00  0.00    -0.018 C 
HETATM   38  C4  UNL     1       2.446  24.353   6.066  1.00  0.00     0.018 C 
HETATM   39  C5  UNL     1       2.907  23.773   3.765  1.00  0.00     0.018 C 
HETATM   40  C6  UNL     1       4.700  24.525   5.190  1.00  0.00     0.018 C 
ENDBRANCH   1  37
TORSDOF 11
ENDMDL
MODEL 3
REMARK VINA RESULT: -7.689116406      2.551      3.826
REMARK  11 active torsions:
REMARK  status: ('A' for Active; 'I' for Inactive)
REMARK    1  A    between atoms: O1_2  and  C2_3 
REMARK    2  A    between atoms: C2_3  and  C3_4 
REMARK    3  A    between atoms: C8_9  and  C9_10 
REMARK       I    between atoms: C9_10  and  N1_12 
REMARK    4  A    between atoms: N1_12  and  C10_14 
REMARK    5  A    between atoms: C10_14  and  C11_15 
REMARK    6  A    between atoms: C13_19  and  C14_20 
REMARK    7  A    between atoms: N2_23  and  C15_24 
REMARK    8  A    between atoms: C15_24  and  O7_25 
REMARK    9  A    between atoms: C15_24  and  N3_27 
REMARK   10  A    between atoms: N3_27  and  C16_29 
REMARK   11  A    between atoms: C16_29  and  C17_30 
ROOT
HETATM    1  C2  UNL     1       3.754  21.951   5.836  1.00  0.00     0.085 C 
HETATM    2  C7  UNL     1       5.062  22.034   6.584  1.00  0.00     0.075 C 
HETATM    3  C8  UNL     1       5.910  20.905   6.054  1.00  0.00     0.182 C 
HETATM    4  N2  UNL     1       5.012  20.124   5.200  1.00  0.00    -0.331 N 
HETATM    5  C25 UNL     1       4.213  21.174   4.572  1.00  0.00     0.166 C 
ENDROOT
BRANCH   4   6
HETATM    6  C15 UNL     1       4.928  18.720   5.127  1.00  0.00     0.219 C 
BRANCH   6   7
HETATM    7  O7  UNL     1       5.554  18.239   4.062  1.00  0.00    -0.332 OA
ATOM      8  H7  UNL     1       6.305  17.709   4.299  1.00  0.00     0.220 HD
ENDBRANCH   6   7
BRANCH   6   9
HETATM    9  N3  UNL     1       4.339  17.763   5.919  1.00  0.00    -0.332 N 
ATOM     10  H3  UNL     1       3.903  16.959   5.466  1.00  0.00     0.168 HD
BRANCH   9  11
HETATM   11  C16 UNL     1       4.306  17.838   7.336  1.00  0.00     0.106 C 
BRANCH  11  12
HETATM   12  C17 UNL     1       4.217  16.661   8.185  1.00  0.00     0.023 A 
HETATM   13  C18 UNL     1       3.048  16.363   8.915  1.00  0.00     0.047 A 
HETATM   14 CL1  UNL     1       1.605  17.269   8.503  1.00  0.00    -0.083 Cl
HETATM   15  C19 UNL     1       3.036  15.405   9.895  1.00  0.00     0.032 A 
HETATM   16  C20 UNL     1       4.179  14.674  10.232  1.00  0.00    -0.053 A 
HETATM   17  C21 UNL     1       4.141  13.605  11.249  1.00  0.00     0.049 C 
HETATM   18  C22 UNL     1       5.342  14.965   9.524  1.00  0.00    -0.033 A 
HETATM   19  C23 UNL     1       6.588  14.274  10.016  1.00  0.00     0.050 C 
HETATM   20  C24 UNL     1       5.336  15.932   8.532  1.00  0.00     0.053 A 
HETATM   21 CL2  UNL     1       6.872  16.240   7.701  1.00  0.00    -0.083 Cl
ENDBRANCH  11  12
ENDBRANCH   9  11
ENDBRANCH   6   9
ENDBRANCH   4   6
BRANCH   3  22
HETATM   22  C9  UNL     1       6.985  21.458   5.101  1.00  0.00     0.241 C 
HETATM   23  O2  UNL     1       7.118  20.900   4.012  1.00  0.00    -0.271 OA
HETATM   24  N1  UNL     1       7.769  22.540   5.523  1.00  0.00    -0.339 N 
ATOM     25  H1  UNL     1       7.568  22.971   6.425  1.00  0.00     0.163 HD
BRANCH  24  26
HETATM   26  C10 UNL     1       8.867  23.073   4.712  1.00  0.00     0.136 A 
HETATM   27  C12 UNL     1      10.026  22.325   4.270  1.00  0.00     0.062 A 
HETATM   28  C13 UNL     1      10.189  23.159   5.459  1.00  0.00     0.128 A 
BRANCH  26  29
HETATM   29  C11 UNL     1       8.394  24.258   3.942  1.00  0.00     0.203 C 
HETATM   30  O3  UNL     1       8.589  24.193   2.681  1.00  0.00    -0.646 OA
HETATM   31  O4  UNL     1       7.792  25.346   4.472  1.00  0.00    -0.646 OA
ENDBRANCH  26  29
BRANCH  28  32
HETATM   32  C14 UNL     1      10.936  24.381   5.597  1.00  0.00     0.180 C 
HETATM   33  O5  UNL     1      10.724  25.312   6.466  1.00  0.00    -0.648 OA
HETATM   34  O6  UNL     1      12.030  24.691   4.767  1.00  0.00    -0.648 OA
ENDBRANCH  28  32
ENDBRANCH  24  26
ENDBRANCH   3  22
BRANCH   1  35
HETATM   35  O1  UNL     1       2.955  21.146   6.568  1.00  0.00    -0.382 OA
HETATM   36  C1  UNL     1       1.866  20.549   6.045  1.00  0.00     0.202 C 
ENDBRANCH   1  35
BRANCH   1  37
HETATM   37  C3  UNL     1       3.237  23.314   5.513  1.00  0.00    -0.018 C 
HETATM   38  C4  UNL     1       2.220  23.898   6.423  1.00  0.00     0.018 C 
HETATM   39  C5  UNL     1       2.747  23.490   4.100  1.00  0.00     0.018 C 
HETATM   40  C6  UNL     1       4.475  24.245   5.603  1.00  0.00     0.018 C 
ENDBRANCH   1  37
TORSDOF 11
ENDMDL
MODEL 4
REMARK VINA RESULT: -7.607335884      2.177      3.447
REMARK  11 active torsions:
REMARK  status: ('A' for Active; 'I' for Inactive)
REMARK    1  A    between atoms: O1_2  and  C2_3 
REMARK    2  A    between atoms: C2_3  and  C3_4 
REMARK    3  A    between atoms: C8_9  and  C9_10 
REMARK       I    between atoms: C9_10  and  N1_12 
REMARK    4  A    between atoms: N1_12  and  C10_14 
REMARK    5  A    between atoms: C10_14  and  C11_15 
REMARK    6  A    between atoms: C13_19  and  C14_20 
REMARK    7  A    between atoms: N2_23  and  C15_24 
REMARK    8  A    between atoms: C15_24  and  O7_25 
REMARK    9  A    between atoms: C15_24  and  N3_27 
REMARK   10  A    between atoms: N3_27  and  C16_29 
REMARK   11  A    between atoms: C16_29  and  C17_30 
ROOT
HETATM    1  C2  UNL     1       2.993  23.830   5.096  1.00  0.00     0.085 C 
HETATM    2  C7  UNL     1       4.150  23.818   6.064  1.00  0.00     0.075 C 
HETATM    3  C8  UNL     1       4.539  22.369   6.221  1.00  0.00     0.182 C 
HETATM    4  N2  UNL     1       3.495  21.618   5.520  1.00  0.00    -0.331 N 
HETATM    5  C25 UNL     1       3.233  22.479   4.368  1.00  0.00     0.166 C 
ENDROOT
BRANCH   4   6
HETATM    6  C15 UNL     1       2.878  20.428   5.953  1.00  0.00     0.219 C 
BRANCH   6   7
HETATM    7  O7  UNL     1       1.564  20.561   6.066  1.00  0.00    -0.332 OA
ATOM      8  H7  UNL     1       1.101  20.140   5.352  1.00  0.00     0.220 HD
ENDBRANCH   6   7
BRANCH   6   9
HETATM    9  N3  UNL     1       3.352  19.178   6.277  1.00  0.00    -0.332 N 
ATOM     10  H3  UNL     1       3.271  18.434   5.585  1.00  0.00     0.168 HD
BRANCH   9  11
HETATM   11  C16 UNL     1       3.950  18.873   7.528  1.00  0.00     0.106 C 
BRANCH  11  12
HETATM   12  C17 UNL     1       4.473  17.555   7.850  1.00  0.00     0.023 A 
HETATM   13  C18 UNL     1       3.672  16.575   8.473  1.00  0.00     0.047 A 
HETATM   14 CL1  UNL     1       1.948  16.885   8.538  1.00  0.00    -0.083 Cl
HETATM   15  C19 UNL     1       4.214  15.430   8.997  1.00  0.00     0.032 A 
HETATM   16  C20 UNL     1       5.586  15.170   8.950  1.00  0.00    -0.053 A 
HETATM   17  C21 UNL     1       6.151  13.908   9.466  1.00  0.00     0.049 C 
HETATM   18  C22 UNL     1       6.388  16.134   8.344  1.00  0.00    -0.033 A 
HETATM   19  C23 UNL     1       7.873  15.897   8.449  1.00  0.00     0.050 C 
HETATM   20  C24 UNL     1       5.825  17.282   7.814  1.00  0.00     0.053 A 
HETATM   21 CL2  UNL     1       6.934  18.456   7.080  1.00  0.00    -0.083 Cl
ENDBRANCH  11  12
ENDBRANCH   9  11
ENDBRANCH   6   9
ENDBRANCH   4   6
BRANCH   3  22
HETATM   22  C9  UNL     1       5.831  22.083   5.436  1.00  0.00     0.241 C 
HETATM   23  O2  UNL     1       6.038  20.920   5.089  1.00  0.00    -0.271 OA
HETATM   24  N1  UNL     1       6.713  23.141   5.177  1.00  0.00    -0.339 N 
ATOM     25  H1  UNL     1       6.448  24.084   5.464  1.00  0.00     0.163 HD
BRANCH  24  26
HETATM   26  C10 UNL     1       8.001  22.940   4.509  1.00  0.00     0.136 A 
HETATM   27  C12 UNL     1       9.123  22.202   5.052  1.00  0.00     0.062 A 
HETATM   28  C13 UNL     1       9.158  23.657   5.190  1.00  0.00     0.128 A 
BRANCH  26  29
HETATM   29  C11 UNL     1       7.831  23.081   3.036  1.00  0.00     0.203 C 
HETATM   30  O3  UNL     1       8.202  22.068   2.352  1.00  0.00    -0.646 OA
HETATM   31  O4  UNL     1       7.325  24.165   2.406  1.00  0.00    -0.646 OA
ENDBRANCH  26  29
BRANCH  28  32
HETATM   32  C14 UNL     1      10.008  24.598   4.511  1.00  0.00     0.180 C 
HETATM   33  O5  UNL     1      11.065  24.316   3.824  1.00  0.00    -0.648 OA
HETATM   34  O6  UNL     1       9.754  25.982   4.519  1.00  0.00    -0.648 OA
ENDBRANCH  28  32
ENDBRANCH  24  26
ENDBRANCH   3  22
BRANCH   1  35
HETATM   35  O1  UNL     1       1.877  23.720   5.847  1.00  0.00    -0.382 OA
HETATM   36  C1  UNL     1       1.712  24.412   6.991  1.00  0.00     0.202 C 
ENDBRANCH   1  35
BRANCH   1  37
HETATM   37  C3  UNL     1       3.082  25.000   4.172  1.00  0.00    -0.018 C 
HETATM   38  C4  UNL     1       3.847  26.185   4.633  1.00  0.00     0.018 C 
HETATM   39  C5  UNL     1       1.762  25.485   3.632  1.00  0.00     0.018 C 
HETATM   40  C6  UNL     1       3.830  24.469   2.922  1.00  0.00     0.018 C 
ENDBRANCH   1  37
TORSDOF 11
ENDMDL
MODEL 5
REMARK VINA RESULT: -7.561960196      2.343      3.891
REMARK  11 active torsions:
REMARK  status: ('A' for Active; 'I' for Inactive)
REMARK    1  A    between atoms: O1_2  and  C2_3 
REMARK    2  A    between atoms: C2_3  and  C3_4 
REMARK    3  A    between atoms: C8_9  and  C9_10 
REMARK       I    between atoms: C9_10  and  N1_12 
REMARK    4  A    between atoms: N1_12  and  C10_14 
REMARK    5  A    between atoms: C10_14  and  C11_15 
REMARK    6  A    between atoms: C13_19  and  C14_20 
REMARK    7  A    between atoms: N2_23  and  C15_24 
REMARK    8  A    between atoms: C15_24  and  O7_25 
REMARK    9  A    between atoms: C15_24  and  N3_27 
REMARK   10  A    between atoms: N3_27  and  C16_29 
REMARK   11  A    between atoms: C16_29  and  C17_30 
ROOT
HETATM    1  C2  UNL     1       1.848  22.506   5.596  1.00  0.00     0.085 C 
HETATM    2  C7  UNL     1       2.659  23.739   5.910  1.00  0.00     0.075 C 
HETATM    3  C8  UNL     1       4.068  23.255   6.140  1.00  0.00     0.182 C 
HETATM    4  N2  UNL     1       3.972  21.794   6.150  1.00  0.00    -0.331 N 
HETATM    5  C25 UNL     1       2.975  21.556   5.108  1.00  0.00     0.166 C 
ENDROOT
BRANCH   4   6
HETATM    6  C15 UNL     1       4.626  20.911   7.032  1.00  0.00     0.219 C 
BRANCH   6   7
HETATM    7  O7  UNL     1       5.803  21.379   7.422  1.00  0.00    -0.332 OA
ATOM      8  H7  UNL     1       6.484  21.208   6.782  1.00  0.00     0.220 HD
ENDBRANCH   6   7
BRANCH   6   9
HETATM    9  N3  UNL     1       4.299  19.684   7.559  1.00  0.00    -0.332 N 
ATOM     10  H3  UNL     1       3.704  19.655   8.387  1.00  0.00     0.168 HD
BRANCH   9  11
HETATM   11  C16 UNL     1       4.749  18.455   7.009  1.00  0.00     0.106 C 
BRANCH  11  12
HETATM   12  C17 UNL     1       5.380  17.418   7.809  1.00  0.00     0.023 A 
HETATM   13  C18 UNL     1       6.783  17.309   7.904  1.00  0.00     0.047 A 
HETATM   14 CL1  UNL     1       7.724  18.660   7.300  1.00  0.00    -0.083 Cl
HETATM   15  C19 UNL     1       7.384  16.205   8.448  1.00  0.00     0.032 A 
HETATM   16  C20 UNL     1       6.645  15.122   8.935  1.00  0.00    -0.053 A 
HETATM   17  C21 UNL     1       7.301  13.963   9.571  1.00  0.00     0.049 C 
HETATM   18  C22 UNL     1       5.259  15.215   8.840  1.00  0.00    -0.033 A 
HETATM   19  C23 UNL     1       4.501  13.970   9.228  1.00  0.00     0.050 C 
HETATM   20  C24 UNL     1       4.667  16.340   8.293  1.00  0.00     0.053 A 
HETATM   21 CL2  UNL     1       2.896  16.352   8.201  1.00  0.00    -0.083 Cl
ENDBRANCH  11  12
ENDBRANCH   9  11
ENDBRANCH   6   9
ENDBRANCH   4   6
BRANCH   3  22
HETATM   22  C9  UNL     1       4.945  23.588   4.920  1.00  0.00     0.241 C 
HETATM   23  O2  UNL     1       4.437  24.263   4.025  1.00  0.00    -0.271 OA
HETATM   24  N1  UNL     1       6.255  23.094   4.874  1.00  0.00    -0.339 N 
ATOM     25  H1  UNL     1       6.614  22.575   5.676  1.00  0.00     0.163 HD
BRANCH  24  26
HETATM   26  C10 UNL     1       7.127  23.295   3.714  1.00  0.00     0.136 A 
HETATM   27  C12 UNL     1       7.037  22.576   2.460  1.00  0.00     0.062 A 
HETATM   28  C13 UNL     1       8.034  22.109   3.421  1.00  0.00     0.128 A 
BRANCH  26  29
HETATM   29  C11 UNL     1       7.717  24.662   3.760  1.00  0.00     0.203 C 
HETATM   30  O3  UNL     1       7.546  25.358   2.702  1.00  0.00    -0.646 OA
HETATM   31  O4  UNL     1       8.388  25.190   4.808  1.00  0.00    -0.646 OA
ENDBRANCH  26  29
BRANCH  28  32
HETATM   32  C14 UNL     1       9.467  22.216   3.344  1.00  0.00     0.180 C 
HETATM   33  O5  UNL     1      10.163  22.392   2.270  1.00  0.00    -0.648 OA
HETATM   34  O6  UNL     1      10.288  22.148   4.485  1.00  0.00    -0.648 OA
ENDBRANCH  28  32
ENDBRANCH  24  26
ENDBRANCH   3  22
BRANCH   1  35
HETATM   35  O1  UNL     1       1.387  22.051   6.781  1.00  0.00    -0.382 OA
HETATM   36  C1  UNL     1       0.936  20.791   6.939  1.00  0.00     0.202 C 
ENDBRANCH   1  35
BRANCH   1  37
HETATM   37  C3  UNL     1       0.837  22.788   4.534  1.00  0.00    -0.018 C 
HETATM   38  C4  UNL     1      -0.591  22.547   4.861  1.00  0.00     0.018 C 
HETATM   39  C5  UNL     1       1.120  22.147   3.201  1.00  0.00     0.018 C 
HETATM   40  C6  UNL     1       0.961  24.309   4.256  1.00  0.00     0.018 C 
ENDBRANCH   1  37
TORSDOF 11
ENDMDL
