MODEL 1
REMARK VINA RESULT: -5.517470184      0.000      0.000
REMARK  18 active torsions:
REMARK  status: ('A' for Active; 'I' for Inactive)
REMARK    1  A    between atoms: N1_1  and  C1_5 
REMARK    2  A    between atoms: C1_5  and  O1_6 
REMARK    3  A    between atoms: C1_5  and  C2_8 
REMARK    4  A    between atoms: C2_8  and  O2_9 
REMARK    5  A    between atoms: C2_8  and  C3_11 
REMARK    6  A    between atoms: C3_11  and  O3_12 
REMARK    7  A    between atoms: C5_17  and  N2_18 
REMARK    8  A    between atoms: N2_18  and  C6_20 
REMARK    9  A    between atoms: C8_26  and  N5_27 
REMARK   10  A    between atoms: C11_30  and  O6_31 
REMARK   11  A    between atoms: C12_33  and  O7_34 
REMARK   12  A    between atoms: C13_36  and  O8_37 
REMARK   13  A    between atoms: C14_41  and  C15_42 
REMARK   14  A    between atoms: C15_42  and  O9_43 
REMARK   15  A    between atoms: C15_42  and  C16_45 
REMARK   16  A    between atoms: C16_45  and  O10_46 
REMARK   17  A    between atoms: C16_45  and  C17_48 
REMARK   18  A    between atoms: C17_48  and  O11_49 
ROOT
HETATM    1  C3  UNL     1      15.488  -4.384  20.958  1.00  0.00     0.319 C 
HETATM    2  O4  UNL     1      16.631  -4.191  21.793  1.00  0.00    -0.254 OA
HETATM    3  C4  UNL     1      17.741  -3.488  21.252  1.00  0.00     0.289 C 
HETATM    4  O5  UNL     1      18.868  -3.903  21.597  1.00  0.00    -0.263 OA
HETATM    5  C5  UNL     1      17.481  -2.340  20.340  1.00  0.00     0.231 C 
HETATM    6  C14 UNL     1      16.231  -2.708  19.552  1.00  0.00     0.192 C 
HETATM    7  O12 UNL     1      15.891  -4.050  19.675  1.00  0.00    -0.320 OA
ENDROOT
BRANCH   5   8
HETATM    8  N2  UNL     1      18.558  -1.973  19.503  1.00  0.00    -0.209 N 
ATOM      9  H2  UNL     1      18.769  -2.630  18.752  1.00  0.00     0.178 HD
BRANCH   8  10
HETATM   10  C6  UNL     1      19.311  -0.933  19.549  1.00  0.00     0.694 A 
HETATM   11  N3  UNL     1      18.871   0.198  18.930  1.00  0.00    -0.187 N 
HETATM   12  C7  UNL     1      19.585   1.324  18.920  1.00  0.00     0.215 A 
ATOM     13  H3  UNL     1      17.966   0.183  18.461  1.00  0.00     0.185 HD
HETATM   14  N4  UNL     1      20.777   1.341  19.539  1.00  0.00    -0.187 N 
HETATM   15  C8  UNL     1      21.233   0.216  20.163  1.00  0.00     0.697 A 
ATOM     16  H4  UNL     1      21.340   2.192  19.542  1.00  0.00     0.185 HD
HETATM   17  N6  UNL     1      20.503  -0.879  20.156  1.00  0.00    -0.022 N 
ATOM     18  H6  UNL     1      20.856  -1.712  20.628  1.00  0.00     0.203 HD
BRANCH  15  19
HETATM   19  N5  UNL     1      22.516   0.349  20.778  1.00  0.00    -0.188 N 
HETATM   20  C9  UNL     1      23.231  -0.839  21.149  1.00  0.00     0.147 C 
HETATM   21  C10 UNL     1      24.645  -0.487  21.458  1.00  0.00     0.055 C 
HETATM   22  C11 UNL     1      24.851   0.628  22.419  1.00  0.00     0.152 C 
HETATM   23  C12 UNL     1      23.863   1.749  22.277  1.00  0.00     0.196 C 
HETATM   24  C13 UNL     1      23.040   1.650  21.018  1.00  0.00     0.268 C 
BRANCH  22  25
HETATM   25  O6  UNL     1      24.726   0.114  23.721  1.00  0.00    -0.393 OA
ATOM     26  H6  UNL     1      24.726   0.844  24.330  1.00  0.00     0.210 HD
ENDBRANCH  22  25
BRANCH  23  27
HETATM   27  O7  UNL     1      24.566   2.947  22.241  1.00  0.00    -0.389 OA
ATOM     28  H7  UNL     1      23.958   3.642  22.018  1.00  0.00     0.210 HD
ENDBRANCH  23  27
BRANCH  24  29
HETATM   29  O8  UNL     1      23.683   2.166  19.914  1.00  0.00    -0.373 OA
ATOM     30  H8  UNL     1      24.611   1.961  19.910  1.00  0.00     0.212 HD
ENDBRANCH  24  29
ENDBRANCH  15  19
ENDBRANCH   8  10
ENDBRANCH   5   8
BRANCH   6  31
HETATM   31  C15 UNL     1      16.433  -2.380  18.086  1.00  0.00     0.180 C 
BRANCH  31  32
HETATM   32  O9  UNL     1      16.407  -0.964  18.028  1.00  0.00    -0.390 OA
ATOM     33  H9  UNL     1      16.460  -0.760  17.101  1.00  0.00     0.210 HD
ENDBRANCH  31  32
BRANCH  31  34
HETATM   34  C16 UNL     1      15.299  -2.862  17.252  1.00  0.00     0.173 C 
BRANCH  34  35
HETATM   35  O10 UNL     1      14.117  -3.095  17.967  1.00  0.00    -0.391 OA
ATOM     36  H10 UNL     1      13.363  -2.618  17.641  1.00  0.00     0.210 HD
ENDBRANCH  34  35
BRANCH  34  37
HETATM   37  C17 UNL     1      15.632  -3.968  16.296  1.00  0.00     0.198 C 
BRANCH  37  38
HETATM   38  O11 UNL     1      16.539  -4.876  16.871  1.00  0.00    -0.398 OA
ATOM     39  H11 UNL     1      17.037  -5.330  16.202  1.00  0.00     0.209 HD
ENDBRANCH  37  38
ENDBRANCH  34  37
ENDBRANCH  31  34
ENDBRANCH   6  31
BRANCH   1  40
HETATM   40  C2  UNL     1      15.088  -5.834  20.983  1.00  0.00     0.267 C 
BRANCH  40  41
HETATM   41  C1  UNL     1      14.070  -6.161  19.908  1.00  0.00     0.353 C 
BRANCH  41  42
HETATM   42  N1  UNL     1      14.727  -6.375  18.642  1.00  0.00    -0.050 N 
ATOM     43  H13 UNL     1      14.345  -7.170  18.130  1.00  0.00     0.277 HD
ATOM     44  H12 UNL     1      14.507  -5.652  17.957  1.00  0.00     0.277 HD
ATOM     45  H11 UNL     1      15.728  -6.463  18.815  1.00  0.00     0.277 HD
ENDBRANCH  41  42
BRANCH  41  46
HETATM   46  O1  UNL     1      13.190  -5.062  19.766  1.00  0.00    -0.368 OA
ATOM     47  H1  UNL     1      12.754  -4.923  20.599  1.00  0.00     0.212 HD
ENDBRANCH  41  46
ENDBRANCH  40  41
BRANCH  40  48
HETATM   48  O2  UNL     1      14.666  -6.168  22.245  1.00  0.00    -0.383 OA
ATOM     49  H2  UNL     1      13.985  -5.594  22.574  1.00  0.00     0.210 HD
ENDBRANCH  40  48
ENDBRANCH   1  40
BRANCH   1  50
HETATM   50  O3  UNL     1      14.436  -3.611  21.410  1.00  0.00    -0.341 OA
ATOM     51  H3  UNL     1      14.714  -2.705  21.471  1.00  0.00     0.215 HD
ENDBRANCH   1  50
TORSDOF 18
ENDMDL
MODEL 2
REMARK VINA RESULT: -5.458063756      5.419      8.916
REMARK  18 active torsions:
REMARK  status: ('A' for Active; 'I' for Inactive)
REMARK    1  A    between atoms: N1_1  and  C1_5 
REMARK    2  A    between atoms: C1_5  and  O1_6 
REMARK    3  A    between atoms: C1_5  and  C2_8 
REMARK    4  A    between atoms: C2_8  and  O2_9 
REMARK    5  A    between atoms: C2_8  and  C3_11 
REMARK    6  A    between atoms: C3_11  and  O3_12 
REMARK    7  A    between atoms: C5_17  and  N2_18 
REMARK    8  A    between atoms: N2_18  and  C6_20 
REMARK    9  A    between atoms: C8_26  and  N5_27 
REMARK   10  A    between atoms: C11_30  and  O6_31 
REMARK   11  A    between atoms: C12_33  and  O7_34 
REMARK   12  A    between atoms: C13_36  and  O8_37 
REMARK   13  A    between atoms: C14_41  and  C15_42 
REMARK   14  A    between atoms: C15_42  and  O9_43 
REMARK   15  A    between atoms: C15_42  and  C16_45 
REMARK   16  A    between atoms: C16_45  and  O10_46 
REMARK   17  A    between atoms: C16_45  and  C17_48 
REMARK   18  A    between atoms: C17_48  and  O11_49 
ROOT
HETATM    1  C3  UNL     1      21.686  -2.496  12.084  1.00  0.00     0.319 C 
HETATM    2  O4  UNL     1      21.741  -1.438  13.043  1.00  0.00    -0.254 OA
HETATM    3  C4  UNL     1      20.641  -1.284  13.930  1.00  0.00     0.289 C 
HETATM    4  O5  UNL     1      20.330  -0.106  14.209  1.00  0.00    -0.263 OA
HETATM    5  C5  UNL     1      19.963  -2.505  14.444  1.00  0.00     0.231 C 
HETATM    6  C14 UNL     1      20.015  -3.520  13.309  1.00  0.00     0.192 C 
HETATM    7  O12 UNL     1      20.377  -2.952  12.093  1.00  0.00    -0.320 OA
ENDROOT
BRANCH   5   8
HETATM    8  N2  UNL     1      18.653  -2.312  14.935  1.00  0.00    -0.209 N 
ATOM      9  H2  UNL     1      17.906  -2.521  14.273  1.00  0.00     0.178 HD
BRANCH   8  10
HETATM   10  C6  UNL     1      18.265  -1.912  16.092  1.00  0.00     0.694 A 
HETATM   11  N3  UNL     1      18.101  -0.573  16.280  1.00  0.00    -0.187 N 
HETATM   12  C7  UNL     1      17.707  -0.063  17.448  1.00  0.00     0.215 A 
ATOM     13  H3  UNL     1      18.286   0.061  15.502  1.00  0.00     0.185 HD
HETATM   14  N4  UNL     1      17.465  -0.900  18.471  1.00  0.00    -0.187 N 
HETATM   15  C8  UNL     1      17.624  -2.245  18.299  1.00  0.00     0.697 A 
ATOM     16  H4  UNL     1      17.163  -0.532  19.373  1.00  0.00     0.185 HD
HETATM   17  N6  UNL     1      18.013  -2.716  17.133  1.00  0.00    -0.022 N 
ATOM     18  H6  UNL     1      18.126  -3.723  17.019  1.00  0.00     0.203 HD
BRANCH  15  19
HETATM   19  N5  UNL     1      17.347  -3.035  19.458  1.00  0.00    -0.188 N 
HETATM   20  C9  UNL     1      18.378  -3.892  19.972  1.00  0.00     0.147 C 
HETATM   21  C10 UNL     1      17.998  -4.356  21.335  1.00  0.00     0.055 C 
HETATM   22  C11 UNL     1      16.641  -4.945  21.475  1.00  0.00     0.152 C 
HETATM   23  C12 UNL     1      15.589  -4.266  20.646  1.00  0.00     0.196 C 
HETATM   24  C13 UNL     1      16.059  -2.961  20.058  1.00  0.00     0.268 C 
BRANCH  22  25
HETATM   25  O6  UNL     1      16.700  -6.289  21.068  1.00  0.00    -0.393 OA
ATOM     26  H6  UNL     1      15.811  -6.609  20.969  1.00  0.00     0.210 HD
ENDBRANCH  22  25
BRANCH  23  27
HETATM   27  O7  UNL     1      14.495  -4.004  21.461  1.00  0.00    -0.389 OA
ATOM     28  H7  UNL     1      13.832  -3.569  20.937  1.00  0.00     0.210 HD
ENDBRANCH  23  27
BRANCH  24  29
HETATM   29  O8  UNL     1      15.952  -1.906  20.937  1.00  0.00    -0.373 OA
ATOM     30  H8  UNL     1      15.963  -1.065  20.494  1.00  0.00     0.212 HD
ENDBRANCH  24  29
ENDBRANCH  15  19
ENDBRANCH   8  10
ENDBRANCH   5   8
BRANCH   6  31
HETATM   31  C15 UNL     1      18.666  -4.193  13.160  1.00  0.00     0.180 C 
BRANCH  31  32
HETATM   32  O9  UNL     1      18.559  -5.038  14.293  1.00  0.00    -0.390 OA
ATOM     33  H9  UNL     1      18.109  -5.812  13.974  1.00  0.00     0.210 HD
ENDBRANCH  31  32
BRANCH  31  34
HETATM   34  C16 UNL     1      18.620  -5.077  11.963  1.00  0.00     0.173 C 
BRANCH  34  35
HETATM   35  O10 UNL     1      18.212  -4.433  10.788  1.00  0.00    -0.391 OA
ATOM     36  H10 UNL     1      18.499  -3.530  10.717  1.00  0.00     0.210 HD
ENDBRANCH  34  35
BRANCH  34  37
HETATM   37  C17 UNL     1      17.945  -6.400  12.170  1.00  0.00     0.198 C 
BRANCH  37  38
HETATM   38  O11 UNL     1      16.927  -6.601  11.222  1.00  0.00    -0.398 OA
ATOM     39  H11 UNL     1      17.181  -6.263  10.371  1.00  0.00     0.209 HD
ENDBRANCH  37  38
ENDBRANCH  34  37
ENDBRANCH  31  34
ENDBRANCH   6  31
BRANCH   1  40
HETATM   40  C2  UNL     1      22.005  -1.951  10.719  1.00  0.00     0.267 C 
BRANCH  40  41
HETATM   41  C1  UNL     1      23.487  -2.040  10.406  1.00  0.00     0.353 C 
BRANCH  41  42
HETATM   42  N1  UNL     1      24.226  -1.089  11.200  1.00  0.00    -0.050 N 
ATOM     43  H13 UNL     1      25.230  -1.127  11.026  1.00  0.00     0.277 HD
ATOM     44  H12 UNL     1      24.072  -0.125  10.904  1.00  0.00     0.277 HD
ATOM     45  H11 UNL     1      23.990  -1.242  12.180  1.00  0.00     0.277 HD
ENDBRANCH  41  42
BRANCH  41  46
HETATM   46  O1  UNL     1      23.683  -1.721   9.041  1.00  0.00    -0.368 OA
ATOM     47  H1  UNL     1      24.615  -1.611   8.895  1.00  0.00     0.212 HD
ENDBRANCH  41  46
ENDBRANCH  40  41
BRANCH  40  48
HETATM   48  O2  UNL     1      21.506  -0.679  10.609  1.00  0.00    -0.383 OA
ATOM     49  H2  UNL     1      20.882  -0.462  11.291  1.00  0.00     0.210 HD
ENDBRANCH  40  48
ENDBRANCH   1  40
BRANCH   1  50
HETATM   50  O3  UNL     1      22.601  -3.478  12.412  1.00  0.00    -0.341 OA
ATOM     51  H3  UNL     1      22.554  -3.655  13.344  1.00  0.00     0.215 HD
ENDBRANCH   1  50
TORSDOF 18
ENDMDL
MODEL 3
REMARK VINA RESULT: -5.442948648      5.091     11.008
REMARK  18 active torsions:
REMARK  status: ('A' for Active; 'I' for Inactive)
REMARK    1  A    between atoms: N1_1  and  C1_5 
REMARK    2  A    between atoms: C1_5  and  O1_6 
REMARK    3  A    between atoms: C1_5  and  C2_8 
REMARK    4  A    between atoms: C2_8  and  O2_9 
REMARK    5  A    between atoms: C2_8  and  C3_11 
REMARK    6  A    between atoms: C3_11  and  O3_12 
REMARK    7  A    between atoms: C5_17  and  N2_18 
REMARK    8  A    between atoms: N2_18  and  C6_20 
REMARK    9  A    between atoms: C8_26  and  N5_27 
REMARK   10  A    between atoms: C11_30  and  O6_31 
REMARK   11  A    between atoms: C12_33  and  O7_34 
REMARK   12  A    between atoms: C13_36  and  O8_37 
REMARK   13  A    between atoms: C14_41  and  C15_42 
REMARK   14  A    between atoms: C15_42  and  O9_43 
REMARK   15  A    between atoms: C15_42  and  C16_45 
REMARK   16  A    between atoms: C16_45  and  O10_46 
REMARK   17  A    between atoms: C16_45  and  C17_48 
REMARK   18  A    between atoms: C17_48  and  O11_49 
ROOT
HETATM    1  C3  UNL     1      16.157  -3.165  18.259  1.00  0.00     0.319 C 
HETATM    2  O4  UNL     1      17.060  -2.973  17.169  1.00  0.00    -0.254 OA
HETATM    3  C4  UNL     1      17.208  -4.032  16.232  1.00  0.00     0.289 C 
HETATM    4  O5  UNL     1      18.363  -4.204  15.785  1.00  0.00    -0.263 OA
HETATM    5  C5  UNL     1      16.007  -4.832  15.865  1.00  0.00     0.231 C 
HETATM    6  C14 UNL     1      15.160  -4.915  17.127  1.00  0.00     0.192 C 
HETATM    7  O12 UNL     1      15.848  -4.515  18.267  1.00  0.00    -0.320 OA
ENDROOT
BRANCH   5   8
HETATM    8  N2  UNL     1      16.271  -6.103  15.307  1.00  0.00    -0.209 N 
ATOM      9  H2  UNL     1      16.525  -6.827  15.978  1.00  0.00     0.178 HD
BRANCH   8  10
HETATM   10  C6  UNL     1      16.239  -6.479  14.079  1.00  0.00     0.694 A 
HETATM   11  N3  UNL     1      17.348  -6.263  13.319  1.00  0.00    -0.187 N 
HETATM   12  C7  UNL     1      17.406  -6.614  12.033  1.00  0.00     0.215 A 
ATOM     13  H3  UNL     1      18.160  -5.818  13.746  1.00  0.00     0.185 HD
HETATM   14  N4  UNL     1      16.335  -7.199  11.473  1.00  0.00    -0.187 N 
HETATM   15  C8  UNL     1      15.215  -7.423  12.221  1.00  0.00     0.697 A 
ATOM     16  H4  UNL     1      16.357  -7.476  10.491  1.00  0.00     0.185 HD
HETATM   17  N6  UNL     1      15.191  -7.066  13.488  1.00  0.00    -0.022 N 
ATOM     18  H6  UNL     1      14.348  -7.241  14.036  1.00  0.00     0.203 HD
BRANCH  15  19
HETATM   19  N5  UNL     1      14.136  -8.042  11.517  1.00  0.00    -0.188 N 
HETATM   20  C9  UNL     1      12.858  -7.389  11.499  1.00  0.00     0.147 C 
HETATM   21  C10 UNL     1      11.996  -8.021  10.462  1.00  0.00     0.055 C 
HETATM   22  C11 UNL     1      11.882  -9.502  10.514  1.00  0.00     0.152 C 
HETATM   23  C12 UNL     1      13.155 -10.203  10.892  1.00  0.00     0.196 C 
HETATM   24  C13 UNL     1      14.355  -9.291  10.870  1.00  0.00     0.268 C 
BRANCH  22  25
HETATM   25  O6  UNL     1      10.913  -9.834  11.477  1.00  0.00    -0.393 OA
ATOM     26  H6  UNL     1      11.190 -10.631  11.915  1.00  0.00     0.210 HD
ENDBRANCH  22  25
BRANCH  23  27
HETATM   27  O7  UNL     1      13.375 -11.228   9.981  1.00  0.00    -0.389 OA
ATOM     28  H7  UNL     1      14.312 -11.359   9.900  1.00  0.00     0.210 HD
ENDBRANCH  23  27
BRANCH  24  29
HETATM   29  O8  UNL     1      14.890  -9.138   9.610  1.00  0.00    -0.373 OA
ATOM     30  H8  UNL     1      14.654  -9.853   9.029  1.00  0.00     0.212 HD
ENDBRANCH  24  29
ENDBRANCH  15  19
ENDBRANCH   8  10
ENDBRANCH   5   8
BRANCH   6  31
HETATM   31  C15 UNL     1      14.663  -6.334  17.319  1.00  0.00     0.180 C 
BRANCH  31  32
HETATM   32  O9  UNL     1      13.624  -6.483  16.367  1.00  0.00    -0.390 OA
ATOM     33  H9  UNL     1      12.851  -6.679  16.884  1.00  0.00     0.210 HD
ENDBRANCH  31  32
BRANCH  31  34
HETATM   34  C16 UNL     1      14.044  -6.524  18.659  1.00  0.00     0.173 C 
BRANCH  34  35
HETATM   35  O10 UNL     1      14.005  -7.856  19.092  1.00  0.00    -0.391 OA
ATOM     36  H10 UNL     1      13.173  -8.291  18.944  1.00  0.00     0.210 HD
ENDBRANCH  34  35
BRANCH  34  37
HETATM   37  C17 UNL     1      12.747  -5.802  18.873  1.00  0.00     0.198 C 
BRANCH  37  38
HETATM   38  O11 UNL     1      12.969  -4.466  19.249  1.00  0.00    -0.398 OA
ATOM     39  H11 UNL     1      12.283  -4.155  19.828  1.00  0.00     0.209 HD
ENDBRANCH  37  38
ENDBRANCH  34  37
ENDBRANCH  31  34
ENDBRANCH   6  31
BRANCH   1  40
HETATM   40  C2  UNL     1      16.847  -2.813  19.548  1.00  0.00     0.267 C 
BRANCH  40  41
HETATM   41  C1  UNL     1      16.381  -3.686  20.697  1.00  0.00     0.353 C 
BRANCH  41  42
HETATM   42  N1  UNL     1      14.994  -3.426  20.996  1.00  0.00    -0.050 N 
ATOM     43  H13 UNL     1      14.860  -2.563  21.523  1.00  0.00     0.277 HD
ATOM     44  H12 UNL     1      14.455  -3.168  20.170  1.00  0.00     0.277 HD
ATOM     45  H11 UNL     1      14.614  -4.242  21.475  1.00  0.00     0.277 HD
ENDBRANCH  41  42
BRANCH  41  46
HETATM   46  O1  UNL     1      17.145  -3.372  21.847  1.00  0.00    -0.368 OA
ATOM     47  H1  UNL     1      17.872  -3.981  21.893  1.00  0.00     0.212 HD
ENDBRANCH  41  46
ENDBRANCH  40  41
BRANCH  40  48
HETATM   48  O2  UNL     1      16.696  -1.472  19.794  1.00  0.00    -0.383 OA
ATOM     49  H2  UNL     1      16.596  -0.956  19.003  1.00  0.00     0.210 HD
ENDBRANCH  40  48
ENDBRANCH   1  40
BRANCH   1  50
HETATM   50  O3  UNL     1      15.045  -2.359  18.099  1.00  0.00    -0.341 OA
ATOM     51  H3  UNL     1      14.879  -2.232  17.172  1.00  0.00     0.215 HD
ENDBRANCH   1  50
TORSDOF 18
ENDMDL
MODEL 4
REMARK VINA RESULT: -5.437492387      4.001     10.640
REMARK  18 active torsions:
REMARK  status: ('A' for Active; 'I' for Inactive)
REMARK    1  A    between atoms: N1_1  and  C1_5 
REMARK    2  A    between atoms: C1_5  and  O1_6 
REMARK    3  A    between atoms: C1_5  and  C2_8 
REMARK    4  A    between atoms: C2_8  and  O2_9 
REMARK    5  A    between atoms: C2_8  and  C3_11 
REMARK    6  A    between atoms: C3_11  and  O3_12 
REMARK    7  A    between atoms: C5_17  and  N2_18 
REMARK    8  A    between atoms: N2_18  and  C6_20 
REMARK    9  A    between atoms: C8_26  and  N5_27 
REMARK   10  A    between atoms: C11_30  and  O6_31 
REMARK   11  A    between atoms: C12_33  and  O7_34 
REMARK   12  A    between atoms: C13_36  and  O8_37 
REMARK   13  A    between atoms: C14_41  and  C15_42 
REMARK   14  A    between atoms: C15_42  and  O9_43 
REMARK   15  A    between atoms: C15_42  and  C16_45 
REMARK   16  A    between atoms: C16_45  and  O10_46 
REMARK   17  A    between atoms: C16_45  and  C17_48 
REMARK   18  A    between atoms: C17_48  and  O11_49 
ROOT
HETATM    1  C3  UNL     1      17.168  -1.629  17.465  1.00  0.00     0.319 C 
HETATM    2  O4  UNL     1      16.988  -2.226  16.179  1.00  0.00    -0.254 OA
HETATM    3  C4  UNL     1      16.396  -3.518  16.121  1.00  0.00     0.289 C 
HETATM    4  O5  UNL     1      16.856  -4.287  15.250  1.00  0.00    -0.263 OA
HETATM    5  C5  UNL     1      15.303  -3.844  17.077  1.00  0.00     0.231 C 
HETATM    6  C14 UNL     1      15.647  -3.116  18.369  1.00  0.00     0.192 C 
HETATM    7  O12 UNL     1      16.953  -2.639  18.389  1.00  0.00    -0.320 OA
ENDROOT
BRANCH   5   8
HETATM    8  N2  UNL     1      15.066  -5.222  17.281  1.00  0.00    -0.209 N 
ATOM      9  H2  UNL     1      15.615  -5.652  18.025  1.00  0.00     0.178 HD
BRANCH   8  10
HETATM   10  C6  UNL     1      14.261  -6.012  16.667  1.00  0.00     0.694 A 
HETATM   11  N3  UNL     1      13.078  -6.311  17.273  1.00  0.00    -0.187 N 
HETATM   12  C7  UNL     1      12.181  -7.127  16.716  1.00  0.00     0.215 A 
ATOM     13  H3  UNL     1      12.872  -5.899  18.183  1.00  0.00     0.185 HD
HETATM   14  N4  UNL     1      12.456  -7.669  15.518  1.00  0.00    -0.187 N 
HETATM   15  C8  UNL     1      13.636  -7.379  14.897  1.00  0.00     0.697 A 
ATOM     16  H4  UNL     1      11.785  -8.296  15.074  1.00  0.00     0.185 HD
HETATM   17  N6  UNL     1      14.500  -6.570  15.474  1.00  0.00    -0.022 N 
ATOM     18  H6  UNL     1      15.378  -6.361  14.997  1.00  0.00     0.203 HD
BRANCH  15  19
HETATM   19  N5  UNL     1      13.823  -8.021  13.633  1.00  0.00    -0.188 N 
HETATM   20  C9  UNL     1      15.154  -8.382  13.232  1.00  0.00     0.147 C 
HETATM   21  C10 UNL     1      15.082  -9.310  12.069  1.00  0.00     0.055 C 
HETATM   22  C11 UNL     1      14.239  -8.870  10.927  1.00  0.00     0.152 C 
HETATM   23  C12 UNL     1      12.983  -8.154  11.332  1.00  0.00     0.196 C 
HETATM   24  C13 UNL     1      12.692  -8.269  12.806  1.00  0.00     0.268 C 
BRANCH  22  25
HETATM   25  O6  UNL     1      14.994  -7.987  10.136  1.00  0.00    -0.393 OA
ATOM     26  H6  UNL     1      14.432  -7.268   9.873  1.00  0.00     0.210 HD
ENDBRANCH  22  25
BRANCH  23  27
HETATM   27  O7  UNL     1      11.919  -8.714  10.637  1.00  0.00    -0.389 OA
ATOM     28  H7  UNL     1      11.112  -8.354  10.986  1.00  0.00     0.210 HD
ENDBRANCH  23  27
BRANCH  24  29
HETATM   29  O8  UNL     1      12.051  -9.443  13.137  1.00  0.00    -0.373 OA
ATOM     30  H8  UNL     1      11.283  -9.598  12.599  1.00  0.00     0.212 HD
ENDBRANCH  24  29
ENDBRANCH  15  19
ENDBRANCH   8  10
ENDBRANCH   5   8
BRANCH   6  31
HETATM   31  C15 UNL     1      15.438  -4.040  19.552  1.00  0.00     0.180 C 
BRANCH  31  32
HETATM   32  O9  UNL     1      14.034  -4.222  19.621  1.00  0.00    -0.390 OA
ATOM     33  H9  UNL     1      13.788  -3.871  20.469  1.00  0.00     0.210 HD
ENDBRANCH  31  32
BRANCH  31  34
HETATM   34  C16 UNL     1      15.849  -3.401  20.831  1.00  0.00     0.173 C 
BRANCH  34  35
HETATM   35  O10 UNL     1      15.870  -2.001  20.794  1.00  0.00    -0.391 OA
ATOM     36  H10 UNL     1      16.712  -1.616  21.009  1.00  0.00     0.210 HD
ENDBRANCH  34  35
BRANCH  34  37
HETATM   37  C17 UNL     1      17.070  -3.987  21.475  1.00  0.00     0.198 C 
BRANCH  37  38
HETATM   38  O11 UNL     1      18.220  -3.250  21.143  1.00  0.00    -0.398 OA
ATOM     39  H11 UNL     1      18.829  -3.776  20.639  1.00  0.00     0.209 HD
ENDBRANCH  37  38
ENDBRANCH  34  37
ENDBRANCH  31  34
ENDBRANCH   6  31
BRANCH   1  40
HETATM   40  C2  UNL     1      18.584  -1.139  17.596  1.00  0.00     0.267 C 
BRANCH  40  41
HETATM   41  C1  UNL     1      18.741  -0.162  18.745  1.00  0.00     0.353 C 
BRANCH  41  42
HETATM   42  N1  UNL     1      20.129   0.195  18.915  1.00  0.00    -0.050 N 
ATOM     43  H13 UNL     1      20.363   1.084  18.472  1.00  0.00     0.277 HD
ATOM     44  H12 UNL     1      20.353   0.456  19.874  1.00  0.00     0.277 HD
ATOM     45  H11 UNL     1      20.699  -0.578  18.572  1.00  0.00     0.277 HD
ENDBRANCH  41  42
BRANCH  41  46
HETATM   46  O1  UNL     1      18.299  -0.785  19.936  1.00  0.00    -0.368 OA
ATOM     47  H1  UNL     1      17.412  -1.095  19.795  1.00  0.00     0.212 HD
ENDBRANCH  41  46
ENDBRANCH  40  41
BRANCH  40  48
HETATM   48  O2  UNL     1      19.002  -0.630  16.393  1.00  0.00    -0.383 OA
ATOM     49  H2  UNL     1      18.984  -1.269  15.690  1.00  0.00     0.210 HD
ENDBRANCH  40  48
ENDBRANCH   1  40
BRANCH   1  50
HETATM   50  O3  UNL     1      16.298  -0.566  17.617  1.00  0.00    -0.341 OA
ATOM     51  H3  UNL     1      15.426  -0.831  17.350  1.00  0.00     0.215 HD
ENDBRANCH   1  50
TORSDOF 18
ENDMDL
MODEL 5
REMARK VINA RESULT: -5.416805862      3.854     11.177
REMARK  18 active torsions:
REMARK  status: ('A' for Active; 'I' for Inactive)
REMARK    1  A    between atoms: N1_1  and  C1_5 
REMARK    2  A    between atoms: C1_5  and  O1_6 
REMARK    3  A    between atoms: C1_5  and  C2_8 
REMARK    4  A    between atoms: C2_8  and  O2_9 
REMARK    5  A    between atoms: C2_8  and  C3_11 
REMARK    6  A    between atoms: C3_11  and  O3_12 
REMARK    7  A    between atoms: C5_17  and  N2_18 
REMARK    8  A    between atoms: N2_18  and  C6_20 
REMARK    9  A    between atoms: C8_26  and  N5_27 
REMARK   10  A    between atoms: C11_30  and  O6_31 
REMARK   11  A    between atoms: C12_33  and  O7_34 
REMARK   12  A    between atoms: C13_36  and  O8_37 
REMARK   13  A    between atoms: C14_41  and  C15_42 
REMARK   14  A    between atoms: C15_42  and  O9_43 
REMARK   15  A    between atoms: C15_42  and  C16_45 
REMARK   16  A    between atoms: C16_45  and  O10_46 
REMARK   17  A    between atoms: C16_45  and  C17_48 
REMARK   18  A    between atoms: C17_48  and  O11_49 
ROOT
HETATM    1  C3  UNL     1      16.683  -2.005  17.297  1.00  0.00     0.319 C 
HETATM    2  O4  UNL     1      16.288  -2.692  16.109  1.00  0.00    -0.254 OA
HETATM    3  C4  UNL     1      15.631  -3.945  16.250  1.00  0.00     0.289 C 
HETATM    4  O5  UNL     1      15.919  -4.809  15.394  1.00  0.00    -0.263 OA
HETATM    5  C5  UNL     1      14.674  -4.124  17.376  1.00  0.00     0.231 C 
HETATM    6  C14 UNL     1      15.239  -3.316  18.536  1.00  0.00     0.192 C 
HETATM    7  O12 UNL     1      16.555  -2.921  18.329  1.00  0.00    -0.320 OA
ENDROOT
BRANCH   5   8
HETATM    8  N2  UNL     1      14.401  -5.463  17.734  1.00  0.00    -0.209 N 
ATOM      9  H2  UNL     1      14.990  -5.844  18.474  1.00  0.00     0.178 HD
BRANCH   8  10
HETATM   10  C6  UNL     1      13.520  -6.271  17.263  1.00  0.00     0.694 A 
HETATM   11  N3  UNL     1      13.774  -6.857  16.060  1.00  0.00    -0.187 N 
HETATM   12  C7  UNL     1      12.917  -7.705  15.489  1.00  0.00     0.215 A 
ATOM     13  H3  UNL     1      14.647  -6.641  15.580  1.00  0.00     0.185 HD
HETATM   14  N4  UNL     1      11.767  -7.989  16.124  1.00  0.00    -0.187 N 
HETATM   15  C8  UNL     1      11.498  -7.410  17.330  1.00  0.00     0.697 A 
ATOM     16  H4  UNL     1      11.097  -8.634  15.705  1.00  0.00     0.185 HD
HETATM   17  N6  UNL     1      12.365  -6.578  17.867  1.00  0.00    -0.022 N 
ATOM     18  H6  UNL     1      12.151  -6.154  18.770  1.00  0.00     0.203 HD
BRANCH  15  19
HETATM   19  N5  UNL     1      10.242  -7.778  17.906  1.00  0.00    -0.188 N 
HETATM   20  C9  UNL     1      10.224  -8.325  19.232  1.00  0.00     0.147 C 
HETATM   21  C10 UNL     1       8.825  -8.326  19.745  1.00  0.00     0.055 C 
HETATM   22  C11 UNL     1       7.800  -8.937  18.860  1.00  0.00     0.152 C 
HETATM   23  C12 UNL     1       8.011  -8.666  17.399  1.00  0.00     0.196 C 
HETATM   24  C13 UNL     1       9.052  -7.606  17.144  1.00  0.00     0.268 C 
BRANCH  22  25
HETATM   25  O6  UNL     1       7.835 -10.330  19.042  1.00  0.00    -0.393 OA
ATOM     26  H6  UNL     1       8.083 -10.732  18.218  1.00  0.00     0.210 HD
ENDBRANCH  22  25
BRANCH  23  27
HETATM   27  O7  UNL     1       6.809  -8.229  16.858  1.00  0.00    -0.389 OA
ATOM     28  H7  UNL     1       6.787  -7.280  16.909  1.00  0.00     0.210 HD
ENDBRANCH  23  27
BRANCH  24  29
HETATM   29  O8  UNL     1       8.551  -6.326  17.241  1.00  0.00    -0.373 OA
ATOM     30  H8  UNL     1       8.109  -6.052  16.446  1.00  0.00     0.212 HD
ENDBRANCH  24  29
ENDBRANCH  15  19
ENDBRANCH   8  10
ENDBRANCH   5   8
BRANCH   6  31
HETATM   31  C15 UNL     1      15.159  -4.127  19.814  1.00  0.00     0.180 C 
BRANCH  31  32
HETATM   32  O9  UNL     1      13.777  -4.171  20.126  1.00  0.00    -0.390 OA
ATOM     33  H9  UNL     1      13.430  -3.350  19.796  1.00  0.00     0.210 HD
ENDBRANCH  31  32
BRANCH  31  34
HETATM   34  C16 UNL     1      15.830  -3.436  20.948  1.00  0.00     0.173 C 
BRANCH  34  35
HETATM   35  O10 UNL     1      15.813  -2.037  20.862  1.00  0.00    -0.391 OA
ATOM     36  H10 UNL     1      16.463  -1.674  20.272  1.00  0.00     0.210 HD
ENDBRANCH  34  35
BRANCH  34  37
HETATM   37  C17 UNL     1      17.175  -3.981  21.324  1.00  0.00     0.198 C 
BRANCH  37  38
HETATM   38  O11 UNL     1      18.199  -3.079  20.987  1.00  0.00    -0.398 OA
ATOM     39  H11 UNL     1      17.843  -2.227  20.760  1.00  0.00     0.209 HD
ENDBRANCH  37  38
ENDBRANCH  34  37
ENDBRANCH  31  34
ENDBRANCH   6  31
BRANCH   1  40
HETATM   40  C2  UNL     1      18.126  -1.595  17.182  1.00  0.00     0.267 C 
BRANCH  40  41
HETATM   41  C1  UNL     1      18.467  -0.454  18.122  1.00  0.00     0.353 C 
BRANCH  41  42
HETATM   42  N1  UNL     1      17.894  -0.687  19.425  1.00  0.00    -0.050 N 
ATOM     43  H13 UNL     1      17.254   0.053  19.712  1.00  0.00     0.277 HD
ATOM     44  H12 UNL     1      17.224  -1.456  19.429  1.00  0.00     0.277 HD
ATOM     45  H11 UNL     1      18.657  -0.827  20.087  1.00  0.00     0.277 HD
ENDBRANCH  41  42
BRANCH  41  46
HETATM   46  O1  UNL     1      17.914   0.742  17.606  1.00  0.00    -0.368 OA
ATOM     47  H1  UNL     1      17.026   0.558  17.323  1.00  0.00     0.212 HD
ENDBRANCH  41  46
ENDBRANCH  40  41
BRANCH  40  48
HETATM   48  O2  UNL     1      18.417  -1.319  15.871  1.00  0.00    -0.383 OA
ATOM     49  H2  UNL     1      17.929  -1.857  15.259  1.00  0.00     0.210 HD
ENDBRANCH  40  48
ENDBRANCH   1  40
BRANCH   1  50
HETATM   50  O3  UNL     1      15.899  -0.881  17.476  1.00  0.00    -0.341 OA
ATOM     51  H3  UNL     1      15.013  -1.145  17.690  1.00  0.00     0.215 HD
ENDBRANCH   1  50
TORSDOF 18
ENDMDL
