MODEL 1
REMARK VINA RESULT: -9.063958265      0.000      0.000
REMARK  12 active torsions:
REMARK  status: ('A' for Active; 'I' for Inactive)
REMARK    1  A    between atoms: C2_2  and  C3_3 
REMARK    2  A    between atoms: C3_3  and  C4_4 
REMARK    3  A    between atoms: C4_4  and  C5_5 
REMARK    4  A    between atoms: C5_5  and  C6_6 
REMARK    5  A    between atoms: C6_6  and  C7_7 
REMARK    6  A    between atoms: C7_7  and  C8_8 
REMARK    7  A    between atoms: C8_8  and  C9_9 
REMARK    8  A    between atoms: C9_9  and  C10_10 
REMARK    9  A    between atoms: C9_9  and  C13_13 
REMARK   10  A    between atoms: C10_10  and  C11_11 
REMARK   11  A    between atoms: C28_31  and  O3_32 
REMARK   12  A    between atoms: O3_32  and  C29_33 
ROOT
HETATM    1  C13 UNL     1      13.477 -22.297   4.291  1.00  0.00     0.096 C 
HETATM    2  C14 UNL     1      14.724 -22.691   3.613  1.00  0.00     0.141 C 
HETATM    3  O1  UNL     1      15.659 -22.143   3.081  1.00  0.00    -0.297 OA
HETATM    4  C15 UNL     1      14.297 -24.120   3.889  1.00  0.00     0.072 C 
HETATM    5  C16 UNL     1      14.568 -25.007   2.758  1.00  0.00     0.003 C 
HETATM    6  C17 UNL     1      16.069 -25.116   2.462  1.00  0.00     0.008 C 
HETATM    7  C18 UNL     1      16.251 -26.302   1.560  1.00  0.00     0.026 C 
HETATM    8  C19 UNL     1      15.459 -26.137   0.296  1.00  0.00     0.095 C 
HETATM    9  N1  UNL     1      15.535 -27.284  -0.551  1.00  0.00    -0.351 N 
HETATM   10  C20 UNL     1      16.396 -28.420  -0.346  1.00  0.00     0.153 C 
HETATM   11  C21 UNL     1      14.682 -27.306  -1.702  1.00  0.00     0.219 C 
HETATM   12  O2  UNL     1      14.603 -28.302  -2.446  1.00  0.00    -0.273 OA
HETATM   13  C22 UNL     1      13.896 -26.081  -1.964  1.00  0.00     0.103 C 
HETATM   14  C23 UNL     1      13.340 -25.436  -0.744  1.00  0.00     0.020 C 
HETATM   15  C24 UNL     1      14.011 -25.819   0.540  1.00  0.00    -0.019 C 
HETATM   16  C25 UNL     1      13.370 -27.035   1.167  1.00  0.00     0.018 C 
HETATM   17  C26 UNL     1      13.917 -24.603   1.464  1.00  0.00     0.003 C 
HETATM   18  C27 UNL     1      12.526 -24.136   1.600  1.00  0.00     0.039 C 
HETATM   19  C28 UNL     1      12.010 -23.693   2.892  1.00  0.00     0.142 C 
HETATM   20  C31 UNL     1      12.914 -23.619   4.091  1.00  0.00     0.008 C 
HETATM   21  C32 UNL     1      12.251 -24.371   5.224  1.00  0.00     0.020 C 
ENDROOT
BRANCH   1  22
HETATM   22  C9  UNL     1      13.585 -21.543   5.582  1.00  0.00    -0.068 C 
BRANCH  22  23
HETATM   23  C8  UNL     1      12.335 -21.048   6.142  1.00  0.00    -0.023 C 
BRANCH  23  24
HETATM   24  C7  UNL     1      11.646 -19.857   5.624  1.00  0.00     0.027 C 
BRANCH  24  25
HETATM   25  C6  UNL     1      10.294 -19.515   6.133  1.00  0.00     0.004 C 
BRANCH  25  26
HETATM   26  C5  UNL     1      10.122 -18.004   6.208  1.00  0.00     0.001 C 
BRANCH  26  27
HETATM   27  C4  UNL     1       9.595 -17.569   7.543  1.00  0.00     0.004 C 
BRANCH  27  28
HETATM   28  C3  UNL     1       8.751 -18.635   8.204  1.00  0.00     0.026 C 
BRANCH  28  29
HETATM   29  C2  UNL     1       8.437 -18.282   9.613  1.00  0.00    -0.037 C 
HETATM   30  C1  UNL     1       8.951 -17.198  10.196  1.00  0.00     0.007 C 
ENDBRANCH  28  29
ENDBRANCH  27  28
ENDBRANCH  26  27
ENDBRANCH  25  26
ENDBRANCH  24  25
ENDBRANCH  23  24
ENDBRANCH  22  23
BRANCH  22  31
HETATM   31  C10 UNL     1      14.684 -22.086   6.421  1.00  0.00     0.061 C 
BRANCH  31  32
HETATM   32  C11 UNL     1      14.331 -22.615   7.741  1.00  0.00    -0.033 C 
HETATM   33  C12 UNL     1      14.260 -23.959   7.904  1.00  0.00     0.007 C 
ENDBRANCH  31  32
ENDBRANCH  22  31
ENDBRANCH   1  22
BRANCH  19  34
HETATM   34  O3  UNL     1      10.755 -24.321   3.178  1.00  0.00    -0.315 OA
BRANCH  34  35
HETATM   35  C29 UNL     1       9.578 -23.670   3.398  1.00  0.00     0.255 C 
HETATM   36  C30 UNL     1       9.469 -22.187   3.557  1.00  0.00     0.126 C 
HETATM   37  O4  UNL     1       8.533 -24.361   3.467  1.00  0.00    -0.266 OA
ENDBRANCH  34  35
ENDBRANCH  19  34
TORSDOF 12
ENDMDL
MODEL 2
REMARK VINA RESULT: -8.948549192      3.491      6.287
REMARK  12 active torsions:
REMARK  status: ('A' for Active; 'I' for Inactive)
REMARK    1  A    between atoms: C2_2  and  C3_3 
REMARK    2  A    between atoms: C3_3  and  C4_4 
REMARK    3  A    between atoms: C4_4  and  C5_5 
REMARK    4  A    between atoms: C5_5  and  C6_6 
REMARK    5  A    between atoms: C6_6  and  C7_7 
REMARK    6  A    between atoms: C7_7  and  C8_8 
REMARK    7  A    between atoms: C8_8  and  C9_9 
REMARK    8  A    between atoms: C9_9  and  C10_10 
REMARK    9  A    between atoms: C9_9  and  C13_13 
REMARK   10  A    between atoms: C10_10  and  C11_11 
REMARK   11  A    between atoms: C28_31  and  O3_32 
REMARK   12  A    between atoms: O3_32  and  C29_33 
ROOT
HETATM    1  C13 UNL     1      14.216 -24.430   2.654  1.00  0.00     0.096 C 
HETATM    2  C14 UNL     1      15.510 -24.776   2.042  1.00  0.00     0.141 C 
HETATM    3  O1  UNL     1      16.419 -25.541   2.255  1.00  0.00    -0.297 OA
HETATM    4  C15 UNL     1      15.181 -23.718   1.006  1.00  0.00     0.072 C 
HETATM    5  C16 UNL     1      16.349 -22.914   0.645  1.00  0.00     0.003 C 
HETATM    6  C17 UNL     1      17.445 -23.760  -0.017  1.00  0.00     0.008 C 
HETATM    7  C18 UNL     1      18.403 -22.802  -0.664  1.00  0.00     0.026 C 
HETATM    8  C19 UNL     1      18.982 -21.861   0.350  1.00  0.00     0.095 C 
HETATM    9  N1  UNL     1      19.832 -20.876  -0.241  1.00  0.00    -0.351 N 
HETATM   10  C20 UNL     1      20.255 -20.853  -1.616  1.00  0.00     0.153 C 
HETATM   11  C21 UNL     1      20.302 -19.823   0.610  1.00  0.00     0.219 C 
HETATM   12  O2  UNL     1      20.966 -18.865   0.168  1.00  0.00    -0.273 OA
HETATM   13  C22 UNL     1      19.960 -19.929   2.044  1.00  0.00     0.103 C 
HETATM   14  C23 UNL     1      18.581 -20.425   2.310  1.00  0.00     0.020 C 
HETATM   15  C24 UNL     1      17.939 -21.159   1.173  1.00  0.00    -0.019 C 
HETATM   16  C25 UNL     1      17.180 -20.224   0.259  1.00  0.00     0.018 C 
HETATM   17  C26 UNL     1      17.009 -22.203   1.794  1.00  0.00     0.003 C 
HETATM   18  C27 UNL     1      16.072 -21.590   2.751  1.00  0.00     0.039 C 
HETATM   19  C28 UNL     1      14.678 -22.018   2.811  1.00  0.00     0.142 C 
HETATM   20  C31 UNL     1      14.191 -23.157   1.959  1.00  0.00     0.008 C 
HETATM   21  C32 UNL     1      12.960 -22.692   1.213  1.00  0.00     0.020 C 
ENDROOT
BRANCH   1  22
HETATM   22  C9  UNL     1      13.141 -25.475   2.669  1.00  0.00    -0.068 C 
BRANCH  22  23
HETATM   23  C8  UNL     1      12.086 -25.298   3.656  1.00  0.00    -0.023 C 
BRANCH  23  24
HETATM   24  C7  UNL     1      12.158 -24.296   4.729  1.00  0.00     0.027 C 
BRANCH  24  25
HETATM   25  C6  UNL     1      12.770 -24.661   6.032  1.00  0.00     0.004 C 
BRANCH  25  26
HETATM   26  C5  UNL     1      14.065 -23.889   6.243  1.00  0.00     0.001 C 
BRANCH  26  27
HETATM   27  C4  UNL     1      14.442 -23.823   7.693  1.00  0.00     0.004 C 
BRANCH  27  28
HETATM   28  C3  UNL     1      14.270 -22.436   8.270  1.00  0.00     0.026 C 
BRANCH  28  29
HETATM   29  C2  UNL     1      14.514 -21.387   7.245  1.00  0.00    -0.037 C 
HETATM   30  C1  UNL     1      14.921 -20.162   7.579  1.00  0.00     0.007 C 
ENDBRANCH  28  29
ENDBRANCH  27  28
ENDBRANCH  26  27
ENDBRANCH  25  26
ENDBRANCH  24  25
ENDBRANCH  23  24
ENDBRANCH  22  23
BRANCH  22  31
HETATM   31  C10 UNL     1      12.884 -25.988   1.297  1.00  0.00     0.061 C 
BRANCH  31  32
HETATM   32  C11 UNL     1      13.508 -27.259   0.921  1.00  0.00    -0.033 C 
HETATM   33  C12 UNL     1      14.182 -27.328  -0.254  1.00  0.00     0.007 C 
ENDBRANCH  31  32
ENDBRANCH  22  31
ENDBRANCH   1  22
BRANCH  19  34
HETATM   34  O3  UNL     1      13.799 -20.887   2.784  1.00  0.00    -0.315 OA
BRANCH  34  35
HETATM   35  C29 UNL     1      13.242 -20.292   3.877  1.00  0.00     0.255 C 
HETATM   36  C30 UNL     1      12.055 -20.841   4.603  1.00  0.00     0.126 C 
HETATM   37  O4  UNL     1      13.761 -19.228   4.290  1.00  0.00    -0.266 OA
ENDBRANCH  34  35
ENDBRANCH  19  34
TORSDOF 12
ENDMDL
MODEL 3
REMARK VINA RESULT: -8.794076129      4.120      8.106
REMARK  12 active torsions:
REMARK  status: ('A' for Active; 'I' for Inactive)
REMARK    1  A    between atoms: C2_2  and  C3_3 
REMARK    2  A    between atoms: C3_3  and  C4_4 
REMARK    3  A    between atoms: C4_4  and  C5_5 
REMARK    4  A    between atoms: C5_5  and  C6_6 
REMARK    5  A    between atoms: C6_6  and  C7_7 
REMARK    6  A    between atoms: C7_7  and  C8_8 
REMARK    7  A    between atoms: C8_8  and  C9_9 
REMARK    8  A    between atoms: C9_9  and  C10_10 
REMARK    9  A    between atoms: C9_9  and  C13_13 
REMARK   10  A    between atoms: C10_10  and  C11_11 
REMARK   11  A    between atoms: C28_31  and  O3_32 
REMARK   12  A    between atoms: O3_32  and  C29_33 
ROOT
HETATM    1  C13 UNL     1      12.189 -20.745   5.001  1.00  0.00     0.096 C 
HETATM    2  C14 UNL     1      12.408 -19.302   4.806  1.00  0.00     0.141 C 
HETATM    3  O1  UNL     1      12.604 -18.331   5.495  1.00  0.00    -0.297 OA
HETATM    4  C15 UNL     1      12.277 -19.591   3.323  1.00  0.00     0.072 C 
HETATM    5  C16 UNL     1      11.508 -18.562   2.624  1.00  0.00     0.003 C 
HETATM    6  C17 UNL     1      12.200 -17.194   2.679  1.00  0.00     0.008 C 
HETATM    7  C18 UNL     1      11.538 -16.328   1.646  1.00  0.00     0.026 C 
HETATM    8  C19 UNL     1      10.068 -16.205   1.919  1.00  0.00     0.095 C 
HETATM    9  N1  UNL     1       9.386 -15.460   0.908  1.00  0.00    -0.351 N 
HETATM   10  C20 UNL     1      10.014 -14.744  -0.172  1.00  0.00     0.153 C 
HETATM   11  C21 UNL     1       7.955 -15.425   0.975  1.00  0.00     0.219 C 
HETATM   12  O2  UNL     1       7.265 -14.887   0.087  1.00  0.00    -0.273 OA
HETATM   13  C22 UNL     1       7.333 -16.060   2.157  1.00  0.00     0.103 C 
HETATM   14  C23 UNL     1       7.982 -17.331   2.581  1.00  0.00     0.020 C 
HETATM   15  C24 UNL     1       9.380 -17.530   2.081  1.00  0.00    -0.019 C 
HETATM   16  C25 UNL     1       9.403 -18.231   0.743  1.00  0.00     0.018 C 
HETATM   17  C26 UNL     1      10.116 -18.345   3.147  1.00  0.00     0.003 C 
HETATM   18  C27 UNL     1       9.388 -19.582   3.478  1.00  0.00     0.039 C 
HETATM   19  C28 UNL     1      10.104 -20.834   3.697  1.00  0.00     0.142 C 
HETATM   20  C31 UNL     1      11.608 -20.868   3.679  1.00  0.00     0.008 C 
HETATM   21  C32 UNL     1      12.040 -21.962   2.727  1.00  0.00     0.020 C 
ENDROOT
BRANCH   1  22
HETATM   22  C9  UNL     1      13.310 -21.557   5.578  1.00  0.00    -0.068 C 
BRANCH  22  23
HETATM   23  C8  UNL     1      14.657 -21.141   5.214  1.00  0.00    -0.023 C 
BRANCH  23  24
HETATM   24  C7  UNL     1      15.570 -21.988   4.434  1.00  0.00     0.027 C 
BRANCH  24  25
HETATM   25  C6  UNL     1      15.638 -21.828   2.959  1.00  0.00     0.004 C 
BRANCH  25  26
HETATM   26  C5  UNL     1      15.665 -23.189   2.278  1.00  0.00     0.001 C 
BRANCH  26  27
HETATM   27  C4  UNL     1      15.494 -24.307   3.263  1.00  0.00     0.004 C 
BRANCH  27  28
HETATM   28  C3  UNL     1      14.137 -24.966   3.158  1.00  0.00     0.026 C 
BRANCH  28  29
HETATM   29  C2  UNL     1      13.389 -24.876   4.439  1.00  0.00    -0.037 C 
HETATM   30  C1  UNL     1      12.078 -25.117   4.504  1.00  0.00     0.007 C 
ENDBRANCH  28  29
ENDBRANCH  27  28
ENDBRANCH  26  27
ENDBRANCH  25  26
ENDBRANCH  24  25
ENDBRANCH  23  24
ENDBRANCH  22  23
BRANCH  22  31
HETATM   31  C10 UNL     1      12.959 -22.055   6.934  1.00  0.00     0.061 C 
BRANCH  31  32
HETATM   32  C11 UNL     1      14.046 -22.579   7.765  1.00  0.00    -0.033 C 
HETATM   33  C12 UNL     1      14.272 -23.916   7.769  1.00  0.00     0.007 C 
ENDBRANCH  31  32
ENDBRANCH  22  31
ENDBRANCH   1  22
BRANCH  19  34
HETATM   34  O3  UNL     1       9.514 -21.896   2.936  1.00  0.00    -0.315 OA
BRANCH  34  35
HETATM   35  C29 UNL     1       8.635 -22.818   3.417  1.00  0.00     0.255 C 
HETATM   36  C30 UNL     1       7.260 -22.480   3.898  1.00  0.00     0.126 C 
HETATM   37  O4  UNL     1       9.008 -24.016   3.455  1.00  0.00    -0.266 OA
ENDBRANCH  34  35
ENDBRANCH  19  34
TORSDOF 12
ENDMDL
MODEL 4
REMARK VINA RESULT: -8.765249347      3.880      7.623
REMARK  12 active torsions:
REMARK  status: ('A' for Active; 'I' for Inactive)
REMARK    1  A    between atoms: C2_2  and  C3_3 
REMARK    2  A    between atoms: C3_3  and  C4_4 
REMARK    3  A    between atoms: C4_4  and  C5_5 
REMARK    4  A    between atoms: C5_5  and  C6_6 
REMARK    5  A    between atoms: C6_6  and  C7_7 
REMARK    6  A    between atoms: C7_7  and  C8_8 
REMARK    7  A    between atoms: C8_8  and  C9_9 
REMARK    8  A    between atoms: C9_9  and  C10_10 
REMARK    9  A    between atoms: C9_9  and  C13_13 
REMARK   10  A    between atoms: C10_10  and  C11_11 
REMARK   11  A    between atoms: C28_31  and  O3_32 
REMARK   12  A    between atoms: O3_32  and  C29_33 
ROOT
HETATM    1  C13 UNL     1      12.985 -23.283   2.525  1.00  0.00     0.096 C 
HETATM    2  C14 UNL     1      11.727 -22.618   2.904  1.00  0.00     0.141 C 
HETATM    3  O1  UNL     1      10.543 -22.832   2.809  1.00  0.00    -0.297 OA
HETATM    4  C15 UNL     1      12.604 -21.523   3.480  1.00  0.00     0.072 C 
HETATM    5  C16 UNL     1      12.073 -20.187   3.209  1.00  0.00     0.003 C 
HETATM    6  C17 UNL     1      10.710 -19.966   3.878  1.00  0.00     0.008 C 
HETATM    7  C18 UNL     1      10.445 -18.489   3.849  1.00  0.00     0.026 C 
HETATM    8  C19 UNL     1      10.448 -17.975   2.439  1.00  0.00     0.095 C 
HETATM    9  N1  UNL     1      10.286 -16.557   2.374  1.00  0.00    -0.351 N 
HETATM   10  C20 UNL     1       9.978 -15.698   3.487  1.00  0.00     0.153 C 
HETATM   11  C21 UNL     1      10.445 -15.938   1.091  1.00  0.00     0.219 C 
HETATM   12  O2  UNL     1      10.421 -14.701   0.948  1.00  0.00    -0.273 OA
HETATM   13  C22 UNL     1      10.638 -16.846  -0.060  1.00  0.00     0.103 C 
HETATM   14  C23 UNL     1      11.516 -18.014   0.222  1.00  0.00     0.020 C 
HETATM   15  C24 UNL     1      11.684 -18.350   1.673  1.00  0.00    -0.019 C 
HETATM   16  C25 UNL     1      12.851 -17.614   2.287  1.00  0.00     0.018 C 
HETATM   17  C26 UNL     1      11.879 -19.865   1.753  1.00  0.00     0.003 C 
HETATM   18  C27 UNL     1      12.974 -20.315   0.877  1.00  0.00     0.039 C 
HETATM   19  C28 UNL     1      13.907 -21.347   1.318  1.00  0.00     0.142 C 
HETATM   20  C31 UNL     1      13.716 -22.036   2.640  1.00  0.00     0.008 C 
HETATM   21  C32 UNL     1      15.020 -21.956   3.403  1.00  0.00     0.020 C 
ENDROOT
BRANCH   1  22
HETATM   22  C9  UNL     1      13.315 -24.592   3.177  1.00  0.00    -0.068 C 
BRANCH  22  23
HETATM   23  C8  UNL     1      12.440 -25.005   4.265  1.00  0.00    -0.023 C 
BRANCH  23  24
HETATM   24  C7  UNL     1      12.747 -24.742   5.678  1.00  0.00     0.027 C 
BRANCH  24  25
HETATM   25  C6  UNL     1      13.998 -24.027   6.035  1.00  0.00     0.004 C 
BRANCH  25  26
HETATM   26  C5  UNL     1      14.195 -24.023   7.545  1.00  0.00     0.001 C 
BRANCH  26  27
HETATM   27  C4  UNL     1      14.167 -22.633   8.107  1.00  0.00     0.004 C 
BRANCH  27  28
HETATM   28  C3  UNL     1      13.720 -21.609   7.088  1.00  0.00     0.026 C 
BRANCH  28  29
HETATM   29  C2  UNL     1      14.771 -20.586   6.850  1.00  0.00    -0.037 C 
HETATM   30  C1  UNL     1      15.113 -19.701   7.788  1.00  0.00     0.007 C 
ENDBRANCH  28  29
ENDBRANCH  27  28
ENDBRANCH  26  27
ENDBRANCH  25  26
ENDBRANCH  24  25
ENDBRANCH  23  24
ENDBRANCH  22  23
BRANCH  22  31
HETATM   31  C10 UNL     1      13.878 -25.548   2.189  1.00  0.00     0.061 C 
BRANCH  31  32
HETATM   32  C11 UNL     1      15.229 -25.285   1.686  1.00  0.00    -0.033 C 
HETATM   33  C12 UNL     1      16.259 -25.270   2.569  1.00  0.00     0.007 C 
ENDBRANCH  31  32
ENDBRANCH  22  31
ENDBRANCH   1  22
BRANCH  19  34
HETATM   34  O3  UNL     1      15.261 -20.933   1.096  1.00  0.00    -0.315 OA
BRANCH  34  35
HETATM   35  C29 UNL     1      15.665 -19.659   0.832  1.00  0.00     0.255 C 
HETATM   36  C30 UNL     1      15.722 -19.076  -0.544  1.00  0.00     0.126 C 
HETATM   37  O4  UNL     1      16.005 -18.942   1.804  1.00  0.00    -0.266 OA
ENDBRANCH  34  35
ENDBRANCH  19  34
TORSDOF 12
ENDMDL
MODEL 5
REMARK VINA RESULT: -8.736212167      4.086      8.247
REMARK  12 active torsions:
REMARK  status: ('A' for Active; 'I' for Inactive)
REMARK    1  A    between atoms: C2_2  and  C3_3 
REMARK    2  A    between atoms: C3_3  and  C4_4 
REMARK    3  A    between atoms: C4_4  and  C5_5 
REMARK    4  A    between atoms: C5_5  and  C6_6 
REMARK    5  A    between atoms: C6_6  and  C7_7 
REMARK    6  A    between atoms: C7_7  and  C8_8 
REMARK    7  A    between atoms: C8_8  and  C9_9 
REMARK    8  A    between atoms: C9_9  and  C10_10 
REMARK    9  A    between atoms: C9_9  and  C13_13 
REMARK   10  A    between atoms: C10_10  and  C11_11 
REMARK   11  A    between atoms: C28_31  and  O3_32 
REMARK   12  A    between atoms: O3_32  and  C29_33 
ROOT
HETATM    1  C13 UNL     1      12.198 -20.806   5.052  1.00  0.00     0.096 C 
HETATM    2  C14 UNL     1      12.456 -19.374   4.826  1.00  0.00     0.141 C 
HETATM    3  O1  UNL     1      12.693 -18.396   5.493  1.00  0.00    -0.297 OA
HETATM    4  C15 UNL     1      12.287 -19.686   3.351  1.00  0.00     0.072 C 
HETATM    5  C16 UNL     1      11.536 -18.647   2.647  1.00  0.00     0.003 C 
HETATM    6  C17 UNL     1      12.269 -17.299   2.663  1.00  0.00     0.008 C 
HETATM    7  C18 UNL     1      11.613 -16.433   1.627  1.00  0.00     0.026 C 
HETATM    8  C19 UNL     1      10.152 -16.261   1.925  1.00  0.00     0.095 C 
HETATM    9  N1  UNL     1       9.473 -15.515   0.913  1.00  0.00    -0.351 N 
HETATM   10  C20 UNL     1      10.101 -14.838  -0.191  1.00  0.00     0.153 C 
HETATM   11  C21 UNL     1       8.045 -15.436   1.007  1.00  0.00     0.219 C 
HETATM   12  O2  UNL     1       7.355 -14.894   0.122  1.00  0.00    -0.273 OA
HETATM   13  C22 UNL     1       7.428 -16.030   2.212  1.00  0.00     0.103 C 
HETATM   14  C23 UNL     1       8.047 -17.312   2.648  1.00  0.00     0.020 C 
HETATM   15  C24 UNL     1       9.429 -17.562   2.126  1.00  0.00    -0.019 C 
HETATM   16  C25 UNL     1       9.406 -18.288   0.800  1.00  0.00     0.018 C 
HETATM   17  C26 UNL     1      10.161 -18.378   3.193  1.00  0.00     0.003 C 
HETATM   18  C27 UNL     1       9.403 -19.587   3.560  1.00  0.00     0.039 C 
HETATM   19  C28 UNL     1      10.087 -20.856   3.789  1.00  0.00     0.142 C 
HETATM   20  C31 UNL     1      11.588 -20.935   3.743  1.00  0.00     0.008 C 
HETATM   21  C32 UNL     1      11.969 -22.058   2.804  1.00  0.00     0.020 C 
ENDROOT
BRANCH   1  22
HETATM   22  C9  UNL     1      13.306 -21.640   5.622  1.00  0.00    -0.068 C 
BRANCH  22  23
HETATM   23  C8  UNL     1      14.637 -21.392   5.087  1.00  0.00    -0.023 C 
BRANCH  23  24
HETATM   24  C7  UNL     1      15.334 -22.344   4.211  1.00  0.00     0.027 C 
BRANCH  24  25
HETATM   25  C6  UNL     1      15.302 -23.794   4.532  1.00  0.00     0.004 C 
BRANCH  25  26
HETATM   26  C5  UNL     1      14.477 -24.548   3.499  1.00  0.00     0.001 C 
BRANCH  26  27
HETATM   27  C4  UNL     1      13.177 -25.032   4.071  1.00  0.00     0.004 C 
BRANCH  27  28
HETATM   28  C3  UNL     1      12.271 -25.628   3.018  1.00  0.00     0.026 C 
BRANCH  28  29
HETATM   29  C2  UNL     1      12.963 -25.742   1.707  1.00  0.00    -0.037 C 
HETATM   30  C1  UNL     1      13.257 -26.928   1.171  1.00  0.00     0.007 C 
ENDBRANCH  28  29
ENDBRANCH  27  28
ENDBRANCH  26  27
ENDBRANCH  25  26
ENDBRANCH  24  25
ENDBRANCH  23  24
ENDBRANCH  22  23
BRANCH  22  31
HETATM   31  C10 UNL     1      13.057 -21.939   7.057  1.00  0.00     0.061 C 
BRANCH  31  32
HETATM   32  C11 UNL     1      14.116 -22.627   7.799  1.00  0.00    -0.033 C 
HETATM   33  C12 UNL     1      14.131 -23.983   7.802  1.00  0.00     0.007 C 
ENDBRANCH  31  32
ENDBRANCH  22  31
ENDBRANCH   1  22
BRANCH  19  34
HETATM   34  O3  UNL     1       9.451 -21.913   3.059  1.00  0.00    -0.315 OA
BRANCH  34  35
HETATM   35  C29 UNL     1       8.654 -22.877   3.599  1.00  0.00     0.255 C 
HETATM   36  C30 UNL     1       7.216 -22.662   3.950  1.00  0.00     0.126 C 
HETATM   37  O4  UNL     1       9.162 -24.005   3.810  1.00  0.00    -0.266 OA
ENDBRANCH  34  35
ENDBRANCH  19  34
TORSDOF 12
ENDMDL
