MODEL 1
REMARK VINA RESULT: -8.569615768      0.000      0.000
REMARK  11 active torsions:
REMARK  status: ('A' for Active; 'I' for Inactive)
REMARK    1  A    between atoms: C2_2  and  C3_3 
REMARK    2  A    between atoms: C3_3  and  C4_4 
REMARK    3  A    between atoms: C4_4  and  C5_5 
REMARK    4  A    between atoms: C5_5  and  C6_6 
REMARK    5  A    between atoms: C6_6  and  C7_7 
REMARK    6  A    between atoms: C7_7  and  C8_8 
REMARK    7  A    between atoms: C8_8  and  C9_9 
REMARK    8  A    between atoms: C16_18  and  C17_19 
REMARK    9  A    between atoms: C17_19  and  C18_20 
REMARK   10  A    between atoms: C24_27  and  C26_29 
REMARK   11  A    between atoms: C26_29  and  N1_30 
ROOT
HETATM    1  C8  UNL     1      13.505 -22.839   6.093  1.00  0.00    -0.036 C 
HETATM    2  C11 UNL     1      12.561 -23.697   5.341  1.00  0.00     0.039 C 
HETATM    3  C12 UNL     1      11.844 -22.959   4.246  1.00  0.00     0.007 C 
HETATM    4  C13 UNL     1      11.463 -21.712   4.434  1.00  0.00     0.055 C 
HETATM    5  O1  UNL     1      10.811 -21.175   3.318  1.00  0.00    -0.341 OA
HETATM    6  C14 UNL     1      10.453 -19.872   3.313  1.00  0.00     0.216 C 
HETATM    7  C15 UNL     1       9.554 -19.797   4.559  1.00  0.00     0.174 C 
HETATM    8  O2  UNL     1       8.534 -20.378   4.673  1.00  0.00    -0.294 OA
HETATM    9  C16 UNL     1      10.193 -18.886   5.554  1.00  0.00     0.094 C 
HETATM   10  C22 UNL     1      10.368 -17.641   4.700  1.00  0.00     0.105 C 
HETATM   11  C23 UNL     1       9.663 -17.728   3.358  1.00  0.00     0.141 C 
HETATM   12  O3  UNL     1       8.962 -16.847   2.921  1.00  0.00    -0.297 OA
HETATM   13  C24 UNL     1       9.808 -18.983   2.453  1.00  0.00     0.074 C 
HETATM   14  C25 UNL     1       8.373 -19.362   2.174  1.00  0.00     0.028 C 
HETATM   15  C30 UNL     1      11.493 -19.630   5.791  1.00  0.00     0.154 C 
HETATM   16  O4  UNL     1      12.436 -18.929   6.019  1.00  0.00    -0.296 OA
HETATM   17  C31 UNL     1      11.793 -21.116   5.786  1.00  0.00     0.114 C 
HETATM   18  C32 UNL     1      13.230 -21.343   6.012  1.00  0.00     0.028 C 
ENDROOT
BRANCH   1  19
HETATM   19  C7  UNL     1      14.904 -22.999   5.481  1.00  0.00     0.010 C 
BRANCH  19  20
HETATM   20  C6  UNL     1      15.199 -22.067   4.365  1.00  0.00     0.001 C 
BRANCH  20  21
HETATM   21  C5  UNL     1      15.616 -22.798   3.100  1.00  0.00     0.000 C 
BRANCH  21  22
HETATM   22  C4  UNL     1      15.641 -24.272   3.379  1.00  0.00     0.000 C 
BRANCH  22  23
HETATM   23  C3  UNL     1      15.264 -25.150   2.234  1.00  0.00    -0.000 C 
BRANCH  23  24
HETATM   24  C2  UNL     1      13.862 -24.785   1.708  1.00  0.00    -0.005 C 
HETATM   25  C1  UNL     1      12.904 -25.853   2.167  1.00  0.00     0.005 C 
ENDBRANCH  23  24
ENDBRANCH  22  23
ENDBRANCH  21  22
ENDBRANCH  20  21
ENDBRANCH  19  20
ENDBRANCH   1  19
BRANCH   1  26
HETATM   26  C9  UNL     1      13.644 -23.185   7.548  1.00  0.00     0.005 C 
HETATM   27  C10 UNL     1      14.360 -22.151   8.374  1.00  0.00     0.006 C 
ENDBRANCH   1  26
BRANCH   9  28
HETATM   28  C17 UNL     1       9.409 -18.712   6.791  1.00  0.00     0.053 C 
BRANCH  28  29
HETATM   29  C18 UNL     1       9.797 -17.456   7.467  1.00  0.00    -0.023 C 
HETATM   30  C19 UNL     1       9.420 -17.189   8.704  1.00  0.00    -0.091 C 
HETATM   31  C20 UNL     1       9.799 -15.932   9.401  1.00  0.00     0.042 C 
HETATM   32  C21 UNL     1       8.599 -18.186   9.437  1.00  0.00     0.042 C 
ENDBRANCH  28  29
ENDBRANCH   9  28
BRANCH  13  33
HETATM   33  C26 UNL     1      10.518 -18.418   1.270  1.00  0.00     0.256 C 
BRANCH  33  34
HETATM   34  N1  UNL     1      11.871 -18.602   1.038  1.00  0.00    -0.077 N 
HETATM   35  C27 UNL     1      12.120 -19.848   0.261  1.00  0.00     0.271 C 
HETATM   36  C28 UNL     1      12.320 -17.561   0.081  1.00  0.00     0.271 C 
HETATM   37  C29 UNL     1      12.818 -18.587   2.085  1.00  0.00     0.271 C 
ENDBRANCH  33  34
ENDBRANCH  13  33
TORSDOF 11
ENDMDL
MODEL 2
REMARK VINA RESULT: -8.556528472      1.127      1.860
REMARK  11 active torsions:
REMARK  status: ('A' for Active; 'I' for Inactive)
REMARK    1  A    between atoms: C2_2  and  C3_3 
REMARK    2  A    between atoms: C3_3  and  C4_4 
REMARK    3  A    between atoms: C4_4  and  C5_5 
REMARK    4  A    between atoms: C5_5  and  C6_6 
REMARK    5  A    between atoms: C6_6  and  C7_7 
REMARK    6  A    between atoms: C7_7  and  C8_8 
REMARK    7  A    between atoms: C8_8  and  C9_9 
REMARK    8  A    between atoms: C16_18  and  C17_19 
REMARK    9  A    between atoms: C17_19  and  C18_20 
REMARK   10  A    between atoms: C24_27  and  C26_29 
REMARK   11  A    between atoms: C26_29  and  N1_30 
ROOT
HETATM    1  C8  UNL     1      13.679 -22.332   6.091  1.00  0.00    -0.036 C 
HETATM    2  C11 UNL     1      12.759 -23.330   5.503  1.00  0.00     0.039 C 
HETATM    3  C12 UNL     1      11.868 -22.753   4.439  1.00  0.00     0.007 C 
HETATM    4  C13 UNL     1      11.383 -21.536   4.578  1.00  0.00     0.055 C 
HETATM    5  O1  UNL     1      10.576 -21.152   3.501  1.00  0.00    -0.341 OA
HETATM    6  C14 UNL     1      10.090 -19.893   3.442  1.00  0.00     0.216 C 
HETATM    7  C15 UNL     1       9.312 -19.803   4.766  1.00  0.00     0.174 C 
HETATM    8  O2  UNL     1       8.372 -20.466   5.026  1.00  0.00    -0.294 OA
HETATM    9  C16 UNL     1       9.949 -18.760   5.624  1.00  0.00     0.094 C 
HETATM   10  C22 UNL     1       9.914 -17.576   4.672  1.00  0.00     0.105 C 
HETATM   11  C23 UNL     1       9.096 -17.835   3.419  1.00  0.00     0.141 C 
HETATM   12  O3  UNL     1       8.270 -17.060   2.997  1.00  0.00    -0.297 OA
HETATM   13  C24 UNL     1       9.279 -19.139   2.594  1.00  0.00     0.074 C 
HETATM   14  C25 UNL     1       7.869 -19.671   2.492  1.00  0.00     0.028 C 
HETATM   15  C30 UNL     1      11.334 -19.358   5.776  1.00  0.00     0.154 C 
HETATM   16  O4  UNL     1      12.219 -18.557   5.856  1.00  0.00    -0.296 OA
HETATM   17  C31 UNL     1      11.780 -20.805   5.844  1.00  0.00     0.114 C 
HETATM   18  C32 UNL     1      13.248 -20.879   5.935  1.00  0.00     0.028 C 
ENDROOT
BRANCH   1  19
HETATM   19  C7  UNL     1      15.022 -22.408   5.350  1.00  0.00     0.010 C 
BRANCH  19  20
HETATM   20  C6  UNL     1      15.196 -23.622   4.515  1.00  0.00     0.001 C 
BRANCH  20  21
HETATM   21  C5  UNL     1      15.573 -23.284   3.082  1.00  0.00     0.000 C 
BRANCH  21  22
HETATM   22  C4  UNL     1      15.935 -21.830   3.007  1.00  0.00     0.000 C 
BRANCH  22  23
HETATM   23  C3  UNL     1      15.398 -21.094   1.826  1.00  0.00    -0.000 C 
BRANCH  23  24
HETATM   24  C2  UNL     1      13.879 -20.874   1.966  1.00  0.00    -0.005 C 
HETATM   25  C1  UNL     1      13.660 -19.480   2.493  1.00  0.00     0.005 C 
ENDBRANCH  23  24
ENDBRANCH  22  23
ENDBRANCH  21  22
ENDBRANCH  20  21
ENDBRANCH  19  20
ENDBRANCH   1  19
BRANCH   1  26
HETATM   26  C9  UNL     1      13.992 -22.546   7.544  1.00  0.00     0.005 C 
HETATM   27  C10 UNL     1      14.068 -23.989   7.964  1.00  0.00     0.006 C 
ENDBRANCH   1  26
BRANCH   9  28
HETATM   28  C17 UNL     1       9.273 -18.563   6.920  1.00  0.00     0.053 C 
BRANCH  28  29
HETATM   29  C18 UNL     1       9.747 -17.315   7.556  1.00  0.00    -0.023 C 
HETATM   30  C19 UNL     1       9.474 -17.031   8.816  1.00  0.00    -0.091 C 
HETATM   31  C20 UNL     1       9.939 -15.781   9.473  1.00  0.00     0.042 C 
HETATM   32  C21 UNL     1       8.684 -18.000   9.616  1.00  0.00     0.042 C 
ENDBRANCH  28  29
ENDBRANCH   9  28
BRANCH  13  33
HETATM   33  C26 UNL     1       9.811 -18.606   1.307  1.00  0.00     0.256 C 
BRANCH  33  34
HETATM   34  N1  UNL     1       9.965 -19.384   0.170  1.00  0.00    -0.077 N 
HETATM   35  C27 UNL     1       8.960 -19.023  -0.868  1.00  0.00     0.271 C 
HETATM   36  C28 UNL     1      11.231 -18.985  -0.491  1.00  0.00     0.271 C 
HETATM   37  C29 UNL     1       9.995 -20.793   0.227  1.00  0.00     0.271 C 
ENDBRANCH  33  34
ENDBRANCH  13  33
TORSDOF 11
ENDMDL
MODEL 3
REMARK VINA RESULT: -8.215935711      3.945      7.222
REMARK  11 active torsions:
REMARK  status: ('A' for Active; 'I' for Inactive)
REMARK    1  A    between atoms: C2_2  and  C3_3 
REMARK    2  A    between atoms: C3_3  and  C4_4 
REMARK    3  A    between atoms: C4_4  and  C5_5 
REMARK    4  A    between atoms: C5_5  and  C6_6 
REMARK    5  A    between atoms: C6_6  and  C7_7 
REMARK    6  A    between atoms: C7_7  and  C8_8 
REMARK    7  A    between atoms: C8_8  and  C9_9 
REMARK    8  A    between atoms: C16_18  and  C17_19 
REMARK    9  A    between atoms: C17_19  and  C18_20 
REMARK   10  A    between atoms: C24_27  and  C26_29 
REMARK   11  A    between atoms: C26_29  and  N1_30 
ROOT
HETATM    1  C8  UNL     1      14.378 -23.855   3.826  1.00  0.00    -0.036 C 
HETATM    2  C11 UNL     1      15.078 -24.765   2.892  1.00  0.00     0.039 C 
HETATM    3  C12 UNL     1      16.217 -24.102   2.171  1.00  0.00     0.007 C 
HETATM    4  C13 UNL     1      16.105 -22.849   1.777  1.00  0.00     0.055 C 
HETATM    5  O1  UNL     1      17.253 -22.386   1.123  1.00  0.00    -0.341 OA
HETATM    6  C14 UNL     1      17.336 -21.089   0.753  1.00  0.00     0.216 C 
HETATM    7  C15 UNL     1      16.099 -20.949  -0.150  1.00  0.00     0.174 C 
HETATM    8  O2  UNL     1      15.952 -21.531  -1.164  1.00  0.00    -0.294 OA
HETATM    9  C16 UNL     1      15.159 -19.974   0.478  1.00  0.00     0.094 C 
HETATM   10  C22 UNL     1      16.086 -18.780   0.643  1.00  0.00     0.105 C 
HETATM   11  C23 UNL     1      17.422 -18.954  -0.058  1.00  0.00     0.141 C 
HETATM   12  O3  UNL     1      17.912 -18.107  -0.766  1.00  0.00    -0.297 OA
HETATM   13  C24 UNL     1      18.250 -20.259   0.102  1.00  0.00     0.074 C 
HETATM   14  C25 UNL     1      18.508 -20.668  -1.329  1.00  0.00     0.028 C 
HETATM   15  C30 UNL     1      14.875 -20.689   1.784  1.00  0.00     0.154 C 
HETATM   16  O4  UNL     1      14.688 -19.967   2.719  1.00  0.00    -0.296 OA
HETATM   17  C31 UNL     1      14.791 -22.170   2.098  1.00  0.00     0.114 C 
HETATM   18  C32 UNL     1      14.548 -22.369   3.537  1.00  0.00     0.028 C 
ENDROOT
BRANCH   1  19
HETATM   19  C7  UNL     1      14.975 -24.038   5.228  1.00  0.00     0.010 C 
BRANCH  19  20
HETATM   20  C6  UNL     1      13.972 -24.202   6.309  1.00  0.00     0.001 C 
BRANCH  20  21
HETATM   21  C5  UNL     1      14.422 -23.564   7.613  1.00  0.00     0.000 C 
BRANCH  21  22
HETATM   22  C4  UNL     1      13.755 -22.227   7.752  1.00  0.00     0.000 C 
BRANCH  22  23
HETATM   23  C3  UNL     1      14.518 -21.067   7.207  1.00  0.00    -0.000 C 
BRANCH  23  24
HETATM   24  C2  UNL     1      13.619 -20.200   6.305  1.00  0.00    -0.005 C 
HETATM   25  C1  UNL     1      12.325 -20.943   6.092  1.00  0.00     0.005 C 
ENDBRANCH  23  24
ENDBRANCH  22  23
ENDBRANCH  21  22
ENDBRANCH  20  21
ENDBRANCH  19  20
ENDBRANCH   1  19
BRANCH   1  26
HETATM   26  C9  UNL     1      12.904 -24.112   3.964  1.00  0.00     0.005 C 
HETATM   27  C10 UNL     1      12.403 -25.317   3.217  1.00  0.00     0.006 C 
ENDBRANCH   1  26
BRANCH   9  28
HETATM   28  C17 UNL     1      13.936 -19.734  -0.312  1.00  0.00     0.053 C 
BRANCH  28  29
HETATM   29  C18 UNL     1      13.619 -18.289  -0.332  1.00  0.00    -0.023 C 
HETATM   30  C19 UNL     1      12.573 -17.800   0.307  1.00  0.00    -0.091 C 
HETATM   31  C20 UNL     1      12.237 -16.352   0.298  1.00  0.00     0.042 C 
HETATM   32  C21 UNL     1      11.704 -18.724   1.077  1.00  0.00     0.042 C 
ENDBRANCH  28  29
ENDBRANCH   9  28
BRANCH  13  33
HETATM   33  C26 UNL     1      19.463 -19.760   0.809  1.00  0.00     0.256 C 
BRANCH  33  34
HETATM   34  N1  UNL     1      20.525 -20.577   1.164  1.00  0.00    -0.077 N 
HETATM   35  C27 UNL     1      21.828 -19.906   0.907  1.00  0.00     0.271 C 
HETATM   36  C28 UNL     1      20.539 -20.697   2.642  1.00  0.00     0.271 C 
HETATM   37  C29 UNL     1      20.649 -21.895   0.676  1.00  0.00     0.271 C 
ENDBRANCH  33  34
ENDBRANCH  13  33
TORSDOF 11
ENDMDL
MODEL 4
REMARK VINA RESULT: -8.178299381      1.384      2.196
REMARK  11 active torsions:
REMARK  status: ('A' for Active; 'I' for Inactive)
REMARK    1  A    between atoms: C2_2  and  C3_3 
REMARK    2  A    between atoms: C3_3  and  C4_4 
REMARK    3  A    between atoms: C4_4  and  C5_5 
REMARK    4  A    between atoms: C5_5  and  C6_6 
REMARK    5  A    between atoms: C6_6  and  C7_7 
REMARK    6  A    between atoms: C7_7  and  C8_8 
REMARK    7  A    between atoms: C8_8  and  C9_9 
REMARK    8  A    between atoms: C16_18  and  C17_19 
REMARK    9  A    between atoms: C17_19  and  C18_20 
REMARK   10  A    between atoms: C24_27  and  C26_29 
REMARK   11  A    between atoms: C26_29  and  N1_30 
ROOT
HETATM    1  C8  UNL     1      13.478 -23.731   5.881  1.00  0.00    -0.036 C 
HETATM    2  C11 UNL     1      12.515 -24.657   5.245  1.00  0.00     0.039 C 
HETATM    3  C12 UNL     1      11.806 -24.049   4.068  1.00  0.00     0.007 C 
HETATM    4  C13 UNL     1      11.449 -22.782   4.099  1.00  0.00     0.055 C 
HETATM    5  O1  UNL     1      10.802 -22.376   2.926  1.00  0.00    -0.341 OA
HETATM    6  C14 UNL     1      10.469 -21.077   2.759  1.00  0.00     0.216 C 
HETATM    7  C15 UNL     1       9.577 -20.830   3.988  1.00  0.00     0.174 C 
HETATM    8  O2  UNL     1       8.548 -21.372   4.176  1.00  0.00    -0.294 OA
HETATM    9  C16 UNL     1      10.238 -19.814   4.859  1.00  0.00     0.094 C 
HETATM   10  C22 UNL     1      10.432 -18.689   3.855  1.00  0.00     0.105 C 
HETATM   11  C23 UNL     1       9.719 -18.929   2.537  1.00  0.00     0.141 C 
HETATM   12  O3  UNL     1       9.032 -18.097   1.995  1.00  0.00    -0.297 OA
HETATM   13  C24 UNL     1       9.837 -20.290   1.796  1.00  0.00     0.074 C 
HETATM   14  C25 UNL     1       8.393 -20.674   1.570  1.00  0.00     0.028 C 
HETATM   15  C30 UNL     1      11.525 -20.546   5.184  1.00  0.00     0.154 C 
HETATM   16  O4  UNL     1      12.482 -19.841   5.321  1.00  0.00    -0.296 OA
HETATM   17  C31 UNL     1      11.797 -22.027   5.365  1.00  0.00     0.114 C 
HETATM   18  C32 UNL     1      13.231 -22.252   5.614  1.00  0.00     0.028 C 
ENDROOT
BRANCH   1  19
HETATM   19  C7  UNL     1      14.871 -23.992   5.291  1.00  0.00     0.010 C 
BRANCH  19  20
HETATM   20  C6  UNL     1      15.348 -22.949   4.350  1.00  0.00     0.001 C 
BRANCH  20  21
HETATM   21  C5  UNL     1      15.611 -23.504   2.960  1.00  0.00     0.000 C 
BRANCH  21  22
HETATM   22  C4  UNL     1      15.241 -22.462   1.946  1.00  0.00     0.000 C 
BRANCH  22  23
HETATM   23  C3  UNL     1      15.137 -21.067   2.465  1.00  0.00    -0.000 C 
BRANCH  23  24
HETATM   24  C2  UNL     1      13.757 -20.466   2.133  1.00  0.00    -0.005 C 
HETATM   25  C1  UNL     1      13.883 -18.966   2.180  1.00  0.00     0.005 C 
ENDBRANCH  23  24
ENDBRANCH  22  23
ENDBRANCH  21  22
ENDBRANCH  20  21
ENDBRANCH  19  20
ENDBRANCH   1  19
BRANCH   1  26
HETATM   26  C9  UNL     1      13.618 -23.895   7.368  1.00  0.00     0.005 C 
HETATM   27  C10 UNL     1      14.187 -22.698   8.081  1.00  0.00     0.006 C 
ENDBRANCH   1  26
BRANCH   9  28
HETATM   28  C17 UNL     1       9.463 -19.472   6.067  1.00  0.00     0.053 C 
BRANCH  28  29
HETATM   29  C18 UNL     1       9.877 -18.148   6.579  1.00  0.00    -0.023 C 
HETATM   30  C19 UNL     1       9.484 -17.707   7.760  1.00  0.00    -0.091 C 
HETATM   31  C20 UNL     1       9.888 -16.380   8.292  1.00  0.00     0.042 C 
HETATM   32  C21 UNL     1       8.617 -18.573   8.598  1.00  0.00     0.042 C 
ENDBRANCH  28  29
ENDBRANCH   9  28
BRANCH  13  33
HETATM   33  C26 UNL     1      10.551 -19.892   0.550  1.00  0.00     0.256 C 
BRANCH  33  34
HETATM   34  N1  UNL     1      10.713 -20.739  -0.536  1.00  0.00    -0.077 N 
HETATM   35  C27 UNL     1       9.658 -20.506  -1.561  1.00  0.00     0.271 C 
HETATM   36  C28 UNL     1      11.934 -20.321  -1.267  1.00  0.00     0.271 C 
HETATM   37  C29 UNL     1      10.822 -22.137  -0.383  1.00  0.00     0.271 C 
ENDBRANCH  33  34
ENDBRANCH  13  33
TORSDOF 11
ENDMDL
MODEL 5
REMARK VINA RESULT: -8.000348148      1.550      2.878
REMARK  11 active torsions:
REMARK  status: ('A' for Active; 'I' for Inactive)
REMARK    1  A    between atoms: C2_2  and  C3_3 
REMARK    2  A    between atoms: C3_3  and  C4_4 
REMARK    3  A    between atoms: C4_4  and  C5_5 
REMARK    4  A    between atoms: C5_5  and  C6_6 
REMARK    5  A    between atoms: C6_6  and  C7_7 
REMARK    6  A    between atoms: C7_7  and  C8_8 
REMARK    7  A    between atoms: C8_8  and  C9_9 
REMARK    8  A    between atoms: C16_18  and  C17_19 
REMARK    9  A    between atoms: C17_19  and  C18_20 
REMARK   10  A    between atoms: C24_27  and  C26_29 
REMARK   11  A    between atoms: C26_29  and  N1_30 
ROOT
HETATM    1  C8  UNL     1      11.649 -22.968   3.657  1.00  0.00    -0.036 C 
HETATM    2  C11 UNL     1      10.503 -22.977   2.721  1.00  0.00     0.039 C 
HETATM    3  C12 UNL     1      10.198 -21.619   2.154  1.00  0.00     0.007 C 
HETATM    4  C13 UNL     1      10.310 -20.550   2.915  1.00  0.00     0.055 C 
HETATM    5  O1  UNL     1       9.990 -19.369   2.234  1.00  0.00    -0.341 OA
HETATM    6  C14 UNL     1      10.159 -18.176   2.846  1.00  0.00     0.216 C 
HETATM    7  C15 UNL     1       9.274 -18.344   4.093  1.00  0.00     0.174 C 
HETATM    8  O2  UNL     1       8.104 -18.490   4.057  1.00  0.00    -0.294 OA
HETATM    9  C16 UNL     1      10.143 -18.289   5.305  1.00  0.00     0.094 C 
HETATM   10  C22 UNL     1      10.838 -16.956   5.073  1.00  0.00     0.105 C 
HETATM   11  C23 UNL     1      10.246 -16.162   3.922  1.00  0.00     0.141 C 
HETATM   12  O3  UNL     1       9.967 -14.990   4.003  1.00  0.00    -0.297 OA
HETATM   13  C24 UNL     1       9.963 -16.827   2.547  1.00  0.00     0.074 C 
HETATM   14  C25 UNL     1       8.514 -16.479   2.299  1.00  0.00     0.028 C 
HETATM   15  C30 UNL     1      11.041 -19.480   5.037  1.00  0.00     0.154 C 
HETATM   16  O4  UNL     1      12.162 -19.363   5.438  1.00  0.00    -0.296 OA
HETATM   17  C31 UNL     1      10.750 -20.796   4.343  1.00  0.00     0.114 C 
HETATM   18  C32 UNL     1      11.972 -21.615   4.276  1.00  0.00     0.028 C 
ENDROOT
BRANCH   1  19
HETATM   19  C7  UNL     1      12.919 -23.340   2.879  1.00  0.00     0.010 C 
BRANCH  19  20
HETATM   20  C6  UNL     1      14.100 -22.498   3.188  1.00  0.00     0.001 C 
BRANCH  20  21
HETATM   21  C5  UNL     1      15.154 -23.253   3.980  1.00  0.00     0.000 C 
BRANCH  21  22
HETATM   22  C4  UNL     1      15.130 -22.771   5.400  1.00  0.00     0.000 C 
BRANCH  22  23
HETATM   23  C3  UNL     1      14.704 -23.778   6.415  1.00  0.00    -0.000 C 
BRANCH  23  24
HETATM   24  C2  UNL     1      13.868 -23.112   7.525  1.00  0.00    -0.005 C 
HETATM   25  C1  UNL     1      14.207 -21.644   7.541  1.00  0.00     0.005 C 
ENDBRANCH  23  24
ENDBRANCH  22  23
ENDBRANCH  21  22
ENDBRANCH  20  21
ENDBRANCH  19  20
ENDBRANCH   1  19
BRANCH   1  26
HETATM   26  C9  UNL     1      11.546 -23.957   4.784  1.00  0.00     0.005 C 
HETATM   27  C10 UNL     1      12.080 -25.327   4.468  1.00  0.00     0.006 C 
ENDBRANCH   1  26
BRANCH   9  28
HETATM   28  C17 UNL     1       9.402 -18.414   6.574  1.00  0.00     0.053 C 
BRANCH  28  29
HETATM   29  C18 UNL     1       9.761 -17.305   7.485  1.00  0.00    -0.023 C 
HETATM   30  C19 UNL     1       9.330 -17.266   8.732  1.00  0.00    -0.091 C 
HETATM   31  C20 UNL     1       9.678 -16.160   9.662  1.00  0.00     0.042 C 
HETATM   32  C21 UNL     1       8.478 -18.372   9.234  1.00  0.00     0.042 C 
ENDBRANCH  28  29
ENDBRANCH   9  28
BRANCH  13  33
HETATM   33  C26 UNL     1      10.913 -16.099   1.660  1.00  0.00     0.256 C 
BRANCH  33  34
HETATM   34  N1  UNL     1      10.929 -16.245   0.282  1.00  0.00    -0.077 N 
HETATM   35  C27 UNL     1      10.368 -15.043  -0.393  1.00  0.00     0.271 C 
HETATM   36  C28 UNL     1      12.342 -16.206  -0.169  1.00  0.00     0.271 C 
HETATM   37  C29 UNL     1      10.358 -17.366  -0.357  1.00  0.00     0.271 C 
ENDBRANCH  33  34
ENDBRANCH  13  33
TORSDOF 11
ENDMDL
