MODEL 1
REMARK VINA RESULT: -6.321362645      0.000      0.000
REMARK  4 active torsions:
REMARK  status: ('A' for Active; 'I' for Inactive)
REMARK    1  A    between atoms: C4_5  and  N2_6 
REMARK       I    between atoms: N2_6  and  C5_8 
REMARK    2  A    between atoms: C5_8  and  C6_10 
REMARK       I    between atoms: N3_14  and  C9_15 
REMARK    3  A    between atoms: C11_20  and  C12_21 
REMARK    4  A    between atoms: C12_21  and  N6_22 
REMARK       I    between atoms: N6_22  and  C13_24 
ROOT
HETATM    1  C1  UNL     1      13.103 -17.142 -15.271  1.00  0.00     0.221 C 
HETATM    2  N1  UNL     1      13.828 -17.777 -15.900  1.00  0.00    -0.464 NA
HETATM    3  C2  UNL     1      14.726 -18.530 -16.668  1.00  0.00     0.187 C 
HETATM    4  C3  UNL     1      14.140 -18.778 -18.035  1.00  0.00     0.068 C 
HETATM    5  C4  UNL     1      13.841 -20.229 -18.311  1.00  0.00     0.105 C 
HETATM    6  C8  UNL     1      15.084 -21.092 -18.159  1.00  0.00     0.151 C 
HETATM    7  N3  UNL     1      15.856 -20.606 -16.992  1.00  0.00    -0.344 N 
HETATM    8  C9  UNL     1      17.221 -20.887 -16.861  1.00  0.00     0.186 C 
HETATM    9  N4  UNL     1      17.676 -21.739 -15.828  1.00  0.00    -0.064 NA
HETATM   10  N5  UNL     1      18.062 -20.375 -17.683  1.00  0.00    -0.369 N 
ATOM     11  H5  UNL     1      17.730 -19.764 -18.429  1.00  0.00     0.161 HD
HETATM   12  C10 UNL     1      19.479 -20.654 -17.562  1.00  0.00     0.148 C 
HETATM   13  C11 UNL     1      15.070 -19.843 -16.049  1.00  0.00     0.140 C 
ENDROOT
BRANCH  13  14
HETATM   14  C12 UNL     1      15.651 -19.736 -14.679  1.00  0.00     0.151 C 
BRANCH  14  15
HETATM   15  N6  UNL     1      14.726 -19.913 -13.601  1.00  0.00    -0.359 N 
HETATM   16  C13 UNL     1      14.791 -21.097 -12.832  1.00  0.00     0.213 C 
HETATM   17  C14 UNL     1      13.848 -21.311 -11.710  1.00  0.00     0.117 C 
HETATM   18  O2  UNL     1      15.643 -21.981 -13.087  1.00  0.00    -0.274 OA
ATOM     19  H6  UNL     1      14.031 -19.197 -13.392  1.00  0.00     0.162 HD
ENDBRANCH  14  15
ENDBRANCH  13  14
BRANCH   5  20
HETATM   20  N2  UNL     1      13.405 -20.310 -19.686  1.00  0.00    -0.354 N 
HETATM   21  C5  UNL     1      12.146 -20.886 -19.976  1.00  0.00     0.232 C 
HETATM   22  O1  UNL     1      11.440 -21.313 -19.032  1.00  0.00    -0.272 OA
ATOM     23  H2  UNL     1      13.997 -19.955 -20.437  1.00  0.00     0.163 HD
BRANCH  21  24
HETATM   24  C6  UNL     1      11.617 -21.011 -21.358  1.00  0.00     0.145 C 
HETATM   25  C7  UNL     1      10.276 -21.699 -21.363  1.00  0.00     0.032 C 
HETATM   26 BR1  UNL     1      12.845 -22.048 -22.422  1.00  0.00    -0.082 Br
ENDBRANCH  21  24
ENDBRANCH   5  20
TORSDOF 4
ENDMDL
MODEL 2
REMARK VINA RESULT: -6.237590909      2.088      4.240
REMARK  4 active torsions:
REMARK  status: ('A' for Active; 'I' for Inactive)
REMARK    1  A    between atoms: C4_5  and  N2_6 
REMARK       I    between atoms: N2_6  and  C5_8 
REMARK    2  A    between atoms: C5_8  and  C6_10 
REMARK       I    between atoms: N3_14  and  C9_15 
REMARK    3  A    between atoms: C11_20  and  C12_21 
REMARK    4  A    between atoms: C12_21  and  N6_22 
REMARK       I    between atoms: N6_22  and  C13_24 
ROOT
HETATM    1  C1  UNL     1      16.672 -22.980 -17.189  1.00  0.00     0.221 C 
HETATM    2  N1  UNL     1      15.956 -22.108 -16.963  1.00  0.00    -0.464 NA
HETATM    3  C2  UNL     1      15.080 -21.055 -16.665  1.00  0.00     0.187 C 
HETATM    4  C3  UNL     1      13.805 -21.219 -17.453  1.00  0.00     0.068 C 
HETATM    5  C4  UNL     1      13.581 -20.131 -18.473  1.00  0.00     0.105 C 
HETATM    6  C8  UNL     1      13.571 -18.756 -17.826  1.00  0.00     0.151 C 
HETATM    7  N3  UNL     1      14.622 -18.718 -16.783  1.00  0.00    -0.344 N 
HETATM    8  C9  UNL     1      14.571 -17.783 -15.741  1.00  0.00     0.186 C 
HETATM    9  N4  UNL     1      15.539 -16.756 -15.659  1.00  0.00    -0.064 NA
HETATM   10  N5  UNL     1      13.641 -17.856 -14.860  1.00  0.00    -0.369 N 
ATOM     11  H5  UNL     1      12.942 -18.596 -14.925  1.00  0.00     0.161 HD
HETATM   12  C10 UNL     1      13.573 -16.899 -13.775  1.00  0.00     0.148 C 
HETATM   13  C11 UNL     1      15.656 -19.712 -16.959  1.00  0.00     0.140 C 
ENDROOT
BRANCH  13  14
HETATM   14  C12 UNL     1      16.936 -19.428 -16.245  1.00  0.00     0.151 C 
BRANCH  14  15
HETATM   15  N6  UNL     1      18.126 -19.608 -17.020  1.00  0.00    -0.359 N 
HETATM   16  C13 UNL     1      19.131 -20.477 -16.537  1.00  0.00     0.213 C 
HETATM   17  C14 UNL     1      20.374 -20.685 -17.315  1.00  0.00     0.117 C 
HETATM   18  O2  UNL     1      18.987 -21.081 -15.448  1.00  0.00    -0.274 OA
ATOM     19  H6  UNL     1      18.246 -19.117 -17.905  1.00  0.00     0.162 HD
ENDBRANCH  14  15
ENDBRANCH  13  14
BRANCH   5  20
HETATM   20  N2  UNL     1      12.277 -20.365 -19.049  1.00  0.00    -0.354 N 
HETATM   21  C5  UNL     1      12.183 -21.045 -20.287  1.00  0.00     0.232 C 
HETATM   22  O1  UNL     1      13.235 -21.428 -20.852  1.00  0.00    -0.272 OA
ATOM     23  H2  UNL     1      11.436 -20.044 -18.570  1.00  0.00     0.163 HD
BRANCH  21  24
HETATM   24  C6  UNL     1      10.886 -21.329 -20.953  1.00  0.00     0.145 C 
HETATM   25  C7  UNL     1       9.898 -21.920 -19.981  1.00  0.00     0.032 C 
HETATM   26 BR1  UNL     1      11.166 -22.585 -22.388  1.00  0.00    -0.082 Br
ENDBRANCH  21  24
ENDBRANCH   5  20
TORSDOF 4
ENDMDL
MODEL 3
REMARK VINA RESULT: -6.025423088      1.118      1.211
REMARK  4 active torsions:
REMARK  status: ('A' for Active; 'I' for Inactive)
REMARK    1  A    between atoms: C4_5  and  N2_6 
REMARK       I    between atoms: N2_6  and  C5_8 
REMARK    2  A    between atoms: C5_8  and  C6_10 
REMARK       I    between atoms: N3_14  and  C9_15 
REMARK    3  A    between atoms: C11_20  and  C12_21 
REMARK    4  A    between atoms: C12_21  and  N6_22 
REMARK       I    between atoms: N6_22  and  C13_24 
ROOT
HETATM    1  C1  UNL     1      13.365 -17.481 -16.238  1.00  0.00     0.221 C 
HETATM    2  N1  UNL     1      14.132 -18.189 -16.723  1.00  0.00    -0.464 NA
HETATM    3  C2  UNL     1      15.081 -19.030 -17.320  1.00  0.00     0.187 C 
HETATM    4  C3  UNL     1      14.515 -19.609 -18.592  1.00  0.00     0.068 C 
HETATM    5  C4  UNL     1      14.316 -21.102 -18.540  1.00  0.00     0.105 C 
HETATM    6  C8  UNL     1      15.614 -21.826 -18.221  1.00  0.00     0.151 C 
HETATM    7  N3  UNL     1      16.350 -21.046 -17.199  1.00  0.00    -0.344 N 
HETATM    8  C9  UNL     1      17.731 -21.201 -17.028  1.00  0.00     0.186 C 
HETATM    9  N4  UNL     1      18.241 -21.774 -15.841  1.00  0.00    -0.064 NA
HETATM   10  N5  UNL     1      18.536 -20.825 -17.953  1.00  0.00    -0.369 N 
ATOM     11  H5  UNL     1      18.164 -20.416 -18.810  1.00  0.00     0.161 HD
HETATM   12  C10 UNL     1      19.968 -20.977 -17.794  1.00  0.00     0.148 C 
HETATM   13  C11 UNL     1      15.513 -20.150 -16.435  1.00  0.00     0.140 C 
ENDROOT
BRANCH  13  14
HETATM   14  C12 UNL     1      16.084 -19.707 -15.129  1.00  0.00     0.151 C 
BRANCH  14  15
HETATM   15  N6  UNL     1      15.164 -19.680 -14.032  1.00  0.00    -0.359 N 
HETATM   16  C13 UNL     1      15.081 -20.806 -13.181  1.00  0.00     0.213 C 
HETATM   17  C14 UNL     1      14.140 -20.809 -12.037  1.00  0.00     0.117 C 
HETATM   18  O2  UNL     1      15.798 -21.814 -13.382  1.00  0.00    -0.274 OA
ATOM     19  H6  UNL     1      14.579 -18.861 -13.867  1.00  0.00     0.162 HD
ENDBRANCH  14  15
ENDBRANCH  13  14
BRANCH   5  20
HETATM   20  N2  UNL     1      13.888 -21.510 -19.858  1.00  0.00    -0.354 N 
HETATM   21  C5  UNL     1      12.645 -22.170 -20.005  1.00  0.00     0.232 C 
HETATM   22  O1  UNL     1      11.946 -22.384 -18.987  1.00  0.00    -0.272 OA
ATOM     23  H2  UNL     1      14.475 -21.325 -20.672  1.00  0.00     0.163 HD
BRANCH  21  24
HETATM   24  C6  UNL     1      12.125 -22.625 -21.321  1.00  0.00     0.145 C 
HETATM   25  C7  UNL     1      13.105 -22.318 -22.424  1.00  0.00     0.032 C 
HETATM   26 BR1  UNL     1      10.468 -21.719 -21.701  1.00  0.00    -0.082 Br
ENDBRANCH  21  24
ENDBRANCH   5  20
TORSDOF 4
ENDMDL
MODEL 4
REMARK VINA RESULT: -6.007357199      3.333      6.744
REMARK  4 active torsions:
REMARK  status: ('A' for Active; 'I' for Inactive)
REMARK    1  A    between atoms: C4_5  and  N2_6 
REMARK       I    between atoms: N2_6  and  C5_8 
REMARK    2  A    between atoms: C5_8  and  C6_10 
REMARK       I    between atoms: N3_14  and  C9_15 
REMARK    3  A    between atoms: C11_20  and  C12_21 
REMARK    4  A    between atoms: C12_21  and  N6_22 
REMARK       I    between atoms: N6_22  and  C13_24 
ROOT
HETATM    1  C1  UNL     1      17.216 -21.052 -18.536  1.00  0.00     0.221 C 
HETATM    2  N1  UNL     1      16.795 -20.629 -17.552  1.00  0.00    -0.464 NA
HETATM    3  C2  UNL     1      16.300 -20.096 -16.354  1.00  0.00     0.187 C 
HETATM    4  C3  UNL     1      16.647 -21.014 -15.209  1.00  0.00     0.068 C 
HETATM    5  C4  UNL     1      15.446 -21.649 -14.557  1.00  0.00     0.105 C 
HETATM    6  C8  UNL     1      14.468 -20.601 -14.051  1.00  0.00     0.151 C 
HETATM    7  N3  UNL     1      14.396 -19.504 -15.044  1.00  0.00    -0.344 N 
HETATM    8  C9  UNL     1      13.948 -18.228 -14.681  1.00  0.00     0.186 C 
HETATM    9  N4  UNL     1      12.728 -17.731 -15.192  1.00  0.00    -0.064 NA
HETATM   10  N5  UNL     1      14.644 -17.511 -13.877  1.00  0.00    -0.369 N 
ATOM     11  H5  UNL     1      15.521 -17.875 -13.507  1.00  0.00     0.161 HD
HETATM   12  C10 UNL     1      14.196 -16.188 -13.489  1.00  0.00     0.148 C 
HETATM   13  C11 UNL     1      14.823 -19.889 -16.370  1.00  0.00     0.140 C 
ENDROOT
BRANCH  13  14
HETATM   14  C12 UNL     1      14.345 -19.003 -17.472  1.00  0.00     0.151 C 
BRANCH  14  15
HETATM   15  N6  UNL     1      13.028 -19.281 -17.959  1.00  0.00    -0.359 N 
HETATM   16  C13 UNL     1      12.882 -20.072 -19.121  1.00  0.00     0.213 C 
HETATM   17  C14 UNL     1      11.532 -20.378 -19.650  1.00  0.00     0.117 C 
HETATM   18  O2  UNL     1      13.886 -20.522 -19.720  1.00  0.00    -0.274 OA
ATOM     19  H6  UNL     1      12.209 -18.915 -17.475  1.00  0.00     0.162 HD
ENDBRANCH  14  15
ENDBRANCH  13  14
BRANCH   5  20
HETATM   20  N2  UNL     1      15.935 -22.392 -13.419  1.00  0.00    -0.354 N 
HETATM   21  C5  UNL     1      15.323 -23.623 -13.086  1.00  0.00     0.232 C 
HETATM   22  O1  UNL     1      14.370 -24.038 -13.787  1.00  0.00    -0.272 OA
ATOM     23  H2  UNL     1      16.712 -22.034 -12.864  1.00  0.00     0.163 HD
BRANCH  21  24
HETATM   24  C6  UNL     1      15.759 -24.454 -11.934  1.00  0.00     0.145 C 
HETATM   25  C7  UNL     1      15.459 -25.911 -12.175  1.00  0.00     0.032 C 
HETATM   26 BR1  UNL     1      14.823 -23.888 -10.347  1.00  0.00    -0.082 Br
ENDBRANCH  21  24
ENDBRANCH   5  20
TORSDOF 4
ENDMDL
MODEL 5
REMARK VINA RESULT: -5.931335245      2.491      3.806
REMARK  4 active torsions:
REMARK  status: ('A' for Active; 'I' for Inactive)
REMARK    1  A    between atoms: C4_5  and  N2_6 
REMARK       I    between atoms: N2_6  and  C5_8 
REMARK    2  A    between atoms: C5_8  and  C6_10 
REMARK       I    between atoms: N3_14  and  C9_15 
REMARK    3  A    between atoms: C11_20  and  C12_21 
REMARK    4  A    between atoms: C12_21  and  N6_22 
REMARK       I    between atoms: N6_22  and  C13_24 
ROOT
HETATM    1  C1  UNL     1      13.434 -25.661 -15.734  1.00  0.00     0.221 C 
HETATM    2  N1  UNL     1      13.349 -24.525 -15.893  1.00  0.00    -0.464 NA
HETATM    3  C2  UNL     1      13.226 -23.139 -16.071  1.00  0.00     0.187 C 
HETATM    4  C3  UNL     1      12.600 -22.854 -17.413  1.00  0.00     0.068 C 
HETATM    5  C4  UNL     1      13.523 -22.146 -18.371  1.00  0.00     0.105 C 
HETATM    6  C8  UNL     1      14.030 -20.836 -17.791  1.00  0.00     0.151 C 
HETATM    7  N3  UNL     1      14.317 -21.038 -16.352  1.00  0.00    -0.344 N 
HETATM    8  C9  UNL     1      14.367 -19.954 -15.467  1.00  0.00     0.186 C 
HETATM    9  N4  UNL     1      15.592 -19.582 -14.866  1.00  0.00    -0.064 NA
HETATM   10  N5  UNL     1      13.300 -19.292 -15.204  1.00  0.00    -0.369 N 
ATOM     11  H5  UNL     1      12.420 -19.560 -15.643  1.00  0.00     0.161 HD
HETATM   12  C10 UNL     1      13.333 -18.168 -14.290  1.00  0.00     0.148 C 
HETATM   13  C11 UNL     1      14.529 -22.420 -15.987  1.00  0.00     0.140 C 
ENDROOT
BRANCH  13  14
HETATM   14  C12 UNL     1      15.260 -22.631 -14.703  1.00  0.00     0.151 C 
BRANCH  14  15
HETATM   15  N6  UNL     1      14.452 -23.043 -13.595  1.00  0.00    -0.359 N 
HETATM   16  C13 UNL     1      14.529 -22.315 -12.386  1.00  0.00     0.213 C 
HETATM   17  C14 UNL     1      13.705 -22.715 -11.220  1.00  0.00     0.117 C 
HETATM   18  O2  UNL     1      15.292 -21.326 -12.281  1.00  0.00    -0.274 OA
ATOM     19  H6  UNL     1      13.832 -23.848 -13.677  1.00  0.00     0.162 HD
ENDBRANCH  14  15
ENDBRANCH  13  14
BRANCH   5  20
HETATM   20  N2  UNL     1      12.744 -21.843 -19.550  1.00  0.00    -0.354 N 
HETATM   21  C5  UNL     1      13.315 -22.058 -20.827  1.00  0.00     0.232 C 
HETATM   22  O1  UNL     1      14.483 -22.506 -20.903  1.00  0.00    -0.272 OA
ATOM     23  H2  UNL     1      11.795 -21.479 -19.462  1.00  0.00     0.163 HD
BRANCH  21  24
HETATM   24  C6  UNL     1      12.589 -21.774 -22.091  1.00  0.00     0.145 C 
HETATM   25  C7  UNL     1      11.355 -20.948 -21.832  1.00  0.00     0.032 C 
HETATM   26 BR1  UNL     1      12.056 -23.436 -22.909  1.00  0.00    -0.082 Br
ENDBRANCH  21  24
ENDBRANCH   5  20
TORSDOF 4
ENDMDL
