MODEL 1
REMARK VINA RESULT: -8.016791236      0.000      0.000
REMARK  7 active torsions:
REMARK  status: ('A' for Active; 'I' for Inactive)
REMARK    1  A    between atoms: C2_2  and  C16_25 
REMARK    2  A    between atoms: N1_3  and  N2_5 
REMARK    3  A    between atoms: C3_7  and  N3_8 
REMARK    4  A    between atoms: C3_7  and  C8_14 
REMARK    5  A    between atoms: N3_8  and  C4_10 
REMARK    6  A    between atoms: C8_14  and  C9_16 
REMARK       I    between atoms: C9_16  and  N4_18 
REMARK    7  A    between atoms: C16_25  and  C17_27 
ROOT
HETATM    1  N2  UNL     1      13.585 -21.877 -15.540  1.00  0.00    -0.282 N 
ATOM      2  H2  UNL     1      13.448 -22.603 -14.836  1.00  0.00     0.188 HD
HETATM    3  C3  UNL     1      13.960 -22.266 -16.710  1.00  0.00     0.173 C 
ENDROOT
BRANCH   3   4
HETATM    4  N3  UNL     1      14.182 -23.611 -17.048  1.00  0.00    -0.364 N 
ATOM      5  H3  UNL     1      15.129 -23.855 -17.340  1.00  0.00     0.162 HD
BRANCH   4   6
HETATM    6  C4  UNL     1      13.236 -24.670 -17.030  1.00  0.00     0.021 C 
HETATM    7  C5  UNL     1      13.580 -25.664 -18.144  1.00  0.00     0.037 C 
HETATM    8  C6  UNL     1      13.322 -25.493 -15.733  1.00  0.00     0.037 C 
HETATM    9  C7  UNL     1      11.802 -24.294 -17.191  1.00  0.00     0.037 C 
ENDBRANCH   4   6
ENDBRANCH   3   4
BRANCH   3  10
HETATM   10  C8  UNL     1      14.165 -21.242 -17.734  1.00  0.00     0.283 C 
HETATM   11  O1  UNL     1      15.346 -20.779 -17.941  1.00  0.00    -0.278 OA
BRANCH  10  12
HETATM   12  C9  UNL     1      13.094 -20.709 -18.550  1.00  0.00     0.298 C 
HETATM   13  O2  UNL     1      12.535 -19.614 -18.201  1.00  0.00    -0.264 OA
HETATM   14  N4  UNL     1      12.598 -21.290 -19.713  1.00  0.00    -0.336 N 
HETATM   15  C10 UNL     1      12.905 -22.484 -20.471  1.00  0.00     0.088 C 
HETATM   16  C13 UNL     1      11.497 -20.776 -20.578  1.00  0.00     0.088 C 
HETATM   17  C11 UNL     1      11.549 -23.166 -20.484  1.00  0.00     0.027 C 
HETATM   18  C15 UNL     1      13.114 -21.882 -21.852  1.00  0.00     0.027 C 
HETATM   19  C12 UNL     1      10.614 -21.979 -20.616  1.00  0.00     0.027 C 
HETATM   20  C14 UNL     1      12.228 -20.651 -21.874  1.00  0.00     0.027 C 
ENDBRANCH  10  12
ENDBRANCH   3  10
BRANCH   1  21
HETATM   21  N1  UNL     1      13.350 -20.568 -15.146  1.00  0.00    -0.305 N 
HETATM   22  C2  UNL     1      13.982 -20.035 -14.120  1.00  0.00     0.034 C 
HETATM   23  C1  UNL     1      14.970 -20.839 -13.360  1.00  0.00     0.068 C 
ATOM     24  H1  UNL     1      12.673 -20.006 -15.661  1.00  0.00     0.186 HD
BRANCH  22  25
HETATM   25  C16 UNL     1      13.707 -18.656 -13.737  1.00  0.00     0.224 C 
HETATM   26  F1  UNL     1      14.205 -18.427 -12.442  1.00  0.00    -0.242 F 
BRANCH  25  27
HETATM   27  C17 UNL     1      14.197 -17.571 -14.613  1.00  0.00    -0.015 C 
HETATM   28  C18 UNL     1      14.320 -16.284 -13.758  1.00  0.00     0.018 C 
HETATM   29  C19 UNL     1      13.245 -17.178 -15.719  1.00  0.00     0.018 C 
HETATM   30  C20 UNL     1      15.542 -17.808 -15.226  1.00  0.00     0.018 C 
ENDBRANCH  25  27
ENDBRANCH  22  25
ENDBRANCH   1  21
TORSDOF 7
ENDMDL
MODEL 2
REMARK VINA RESULT: -7.950768591      2.206      3.868
REMARK  7 active torsions:
REMARK  status: ('A' for Active; 'I' for Inactive)
REMARK    1  A    between atoms: C2_2  and  C16_25 
REMARK    2  A    between atoms: N1_3  and  N2_5 
REMARK    3  A    between atoms: C3_7  and  N3_8 
REMARK    4  A    between atoms: C3_7  and  C8_14 
REMARK    5  A    between atoms: N3_8  and  C4_10 
REMARK    6  A    between atoms: C8_14  and  C9_16 
REMARK       I    between atoms: C9_16  and  N4_18 
REMARK    7  A    between atoms: C16_25  and  C17_27 
ROOT
HETATM    1  N2  UNL     1      15.580 -19.535 -18.377  1.00  0.00    -0.282 N 
ATOM      2  H2  UNL     1      16.465 -19.386 -18.862  1.00  0.00     0.188 HD
HETATM    3  C3  UNL     1      14.896 -20.572 -18.719  1.00  0.00     0.173 C 
ENDROOT
BRANCH   3   4
HETATM    4  N3  UNL     1      15.307 -21.483 -19.706  1.00  0.00    -0.364 N 
ATOM      5  H3  UNL     1      14.758 -21.499 -20.565  1.00  0.00     0.162 HD
BRANCH   4   6
HETATM    6  C4  UNL     1      16.401 -22.386 -19.641  1.00  0.00     0.021 C 
HETATM    7  C5  UNL     1      16.205 -23.482 -20.693  1.00  0.00     0.037 C 
HETATM    8  C6  UNL     1      17.727 -21.707 -20.026  1.00  0.00     0.037 C 
HETATM    9  C7  UNL     1      16.643 -23.059 -18.332  1.00  0.00     0.037 C 
ENDBRANCH   4   6
ENDBRANCH   3   4
BRANCH   3  10
HETATM   10  C8  UNL     1      13.623 -20.804 -18.037  1.00  0.00     0.283 C 
HETATM   11  O1  UNL     1      12.644 -19.992 -18.229  1.00  0.00    -0.278 OA
BRANCH  10  12
HETATM   12  C9  UNL     1      13.392 -21.917 -17.140  1.00  0.00     0.298 C 
HETATM   13  O2  UNL     1      13.623 -21.766 -15.893  1.00  0.00    -0.264 OA
HETATM   14  N4  UNL     1      12.929 -23.174 -17.516  1.00  0.00    -0.336 N 
HETATM   15  C10 UNL     1      12.544 -23.790 -18.768  1.00  0.00     0.088 C 
HETATM   16  C13 UNL     1      12.682 -24.345 -16.627  1.00  0.00     0.088 C 
HETATM   17  C11 UNL     1      13.475 -24.988 -18.791  1.00  0.00     0.027 C 
HETATM   18  C15 UNL     1      11.161 -24.307 -18.401  1.00  0.00     0.027 C 
HETATM   19  C12 UNL     1      13.503 -25.379 -17.325  1.00  0.00     0.027 C 
HETATM   20  C14 UNL     1      11.235 -24.581 -16.911  1.00  0.00     0.027 C 
ENDBRANCH  10  12
ENDBRANCH   3  10
BRANCH   1  21
HETATM   21  N1  UNL     1      15.228 -18.601 -17.413  1.00  0.00    -0.305 N 
HETATM   22  C2  UNL     1      15.929 -18.459 -16.306  1.00  0.00     0.034 C 
HETATM   23  C1  UNL     1      17.122 -19.307 -16.071  1.00  0.00     0.068 C 
ATOM     24  H1  UNL     1      14.410 -18.012 -17.564  1.00  0.00     0.186 HD
BRANCH  22  25
HETATM   25  C16 UNL     1      15.527 -17.466 -15.317  1.00  0.00     0.224 C 
HETATM   26  F1  UNL     1      15.577 -16.187 -15.900  1.00  0.00    -0.242 F 
BRANCH  25  27
HETATM   27  C17 UNL     1      14.211 -17.617 -14.662  1.00  0.00    -0.015 C 
HETATM   28  C18 UNL     1      14.109 -16.553 -13.541  1.00  0.00     0.018 C 
HETATM   29  C19 UNL     1      14.019 -18.927 -13.934  1.00  0.00     0.018 C 
HETATM   30  C20 UNL     1      13.029 -17.412 -15.558  1.00  0.00     0.018 C 
ENDBRANCH  25  27
ENDBRANCH  22  25
ENDBRANCH   1  21
TORSDOF 7
ENDMDL
MODEL 3
REMARK VINA RESULT: -7.724625366      2.257      3.504
REMARK  7 active torsions:
REMARK  status: ('A' for Active; 'I' for Inactive)
REMARK    1  A    between atoms: C2_2  and  C16_25 
REMARK    2  A    between atoms: N1_3  and  N2_5 
REMARK    3  A    between atoms: C3_7  and  N3_8 
REMARK    4  A    between atoms: C3_7  and  C8_14 
REMARK    5  A    between atoms: N3_8  and  C4_10 
REMARK    6  A    between atoms: C8_14  and  C9_16 
REMARK       I    between atoms: C9_16  and  N4_18 
REMARK    7  A    between atoms: C16_25  and  C17_27 
ROOT
HETATM    1  N2  UNL     1      15.670 -19.487 -18.232  1.00  0.00    -0.282 N 
ATOM      2  H2  UNL     1      16.509 -19.263 -18.769  1.00  0.00     0.188 HD
HETATM    3  C3  UNL     1      15.087 -20.603 -18.504  1.00  0.00     0.173 C 
ENDROOT
BRANCH   3   4
HETATM    4  N3  UNL     1      15.544 -21.502 -19.481  1.00  0.00    -0.364 N 
ATOM      5  H3  UNL     1      15.087 -21.454 -20.391  1.00  0.00     0.162 HD
BRANCH   4   6
HETATM    6  C4  UNL     1      16.572 -22.472 -19.343  1.00  0.00     0.021 C 
HETATM    7  C5  UNL     1      16.347 -23.585 -20.371  1.00  0.00     0.037 C 
HETATM    8  C6  UNL     1      17.955 -21.895 -19.690  1.00  0.00     0.037 C 
HETATM    9  C7  UNL     1      16.713 -23.118 -18.006  1.00  0.00     0.037 C 
ENDBRANCH   4   6
ENDBRANCH   3   4
BRANCH   3  10
HETATM   10  C8  UNL     1      13.881 -20.943 -17.748  1.00  0.00     0.283 C 
HETATM   11  O1  UNL     1      13.821 -20.669 -16.493  1.00  0.00    -0.278 OA
BRANCH  10  12
HETATM   12  C9  UNL     1      12.725 -21.582 -18.341  1.00  0.00     0.298 C 
HETATM   13  O2  UNL     1      11.863 -20.862 -18.951  1.00  0.00    -0.264 OA
HETATM   14  N4  UNL     1      12.453 -22.946 -18.311  1.00  0.00    -0.336 N 
HETATM   15  C10 UNL     1      13.114 -24.109 -17.760  1.00  0.00     0.088 C 
HETATM   16  C13 UNL     1      11.275 -23.642 -18.905  1.00  0.00     0.088 C 
HETATM   17  C11 UNL     1      12.015 -24.665 -16.872  1.00  0.00     0.027 C 
HETATM   18  C15 UNL     1      13.179 -24.995 -18.995  1.00  0.00     0.027 C 
HETATM   19  C12 UNL     1      10.780 -24.383 -17.707  1.00  0.00     0.027 C 
HETATM   20  C14 UNL     1      11.975 -24.589 -19.824  1.00  0.00     0.027 C 
ENDBRANCH  10  12
ENDBRANCH   3  10
BRANCH   1  21
HETATM   21  N1  UNL     1      15.268 -18.560 -17.282  1.00  0.00    -0.305 N 
HETATM   22  C2  UNL     1      15.993 -18.316 -16.209  1.00  0.00     0.034 C 
HETATM   23  C1  UNL     1      17.270 -19.040 -15.999  1.00  0.00     0.068 C 
ATOM     24  H1  UNL     1      14.392 -18.055 -17.416  1.00  0.00     0.186 HD
BRANCH  22  25
HETATM   25  C16 UNL     1      15.536 -17.334 -15.233  1.00  0.00     0.224 C 
HETATM   26  F1  UNL     1      15.548 -16.057 -15.822  1.00  0.00    -0.242 F 
BRANCH  25  27
HETATM   27  C17 UNL     1      14.214 -17.531 -14.602  1.00  0.00    -0.015 C 
HETATM   28  C18 UNL     1      14.037 -16.445 -13.512  1.00  0.00     0.018 C 
HETATM   29  C19 UNL     1      14.070 -18.830 -13.842  1.00  0.00     0.018 C 
HETATM   30  C20 UNL     1      13.044 -17.407 -15.526  1.00  0.00     0.018 C 
ENDBRANCH  25  27
ENDBRANCH  22  25
ENDBRANCH   1  21
TORSDOF 7
ENDMDL
MODEL 4
REMARK VINA RESULT: -7.631808742      0.967      1.607
REMARK  7 active torsions:
REMARK  status: ('A' for Active; 'I' for Inactive)
REMARK    1  A    between atoms: C2_2  and  C16_25 
REMARK    2  A    between atoms: N1_3  and  N2_5 
REMARK    3  A    between atoms: C3_7  and  N3_8 
REMARK    4  A    between atoms: C3_7  and  C8_14 
REMARK    5  A    between atoms: N3_8  and  C4_10 
REMARK    6  A    between atoms: C8_14  and  C9_16 
REMARK       I    between atoms: C9_16  and  N4_18 
REMARK    7  A    between atoms: C16_25  and  C17_27 
ROOT
HETATM    1  N2  UNL     1      13.742 -22.107 -15.366  1.00  0.00    -0.282 N 
ATOM      2  H2  UNL     1      13.428 -22.701 -14.598  1.00  0.00     0.188 HD
HETATM    3  C3  UNL     1      14.316 -22.695 -16.358  1.00  0.00     0.173 C 
ENDROOT
BRANCH   3   4
HETATM    4  N3  UNL     1      14.523 -24.083 -16.427  1.00  0.00    -0.364 N 
ATOM      5  H3  UNL     1      15.487 -24.402 -16.341  1.00  0.00     0.162 HD
BRANCH   4   6
HETATM    6  C4  UNL     1      13.538 -25.090 -16.603  1.00  0.00     0.021 C 
HETATM    7  C5  UNL     1      13.802 -25.819 -17.924  1.00  0.00     0.037 C 
HETATM    8  C6  UNL     1      13.640 -26.185 -15.526  1.00  0.00     0.037 C 
HETATM    9  C7  UNL     1      12.114 -24.647 -16.612  1.00  0.00     0.037 C 
ENDBRANCH   4   6
ENDBRANCH   3   4
BRANCH   3  10
HETATM   10  C8  UNL     1      14.777 -21.862 -17.469  1.00  0.00     0.283 C 
HETATM   11  O1  UNL     1      15.499 -20.826 -17.228  1.00  0.00    -0.278 OA
BRANCH  10  12
HETATM   12  C9  UNL     1      14.463 -22.141 -18.855  1.00  0.00     0.298 C 
HETATM   13  O2  UNL     1      15.384 -22.583 -19.623  1.00  0.00    -0.264 OA
HETATM   14  N4  UNL     1      13.218 -21.970 -19.451  1.00  0.00    -0.336 N 
HETATM   15  C10 UNL     1      11.921 -21.515 -18.998  1.00  0.00     0.088 C 
HETATM   16  C13 UNL     1      12.855 -22.242 -20.872  1.00  0.00     0.088 C 
HETATM   17  C11 UNL     1      11.670 -20.372 -19.964  1.00  0.00     0.027 C 
HETATM   18  C15 UNL     1      11.052 -22.679 -19.450  1.00  0.00     0.027 C 
HETATM   19  C12 UNL     1      12.266 -20.922 -21.247  1.00  0.00     0.027 C 
HETATM   20  C14 UNL     1      11.760 -23.238 -20.670  1.00  0.00     0.027 C 
ENDBRANCH  10  12
ENDBRANCH   3  10
BRANCH   1  21
HETATM   21  N1  UNL     1      13.510 -20.745 -15.240  1.00  0.00    -0.305 N 
HETATM   22  C2  UNL     1      13.954 -20.065 -14.203  1.00  0.00     0.034 C 
HETATM   23  C1  UNL     1      14.721 -20.755 -13.139  1.00  0.00     0.068 C 
ATOM     24  H1  UNL     1      12.984 -20.260 -15.967  1.00  0.00     0.186 HD
BRANCH  22  25
HETATM   25  C16 UNL     1      13.689 -18.634 -14.108  1.00  0.00     0.224 C 
HETATM   26  F1  UNL     1      13.923 -18.207 -12.789  1.00  0.00    -0.242 F 
BRANCH  25  27
HETATM   27  C17 UNL     1      14.414 -17.722 -15.017  1.00  0.00    -0.015 C 
HETATM   28  C18 UNL     1      14.531 -16.344 -14.320  1.00  0.00     0.018 C 
HETATM   29  C19 UNL     1      13.688 -17.412 -16.307  1.00  0.00     0.018 C 
HETATM   30  C20 UNL     1      15.807 -18.146 -15.365  1.00  0.00     0.018 C 
ENDBRANCH  25  27
ENDBRANCH  22  25
ENDBRANCH   1  21
TORSDOF 7
ENDMDL
MODEL 5
REMARK VINA RESULT: -7.617682477      2.254      2.879
REMARK  7 active torsions:
REMARK  status: ('A' for Active; 'I' for Inactive)
REMARK    1  A    between atoms: C2_2  and  C16_25 
REMARK    2  A    between atoms: N1_3  and  N2_5 
REMARK    3  A    between atoms: C3_7  and  N3_8 
REMARK    4  A    between atoms: C3_7  and  C8_14 
REMARK    5  A    between atoms: N3_8  and  C4_10 
REMARK    6  A    between atoms: C8_14  and  C9_16 
REMARK       I    between atoms: C9_16  and  N4_18 
REMARK    7  A    between atoms: C16_25  and  C17_27 
ROOT
HETATM    1  N2  UNL     1      16.070 -19.482 -18.034  1.00  0.00    -0.282 N 
ATOM      2  H2  UNL     1      17.029 -19.379 -18.368  1.00  0.00     0.188 HD
HETATM    3  C3  UNL     1      15.419 -20.515 -18.444  1.00  0.00     0.173 C 
ENDROOT
BRANCH   3   4
HETATM    4  N3  UNL     1      15.958 -21.482 -19.309  1.00  0.00    -0.364 N 
ATOM      5  H3  UNL     1      15.804 -21.333 -20.306  1.00  0.00     0.162 HD
BRANCH   4   6
HETATM    6  C4  UNL     1      16.693 -22.642 -18.951  1.00  0.00     0.021 C 
HETATM    7  C5  UNL     1      15.888 -23.884 -19.351  1.00  0.00     0.037 C 
HETATM    8  C6  UNL     1      18.006 -22.757 -19.744  1.00  0.00     0.037 C 
HETATM    9  C7  UNL     1      17.060 -22.790 -17.513  1.00  0.00     0.037 C 
ENDBRANCH   4   6
ENDBRANCH   3   4
BRANCH   3  10
HETATM   10  C8  UNL     1      14.042 -20.682 -17.977  1.00  0.00     0.283 C 
HETATM   11  O1  UNL     1      13.823 -21.171 -16.809  1.00  0.00    -0.278 OA
BRANCH  10  12
HETATM   12  C9  UNL     1      12.886 -20.320 -18.770  1.00  0.00     0.298 C 
HETATM   13  O2  UNL     1      12.245 -19.253 -18.481  1.00  0.00    -0.264 OA
HETATM   14  N4  UNL     1      12.388 -21.043 -19.849  1.00  0.00    -0.336 N 
HETATM   15  C10 UNL     1      12.767 -22.268 -20.522  1.00  0.00     0.088 C 
HETATM   16  C13 UNL     1      11.201 -20.708 -20.687  1.00  0.00     0.088 C 
HETATM   17  C11 UNL     1      11.483 -23.066 -20.398  1.00  0.00     0.027 C 
HETATM   18  C15 UNL     1      12.848 -21.774 -21.959  1.00  0.00     0.027 C 
HETATM   19  C12 UNL     1      10.434 -21.984 -20.574  1.00  0.00     0.027 C 
HETATM   20  C14 UNL     1      11.850 -20.634 -22.031  1.00  0.00     0.027 C 
ENDBRANCH  10  12
ENDBRANCH   3  10
BRANCH   1  21
HETATM   21  N1  UNL     1      15.595 -18.496 -17.181  1.00  0.00    -0.305 N 
HETATM   22  C2  UNL     1      16.055 -18.369 -15.953  1.00  0.00     0.034 C 
HETATM   23  C1  UNL     1      17.104 -19.291 -15.456  1.00  0.00     0.068 C 
ATOM     24  H1  UNL     1      14.873 -17.856 -17.512  1.00  0.00     0.186 HD
BRANCH  22  25
HETATM   25  C16 UNL     1      15.529 -17.319 -15.089  1.00  0.00     0.224 C 
HETATM   26  F1  UNL     1      15.565 -16.093 -15.775  1.00  0.00    -0.242 F 
BRANCH  25  27
HETATM   27  C17 UNL     1      14.173 -17.485 -14.524  1.00  0.00    -0.015 C 
HETATM   28  C18 UNL     1      13.965 -16.392 -13.447  1.00  0.00     0.018 C 
HETATM   29  C19 UNL     1      13.960 -18.778 -13.771  1.00  0.00     0.018 C 
HETATM   30  C20 UNL     1      13.053 -17.337 -15.507  1.00  0.00     0.018 C 
ENDBRANCH  25  27
ENDBRANCH  22  25
ENDBRANCH   1  21
TORSDOF 7
ENDMDL
