MODEL 1
REMARK VINA RESULT: -5.961432169      0.000      0.000
REMARK  7 active torsions:
REMARK  status: ('A' for Active; 'I' for Inactive)
REMARK    1  A    between atoms: N1_2  and  C2_4 
REMARK    2  A    between atoms: C2_4  and  N2_6 
REMARK       I    between atoms: N3_9  and  C5_10 
REMARK       I    between atoms: C5_10  and  N4_12 
REMARK    3  A    between atoms: N4_12  and  C6_14 
REMARK    4  A    between atoms: C6_14  and  N5_16 
REMARK    5  A    between atoms: N5_16  and  C10_19 
REMARK    6  A    between atoms: C10_19  and  C11_20 
REMARK    7  A    between atoms: C14_24  and  C15_25 
ROOT
HETATM    1  N2  UNL     1      14.524 -19.219 -15.751  1.00  0.00    -0.342 N 
HETATM    2  C3  UNL     1      13.728 -18.601 -16.779  1.00  0.00     0.146 C 
HETATM    3  C4  UNL     1      13.906 -19.219 -18.160  1.00  0.00     0.147 C 
HETATM    4  N3  UNL     1      14.050 -20.650 -18.075  1.00  0.00    -0.330 N 
HETATM    5  C5  UNL     1      13.264 -21.566 -18.790  1.00  0.00     0.320 C 
HETATM    6  O1  UNL     1      13.480 -22.795 -18.625  1.00  0.00    -0.247 OA
HETATM    7  N4  UNL     1      12.260 -21.181 -19.670  1.00  0.00    -0.315 N 
ATOM      8  H4  UNL     1      12.095 -20.183 -19.796  1.00  0.00     0.166 HD
HETATM    9  C13 UNL     1      15.109 -21.106 -17.168  1.00  0.00     0.162 C 
HETATM   10  C14 UNL     1      15.596 -20.090 -16.226  1.00  0.00     0.194 C 
ENDROOT
BRANCH   7  11
HETATM   11  C6  UNL     1      11.427 -22.106 -20.424  1.00  0.00     0.287 C 
HETATM   12  C7  UNL     1      10.013 -21.922 -19.925  1.00  0.00     0.064 C 
BRANCH  11  13
HETATM   13  N5  UNL     1      11.473 -21.867 -21.832  1.00  0.00    -0.051 N 
HETATM   14  C8  UNL     1      12.287 -20.681 -22.122  1.00  0.00     0.274 C 
HETATM   15  C9  UNL     1      10.135 -21.718 -22.383  1.00  0.00     0.274 C 
BRANCH  13  16
HETATM   16  C10 UNL     1      12.106 -22.968 -22.512  1.00  0.00     0.268 C 
BRANCH  16  17
HETATM   17  C11 UNL     1      13.519 -22.744 -22.849  1.00  0.00     0.030 C 
HETATM   18  C12 UNL     1      14.509 -23.531 -22.452  1.00  0.00     0.186 C 
HETATM   19  F1  UNL     1      15.806 -23.301 -22.777  1.00  0.00    -0.220 F 
ENDBRANCH  16  17
ENDBRANCH  13  16
ENDBRANCH  11  13
ENDBRANCH   7  11
BRANCH  10  20
HETATM   20  C15 UNL     1      16.748 -19.323 -16.772  1.00  0.00     0.255 C 
HETATM   21  N6  UNL     1      17.362 -19.734 -17.958  1.00  0.00    -0.060 NA
HETATM   22  O2  UNL     1      17.175 -18.307 -16.176  1.00  0.00    -0.275 OA
ENDBRANCH  10  20
BRANCH   1  23
HETATM   23  C2  UNL     1      14.379 -19.036 -14.373  1.00  0.00     0.170 C 
HETATM   24  S1  UNL     1      14.043 -20.407 -13.464  1.00  0.00    -0.041 SA
BRANCH  23  25
HETATM   25  N1  UNL     1      14.487 -17.826 -13.680  1.00  0.00    -0.371 N 
HETATM   26  C1  UNL     1      13.558 -16.766 -13.494  1.00  0.00     0.148 C 
ATOM     27  H1  UNL     1      15.391 -17.679 -13.230  1.00  0.00     0.161 HD
ENDBRANCH  23  25
ENDBRANCH   1  23
TORSDOF 7
ENDMDL
MODEL 2
REMARK VINA RESULT: -5.890620825      1.374      1.718
REMARK  7 active torsions:
REMARK  status: ('A' for Active; 'I' for Inactive)
REMARK    1  A    between atoms: N1_2  and  C2_4 
REMARK    2  A    between atoms: C2_4  and  N2_6 
REMARK       I    between atoms: N3_9  and  C5_10 
REMARK       I    between atoms: C5_10  and  N4_12 
REMARK    3  A    between atoms: N4_12  and  C6_14 
REMARK    4  A    between atoms: C6_14  and  N5_16 
REMARK    5  A    between atoms: N5_16  and  C10_19 
REMARK    6  A    between atoms: C10_19  and  C11_20 
REMARK    7  A    between atoms: C14_24  and  C15_25 
ROOT
HETATM    1  N2  UNL     1      14.380 -19.107 -15.477  1.00  0.00    -0.342 N 
HETATM    2  C3  UNL     1      13.576 -18.540 -16.528  1.00  0.00     0.146 C 
HETATM    3  C4  UNL     1      13.844 -19.132 -17.906  1.00  0.00     0.147 C 
HETATM    4  N3  UNL     1      14.088 -20.549 -17.825  1.00  0.00    -0.330 N 
HETATM    5  C5  UNL     1      13.394 -21.514 -18.571  1.00  0.00     0.320 C 
HETATM    6  O1  UNL     1      13.693 -22.725 -18.407  1.00  0.00    -0.247 OA
HETATM    7  N4  UNL     1      12.395 -21.195 -19.483  1.00  0.00    -0.315 N 
ATOM      8  H4  UNL     1      12.162 -20.210 -19.608  1.00  0.00     0.166 HD
HETATM    9  C13 UNL     1      15.146 -20.936 -16.885  1.00  0.00     0.162 C 
HETATM   10  C14 UNL     1      15.528 -19.895 -15.921  1.00  0.00     0.194 C 
ENDROOT
BRANCH   7  11
HETATM   11  C6  UNL     1      11.657 -22.171 -20.270  1.00  0.00     0.287 C 
HETATM   12  C7  UNL     1      10.191 -21.840 -20.108  1.00  0.00     0.064 C 
BRANCH  11  13
HETATM   13  N5  UNL     1      12.005 -22.139 -21.656  1.00  0.00    -0.051 N 
HETATM   14  C8  UNL     1      13.174 -22.988 -21.908  1.00  0.00     0.274 C 
HETATM   15  C9  UNL     1      12.253 -20.777 -22.103  1.00  0.00     0.274 C 
BRANCH  13  16
HETATM   16  C10 UNL     1      10.935 -22.675 -22.458  1.00  0.00     0.268 C 
BRANCH  16  17
HETATM   17  C11 UNL     1      11.347 -23.728 -23.397  1.00  0.00     0.030 C 
HETATM   18  C12 UNL     1      10.660 -24.067 -24.479  1.00  0.00     0.186 C 
HETATM   19  F1  UNL     1      11.062 -25.044 -25.329  1.00  0.00    -0.220 F 
ENDBRANCH  16  17
ENDBRANCH  13  16
ENDBRANCH  11  13
ENDBRANCH   7  11
BRANCH  10  20
HETATM   20  C15 UNL     1      16.638 -19.043 -16.423  1.00  0.00     0.255 C 
HETATM   21  N6  UNL     1      17.398 -19.459 -17.519  1.00  0.00    -0.060 NA
HETATM   22  O2  UNL     1      16.900 -17.949 -15.872  1.00  0.00    -0.275 OA
ENDBRANCH  10  20
BRANCH   1  23
HETATM   23  C2  UNL     1      14.176 -18.947 -14.104  1.00  0.00     0.170 C 
HETATM   24  S1  UNL     1      14.093 -20.352 -13.187  1.00  0.00    -0.041 SA
BRANCH  23  25
HETATM   25  N1  UNL     1      14.038 -17.735 -13.421  1.00  0.00    -0.371 N 
HETATM   26  C1  UNL     1      14.360 -16.402 -13.801  1.00  0.00     0.148 C 
ATOM     27  H1  UNL     1      13.636 -17.821 -12.487  1.00  0.00     0.161 HD
ENDBRANCH  23  25
ENDBRANCH   1  23
TORSDOF 7
ENDMDL
MODEL 3
REMARK VINA RESULT: -5.806400676      3.646      7.822
REMARK  7 active torsions:
REMARK  status: ('A' for Active; 'I' for Inactive)
REMARK    1  A    between atoms: N1_2  and  C2_4 
REMARK    2  A    between atoms: C2_4  and  N2_6 
REMARK       I    between atoms: N3_9  and  C5_10 
REMARK       I    between atoms: C5_10  and  N4_12 
REMARK    3  A    between atoms: N4_12  and  C6_14 
REMARK    4  A    between atoms: C6_14  and  N5_16 
REMARK    5  A    between atoms: N5_16  and  C10_19 
REMARK    6  A    between atoms: C10_19  and  C11_20 
REMARK    7  A    between atoms: C14_24  and  C15_25 
ROOT
HETATM    1  N2  UNL     1      12.197 -22.930 -20.622  1.00  0.00    -0.342 N 
HETATM    2  C3  UNL     1      11.783 -22.576 -19.290  1.00  0.00     0.146 C 
HETATM    3  C4  UNL     1      12.936 -22.273 -18.341  1.00  0.00     0.147 C 
HETATM    4  N3  UNL     1      13.994 -21.565 -19.014  1.00  0.00    -0.330 N 
HETATM    5  C5  UNL     1      14.537 -20.349 -18.573  1.00  0.00     0.320 C 
HETATM    6  O1  UNL     1      15.456 -19.823 -19.254  1.00  0.00    -0.247 OA
HETATM    7  N4  UNL     1      14.110 -19.701 -17.420  1.00  0.00    -0.315 N 
ATOM      8  H4  UNL     1      13.366 -20.138 -16.877  1.00  0.00     0.166 HD
HETATM    9  C13 UNL     1      14.489 -22.219 -20.231  1.00  0.00     0.162 C 
HETATM   10  C14 UNL     1      13.612 -23.265 -20.772  1.00  0.00     0.194 C 
ENDROOT
BRANCH   7  11
HETATM   11  C6  UNL     1      14.652 -18.440 -16.938  1.00  0.00     0.287 C 
HETATM   12  C7  UNL     1      13.542 -17.420 -17.048  1.00  0.00     0.064 C 
BRANCH  11  13
HETATM   13  N5  UNL     1      15.100 -18.514 -15.582  1.00  0.00    -0.051 N 
HETATM   14  C8  UNL     1      14.781 -17.271 -14.871  1.00  0.00     0.274 C 
HETATM   15  C9  UNL     1      16.526 -18.793 -15.515  1.00  0.00     0.274 C 
BRANCH  13  16
HETATM   16  C10 UNL     1      14.414 -19.569 -14.881  1.00  0.00     0.268 C 
BRANCH  16  17
HETATM   17  C11 UNL     1      14.152 -19.287 -13.463  1.00  0.00     0.030 C 
HETATM   18  C12 UNL     1      14.410 -20.136 -12.477  1.00  0.00     0.186 C 
HETATM   19  F1  UNL     1      14.158 -19.850 -11.176  1.00  0.00    -0.220 F 
ENDBRANCH  16  17
ENDBRANCH  13  16
ENDBRANCH  11  13
ENDBRANCH   7  11
BRANCH  10  20
HETATM   20  C15 UNL     1      13.935 -24.610 -20.225  1.00  0.00     0.255 C 
HETATM   21  N6  UNL     1      15.129 -24.812 -19.529  1.00  0.00    -0.060 NA
HETATM   22  O2  UNL     1      13.143 -25.568 -20.382  1.00  0.00    -0.275 OA
ENDBRANCH  10  20
BRANCH   1  23
HETATM   23  C2  UNL     1      11.374 -23.007 -21.749  1.00  0.00     0.170 C 
HETATM   24  S1  UNL     1      10.359 -21.699 -22.030  1.00  0.00    -0.041 SA
BRANCH  23  25
HETATM   25  N1  UNL     1      11.315 -24.063 -22.663  1.00  0.00    -0.371 N 
HETATM   26  C1  UNL     1      11.880 -24.214 -23.960  1.00  0.00     0.148 C 
ATOM     27  H1  UNL     1      10.772 -24.866 -22.345  1.00  0.00     0.161 HD
ENDBRANCH  23  25
ENDBRANCH   1  23
TORSDOF 7
ENDMDL
MODEL 4
REMARK VINA RESULT: -5.798088353      3.720      7.958
REMARK  7 active torsions:
REMARK  status: ('A' for Active; 'I' for Inactive)
REMARK    1  A    between atoms: N1_2  and  C2_4 
REMARK    2  A    between atoms: C2_4  and  N2_6 
REMARK       I    between atoms: N3_9  and  C5_10 
REMARK       I    between atoms: C5_10  and  N4_12 
REMARK    3  A    between atoms: N4_12  and  C6_14 
REMARK    4  A    between atoms: C6_14  and  N5_16 
REMARK    5  A    between atoms: N5_16  and  C10_19 
REMARK    6  A    between atoms: C10_19  and  C11_20 
REMARK    7  A    between atoms: C14_24  and  C15_25 
ROOT
HETATM    1  N2  UNL     1      12.342 -23.014 -20.755  1.00  0.00    -0.342 N 
HETATM    2  C3  UNL     1      11.961 -22.646 -19.417  1.00  0.00     0.146 C 
HETATM    3  C4  UNL     1      13.134 -22.290 -18.512  1.00  0.00     0.147 C 
HETATM    4  N3  UNL     1      14.147 -21.565 -19.234  1.00  0.00    -0.330 N 
HETATM    5  C5  UNL     1      14.668 -20.324 -18.834  1.00  0.00     0.320 C 
HETATM    6  O1  UNL     1      15.547 -19.785 -19.555  1.00  0.00    -0.247 OA
HETATM    7  N4  UNL     1      14.259 -19.665 -17.681  1.00  0.00    -0.315 N 
ATOM      8  H4  UNL     1      13.546 -20.113 -17.105  1.00  0.00     0.166 HD
HETATM    9  C13 UNL     1      14.623 -22.228 -20.454  1.00  0.00     0.162 C 
HETATM   10  C14 UNL     1      13.760 -23.310 -20.945  1.00  0.00     0.194 C 
ENDROOT
BRANCH   7  11
HETATM   11  C6  UNL     1      14.777 -18.379 -17.241  1.00  0.00     0.287 C 
HETATM   12  C7  UNL     1      13.598 -17.436 -17.174  1.00  0.00     0.064 C 
BRANCH  11  13
HETATM   13  N5  UNL     1      15.409 -18.448 -15.961  1.00  0.00    -0.051 N 
HETATM   14  C8  UNL     1      16.841 -18.729 -16.113  1.00  0.00     0.274 C 
HETATM   15  C9  UNL     1      14.777 -19.450 -15.117  1.00  0.00     0.274 C 
BRANCH  13  16
HETATM   16  C10 UNL     1      15.315 -17.181 -15.282  1.00  0.00     0.268 C 
BRANCH  16  17
HETATM   17  C11 UNL     1      14.690 -17.247 -13.953  1.00  0.00     0.030 C 
HETATM   18  C12 UNL     1      13.786 -16.382 -13.515  1.00  0.00     0.186 C 
HETATM   19  F1  UNL     1      13.225 -16.466 -12.283  1.00  0.00    -0.220 F 
ENDBRANCH  16  17
ENDBRANCH  13  16
ENDBRANCH  11  13
ENDBRANCH   7  11
BRANCH  10  20
HETATM   20  C15 UNL     1      14.142 -24.633 -20.384  1.00  0.00     0.255 C 
HETATM   21  N6  UNL     1      13.294 -25.733 -20.545  1.00  0.00    -0.060 NA
HETATM   22  O2  UNL     1      15.222 -24.774 -19.764  1.00  0.00    -0.275 OA
ENDBRANCH  10  20
BRANCH   1  23
HETATM   23  C2  UNL     1      11.486 -23.139 -21.853  1.00  0.00     0.170 C 
HETATM   24  S1  UNL     1      10.387 -21.892 -22.094  1.00  0.00    -0.041 SA
BRANCH  23  25
HETATM   25  N1  UNL     1      11.456 -24.196 -22.767  1.00  0.00    -0.371 N 
HETATM   26  C1  UNL     1      11.120 -24.232 -24.149  1.00  0.00     0.148 C 
ATOM     27  H1  UNL     1      11.722 -25.099 -22.375  1.00  0.00     0.161 HD
ENDBRANCH  23  25
ENDBRANCH   1  23
TORSDOF 7
ENDMDL
MODEL 5
REMARK VINA RESULT: -5.770526612      5.702     10.188
REMARK  7 active torsions:
REMARK  status: ('A' for Active; 'I' for Inactive)
REMARK    1  A    between atoms: N1_2  and  C2_4 
REMARK    2  A    between atoms: C2_4  and  N2_6 
REMARK       I    between atoms: N3_9  and  C5_10 
REMARK       I    between atoms: C5_10  and  N4_12 
REMARK    3  A    between atoms: N4_12  and  C6_14 
REMARK    4  A    between atoms: C6_14  and  N5_16 
REMARK    5  A    between atoms: N5_16  and  C10_19 
REMARK    6  A    between atoms: C10_19  and  C11_20 
REMARK    7  A    between atoms: C14_24  and  C15_25 
ROOT
HETATM    1  N2  UNL     1      10.610 -26.097 -25.855  1.00  0.00    -0.342 N 
HETATM    2  C3  UNL     1       9.779 -25.310 -24.981  1.00  0.00     0.146 C 
HETATM    3  C4  UNL     1      10.272 -25.253 -23.541  1.00  0.00     0.147 C 
HETATM    4  N3  UNL     1      11.709 -25.178 -23.484  1.00  0.00    -0.330 N 
HETATM    5  C5  UNL     1      12.422 -24.192 -22.786  1.00  0.00     0.320 C 
HETATM    6  O1  UNL     1      13.680 -24.228 -22.818  1.00  0.00    -0.247 OA
HETATM    7  N4  UNL     1      11.805 -23.179 -22.061  1.00  0.00    -0.315 N 
ATOM      8  H4  UNL     1      10.786 -23.161 -22.042  1.00  0.00     0.166 HD
HETATM    9  C13 UNL     1      12.407 -26.236 -24.223  1.00  0.00     0.162 C 
HETATM   10  C14 UNL     1      11.575 -26.967 -25.189  1.00  0.00     0.194 C 
ENDROOT
BRANCH   7  11
HETATM   11  C6  UNL     1      12.516 -22.142 -21.329  1.00  0.00     0.287 C 
HETATM   12  C7  UNL     1      12.321 -20.856 -22.099  1.00  0.00     0.064 C 
BRANCH  11  13
HETATM   13  N5  UNL     1      12.031 -21.978 -19.994  1.00  0.00    -0.051 N 
HETATM   14  C8  UNL     1      10.564 -21.967 -19.983  1.00  0.00     0.274 C 
HETATM   15  C9  UNL     1      12.558 -20.765 -19.389  1.00  0.00     0.274 C 
BRANCH  13  16
HETATM   16  C10 UNL     1      12.434 -23.090 -19.170  1.00  0.00     0.268 C 
BRANCH  16  17
HETATM   17  C11 UNL     1      11.344 -23.699 -18.395  1.00  0.00     0.030 C 
HETATM   18  C12 UNL     1      11.528 -24.431 -17.305  1.00  0.00     0.186 C 
HETATM   19  F1  UNL     1      10.504 -24.982 -16.608  1.00  0.00    -0.220 F 
ENDBRANCH  16  17
ENDBRANCH  13  16
ENDBRANCH  11  13
ENDBRANCH   7  11
BRANCH  10  20
HETATM   20  C15 UNL     1      10.934 -28.165 -24.585  1.00  0.00     0.255 C 
HETATM   21  N6  UNL     1      11.356 -28.630 -23.337  1.00  0.00    -0.060 NA
HETATM   22  O2  UNL     1      10.013 -28.765 -25.187  1.00  0.00    -0.275 OA
ENDBRANCH  10  20
BRANCH   1  23
HETATM   23  C2  UNL     1      10.550 -26.118 -27.252  1.00  0.00     0.170 C 
HETATM   24  S1  UNL     1      10.710 -24.641 -28.034  1.00  0.00    -0.041 SA
BRANCH  23  25
HETATM   25  N1  UNL     1      10.373 -27.247 -28.057  1.00  0.00    -0.371 N 
HETATM   26  C1  UNL     1      11.274 -28.281 -28.434  1.00  0.00     0.148 C 
ATOM     27  H1  UNL     1       9.434 -27.345 -28.443  1.00  0.00     0.161 HD
ENDBRANCH  23  25
ENDBRANCH   1  23
TORSDOF 7
ENDMDL
