MODEL 1
REMARK VINA RESULT: -6.225383179      0.000      0.000
REMARK  8 active torsions:
REMARK  status: ('A' for Active; 'I' for Inactive)
REMARK    1  A    between atoms: C4_7  and  N2_8 
REMARK    2  A    between atoms: N2_8  and  C5_10 
REMARK    3  A    between atoms: C5_10  and  C6_14 
REMARK    4  A    between atoms: C6_14  and  C7_16 
REMARK    5  A    between atoms: C8_17  and  C9_18 
REMARK    6  A    between atoms: C10_19  and  C11_20 
REMARK    7  A    between atoms: C11_20  and  C12_21 
REMARK    8  A    between atoms: C12_21  and  N4_22 
ROOT
HETATM    1  C5  UNL     1      12.906 -21.898 -18.706  1.00  0.00     0.098 C 
HETATM    2  N3  UNL     1      13.966 -22.310 -19.287  1.00  0.00    -0.387 N 
ATOM      3  H31 UNL     1      13.942 -23.132 -19.890  1.00  0.00     0.157 HD
ATOM      4  H32 UNL     1      14.840 -21.805 -19.141  1.00  0.00     0.157 HD
ENDROOT
BRANCH   1   5
HETATM    5  N2  UNL     1      12.941 -20.749 -17.863  1.00  0.00    -0.359 N 
ATOM      6  H2  UNL     1      12.072 -20.292 -17.585  1.00  0.00     0.162 HD
BRANCH   5   7
HETATM    7  C4  UNL     1      14.203 -20.237 -17.405  1.00  0.00     0.247 C 
HETATM    8  C3  UNL     1      14.639 -19.047 -18.183  1.00  0.00     0.248 C 
HETATM    9  N1  UNL     1      15.028 -18.007 -17.276  1.00  0.00    -0.348 N 
HETATM   10  O1  UNL     1      14.642 -19.021 -19.442  1.00  0.00    -0.271 OA
HETATM   11  C2  UNL     1      15.120 -18.592 -15.970  1.00  0.00     0.152 C 
ATOM     12  H1  UNL     1      15.206 -17.031 -17.516  1.00  0.00     0.163 HD
HETATM   13  C1  UNL     1      14.817 -17.612 -14.864  1.00  0.00     0.040 C 
HETATM   14  C16 UNL     1      14.151 -19.702 -16.031  1.00  0.00     0.180 C 
HETATM   15  O2  UNL     1      13.454 -20.096 -15.135  1.00  0.00    -0.293 OA
ENDBRANCH   5   7
ENDBRANCH   1   5
BRANCH   1  16
HETATM   16  C6  UNL     1      11.637 -22.632 -18.919  1.00  0.00     0.204 C 
HETATM   17 BR1  UNL     1      11.483 -24.172 -17.762  1.00  0.00    -0.069 Br
BRANCH  16  18
HETATM   18  C7  UNL     1      11.570 -23.087 -20.304  1.00  0.00    -0.069 C 
HETATM   19  C8  UNL     1      11.497 -23.474 -21.458  1.00  0.00    -0.013 C 
BRANCH  19  20
HETATM   20  C9  UNL     1      11.398 -23.940 -22.789  1.00  0.00    -0.015 C 
HETATM   21  C10 UNL     1      11.309 -24.360 -23.930  1.00  0.00    -0.091 C 
BRANCH  21  22
HETATM   22  C11 UNL     1      11.202 -24.887 -25.296  1.00  0.00     0.122 C 
BRANCH  22  23
HETATM   23  C12 UNL     1       9.992 -24.279 -25.924  1.00  0.00     0.248 C 
BRANCH  23  24
HETATM   24  N4  UNL     1       9.881 -24.493 -27.334  1.00  0.00    -0.078 N 
HETATM   25  C13 UNL     1       8.485 -24.382 -27.735  1.00  0.00     0.271 C 
HETATM   26  C14 UNL     1      10.290 -25.854 -27.638  1.00  0.00     0.271 C 
HETATM   27  C15 UNL     1      10.679 -23.608 -28.131  1.00  0.00     0.271 C 
ENDBRANCH  23  24
ENDBRANCH  22  23
ENDBRANCH  21  22
ENDBRANCH  19  20
ENDBRANCH  16  18
ENDBRANCH   1  16
TORSDOF 8
ENDMDL
MODEL 2
REMARK VINA RESULT: -6.195624277      3.792      5.860
REMARK  8 active torsions:
REMARK  status: ('A' for Active; 'I' for Inactive)
REMARK    1  A    between atoms: C4_7  and  N2_8 
REMARK    2  A    between atoms: N2_8  and  C5_10 
REMARK    3  A    between atoms: C5_10  and  C6_14 
REMARK    4  A    between atoms: C6_14  and  C7_16 
REMARK    5  A    between atoms: C8_17  and  C9_18 
REMARK    6  A    between atoms: C10_19  and  C11_20 
REMARK    7  A    between atoms: C11_20  and  C12_21 
REMARK    8  A    between atoms: C12_21  and  N4_22 
ROOT
HETATM    1  C5  UNL     1      16.497 -18.700 -15.739  1.00  0.00     0.098 C 
HETATM    2  N3  UNL     1      17.520 -18.910 -16.474  1.00  0.00    -0.387 N 
ATOM      3  H31 UNL     1      17.639 -18.410 -17.355  1.00  0.00     0.157 HD
ATOM      4  H32 UNL     1      18.219 -19.586 -16.167  1.00  0.00     0.157 HD
ENDROOT
BRANCH   1   5
HETATM    5  N2  UNL     1      16.331 -19.400 -14.508  1.00  0.00    -0.359 N 
ATOM      6  H2  UNL     1      16.738 -19.029 -13.650  1.00  0.00     0.162 HD
BRANCH   5   7
HETATM    7  C4  UNL     1      15.589 -20.630 -14.481  1.00  0.00     0.247 C 
HETATM    8  C3  UNL     1      16.479 -21.821 -14.485  1.00  0.00     0.248 C 
HETATM    9  N1  UNL     1      16.070 -22.720 -13.445  1.00  0.00    -0.348 N 
HETATM   10  O1  UNL     1      17.429 -21.958 -15.300  1.00  0.00    -0.271 OA
HETATM   11  C2  UNL     1      14.790 -22.274 -12.975  1.00  0.00     0.152 C 
ATOM     12  H1  UNL     1      16.592 -23.527 -13.104  1.00  0.00     0.163 HD
HETATM   13  C1  UNL     1      14.549 -22.604 -11.523  1.00  0.00     0.040 C 
HETATM   14  C16 UNL     1      14.826 -20.822 -13.232  1.00  0.00     0.180 C 
HETATM   15  O2  UNL     1      14.330 -19.961 -12.556  1.00  0.00    -0.293 OA
ENDBRANCH   5   7
ENDBRANCH   1   5
BRANCH   1  16
HETATM   16  C6  UNL     1      15.481 -17.718 -16.184  1.00  0.00     0.204 C 
HETATM   17 BR1  UNL     1      14.487 -16.976 -14.702  1.00  0.00    -0.069 Br
BRANCH  16  18
HETATM   18  C7  UNL     1      14.541 -18.372 -17.088  1.00  0.00    -0.069 C 
HETATM   19  C8  UNL     1      13.758 -18.935 -17.834  1.00  0.00    -0.013 C 
BRANCH  19  20
HETATM   20  C9  UNL     1      12.860 -19.608 -18.695  1.00  0.00    -0.015 C 
HETATM   21  C10 UNL     1      12.100 -20.200 -19.441  1.00  0.00    -0.091 C 
BRANCH  21  22
HETATM   22  C11 UNL     1      11.204 -20.925 -20.350  1.00  0.00     0.122 C 
BRANCH  22  23
HETATM   23  C12 UNL     1      11.947 -21.166 -21.623  1.00  0.00     0.248 C 
BRANCH  23  24
HETATM   24  N4  UNL     1      12.076 -22.544 -21.985  1.00  0.00    -0.078 N 
HETATM   25  C13 UNL     1      13.219 -22.708 -22.874  1.00  0.00     0.271 C 
HETATM   26  C14 UNL     1      10.903 -22.944 -22.745  1.00  0.00     0.271 C 
HETATM   27  C15 UNL     1      12.203 -23.439 -20.873  1.00  0.00     0.271 C 
ENDBRANCH  23  24
ENDBRANCH  22  23
ENDBRANCH  21  22
ENDBRANCH  19  20
ENDBRANCH  16  18
ENDBRANCH   1  16
TORSDOF 8
ENDMDL
MODEL 3
REMARK VINA RESULT: -6.186673106      3.723      6.032
REMARK  8 active torsions:
REMARK  status: ('A' for Active; 'I' for Inactive)
REMARK    1  A    between atoms: C4_7  and  N2_8 
REMARK    2  A    between atoms: N2_8  and  C5_10 
REMARK    3  A    between atoms: C5_10  and  C6_14 
REMARK    4  A    between atoms: C6_14  and  C7_16 
REMARK    5  A    between atoms: C8_17  and  C9_18 
REMARK    6  A    between atoms: C10_19  and  C11_20 
REMARK    7  A    between atoms: C11_20  and  C12_21 
REMARK    8  A    between atoms: C12_21  and  N4_22 
ROOT
HETATM    1  C5  UNL     1      16.616 -18.515 -15.969  1.00  0.00     0.098 C 
HETATM    2  N3  UNL     1      16.834 -18.935 -14.783  1.00  0.00    -0.387 N 
ATOM      3  H31 UNL     1      16.217 -18.670 -14.015  1.00  0.00     0.157 HD
ATOM      4  H32 UNL     1      17.636 -19.542 -14.612  1.00  0.00     0.157 HD
ENDROOT
BRANCH   1   5
HETATM    5  N2  UNL     1      17.479 -18.885 -17.041  1.00  0.00    -0.359 N 
ATOM      6  H2  UNL     1      17.977 -18.167 -17.568  1.00  0.00     0.162 HD
BRANCH   5   7
HETATM    7  C4  UNL     1      17.645 -20.272 -17.377  1.00  0.00     0.247 C 
HETATM    8  C3  UNL     1      17.453 -20.523 -18.830  1.00  0.00     0.248 C 
HETATM    9  N1  UNL     1      18.547 -21.310 -19.321  1.00  0.00    -0.348 N 
HETATM   10  O1  UNL     1      16.463 -20.084 -19.471  1.00  0.00    -0.271 OA
HETATM   11  C2  UNL     1      19.268 -21.797 -18.181  1.00  0.00     0.152 C 
ATOM     12  H1  UNL     1      18.770 -21.489 -20.300  1.00  0.00     0.163 HD
HETATM   13  C1  UNL     1      20.736 -22.005 -18.458  1.00  0.00     0.040 C 
HETATM   14  C16 UNL     1      19.020 -20.763 -17.160  1.00  0.00     0.180 C 
HETATM   15  O2  UNL     1      19.788 -20.391 -16.314  1.00  0.00    -0.293 OA
ENDBRANCH   5   7
ENDBRANCH   1   5
BRANCH   1  16
HETATM   16  C6  UNL     1      15.451 -17.633 -16.216  1.00  0.00     0.204 C 
HETATM   17 BR1  UNL     1      14.521 -17.180 -14.583  1.00  0.00    -0.069 Br
BRANCH  16  18
HETATM   18  C7  UNL     1      14.514 -18.311 -17.106  1.00  0.00    -0.069 C 
HETATM   19  C8  UNL     1      13.735 -18.894 -17.842  1.00  0.00    -0.013 C 
BRANCH  19  20
HETATM   20  C9  UNL     1      12.842 -19.588 -18.690  1.00  0.00    -0.015 C 
HETATM   21  C10 UNL     1      12.080 -20.205 -19.415  1.00  0.00    -0.091 C 
BRANCH  21  22
HETATM   22  C11 UNL     1      11.175 -20.966 -20.283  1.00  0.00     0.122 C 
BRANCH  22  23
HETATM   23  C12 UNL     1      11.865 -21.169 -21.592  1.00  0.00     0.248 C 
BRANCH  23  24
HETATM   24  N4  UNL     1      12.027 -22.538 -21.975  1.00  0.00    -0.078 N 
HETATM   25  C13 UNL     1      13.184 -22.665 -22.851  1.00  0.00     0.271 C 
HETATM   26  C14 UNL     1      10.871 -22.947 -22.757  1.00  0.00     0.271 C 
HETATM   27  C15 UNL     1      12.156 -23.448 -20.876  1.00  0.00     0.271 C 
ENDBRANCH  23  24
ENDBRANCH  22  23
ENDBRANCH  21  22
ENDBRANCH  19  20
ENDBRANCH  16  18
ENDBRANCH   1  16
TORSDOF 8
ENDMDL
MODEL 4
REMARK VINA RESULT: -6.174041539      5.316     10.203
REMARK  8 active torsions:
REMARK  status: ('A' for Active; 'I' for Inactive)
REMARK    1  A    between atoms: C4_7  and  N2_8 
REMARK    2  A    between atoms: N2_8  and  C5_10 
REMARK    3  A    between atoms: C5_10  and  C6_14 
REMARK    4  A    between atoms: C6_14  and  C7_16 
REMARK    5  A    between atoms: C8_17  and  C9_18 
REMARK    6  A    between atoms: C10_19  and  C11_20 
REMARK    7  A    between atoms: C11_20  and  C12_21 
REMARK    8  A    between atoms: C12_21  and  N4_22 
ROOT
HETATM    1  C5  UNL     1      13.248 -22.658 -18.152  1.00  0.00     0.098 C 
HETATM    2  N3  UNL     1      13.693 -22.879 -19.329  1.00  0.00    -0.387 N 
ATOM      3  H31 UNL     1      13.812 -23.833 -19.669  1.00  0.00     0.157 HD
ATOM      4  H32 UNL     1      13.927 -22.086 -19.927  1.00  0.00     0.157 HD
ENDROOT
BRANCH   1   5
HETATM    5  N2  UNL     1      13.082 -21.324 -17.677  1.00  0.00    -0.359 N 
ATOM      6  H2  UNL     1      12.171 -21.011 -17.341  1.00  0.00     0.162 HD
BRANCH   5   7
HETATM    7  C4  UNL     1      14.200 -20.422 -17.675  1.00  0.00     0.247 C 
HETATM    8  C3  UNL     1      14.138 -19.449 -18.797  1.00  0.00     0.248 C 
HETATM    9  N1  UNL     1      14.356 -18.126 -18.288  1.00  0.00    -0.348 N 
HETATM   10  O1  UNL     1      13.921 -19.796 -19.988  1.00  0.00    -0.271 OA
HETATM   11  C2  UNL     1      14.831 -18.262 -16.941  1.00  0.00     0.152 C 
ATOM     12  H1  UNL     1      14.202 -17.252 -18.790  1.00  0.00     0.163 HD
HETATM   13  C1  UNL     1      14.448 -17.097 -16.063  1.00  0.00     0.040 C 
HETATM   14  C16 UNL     1      14.228 -19.532 -16.498  1.00  0.00     0.180 C 
HETATM   15  O2  UNL     1      13.835 -19.794 -15.393  1.00  0.00    -0.293 OA
ENDBRANCH   5   7
ENDBRANCH   1   5
BRANCH   1  16
HETATM   16  C6  UNL     1      12.908 -23.809 -17.284  1.00  0.00     0.204 C 
HETATM   17 BR1  UNL     1      11.101 -24.431 -17.573  1.00  0.00    -0.069 Br
BRANCH  16  18
HETATM   18  C7  UNL     1      13.041 -23.415 -15.886  1.00  0.00    -0.069 C 
HETATM   19  C8  UNL     1      13.155 -23.067 -14.722  1.00  0.00    -0.013 C 
BRANCH  19  20
HETATM   20  C9  UNL     1      13.300 -22.646 -13.380  1.00  0.00    -0.015 C 
HETATM   21  C10 UNL     1      13.444 -22.277 -12.227  1.00  0.00    -0.091 C 
BRANCH  21  22
HETATM   22  C11 UNL     1      13.640 -21.833 -10.842  1.00  0.00     0.122 C 
BRANCH  22  23
HETATM   23  C12 UNL     1      14.742 -22.653 -10.254  1.00  0.00     0.248 C 
BRANCH  23  24
HETATM   24  N4  UNL     1      14.507 -23.095  -8.914  1.00  0.00    -0.078 N 
HETATM   25  C13 UNL     1      13.661 -22.129  -8.225  1.00  0.00     0.271 C 
HETATM   26  C14 UNL     1      15.771 -23.120  -8.198  1.00  0.00     0.271 C 
HETATM   27  C15 UNL     1      13.922 -24.399  -8.816  1.00  0.00     0.271 C 
ENDBRANCH  23  24
ENDBRANCH  22  23
ENDBRANCH  21  22
ENDBRANCH  19  20
ENDBRANCH  16  18
ENDBRANCH   1  16
TORSDOF 8
ENDMDL
MODEL 5
REMARK VINA RESULT: -6.171892370      3.391      5.710
REMARK  8 active torsions:
REMARK  status: ('A' for Active; 'I' for Inactive)
REMARK    1  A    between atoms: C4_7  and  N2_8 
REMARK    2  A    between atoms: N2_8  and  C5_10 
REMARK    3  A    between atoms: C5_10  and  C6_14 
REMARK    4  A    between atoms: C6_14  and  C7_16 
REMARK    5  A    between atoms: C8_17  and  C9_18 
REMARK    6  A    between atoms: C10_19  and  C11_20 
REMARK    7  A    between atoms: C11_20  and  C12_21 
REMARK    8  A    between atoms: C12_21  and  N4_22 
ROOT
HETATM    1  C5  UNL     1      15.612 -18.292 -16.161  1.00  0.00     0.098 C 
HETATM    2  N3  UNL     1      16.240 -17.979 -15.094  1.00  0.00    -0.387 N 
ATOM      3  H31 UNL     1      15.887 -17.246 -14.479  1.00  0.00     0.157 HD
ATOM      4  H32 UNL     1      17.101 -18.474 -14.863  1.00  0.00     0.157 HD
ENDROOT
BRANCH   1   5
HETATM    5  N2  UNL     1      16.105 -19.316 -17.020  1.00  0.00    -0.359 N 
ATOM      6  H2  UNL     1      15.489 -19.747 -17.710  1.00  0.00     0.162 HD
BRANCH   5   7
HETATM    7  C4  UNL     1      17.474 -19.741 -16.912  1.00  0.00     0.247 C 
HETATM    8  C3  UNL     1      17.616 -20.962 -16.077  1.00  0.00     0.248 C 
HETATM    9  N1  UNL     1      18.426 -21.919 -16.775  1.00  0.00    -0.348 N 
HETATM   10  O1  UNL     1      17.083 -21.078 -14.943  1.00  0.00    -0.271 OA
HETATM   11  C2  UNL     1      19.027 -21.239 -17.886  1.00  0.00     0.152 C 
ATOM     12  H1  UNL     1      18.551 -22.900 -16.527  1.00  0.00     0.163 HD
HETATM   13  C1  UNL     1      19.293 -22.150 -19.058  1.00  0.00     0.040 C 
HETATM   14  C16 UNL     1      18.051 -20.178 -18.198  1.00  0.00     0.180 C 
HETATM   15  O2  UNL     1      17.778 -19.752 -19.288  1.00  0.00    -0.293 OA
ENDBRANCH   5   7
ENDBRANCH   1   5
BRANCH   1  16
HETATM   16  C6  UNL     1      14.360 -17.573 -16.495  1.00  0.00     0.204 C 
HETATM   17 BR1  UNL     1      13.291 -17.205 -14.928  1.00  0.00    -0.069 Br
BRANCH  16  18
HETATM   18  C7  UNL     1      13.568 -18.385 -17.413  1.00  0.00    -0.069 C 
HETATM   19  C8  UNL     1      12.903 -19.077 -18.166  1.00  0.00    -0.013 C 
BRANCH  19  20
HETATM   20  C9  UNL     1      12.139 -19.898 -19.027  1.00  0.00    -0.015 C 
HETATM   21  C10 UNL     1      11.493 -20.619 -19.768  1.00  0.00    -0.091 C 
BRANCH  21  22
HETATM   22  C11 UNL     1      10.735 -21.502 -20.662  1.00  0.00     0.122 C 
BRANCH  22  23
HETATM   23  C12 UNL     1      11.488 -21.600 -21.948  1.00  0.00     0.248 C 
BRANCH  23  24
HETATM   24  N4  UNL     1      11.948 -22.916 -22.270  1.00  0.00    -0.078 N 
HETATM   25  C13 UNL     1      13.240 -22.830 -22.937  1.00  0.00     0.271 C 
HETATM   26  C14 UNL     1      11.031 -23.516 -23.225  1.00  0.00     0.271 C 
HETATM   27  C15 UNL     1      12.048 -23.799 -21.145  1.00  0.00     0.271 C 
ENDBRANCH  23  24
ENDBRANCH  22  23
ENDBRANCH  21  22
ENDBRANCH  19  20
ENDBRANCH  16  18
ENDBRANCH   1  16
TORSDOF 8
ENDMDL
