MODEL 1
REMARK VINA RESULT: -7.939270551      0.000      0.000
REMARK  6 active torsions:
REMARK  status: ('A' for Active; 'I' for Inactive)
REMARK    1  A    between atoms: C6_9  and  C7_10 
REMARK    2  A    between atoms: C7_10  and  N2_11 
REMARK    3  A    between atoms: N2_11  and  C8_14 
REMARK    4  A    between atoms: C8_14  and  C9_15 
REMARK    5  A    between atoms: C9_15  and  C10_16 
REMARK    6  A    between atoms: C10_16  and  C11_17 
ROOT
HETATM    1  C1  UNL     1     -26.594 -20.154 -35.272  1.00  0.00     0.089 C 
HETATM    2  C2  UNL     1     -26.289 -18.818 -34.651  1.00  0.00     0.081 A 
HETATM    3  N1  UNL     1     -25.036 -18.477 -34.320  1.00  0.00    -0.312 N 
ATOM      4  H1  UNL     1     -24.280 -19.139 -34.495  1.00  0.00     0.170 HD
HETATM    5  C3  UNL     1     -24.744 -17.284 -33.762  1.00  0.00     0.260 A 
HETATM    6  O1  UNL     1     -23.567 -16.951 -33.446  1.00  0.00    -0.267 OA
HETATM    7  C4  UNL     1     -25.744 -16.386 -33.523  1.00  0.00     0.077 A 
HETATM    8  C5  UNL     1     -25.518 -15.130 -32.948  1.00  0.00     0.031 A 
HETATM    9  C6  UNL     1     -26.541 -14.251 -32.720  1.00  0.00    -0.016 A 
HETATM   10  C16 UNL     1     -27.816 -14.638 -33.074  1.00  0.00     0.098 A 
HETATM   11  N3  UNL     1     -28.044 -15.847 -33.629  1.00  0.00    -0.351 N 
ATOM     12  H3  UNL     1     -28.999 -16.104 -33.879  1.00  0.00     0.166 HD
HETATM   13  C17 UNL     1     -27.045 -16.728 -33.861  1.00  0.00     0.122 A 
HETATM   14  N4  UNL     1     -27.274 -17.932 -34.414  1.00  0.00    -0.332 N 
ATOM     15  H4  UNL     1     -28.230 -18.183 -34.665  1.00  0.00     0.168 HD
ENDROOT
BRANCH   9  16
HETATM   16  C7  UNL     1     -26.224 -12.942 -32.108  1.00  0.00     0.272 C 
BRANCH  16  17
HETATM   17  N2  UNL     1     -27.321 -12.003 -32.226  1.00  0.00    -0.071 N 
ATOM     18  H22 UNL     1     -27.388 -11.561 -33.143  1.00  0.00     0.277 HD
ATOM     19  H21 UNL     1     -28.240 -12.442 -32.239  1.00  0.00     0.277 HD
BRANCH  17  20
HETATM   20  C8  UNL     1     -27.130 -11.042 -31.110  1.00  0.00     0.232 C 
BRANCH  20  21
HETATM   21  C9  UNL     1     -26.689 -11.754 -29.887  1.00  0.00     0.028 C 
BRANCH  21  22
HETATM   22  C10 UNL     1     -27.309 -11.344 -28.616  1.00  0.00     0.006 C 
BRANCH  22  23
HETATM   23  C11 UNL     1     -27.162 -12.276 -27.488  1.00  0.00    -0.014 C 
HETATM   24  C12 UNL     1     -27.132 -13.733 -27.745  1.00  0.00     0.004 C 
HETATM   25  C13 UNL     1     -26.064 -14.347 -26.813  1.00  0.00     0.000 C 
HETATM   26  C14 UNL     1     -25.837 -13.217 -25.796  1.00  0.00     0.000 C 
HETATM   27  C15 UNL     1     -25.823 -12.039 -26.746  1.00  0.00     0.004 C 
ENDBRANCH  22  23
ENDBRANCH  21  22
ENDBRANCH  20  21
ENDBRANCH  17  20
ENDBRANCH  16  17
ENDBRANCH   9  16
TORSDOF 6
ENDMDL
MODEL 2
REMARK VINA RESULT: -7.494715095      2.433      3.753
REMARK  6 active torsions:
REMARK  status: ('A' for Active; 'I' for Inactive)
REMARK    1  A    between atoms: C6_9  and  C7_10 
REMARK    2  A    between atoms: C7_10  and  N2_11 
REMARK    3  A    between atoms: N2_11  and  C8_14 
REMARK    4  A    between atoms: C8_14  and  C9_15 
REMARK    5  A    between atoms: C9_15  and  C10_16 
REMARK    6  A    between atoms: C10_16  and  C11_17 
ROOT
HETATM    1  C1  UNL     1     -25.148 -16.072 -33.298  1.00  0.00     0.089 C 
HETATM    2  C2  UNL     1     -25.818 -14.800 -32.859  1.00  0.00     0.081 A 
HETATM    3  N1  UNL     1     -25.160 -13.632 -32.861  1.00  0.00    -0.312 N 
ATOM      4  H1  UNL     1     -24.187 -13.613 -33.168  1.00  0.00     0.170 HD
HETATM    5  C3  UNL     1     -25.745 -12.481 -32.470  1.00  0.00     0.260 A 
HETATM    6  O1  UNL     1     -25.134 -11.375 -32.467  1.00  0.00    -0.267 OA
HETATM    7  C4  UNL     1     -27.046 -12.490 -32.057  1.00  0.00     0.077 A 
HETATM    8  C5  UNL     1     -27.719 -11.336 -31.638  1.00  0.00     0.031 A 
HETATM    9  C6  UNL     1     -29.024 -11.375 -31.230  1.00  0.00    -0.016 A 
HETATM   10  C16 UNL     1     -29.668 -12.594 -31.242  1.00  0.00     0.098 A 
HETATM   11  N3  UNL     1     -29.027 -13.712 -31.644  1.00  0.00    -0.351 N 
ATOM     12  H3  UNL     1     -29.531 -14.599 -31.641  1.00  0.00     0.166 HD
HETATM   13  C17 UNL     1     -27.738 -13.692 -32.050  1.00  0.00     0.122 A 
HETATM   14  N4  UNL     1     -27.101 -14.806 -32.452  1.00  0.00    -0.332 N 
ATOM     15  H4  UNL     1     -27.610 -15.690 -32.448  1.00  0.00     0.168 HD
ENDROOT
BRANCH   9  16
HETATM   16  C7  UNL     1     -29.667 -10.115 -30.800  1.00  0.00     0.272 C 
BRANCH  16  17
HETATM   17  N2  UNL     1     -28.985  -9.509 -29.674  1.00  0.00    -0.071 N 
ATOM     18  H22 UNL     1     -27.974  -9.645 -29.684  1.00  0.00     0.277 HD
ATOM     19  H21 UNL     1     -28.967  -8.490 -29.703  1.00  0.00     0.277 HD
BRANCH  17  20
HETATM   20  C8  UNL     1     -29.654 -10.065 -28.471  1.00  0.00     0.232 C 
BRANCH  20  21
HETATM   21  C9  UNL     1     -28.806 -11.107 -27.845  1.00  0.00     0.028 C 
BRANCH  21  22
HETATM   22  C10 UNL     1     -27.349 -10.964 -28.000  1.00  0.00     0.006 C 
BRANCH  22  23
HETATM   23  C11 UNL     1     -26.553 -12.192 -27.852  1.00  0.00    -0.014 C 
HETATM   24  C12 UNL     1     -25.838 -12.449 -26.583  1.00  0.00     0.004 C 
HETATM   25  C13 UNL     1     -25.982 -13.954 -26.265  1.00  0.00     0.000 C 
HETATM   26  C14 UNL     1     -26.452 -14.524 -27.613  1.00  0.00     0.000 C 
HETATM   27  C15 UNL     1     -27.447 -13.450 -27.993  1.00  0.00     0.004 C 
ENDBRANCH  22  23
ENDBRANCH  21  22
ENDBRANCH  20  21
ENDBRANCH  17  20
ENDBRANCH  16  17
ENDBRANCH   9  16
TORSDOF 6
ENDMDL
MODEL 3
REMARK VINA RESULT: -7.473572027      1.717      2.580
REMARK  6 active torsions:
REMARK  status: ('A' for Active; 'I' for Inactive)
REMARK    1  A    between atoms: C6_9  and  C7_10 
REMARK    2  A    between atoms: C7_10  and  N2_11 
REMARK    3  A    between atoms: N2_11  and  C8_14 
REMARK    4  A    between atoms: C8_14  and  C9_15 
REMARK    5  A    between atoms: C9_15  and  C10_16 
REMARK    6  A    between atoms: C10_16  and  C11_17 
ROOT
HETATM    1  C1  UNL     1     -25.965 -17.428 -34.308  1.00  0.00     0.089 C 
HETATM    2  C2  UNL     1     -26.061 -16.022 -33.784  1.00  0.00     0.081 A 
HETATM    3  N1  UNL     1     -25.059 -15.148 -33.954  1.00  0.00    -0.312 N 
ATOM      4  H1  UNL     1     -24.219 -15.449 -34.447  1.00  0.00     0.170 HD
HETATM    5  C3  UNL     1     -25.127 -13.883 -33.490  1.00  0.00     0.260 A 
HETATM    6  O1  UNL     1     -24.189 -13.051 -33.644  1.00  0.00    -0.267 OA
HETATM    7  C4  UNL     1     -26.245 -13.465 -32.828  1.00  0.00     0.077 A 
HETATM    8  C5  UNL     1     -26.388 -12.168 -32.320  1.00  0.00     0.031 A 
HETATM    9  C6  UNL     1     -27.522 -11.777 -31.660  1.00  0.00    -0.016 A 
HETATM   10  C16 UNL     1     -28.531 -12.704 -31.506  1.00  0.00     0.098 A 
HETATM   11  N3  UNL     1     -28.402 -13.956 -31.992  1.00  0.00    -0.351 N 
ATOM     12  H3  UNL     1     -29.167 -14.619 -31.861  1.00  0.00     0.166 HD
HETATM   13  C17 UNL     1     -27.290 -14.359 -32.646  1.00  0.00     0.122 A 
HETATM   14  N4  UNL     1     -27.163 -15.607 -33.131  1.00  0.00    -0.332 N 
ATOM     15  H4  UNL     1     -27.931 -16.265 -32.999  1.00  0.00     0.168 HD
ENDROOT
BRANCH   9  16
HETATM   16  C7  UNL     1     -27.599 -10.391 -31.152  1.00  0.00     0.272 C 
BRANCH  16  17
HETATM   17  N2  UNL     1     -28.906 -10.080 -30.608  1.00  0.00    -0.071 N 
ATOM     18  H22 UNL     1     -29.458  -9.455 -31.194  1.00  0.00     0.277 HD
ATOM     19  H21 UNL     1     -29.557 -10.865 -30.625  1.00  0.00     0.277 HD
BRANCH  17  20
HETATM   20  C8  UNL     1     -28.642  -9.549 -29.246  1.00  0.00     0.232 C 
BRANCH  20  21
HETATM   21  C9  UNL     1     -28.560 -10.659 -28.267  1.00  0.00     0.028 C 
BRANCH  21  22
HETATM   22  C10 UNL     1     -27.213 -11.100 -27.869  1.00  0.00     0.006 C 
BRANCH  22  23
HETATM   23  C11 UNL     1     -27.130 -12.385 -27.158  1.00  0.00    -0.014 C 
HETATM   24  C12 UNL     1     -27.291 -13.647 -27.913  1.00  0.00     0.004 C 
HETATM   25  C13 UNL     1     -26.264 -14.657 -27.352  1.00  0.00     0.000 C 
HETATM   26  C14 UNL     1     -25.854 -13.996 -26.027  1.00  0.00     0.000 C 
HETATM   27  C15 UNL     1     -25.740 -12.563 -26.499  1.00  0.00     0.004 C 
ENDBRANCH  22  23
ENDBRANCH  21  22
ENDBRANCH  20  21
ENDBRANCH  17  20
ENDBRANCH  16  17
ENDBRANCH   9  16
TORSDOF 6
ENDMDL
MODEL 4
REMARK VINA RESULT: -7.417946556      2.269      3.594
REMARK  6 active torsions:
REMARK  status: ('A' for Active; 'I' for Inactive)
REMARK    1  A    between atoms: C6_9  and  C7_10 
REMARK    2  A    between atoms: C7_10  and  N2_11 
REMARK    3  A    between atoms: N2_11  and  C8_14 
REMARK    4  A    between atoms: C8_14  and  C9_15 
REMARK    5  A    between atoms: C9_15  and  C10_16 
REMARK    6  A    between atoms: C10_16  and  C11_17 
ROOT
HETATM    1  C1  UNL     1     -25.048 -16.452 -33.746  1.00  0.00     0.089 C 
HETATM    2  C2  UNL     1     -25.745 -15.216 -33.248  1.00  0.00     0.081 A 
HETATM    3  N1  UNL     1     -27.021 -15.256 -32.839  1.00  0.00    -0.312 N 
ATOM      4  H1  UNL     1     -27.522 -16.143 -32.869  1.00  0.00     0.170 HD
HETATM    5  C3  UNL     1     -27.661 -14.157 -32.389  1.00  0.00     0.260 A 
HETATM    6  O1  UNL     1     -28.864 -14.182 -32.002  1.00  0.00    -0.267 OA
HETATM    7  C4  UNL     1     -27.003 -12.962 -32.342  1.00  0.00     0.077 A 
HETATM    8  C5  UNL     1     -27.602 -11.781 -31.888  1.00  0.00     0.031 A 
HETATM    9  C6  UNL     1     -26.917 -10.597 -31.851  1.00  0.00    -0.016 A 
HETATM   10  C16 UNL     1     -25.606 -10.597 -32.279  1.00  0.00     0.098 A 
HETATM   11  N3  UNL     1     -25.020 -11.730 -32.720  1.00  0.00    -0.351 N 
ATOM     12  H3  UNL     1     -24.049 -11.697 -33.030  1.00  0.00     0.166 HD
HETATM   13  C17 UNL     1     -25.682 -12.908 -32.762  1.00  0.00     0.122 A 
HETATM   14  N4  UNL     1     -25.097 -14.037 -33.200  1.00  0.00    -0.332 N 
ATOM     15  H4  UNL     1     -24.126 -13.998 -33.508  1.00  0.00     0.168 HD
ENDROOT
BRANCH   9  16
HETATM   16  C7  UNL     1     -27.617  -9.391 -31.359  1.00  0.00     0.272 C 
BRANCH  16  17
HETATM   17  N2  UNL     1     -28.861  -9.717 -30.689  1.00  0.00    -0.071 N 
ATOM     18  H22 UNL     1     -29.681  -9.277 -31.106  1.00  0.00     0.277 HD
ATOM     19  H21 UNL     1     -29.162 -10.682 -30.826  1.00  0.00     0.277 HD
BRANCH  17  20
HETATM   20  C8  UNL     1     -28.641  -9.354 -29.266  1.00  0.00     0.232 C 
BRANCH  20  21
HETATM   21  C9  UNL     1     -28.578 -10.574 -28.426  1.00  0.00     0.028 C 
BRANCH  21  22
HETATM   22  C10 UNL     1     -27.238 -11.053 -28.046  1.00  0.00     0.006 C 
BRANCH  22  23
HETATM   23  C11 UNL     1     -27.186 -12.319 -27.298  1.00  0.00    -0.014 C 
HETATM   24  C12 UNL     1     -27.359 -13.599 -28.020  1.00  0.00     0.004 C 
HETATM   25  C13 UNL     1     -26.357 -14.610 -27.418  1.00  0.00     0.000 C 
HETATM   26  C14 UNL     1     -25.952 -13.918 -26.106  1.00  0.00     0.000 C 
HETATM   27  C15 UNL     1     -25.807 -12.501 -26.616  1.00  0.00     0.004 C 
ENDBRANCH  22  23
ENDBRANCH  21  22
ENDBRANCH  20  21
ENDBRANCH  17  20
ENDBRANCH  16  17
ENDBRANCH   9  16
TORSDOF 6
ENDMDL
MODEL 5
REMARK VINA RESULT: -7.361091435      4.948      7.342
REMARK  6 active torsions:
REMARK  status: ('A' for Active; 'I' for Inactive)
REMARK    1  A    between atoms: C6_9  and  C7_10 
REMARK    2  A    between atoms: C7_10  and  N2_11 
REMARK    3  A    between atoms: N2_11  and  C8_14 
REMARK    4  A    between atoms: C8_14  and  C9_15 
REMARK    5  A    between atoms: C9_15  and  C10_16 
REMARK    6  A    between atoms: C10_16  and  C11_17 
ROOT
HETATM    1  C1  UNL     1     -23.837 -13.657 -23.814  1.00  0.00     0.089 C 
HETATM    2  C2  UNL     1     -24.655 -13.211 -24.995  1.00  0.00     0.081 A 
HETATM    3  N1  UNL     1     -24.662 -11.931 -25.391  1.00  0.00    -0.312 N 
ATOM      4  H1  UNL     1     -24.101 -11.251 -24.878  1.00  0.00     0.170 HD
HETATM    5  C3  UNL     1     -25.389 -11.514 -26.448  1.00  0.00     0.260 A 
HETATM    6  O1  UNL     1     -25.404 -10.310 -26.830  1.00  0.00    -0.267 OA
HETATM    7  C4  UNL     1     -26.145 -12.411 -27.145  1.00  0.00     0.077 A 
HETATM    8  C5  UNL     1     -26.925 -12.053 -28.251  1.00  0.00     0.031 A 
HETATM    9  C6  UNL     1     -27.673 -12.976 -28.931  1.00  0.00    -0.016 A 
HETATM   10  C16 UNL     1     -27.640 -14.282 -28.494  1.00  0.00     0.098 A 
HETATM   11  N3  UNL     1     -26.891 -14.638 -27.428  1.00  0.00    -0.351 N 
ATOM     12  H3  UNL     1     -26.888 -15.613 -27.129  1.00  0.00     0.166 HD
HETATM   13  C17 UNL     1     -26.146 -13.740 -26.745  1.00  0.00     0.122 A 
HETATM   14  N4  UNL     1     -25.401 -14.095 -25.684  1.00  0.00    -0.332 N 
ATOM     15  H4  UNL     1     -25.400 -15.072 -25.390  1.00  0.00     0.168 HD
ENDROOT
BRANCH   9  16
HETATM   16  C7  UNL     1     -28.471 -12.520 -30.090  1.00  0.00     0.272 C 
BRANCH  16  17
HETATM   17  N2  UNL     1     -29.351 -13.558 -30.589  1.00  0.00    -0.071 N 
ATOM     18  H22 UNL     1     -29.059 -13.950 -31.484  1.00  0.00     0.277 HD
ATOM     19  H21 UNL     1     -29.305 -14.427 -30.058  1.00  0.00     0.277 HD
BRANCH  17  20
HETATM   20  C8  UNL     1     -30.702 -12.941 -30.615  1.00  0.00     0.232 C 
BRANCH  20  21
HETATM   21  C9  UNL     1     -30.593 -11.468 -30.743  1.00  0.00     0.028 C 
BRANCH  21  22
HETATM   22  C10 UNL     1     -31.496 -10.657 -29.910  1.00  0.00     0.006 C 
BRANCH  22  23
HETATM   23  C11 UNL     1     -30.881  -9.541 -29.176  1.00  0.00    -0.014 C 
HETATM   24  C12 UNL     1     -29.952  -9.827 -28.060  1.00  0.00     0.004 C 
HETATM   25  C13 UNL     1     -28.791  -8.811 -28.151  1.00  0.00     0.000 C 
HETATM   26  C14 UNL     1     -29.365  -7.752 -29.107  1.00  0.00     0.000 C 
HETATM   27  C15 UNL     1     -30.014  -8.670 -30.119  1.00  0.00     0.004 C 
ENDBRANCH  22  23
ENDBRANCH  21  22
ENDBRANCH  20  21
ENDBRANCH  17  20
ENDBRANCH  16  17
ENDBRANCH   9  16
TORSDOF 6
ENDMDL
