MODEL 1
REMARK VINA RESULT: -6.357417062      0.000      0.000
REMARK  10 active torsions:
REMARK  status: ('A' for Active; 'I' for Inactive)
REMARK    1  A    between atoms: C2_2  and  C3_3 
REMARK    2  A    between atoms: C3_3  and  C4_4 
REMARK    3  A    between atoms: C4_4  and  C5_5 
REMARK    4  A    between atoms: C5_5  and  C6_6 
REMARK    5  A    between atoms: C6_6  and  C7_7 
REMARK    6  A    between atoms: C8_8  and  C9_9 
REMARK    7  A    between atoms: C9_9  and  O1_10 
REMARK    8  A    between atoms: C12_14  and  C13_15 
REMARK    9  A    between atoms: C13_15  and  O2_17 
REMARK   10  A    between atoms: C15_20  and  O4_21 
ROOT
HETATM    1  C9  UNL     1     -17.429  -0.409  -0.900  1.00  0.00     0.125 C 
HETATM    2  C10 UNL     1     -17.984  -1.593  -0.174  1.00  0.00     0.054 C 
HETATM    3  C11 UNL     1     -18.939  -1.281   0.919  1.00  0.00     0.038 C 
HETATM    4  C12 UNL     1     -20.030  -0.336   0.575  1.00  0.00     0.153 C 
HETATM    5  O3  UNL     1     -19.677   0.664  -0.309  1.00  0.00    -0.353 OA
HETATM    6  C15 UNL     1     -18.631   1.447   0.172  1.00  0.00     0.263 C 
HETATM    7  C17 UNL     1     -17.301   0.736   0.053  1.00  0.00     0.112 C 
ENDROOT
BRANCH   1   8
HETATM    8  C8  UNL     1     -16.076  -0.724  -1.385  1.00  0.00    -0.068 C 
HETATM    9  C7  UNL     1     -14.961  -0.984  -1.762  1.00  0.00    -0.103 C 
BRANCH   9  10
HETATM   10  C6  UNL     1     -13.575  -1.318  -2.207  1.00  0.00     0.094 C 
BRANCH  10  11
HETATM   11  C5  UNL     1     -13.239  -0.428  -3.370  1.00  0.00     0.012 C 
BRANCH  11  12
HETATM   12  C4  UNL     1     -14.390  -0.371  -4.327  1.00  0.00     0.001 C 
BRANCH  12  13
HETATM   13  C3  UNL     1     -13.909   0.103  -5.673  1.00  0.00    -0.000 C 
BRANCH  13  14
HETATM   14  C2  UNL     1     -15.151   0.065  -6.580  1.00  0.00    -0.005 C 
HETATM   15  C1  UNL     1     -16.170  -0.799  -5.890  1.00  0.00     0.005 C 
ENDBRANCH  13  14
ENDBRANCH  12  13
ENDBRANCH  11  12
ENDBRANCH  10  11
ENDBRANCH   9  10
ENDBRANCH   1   8
BRANCH   1  16
HETATM   16  O1  UNL     1     -18.176  -0.079  -2.036  1.00  0.00    -0.377 OA
ATOM     17  H1  UNL     1     -18.863   0.503  -1.735  1.00  0.00     0.211 HD
ENDBRANCH   1  16
BRANCH   6  18
HETATM   18  O4  UNL     1     -18.875   1.886   1.465  1.00  0.00    -0.366 OA
HETATM   19  C16 UNL     1     -17.667   2.226   2.061  1.00  0.00     0.204 C 
ENDBRANCH   6  18
BRANCH   4  20
HETATM   20  C13 UNL     1     -21.283  -1.018   0.072  1.00  0.00     0.143 C 
HETATM   21  C14 UNL     1     -22.528  -0.357   0.627  1.00  0.00     0.042 C 
BRANCH  20  22
HETATM   22  O2  UNL     1     -21.334  -2.360   0.445  1.00  0.00    -0.393 OA
ATOM     23  H2  UNL     1     -21.989  -2.519   1.115  1.00  0.00     0.210 HD
ENDBRANCH  20  22
ENDBRANCH   4  20
TORSDOF 10
ENDMDL
MODEL 2
REMARK VINA RESULT: -6.311928780      1.627      2.320
REMARK  10 active torsions:
REMARK  status: ('A' for Active; 'I' for Inactive)
REMARK    1  A    between atoms: C2_2  and  C3_3 
REMARK    2  A    between atoms: C3_3  and  C4_4 
REMARK    3  A    between atoms: C4_4  and  C5_5 
REMARK    4  A    between atoms: C5_5  and  C6_6 
REMARK    5  A    between atoms: C6_6  and  C7_7 
REMARK    6  A    between atoms: C8_8  and  C9_9 
REMARK    7  A    between atoms: C9_9  and  O1_10 
REMARK    8  A    between atoms: C12_14  and  C13_15 
REMARK    9  A    between atoms: C13_15  and  O2_17 
REMARK   10  A    between atoms: C15_20  and  O4_21 
ROOT
HETATM    1  C9  UNL     1     -16.465  -0.341  -1.514  1.00  0.00     0.125 C 
HETATM    2  C10 UNL     1     -17.096  -1.690  -1.371  1.00  0.00     0.054 C 
HETATM    3  C11 UNL     1     -17.574  -2.029  -0.007  1.00  0.00     0.038 C 
HETATM    4  C12 UNL     1     -18.410  -1.001   0.661  1.00  0.00     0.153 C 
HETATM    5  O3  UNL     1     -18.061   0.306   0.381  1.00  0.00    -0.353 OA
HETATM    6  C15 UNL     1     -16.746   0.588   0.743  1.00  0.00     0.263 C 
HETATM    7  C17 UNL     1     -15.758   0.007  -0.244  1.00  0.00     0.112 C 
ENDROOT
BRANCH   1   8
HETATM    8  C8  UNL     1     -15.450  -0.388  -2.578  1.00  0.00    -0.068 C 
HETATM    9  C7  UNL     1     -14.603  -0.424  -3.435  1.00  0.00    -0.103 C 
BRANCH   9  10
HETATM   10  C6  UNL     1     -13.536  -0.479  -4.479  1.00  0.00     0.094 C 
BRANCH  10  11
HETATM   11  C5  UNL     1     -13.994   0.349  -5.647  1.00  0.00     0.012 C 
BRANCH  11  12
HETATM   12  C4  UNL     1     -15.185  -0.288  -6.295  1.00  0.00     0.001 C 
BRANCH  12  13
HETATM   13  C3  UNL     1     -15.512   0.432  -7.577  1.00  0.00    -0.000 C 
BRANCH  13  14
HETATM   14  C2  UNL     1     -14.428  -0.010  -8.574  1.00  0.00    -0.005 C 
HETATM   15  C1  UNL     1     -14.894   0.410  -9.941  1.00  0.00     0.005 C 
ENDBRANCH  13  14
ENDBRANCH  12  13
ENDBRANCH  11  12
ENDBRANCH  10  11
ENDBRANCH   9  10
ENDBRANCH   1   8
BRANCH   1  16
HETATM   16  O1  UNL     1     -17.382   0.641  -1.903  1.00  0.00    -0.377 OA
ATOM     17  H1  UNL     1     -18.059   0.642  -1.237  1.00  0.00     0.211 HD
ENDBRANCH   1  16
BRANCH   6  18
HETATM   18  O4  UNL     1     -16.479   0.190   2.045  1.00  0.00    -0.366 OA
HETATM   19  C16 UNL     1     -15.105   0.077   2.209  1.00  0.00     0.204 C 
ENDBRANCH   6  18
BRANCH   4  20
HETATM   20  C13 UNL     1     -19.892  -1.176   0.416  1.00  0.00     0.143 C 
HETATM   21  C14 UNL     1     -20.228  -2.619   0.096  1.00  0.00     0.042 C 
BRANCH  20  22
HETATM   22  O2  UNL     1     -20.341  -0.408  -0.657  1.00  0.00    -0.393 OA
ATOM     23  H2  UNL     1     -20.766  -0.937  -1.321  1.00  0.00     0.210 HD
ENDBRANCH  20  22
ENDBRANCH   4  20
TORSDOF 10
ENDMDL
MODEL 3
REMARK VINA RESULT: -6.159410209      1.133      2.351
REMARK  10 active torsions:
REMARK  status: ('A' for Active; 'I' for Inactive)
REMARK    1  A    between atoms: C2_2  and  C3_3 
REMARK    2  A    between atoms: C3_3  and  C4_4 
REMARK    3  A    between atoms: C4_4  and  C5_5 
REMARK    4  A    between atoms: C5_5  and  C6_6 
REMARK    5  A    between atoms: C6_6  and  C7_7 
REMARK    6  A    between atoms: C8_8  and  C9_9 
REMARK    7  A    between atoms: C9_9  and  O1_10 
REMARK    8  A    between atoms: C12_14  and  C13_15 
REMARK    9  A    between atoms: C13_15  and  O2_17 
REMARK   10  A    between atoms: C15_20  and  O4_21 
ROOT
HETATM    1  C9  UNL     1     -17.898  -0.189  -1.427  1.00  0.00     0.125 C 
HETATM    2  C10 UNL     1     -18.141  -1.562  -0.886  1.00  0.00     0.054 C 
HETATM    3  C11 UNL     1     -18.678  -1.616   0.498  1.00  0.00     0.038 C 
HETATM    4  C12 UNL     1     -19.846  -0.744   0.774  1.00  0.00     0.153 C 
HETATM    5  O3  UNL     1     -19.841   0.465   0.106  1.00  0.00    -0.353 OA
HETATM    6  C15 UNL     1     -18.716   1.227   0.407  1.00  0.00     0.263 C 
HETATM    7  C17 UNL     1     -17.485   0.714  -0.308  1.00  0.00     0.112 C 
ENDROOT
BRANCH   1   8
HETATM    8  C8  UNL     1     -16.781  -0.233  -2.384  1.00  0.00    -0.068 C 
HETATM    9  C7  UNL     1     -15.862  -0.290  -3.162  1.00  0.00    -0.103 C 
BRANCH   9  10
HETATM   10  C6  UNL     1     -14.727  -0.385  -4.127  1.00  0.00     0.094 C 
BRANCH  10  11
HETATM   11  C5  UNL     1     -13.458  -0.521  -3.333  1.00  0.00     0.012 C 
BRANCH  11  12
HETATM   12  C4  UNL     1     -13.776  -0.864  -1.910  1.00  0.00     0.001 C 
BRANCH  12  13
HETATM   13  C3  UNL     1     -13.417  -2.303  -1.642  1.00  0.00    -0.000 C 
BRANCH  13  14
HETATM   14  C2  UNL     1     -14.596  -2.867  -0.830  1.00  0.00    -0.005 C 
HETATM   15  C1  UNL     1     -15.345  -3.802  -1.738  1.00  0.00     0.005 C 
ENDBRANCH  13  14
ENDBRANCH  12  13
ENDBRANCH  11  12
ENDBRANCH  10  11
ENDBRANCH   9  10
ENDBRANCH   1   8
BRANCH   1  16
HETATM   16  O1  UNL     1     -18.993   0.308  -2.140  1.00  0.00    -0.377 OA
ATOM     17  H1  UNL     1     -19.747   0.193  -1.573  1.00  0.00     0.211 HD
ENDBRANCH   1  16
BRANCH   6  18
HETATM   18  O4  UNL     1     -18.519   1.328   1.776  1.00  0.00    -0.366 OA
HETATM   19  C16 UNL     1     -18.793   2.630   2.176  1.00  0.00     0.204 C 
ENDBRANCH   6  18
BRANCH   4  20
HETATM   20  C13 UNL     1     -21.177  -1.427   0.544  1.00  0.00     0.143 C 
HETATM   21  C14 UNL     1     -22.238  -0.431   0.123  1.00  0.00     0.042 C 
BRANCH  20  22
HETATM   22  O2  UNL     1     -21.646  -2.059   1.694  1.00  0.00    -0.393 OA
ATOM     23  H2  UNL     1     -21.971  -1.437   2.335  1.00  0.00     0.210 HD
ENDBRANCH  20  22
ENDBRANCH   4  20
TORSDOF 10
ENDMDL
MODEL 4
REMARK VINA RESULT: -6.142064842      1.791      3.184
REMARK  10 active torsions:
REMARK  status: ('A' for Active; 'I' for Inactive)
REMARK    1  A    between atoms: C2_2  and  C3_3 
REMARK    2  A    between atoms: C3_3  and  C4_4 
REMARK    3  A    between atoms: C4_4  and  C5_5 
REMARK    4  A    between atoms: C5_5  and  C6_6 
REMARK    5  A    between atoms: C6_6  and  C7_7 
REMARK    6  A    between atoms: C8_8  and  C9_9 
REMARK    7  A    between atoms: C9_9  and  O1_10 
REMARK    8  A    between atoms: C12_14  and  C13_15 
REMARK    9  A    between atoms: C13_15  and  O2_17 
REMARK   10  A    between atoms: C15_20  and  O4_21 
ROOT
HETATM    1  C9  UNL     1     -16.298  -0.526  -1.428  1.00  0.00     0.125 C 
HETATM    2  C10 UNL     1     -17.597  -0.007  -1.957  1.00  0.00     0.054 C 
HETATM    3  C11 UNL     1     -18.814  -0.555  -1.307  1.00  0.00     0.038 C 
HETATM    4  C12 UNL     1     -18.823  -0.532   0.177  1.00  0.00     0.153 C 
HETATM    5  O3  UNL     1     -17.594  -0.749   0.769  1.00  0.00    -0.353 OA
HETATM    6  C15 UNL     1     -17.046  -1.977   0.408  1.00  0.00     0.263 C 
HETATM    7  C17 UNL     1     -16.476  -1.945  -0.993  1.00  0.00     0.112 C 
ENDROOT
BRANCH   1   8
HETATM    8  C8  UNL     1     -15.296  -0.524  -2.506  1.00  0.00    -0.068 C 
HETATM    9  C7  UNL     1     -14.464  -0.508  -3.377  1.00  0.00    -0.103 C 
BRANCH   9  10
HETATM   10  C6  UNL     1     -13.414  -0.482  -4.439  1.00  0.00     0.094 C 
BRANCH  10  11
HETATM   11  C5  UNL     1     -13.940   0.335  -5.585  1.00  0.00     0.012 C 
BRANCH  11  12
HETATM   12  C4  UNL     1     -15.175  -0.300  -6.148  1.00  0.00     0.001 C 
BRANCH  12  13
HETATM   13  C3  UNL     1     -15.553   0.381  -7.438  1.00  0.00    -0.000 C 
BRANCH  13  14
HETATM   14  C2  UNL     1     -14.460  -0.022  -8.442  1.00  0.00    -0.005 C 
HETATM   15  C1  UNL     1     -14.932   0.416  -9.801  1.00  0.00     0.005 C 
ENDBRANCH  13  14
ENDBRANCH  12  13
ENDBRANCH  11  12
ENDBRANCH  10  11
ENDBRANCH   9  10
ENDBRANCH   1   8
BRANCH   1  16
HETATM   16  O1  UNL     1     -15.771   0.283  -0.415  1.00  0.00    -0.377 OA
ATOM     17  H1  UNL     1     -16.350   1.034  -0.354  1.00  0.00     0.211 HD
ENDBRANCH   1  16
BRANCH   6  18
HETATM   18  O4  UNL     1     -17.954  -3.011   0.579  1.00  0.00    -0.366 OA
HETATM   19  C16 UNL     1     -17.638  -4.039  -0.301  1.00  0.00     0.204 C 
ENDBRANCH   6  18
BRANCH   4  20
HETATM   20  C13 UNL     1     -19.434   0.724   0.757  1.00  0.00     0.143 C 
HETATM   21  C14 UNL     1     -18.364   1.682   1.238  1.00  0.00     0.042 C 
BRANCH  20  22
HETATM   22  O2  UNL     1     -20.254   0.450   1.850  1.00  0.00    -0.393 OA
ATOM     23  H2  UNL     1     -20.224   1.141   2.501  1.00  0.00     0.210 HD
ENDBRANCH  20  22
ENDBRANCH   4  20
TORSDOF 10
ENDMDL
MODEL 5
REMARK VINA RESULT: -5.954825344      1.497      3.147
REMARK  10 active torsions:
REMARK  status: ('A' for Active; 'I' for Inactive)
REMARK    1  A    between atoms: C2_2  and  C3_3 
REMARK    2  A    between atoms: C3_3  and  C4_4 
REMARK    3  A    between atoms: C4_4  and  C5_5 
REMARK    4  A    between atoms: C5_5  and  C6_6 
REMARK    5  A    between atoms: C6_6  and  C7_7 
REMARK    6  A    between atoms: C8_8  and  C9_9 
REMARK    7  A    between atoms: C9_9  and  O1_10 
REMARK    8  A    between atoms: C12_14  and  C13_15 
REMARK    9  A    between atoms: C13_15  and  O2_17 
REMARK   10  A    between atoms: C15_20  and  O4_21 
ROOT
HETATM    1  C9  UNL     1     -17.614  -0.614   0.317  1.00  0.00     0.125 C 
HETATM    2  C10 UNL     1     -17.334   0.851   0.214  1.00  0.00     0.054 C 
HETATM    3  C11 UNL     1     -18.523   1.736   0.309  1.00  0.00     0.038 C 
HETATM    4  C12 UNL     1     -19.438   1.471   1.446  1.00  0.00     0.153 C 
HETATM    5  O3  UNL     1     -19.567   0.140   1.792  1.00  0.00    -0.353 OA
HETATM    6  C15 UNL     1     -20.035  -0.636   0.735  1.00  0.00     0.263 C 
HETATM    7  C17 UNL     1     -18.951  -0.903  -0.286  1.00  0.00     0.112 C 
ENDROOT
BRANCH   1   8
HETATM    8  C8  UNL     1     -16.614  -1.359  -0.465  1.00  0.00    -0.068 C 
HETATM    9  C7  UNL     1     -15.793  -1.951  -1.119  1.00  0.00    -0.103 C 
BRANCH   9  10
HETATM   10  C6  UNL     1     -14.766  -2.662  -1.936  1.00  0.00     0.094 C 
BRANCH  10  11
HETATM   11  C5  UNL     1     -13.598  -1.733  -2.117  1.00  0.00     0.012 C 
BRANCH  11  12
HETATM   12  C4  UNL     1     -13.989  -0.577  -2.985  1.00  0.00     0.001 C 
BRANCH  12  13
HETATM   13  C3  UNL     1     -13.058  -0.492  -4.167  1.00  0.00    -0.000 C 
BRANCH  13  14
HETATM   14  C2  UNL     1     -13.938  -0.022  -5.338  1.00  0.00    -0.005 C 
HETATM   15  C1  UNL     1     -15.364  -0.310  -4.957  1.00  0.00     0.005 C 
ENDBRANCH  13  14
ENDBRANCH  12  13
ENDBRANCH  11  12
ENDBRANCH  10  11
ENDBRANCH   9  10
ENDBRANCH   1   8
BRANCH   1  16
HETATM   16  O1  UNL     1     -17.505  -1.089   1.628  1.00  0.00    -0.377 OA
ATOM     17  H1  UNL     1     -18.199  -1.729   1.732  1.00  0.00     0.211 HD
ENDBRANCH   1  16
BRANCH   6  18
HETATM   18  O4  UNL     1     -21.169  -0.082   0.159  1.00  0.00    -0.366 OA
HETATM   19  C16 UNL     1     -22.288  -0.765   0.619  1.00  0.00     0.204 C 
ENDBRANCH   6  18
BRANCH   4  20
HETATM   20  C13 UNL     1     -19.108   2.272   2.686  1.00  0.00     0.143 C 
HETATM   21  C14 UNL     1     -20.355   2.881   3.293  1.00  0.00     0.042 C 
BRANCH  20  22
HETATM   22  O2  UNL     1     -18.233   3.321   2.414  1.00  0.00    -0.393 OA
ATOM     23  H2  UNL     1     -17.543   3.065   1.813  1.00  0.00     0.210 HD
ENDBRANCH  20  22
ENDBRANCH   4  20
TORSDOF 10
ENDMDL
