MODEL 1
REMARK VINA RESULT: -6.250425237      0.000      0.000
REMARK  7 active torsions:
REMARK  status: ('A' for Active; 'I' for Inactive)
REMARK    1  A    between atoms: C2_2  and  C3_3 
REMARK    2  A    between atoms: C3_3  and  C4_4 
REMARK    3  A    between atoms: N3_12  and  C9_13 
REMARK    4  A    between atoms: C9_13  and  C10_14 
REMARK    5  A    between atoms: C10_14  and  C11_15 
REMARK    6  A    between atoms: C11_15  and  C12_16 
REMARK    7  A    between atoms: C12_16  and  O1_17 
ROOT
HETATM    1  C4  UNL     1     -14.878  -0.403  -3.383  1.00  0.00    -0.016 A 
HETATM    2  C5  UNL     1     -13.591  -0.501  -2.954  1.00  0.00     0.099 A 
HETATM    3  N1  UNL     1     -13.257  -0.605  -1.655  1.00  0.00    -0.350 N 
ATOM      4  H1  UNL     1     -12.274  -0.675  -1.388  1.00  0.00     0.166 HD
HETATM    5  C6  UNL     1     -14.207  -0.618  -0.708  1.00  0.00     0.131 A 
HETATM    6  C7  UNL     1     -15.557  -0.519  -1.102  1.00  0.00     0.108 A 
HETATM    7  C8  UNL     1     -15.896  -0.413  -2.422  1.00  0.00     0.085 A 
HETATM    8  N2  UNL     1     -17.235  -0.300  -2.827  1.00  0.00    -0.099 NA
HETATM    9  N3  UNL     1     -16.605  -0.529  -0.110  1.00  0.00    -0.314 N 
HETATM   10  C14 UNL     1     -16.114  -0.651   1.247  1.00  0.00     0.102 C 
HETATM   11  S1  UNL     1     -17.009  -0.039   2.492  1.00  0.00    -0.063 SA
HETATM   12  C15 UNL     1     -14.821  -1.314   1.544  1.00  0.00     0.191 C 
HETATM   13  N4  UNL     1     -13.816  -0.736   0.654  1.00  0.00    -0.368 N 
ATOM     14  H4  UNL     1     -12.899  -0.438   0.986  1.00  0.00     0.161 HD
ENDROOT
BRANCH   9  15
HETATM   15  C9  UNL     1     -17.992  -0.469  -0.336  1.00  0.00     0.071 C 
BRANCH  15  16
HETATM   16  C10 UNL     1     -18.669  -1.829  -0.241  1.00  0.00     0.047 C 
BRANCH  16  17
HETATM   17  C11 UNL     1     -20.132  -1.761  -0.058  1.00  0.00     0.031 C 
BRANCH  17  18
HETATM   18  C12 UNL     1     -20.742  -0.446   0.227  1.00  0.00     0.167 C 
BRANCH  18  19
HETATM   19  O1  UNL     1     -22.080  -0.383  -0.103  1.00  0.00    -0.396 OA
HETATM   20  C13 UNL     1     -22.877  -0.408   1.067  1.00  0.00     0.201 C 
ENDBRANCH  18  19
ENDBRANCH  17  18
ENDBRANCH  16  17
ENDBRANCH  15  16
ENDBRANCH   9  15
BRANCH   1  21
HETATM   21  C3  UNL     1     -15.304  -0.298  -4.790  1.00  0.00     0.042 C 
BRANCH  21  22
HETATM   22  C2  UNL     1     -14.181   0.097  -5.739  1.00  0.00     0.000 C 
HETATM   23  C1  UNL     1     -14.799   0.077  -7.127  1.00  0.00     0.005 C 
ENDBRANCH  21  22
ENDBRANCH   1  21
TORSDOF 7
ENDMDL
MODEL 2
REMARK VINA RESULT: -6.210130766      1.776      2.462
REMARK  7 active torsions:
REMARK  status: ('A' for Active; 'I' for Inactive)
REMARK    1  A    between atoms: C2_2  and  C3_3 
REMARK    2  A    between atoms: C3_3  and  C4_4 
REMARK    3  A    between atoms: N3_12  and  C9_13 
REMARK    4  A    between atoms: C9_13  and  C10_14 
REMARK    5  A    between atoms: C10_14  and  C11_15 
REMARK    6  A    between atoms: C11_15  and  C12_16 
REMARK    7  A    between atoms: C12_16  and  O1_17 
ROOT
HETATM    1  C4  UNL     1     -14.798  -0.427  -3.129  1.00  0.00    -0.016 A 
HETATM    2  C5  UNL     1     -13.523  -0.651  -2.708  1.00  0.00     0.099 A 
HETATM    3  N1  UNL     1     -13.178  -0.701  -1.409  1.00  0.00    -0.350 N 
ATOM      4  H1  UNL     1     -12.206  -0.871  -1.150  1.00  0.00     0.166 HD
HETATM    5  C6  UNL     1     -14.103  -0.530  -0.453  1.00  0.00     0.131 A 
HETATM    6  C7  UNL     1     -15.439  -0.295  -0.837  1.00  0.00     0.108 A 
HETATM    7  C8  UNL     1     -15.790  -0.244  -2.158  1.00  0.00     0.085 A 
HETATM    8  N2  UNL     1     -17.114   0.003  -2.554  1.00  0.00    -0.099 NA
HETATM    9  N3  UNL     1     -16.459  -0.106   0.165  1.00  0.00    -0.314 N 
HETATM   10  C14 UNL     1     -15.959  -0.189   1.522  1.00  0.00     0.102 C 
HETATM   11  S1  UNL     1     -16.748   0.615   2.728  1.00  0.00    -0.063 SA
HETATM   12  C15 UNL     1     -14.750  -0.982   1.851  1.00  0.00     0.191 C 
HETATM   13  N4  UNL     1     -13.701  -0.597   0.909  1.00  0.00    -0.368 N 
ATOM     14  H4  UNL     1     -12.748  -0.389   1.208  1.00  0.00     0.161 HD
ENDROOT
BRANCH   9  15
HETATM   15  C9  UNL     1     -17.834   0.106  -0.049  1.00  0.00     0.071 C 
BRANCH  15  16
HETATM   16  C10 UNL     1     -18.699  -1.038   0.461  1.00  0.00     0.047 C 
BRANCH  16  17
HETATM   17  C11 UNL     1     -18.751  -2.202  -0.444  1.00  0.00     0.031 C 
BRANCH  17  18
HETATM   18  C12 UNL     1     -17.894  -3.366  -0.139  1.00  0.00     0.167 C 
BRANCH  18  19
HETATM   19  O1  UNL     1     -16.816  -3.488  -0.992  1.00  0.00    -0.396 OA
HETATM   20  C13 UNL     1     -15.679  -3.949  -0.286  1.00  0.00     0.201 C 
ENDBRANCH  18  19
ENDBRANCH  17  18
ENDBRANCH  16  17
ENDBRANCH  15  16
ENDBRANCH   9  15
BRANCH   1  21
HETATM   21  C3  UNL     1     -15.237  -0.372  -4.534  1.00  0.00     0.042 C 
BRANCH  21  22
HETATM   22  C2  UNL     1     -14.125  -0.004  -5.506  1.00  0.00     0.000 C 
HETATM   23  C1  UNL     1     -14.783   0.044  -6.875  1.00  0.00     0.005 C 
ENDBRANCH  21  22
ENDBRANCH   1  21
TORSDOF 7
ENDMDL
MODEL 3
REMARK VINA RESULT: -6.168510847      1.836      2.519
REMARK  7 active torsions:
REMARK  status: ('A' for Active; 'I' for Inactive)
REMARK    1  A    between atoms: C2_2  and  C3_3 
REMARK    2  A    between atoms: C3_3  and  C4_4 
REMARK    3  A    between atoms: N3_12  and  C9_13 
REMARK    4  A    between atoms: C9_13  and  C10_14 
REMARK    5  A    between atoms: C10_14  and  C11_15 
REMARK    6  A    between atoms: C11_15  and  C12_16 
REMARK    7  A    between atoms: C12_16  and  O1_17 
ROOT
HETATM    1  C4  UNL     1     -14.757  -0.627  -1.984  1.00  0.00    -0.016 A 
HETATM    2  C5  UNL     1     -13.787  -0.707  -1.033  1.00  0.00     0.099 A 
HETATM    3  N1  UNL     1     -13.978  -0.329   0.243  1.00  0.00    -0.350 N 
ATOM      4  H1  UNL     1     -13.214  -0.409   0.915  1.00  0.00     0.166 HD
HETATM    5  C6  UNL     1     -15.166   0.152   0.638  1.00  0.00     0.131 A 
HETATM    6  C7  UNL     1     -16.205   0.254  -0.308  1.00  0.00     0.108 A 
HETATM    7  C8  UNL     1     -16.010  -0.130  -1.606  1.00  0.00     0.085 A 
HETATM    8  N2  UNL     1     -17.032  -0.020  -2.563  1.00  0.00    -0.099 NA
HETATM    9  N3  UNL     1     -17.495   0.768   0.082  1.00  0.00    -0.314 N 
HETATM   10  C14 UNL     1     -17.571   1.134   1.482  1.00  0.00     0.102 C 
HETATM   11  S1  UNL     1     -18.643   2.294   1.960  1.00  0.00    -0.063 SA
HETATM   12  C15 UNL     1     -16.705   0.487   2.497  1.00  0.00     0.191 C 
HETATM   13  N4  UNL     1     -15.332   0.535   1.998  1.00  0.00    -0.368 N 
ATOM     14  H4  UNL     1     -14.548   0.824   2.583  1.00  0.00     0.161 HD
ENDROOT
BRANCH   9  15
HETATM   15  C9  UNL     1     -18.637   0.905  -0.727  1.00  0.00     0.071 C 
BRANCH  15  16
HETATM   16  C10 UNL     1     -19.773  -0.021  -0.315  1.00  0.00     0.047 C 
BRANCH  16  17
HETATM   17  C11 UNL     1     -19.496  -1.451  -0.548  1.00  0.00     0.031 C 
BRANCH  17  18
HETATM   18  C12 UNL     1     -19.213  -2.310   0.621  1.00  0.00     0.167 C 
BRANCH  18  19
HETATM   19  O1  UNL     1     -17.871  -2.590   0.779  1.00  0.00    -0.396 OA
HETATM   20  C13 UNL     1     -17.390  -3.336  -0.323  1.00  0.00     0.201 C 
ENDBRANCH  18  19
ENDBRANCH  17  18
ENDBRANCH  16  17
ENDBRANCH  15  16
ENDBRANCH   9  15
BRANCH   1  21
HETATM   21  C3  UNL     1     -14.610  -1.036  -3.392  1.00  0.00     0.042 C 
BRANCH  21  22
HETATM   22  C2  UNL     1     -13.423  -0.392  -4.093  1.00  0.00     0.000 C 
HETATM   23  C1  UNL     1     -13.928  -0.003  -5.472  1.00  0.00     0.005 C 
ENDBRANCH  21  22
ENDBRANCH   1  21
TORSDOF 7
ENDMDL
MODEL 4
REMARK VINA RESULT: -6.147349961      1.888      2.367
REMARK  7 active torsions:
REMARK  status: ('A' for Active; 'I' for Inactive)
REMARK    1  A    between atoms: C2_2  and  C3_3 
REMARK    2  A    between atoms: C3_3  and  C4_4 
REMARK    3  A    between atoms: N3_12  and  C9_13 
REMARK    4  A    between atoms: C9_13  and  C10_14 
REMARK    5  A    between atoms: C10_14  and  C11_15 
REMARK    6  A    between atoms: C11_15  and  C12_16 
REMARK    7  A    between atoms: C12_16  and  O1_17 
ROOT
HETATM    1  C4  UNL     1     -14.857  -0.316  -3.712  1.00  0.00    -0.016 A 
HETATM    2  C5  UNL     1     -13.526  -0.480  -3.481  1.00  0.00     0.099 A 
HETATM    3  N1  UNL     1     -13.017  -0.700  -2.255  1.00  0.00    -0.350 N 
ATOM      4  H1  UNL     1     -12.010  -0.815  -2.138  1.00  0.00     0.166 HD
HETATM    5  C6  UNL     1     -13.825  -0.771  -1.187  1.00  0.00     0.131 A 
HETATM    6  C7  UNL     1     -15.212  -0.609  -1.374  1.00  0.00     0.108 A 
HETATM    7  C8  UNL     1     -15.729  -0.385  -2.619  1.00  0.00     0.085 A 
HETATM    8  N2  UNL     1     -17.108  -0.207  -2.818  1.00  0.00    -0.099 NA
HETATM    9  N3  UNL     1     -16.109  -0.679  -0.247  1.00  0.00    -0.314 N 
HETATM   10  C14 UNL     1     -15.437  -0.925   1.012  1.00  0.00     0.102 C 
HETATM   11  S1  UNL     1     -16.127  -0.400   2.417  1.00  0.00    -0.063 SA
HETATM   12  C15 UNL     1     -14.139  -1.640   1.067  1.00  0.00     0.191 C 
HETATM   13  N4  UNL     1     -13.250  -1.012   0.092  1.00  0.00    -0.368 N 
ATOM     14  H4  UNL     1     -12.286  -0.764   0.312  1.00  0.00     0.161 HD
ENDROOT
BRANCH   9  15
HETATM   15  C9  UNL     1     -17.512  -0.569  -0.266  1.00  0.00     0.071 C 
BRANCH  15  16
HETATM   16  C10 UNL     1     -17.996   0.873  -0.197  1.00  0.00     0.047 C 
BRANCH  16  17
HETATM   17  C11 UNL     1     -19.059   1.102   0.800  1.00  0.00     0.031 C 
BRANCH  17  18
HETATM   18  C12 UNL     1     -18.912   2.238   1.734  1.00  0.00     0.167 C 
BRANCH  18  19
HETATM   19  O1  UNL     1     -17.683   2.860   1.646  1.00  0.00    -0.396 OA
HETATM   20  C13 UNL     1     -17.097   2.974   2.929  1.00  0.00     0.201 C 
ENDBRANCH  18  19
ENDBRANCH  17  18
ENDBRANCH  16  17
ENDBRANCH  15  16
ENDBRANCH   9  15
BRANCH   1  21
HETATM   21  C3  UNL     1     -15.473  -0.084  -5.031  1.00  0.00     0.042 C 
BRANCH  21  22
HETATM   22  C2  UNL     1     -14.460   0.103  -6.152  1.00  0.00     0.000 C 
HETATM   23  C1  UNL     1     -15.284   0.278  -7.417  1.00  0.00     0.005 C 
ENDBRANCH  21  22
ENDBRANCH   1  21
TORSDOF 7
ENDMDL
MODEL 5
REMARK VINA RESULT: -6.142656189      0.827      1.103
REMARK  7 active torsions:
REMARK  status: ('A' for Active; 'I' for Inactive)
REMARK    1  A    between atoms: C2_2  and  C3_3 
REMARK    2  A    between atoms: C3_3  and  C4_4 
REMARK    3  A    between atoms: N3_12  and  C9_13 
REMARK    4  A    between atoms: C9_13  and  C10_14 
REMARK    5  A    between atoms: C10_14  and  C11_15 
REMARK    6  A    between atoms: C11_15  and  C12_16 
REMARK    7  A    between atoms: C12_16  and  O1_17 
ROOT
HETATM    1  C4  UNL     1     -14.809  -0.370  -3.640  1.00  0.00    -0.016 A 
HETATM    2  C5  UNL     1     -13.479  -0.508  -3.388  1.00  0.00     0.099 A 
HETATM    3  N1  UNL     1     -12.977  -0.631  -2.147  1.00  0.00    -0.350 N 
ATOM      4  H1  UNL     1     -11.969  -0.731  -2.015  1.00  0.00     0.166 HD
HETATM    5  C6  UNL     1     -13.791  -0.622  -1.081  1.00  0.00     0.131 A 
HETATM    6  C7  UNL     1     -15.178  -0.482  -1.288  1.00  0.00     0.108 A 
HETATM    7  C8  UNL     1     -15.688  -0.357  -2.551  1.00  0.00     0.085 A 
HETATM    8  N2  UNL     1     -17.066  -0.202  -2.771  1.00  0.00    -0.099 NA
HETATM    9  N3  UNL     1     -16.082  -0.468  -0.165  1.00  0.00    -0.314 N 
HETATM   10  C14 UNL     1     -15.417  -0.612   1.114  1.00  0.00     0.102 C 
HETATM   11  S1  UNL     1     -16.118   0.017   2.469  1.00  0.00    -0.063 SA
HETATM   12  C15 UNL     1     -14.116  -1.315   1.232  1.00  0.00     0.191 C 
HETATM   13  N4  UNL     1     -13.224  -0.760   0.216  1.00  0.00    -0.368 N 
ATOM     14  H4  UNL     1     -12.262  -0.491   0.422  1.00  0.00     0.161 HD
ENDROOT
BRANCH   9  15
HETATM   15  C9  UNL     1     -17.485  -0.366  -0.202  1.00  0.00     0.071 C 
BRANCH  15  16
HETATM   16  C10 UNL     1     -17.985   1.050   0.048  1.00  0.00     0.047 C 
BRANCH  16  17
HETATM   17  C11 UNL     1     -19.340   1.115   0.628  1.00  0.00     0.031 C 
BRANCH  17  18
HETATM   18  C12 UNL     1     -20.075  -0.150   0.837  1.00  0.00     0.167 C 
BRANCH  18  19
HETATM   19  O1  UNL     1     -21.040  -0.384  -0.122  1.00  0.00    -0.396 OA
HETATM   20  C13 UNL     1     -22.326  -0.408   0.469  1.00  0.00     0.201 C 
ENDBRANCH  18  19
ENDBRANCH  17  18
ENDBRANCH  16  17
ENDBRANCH  15  16
ENDBRANCH   9  15
BRANCH   1  21
HETATM   21  C3  UNL     1     -15.416  -0.244  -4.976  1.00  0.00     0.042 C 
BRANCH  21  22
HETATM   22  C2  UNL     1     -14.418   0.111  -6.069  1.00  0.00     0.000 C 
HETATM   23  C1  UNL     1     -15.248   0.308  -7.327  1.00  0.00     0.005 C 
ENDBRANCH  21  22
ENDBRANCH   1  21
TORSDOF 7
ENDMDL
