MODEL 1
REMARK VINA RESULT: -6.117203448      0.000      0.000
REMARK  8 active torsions:
REMARK  status: ('A' for Active; 'I' for Inactive)
REMARK    1  A    between atoms: S1_3  and  C2_4 
REMARK    2  A    between atoms: C2_4  and  C3_5 
REMARK    3  A    between atoms: C3_5  and  N2_6 
REMARK    4  A    between atoms: N2_6  and  C4_8 
REMARK    5  A    between atoms: C4_8  and  N3_10 
REMARK       I    between atoms: N3_10  and  C5_12 
REMARK    6  A    between atoms: C5_12  and  C6_14 
REMARK    7  A    between atoms: C6_14  and  C7_15 
REMARK    8  A    between atoms: C7_15  and  C8_16 
ROOT
HETATM    1  N1  UNL     1     -16.292   3.034   2.002  1.00  0.00    -0.184 NA
HETATM    2  C1  UNL     1     -16.591   2.140   2.674  1.00  0.00     0.133 C 
HETATM    3  S1  UNL     1     -17.049   0.752   3.707  1.00  0.00    -0.049 SA
ENDROOT
BRANCH   3   4
HETATM    4  C2  UNL     1     -18.622   0.075   3.307  1.00  0.00     0.110 C 
BRANCH   4   5
HETATM    5  C3  UNL     1     -19.715   0.917   2.799  1.00  0.00     0.133 C 
BRANCH   5   6
HETATM    6  N2  UNL     1     -20.045   0.894   1.415  1.00  0.00    -0.366 N 
ATOM      7  H2  UNL     1     -20.055   1.822   0.992  1.00  0.00     0.161 HD
BRANCH   6   8
HETATM    8  C4  UNL     1     -20.354  -0.112   0.520  1.00  0.00     0.174 C 
HETATM    9  S2  UNL     1     -21.904  -0.718   0.505  1.00  0.00    -0.041 SA
BRANCH   8  10
HETATM   10  N3  UNL     1     -19.506  -0.636  -0.449  1.00  0.00    -0.304 N 
HETATM   11  C5  UNL     1     -18.651   0.084  -1.312  1.00  0.00     0.223 C 
HETATM   12  O1  UNL     1     -18.498   1.314  -1.360  1.00  0.00    -0.273 OA
ATOM     13  H3  UNL     1     -19.500  -1.652  -0.548  1.00  0.00     0.171 HD
BRANCH  11  14
HETATM   14  C6  UNL     1     -17.801  -0.696  -2.315  1.00  0.00     0.103 C 
BRANCH  14  15
HETATM   15  C7  UNL     1     -16.390  -0.631  -1.855  1.00  0.00     0.014 C 
BRANCH  15  16
HETATM   16  C8  UNL     1     -15.362  -0.990  -2.871  1.00  0.00    -0.014 C 
HETATM   17  C9  UNL     1     -15.934  -0.690  -4.239  1.00  0.00     0.004 C 
HETATM   18  C10 UNL     1     -15.072   0.323  -4.974  1.00  0.00     0.000 C 
HETATM   19  C11 UNL     1     -13.646  -0.147  -5.111  1.00  0.00     0.000 C 
HETATM   20  C12 UNL     1     -13.078  -0.672  -3.796  1.00  0.00     0.000 C 
HETATM   21  C13 UNL     1     -14.041  -0.302  -2.665  1.00  0.00     0.004 C 
ENDBRANCH  15  16
ENDBRANCH  14  15
ENDBRANCH  11  14
ENDBRANCH   8  10
ENDBRANCH   6   8
ENDBRANCH   5   6
ENDBRANCH   4   5
ENDBRANCH   3   4
TORSDOF 8
ENDMDL
MODEL 2
REMARK VINA RESULT: -6.043969144      1.687      2.268
REMARK  8 active torsions:
REMARK  status: ('A' for Active; 'I' for Inactive)
REMARK    1  A    between atoms: S1_3  and  C2_4 
REMARK    2  A    between atoms: C2_4  and  C3_5 
REMARK    3  A    between atoms: C3_5  and  N2_6 
REMARK    4  A    between atoms: N2_6  and  C4_8 
REMARK    5  A    between atoms: C4_8  and  N3_10 
REMARK       I    between atoms: N3_10  and  C5_12 
REMARK    6  A    between atoms: C5_12  and  C6_14 
REMARK    7  A    between atoms: C6_14  and  C7_15 
REMARK    8  A    between atoms: C7_15  and  C8_16 
ROOT
HETATM    1  N1  UNL     1     -16.144  -1.343   2.558  1.00  0.00    -0.184 NA
HETATM    2  C1  UNL     1     -15.940  -0.289   2.125  1.00  0.00     0.133 C 
HETATM    3  S1  UNL     1     -15.616   1.341   1.461  1.00  0.00    -0.049 SA
ENDROOT
BRANCH   3   4
HETATM    4  C2  UNL     1     -16.374   2.632   2.385  1.00  0.00     0.110 C 
BRANCH   4   5
HETATM    5  C3  UNL     1     -17.797   2.581   2.752  1.00  0.00     0.133 C 
BRANCH   5   6
HETATM    6  N2  UNL     1     -18.772   2.252   1.771  1.00  0.00    -0.366 N 
ATOM      7  H2  UNL     1     -19.046   3.050   1.197  1.00  0.00     0.161 HD
BRANCH   6   8
HETATM    8  C4  UNL     1     -19.431   1.087   1.426  1.00  0.00     0.174 C 
HETATM    9  S2  UNL     1     -20.855   0.716   2.202  1.00  0.00    -0.041 SA
BRANCH   8  10
HETATM   10  N3  UNL     1     -19.059   0.203   0.419  1.00  0.00    -0.304 N 
HETATM   11  C5  UNL     1     -18.621   0.532  -0.883  1.00  0.00     0.223 C 
HETATM   12  O1  UNL     1     -18.483   1.666  -1.363  1.00  0.00    -0.273 OA
ATOM     13  H3  UNL     1     -19.108  -0.791   0.644  1.00  0.00     0.171 HD
BRANCH  11  14
HETATM   14  C6  UNL     1     -18.266  -0.605  -1.841  1.00  0.00     0.103 C 
BRANCH  14  15
HETATM   15  C7  UNL     1     -16.858  -0.999  -1.570  1.00  0.00     0.014 C 
BRANCH  15  16
HETATM   16  C8  UNL     1     -15.825  -0.302  -2.383  1.00  0.00    -0.014 C 
HETATM   17  C9  UNL     1     -14.491  -0.474  -1.691  1.00  0.00     0.004 C 
HETATM   18  C10 UNL     1     -13.499  -1.183  -2.599  1.00  0.00     0.000 C 
HETATM   19  C11 UNL     1     -13.305  -0.447  -3.901  1.00  0.00     0.000 C 
HETATM   20  C12 UNL     1     -14.628  -0.048  -4.547  1.00  0.00     0.000 C 
HETATM   21  C13 UNL     1     -15.765  -0.763  -3.813  1.00  0.00     0.004 C 
ENDBRANCH  15  16
ENDBRANCH  14  15
ENDBRANCH  11  14
ENDBRANCH   8  10
ENDBRANCH   6   8
ENDBRANCH   5   6
ENDBRANCH   4   5
ENDBRANCH   3   4
TORSDOF 8
ENDMDL
MODEL 3
REMARK VINA RESULT: -6.024862825      3.905      7.252
REMARK  8 active torsions:
REMARK  status: ('A' for Active; 'I' for Inactive)
REMARK    1  A    between atoms: S1_3  and  C2_4 
REMARK    2  A    between atoms: C2_4  and  C3_5 
REMARK    3  A    between atoms: C3_5  and  N2_6 
REMARK    4  A    between atoms: N2_6  and  C4_8 
REMARK    5  A    between atoms: C4_8  and  N3_10 
REMARK       I    between atoms: N3_10  and  C5_12 
REMARK    6  A    between atoms: C5_12  and  C6_14 
REMARK    7  A    between atoms: C6_14  and  C7_15 
REMARK    8  A    between atoms: C7_15  and  C8_16 
ROOT
HETATM    1  N1  UNL     1     -15.610   0.751  -8.226  1.00  0.00    -0.184 NA
HETATM    2  C1  UNL     1     -15.470   0.341  -7.153  1.00  0.00     0.133 C 
HETATM    3  S1  UNL     1     -15.253  -0.283  -5.489  1.00  0.00    -0.049 SA
ENDROOT
BRANCH   3   4
HETATM    4  C2  UNL     1     -13.568  -0.371  -4.993  1.00  0.00     0.110 C 
BRANCH   4   5
HETATM    5  C3  UNL     1     -13.186  -0.417  -3.573  1.00  0.00     0.133 C 
BRANCH   5   6
HETATM    6  N2  UNL     1     -14.190  -0.514  -2.571  1.00  0.00    -0.366 N 
ATOM      7  H2  UNL     1     -14.663   0.373  -2.393  1.00  0.00     0.161 HD
BRANCH   6   8
HETATM    8  C4  UNL     1     -14.665  -1.547  -1.785  1.00  0.00     0.174 C 
HETATM    9  S2  UNL     1     -13.596  -2.713  -1.269  1.00  0.00    -0.041 SA
BRANCH   8  10
HETATM   10  N3  UNL     1     -15.962  -1.680  -1.303  1.00  0.00    -0.304 N 
HETATM   11  C5  UNL     1     -17.092  -0.918  -1.676  1.00  0.00     0.223 C 
HETATM   12  O1  UNL     1     -17.133   0.005  -2.503  1.00  0.00    -0.273 OA
ATOM     13  H3  UNL     1     -16.116  -2.407  -0.604  1.00  0.00     0.171 HD
BRANCH  11  14
HETATM   14  C6  UNL     1     -18.433  -1.229  -1.012  1.00  0.00     0.103 C 
BRANCH  14  15
HETATM   15  C7  UNL     1     -19.211   0.036  -0.956  1.00  0.00     0.014 C 
BRANCH  15  16
HETATM   16  C8  UNL     1     -19.274   0.697   0.376  1.00  0.00    -0.014 C 
HETATM   17  C9  UNL     1     -18.779  -0.289   1.410  1.00  0.00     0.004 C 
HETATM   18  C10 UNL     1     -17.569   0.262   2.147  1.00  0.00     0.000 C 
HETATM   19  C11 UNL     1     -17.869   1.583   2.807  1.00  0.00     0.000 C 
HETATM   20  C12 UNL     1     -18.574   2.557   1.868  1.00  0.00     0.000 C 
HETATM   21  C13 UNL     1     -18.515   1.993   0.446  1.00  0.00     0.004 C 
ENDBRANCH  15  16
ENDBRANCH  14  15
ENDBRANCH  11  14
ENDBRANCH   8  10
ENDBRANCH   6   8
ENDBRANCH   5   6
ENDBRANCH   4   5
ENDBRANCH   3   4
TORSDOF 8
ENDMDL
MODEL 4
REMARK VINA RESULT: -5.977748391      7.107      9.239
REMARK  8 active torsions:
REMARK  status: ('A' for Active; 'I' for Inactive)
REMARK    1  A    between atoms: S1_3  and  C2_4 
REMARK    2  A    between atoms: C2_4  and  C3_5 
REMARK    3  A    between atoms: C3_5  and  N2_6 
REMARK    4  A    between atoms: N2_6  and  C4_8 
REMARK    5  A    between atoms: C4_8  and  N3_10 
REMARK       I    between atoms: N3_10  and  C5_12 
REMARK    6  A    between atoms: C5_12  and  C6_14 
REMARK    7  A    between atoms: C6_14  and  C7_15 
REMARK    8  A    between atoms: C7_15  and  C8_16 
ROOT
HETATM    1  N1  UNL     1     -11.635  -8.418   0.070  1.00  0.00    -0.184 NA
HETATM    2  C1  UNL     1     -10.522  -8.503  -0.236  1.00  0.00     0.133 C 
HETATM    3  S1  UNL     1      -8.798  -8.626  -0.704  1.00  0.00    -0.049 SA
ENDROOT
BRANCH   3   4
HETATM    4  C2  UNL     1      -8.394  -7.676  -2.129  1.00  0.00     0.110 C 
BRANCH   4   5
HETATM    5  C3  UNL     1      -8.482  -6.208  -2.125  1.00  0.00     0.133 C 
BRANCH   5   6
HETATM    6  N2  UNL     1      -9.738  -5.573  -1.922  1.00  0.00    -0.366 N 
ATOM      7  H2  UNL     1     -10.369  -5.673  -2.718  1.00  0.00     0.161 HD
BRANCH   6   8
HETATM    8  C4  UNL     1     -10.290  -4.848  -0.883  1.00  0.00     0.174 C 
HETATM    9  S2  UNL     1      -9.458  -4.757   0.556  1.00  0.00    -0.041 SA
BRANCH   8  10
HETATM   10  N3  UNL     1     -11.462  -4.103  -0.936  1.00  0.00    -0.304 N 
HETATM   11  C5  UNL     1     -12.741  -4.554  -1.329  1.00  0.00     0.223 C 
HETATM   12  O1  UNL     1     -13.052  -5.698  -1.694  1.00  0.00    -0.273 OA
ATOM     13  H3  UNL     1     -11.391  -3.123  -0.661  1.00  0.00     0.171 HD
BRANCH  11  14
HETATM   14  C6  UNL     1     -13.901  -3.558  -1.320  1.00  0.00     0.103 C 
BRANCH  14  15
HETATM   15  C7  UNL     1     -13.319  -2.191  -1.335  1.00  0.00     0.014 C 
BRANCH  15  16
HETATM   16  C8  UNL     1     -14.174  -1.132  -1.939  1.00  0.00    -0.014 C 
HETATM   17  C9  UNL     1     -13.342  -0.386  -2.958  1.00  0.00     0.004 C 
HETATM   18  C10 UNL     1     -13.968  -0.480  -4.340  1.00  0.00     0.000 C 
HETATM   19  C11 UNL     1     -15.381   0.046  -4.353  1.00  0.00     0.000 C 
HETATM   20  C12 UNL     1     -16.219  -0.509  -3.205  1.00  0.00     0.000 C 
HETATM   21  C13 UNL     1     -15.447  -1.654  -2.545  1.00  0.00     0.004 C 
ENDBRANCH  15  16
ENDBRANCH  14  15
ENDBRANCH  11  14
ENDBRANCH   8  10
ENDBRANCH   6   8
ENDBRANCH   5   6
ENDBRANCH   4   5
ENDBRANCH   3   4
TORSDOF 8
ENDMDL
MODEL 5
REMARK VINA RESULT: -5.933300370      6.751      8.314
REMARK  8 active torsions:
REMARK  status: ('A' for Active; 'I' for Inactive)
REMARK    1  A    between atoms: S1_3  and  C2_4 
REMARK    2  A    between atoms: C2_4  and  C3_5 
REMARK    3  A    between atoms: C3_5  and  N2_6 
REMARK    4  A    between atoms: N2_6  and  C4_8 
REMARK    5  A    between atoms: C4_8  and  N3_10 
REMARK       I    between atoms: N3_10  and  C5_12 
REMARK    6  A    between atoms: C5_12  and  C6_14 
REMARK    7  A    between atoms: C6_14  and  C7_15 
REMARK    8  A    between atoms: C7_15  and  C8_16 
ROOT
HETATM    1  N1  UNL     1      -5.793  -3.719  -0.695  1.00  0.00    -0.184 NA
HETATM    2  C1  UNL     1      -6.365  -4.620  -0.247  1.00  0.00     0.133 C 
HETATM    3  S1  UNL     1      -7.252  -6.017   0.437  1.00  0.00    -0.049 SA
ENDROOT
BRANCH   3   4
HETATM    4  C2  UNL     1      -8.897  -5.626   0.924  1.00  0.00     0.110 C 
BRANCH   4   5
HETATM    5  C3  UNL     1      -9.707  -4.650   0.179  1.00  0.00     0.133 C 
BRANCH   5   6
HETATM    6  N2  UNL     1     -10.577  -5.093  -0.855  1.00  0.00    -0.366 N 
ATOM      7  H2  UNL     1     -10.148  -5.059  -1.780  1.00  0.00     0.161 HD
BRANCH   6   8
HETATM    8  C4  UNL     1     -11.879  -5.558  -0.881  1.00  0.00     0.174 C 
HETATM    9  S2  UNL     1     -12.207  -7.047  -0.213  1.00  0.00    -0.041 SA
BRANCH   8  10
HETATM   10  N3  UNL     1     -12.988  -4.865  -1.351  1.00  0.00    -0.304 N 
HETATM   11  C5  UNL     1     -13.304  -3.508  -1.121  1.00  0.00     0.223 C 
HETATM   12  O1  UNL     1     -12.649  -2.687  -0.462  1.00  0.00    -0.273 OA
ATOM     13  H3  UNL     1     -13.645  -5.393  -1.925  1.00  0.00     0.171 HD
BRANCH  11  14
HETATM   14  C6  UNL     1     -14.587  -2.944  -1.732  1.00  0.00     0.103 C 
BRANCH  14  15
HETATM   15  C7  UNL     1     -14.673  -1.509  -1.353  1.00  0.00     0.014 C 
BRANCH  15  16
HETATM   16  C8  UNL     1     -14.688  -0.542  -2.484  1.00  0.00    -0.014 C 
HETATM   17  C9  UNL     1     -13.258  -0.303  -2.913  1.00  0.00     0.004 C 
HETATM   18  C10 UNL     1     -13.059  -0.690  -4.370  1.00  0.00     0.000 C 
HETATM   19  C11 UNL     1     -13.996   0.060  -5.282  1.00  0.00     0.000 C 
HETATM   20  C12 UNL     1     -15.437   0.040  -4.781  1.00  0.00     0.000 C 
HETATM   21  C13 UNL     1     -15.544  -0.977  -3.642  1.00  0.00     0.004 C 
ENDBRANCH  15  16
ENDBRANCH  14  15
ENDBRANCH  11  14
ENDBRANCH   8  10
ENDBRANCH   6   8
ENDBRANCH   5   6
ENDBRANCH   4   5
ENDBRANCH   3   4
TORSDOF 8
ENDMDL
