MODEL 1
REMARK VINA RESULT: -8.454694816      0.000      0.000
REMARK  10 active torsions:
REMARK  status: ('A' for Active; 'I' for Inactive)
REMARK    1  A    between atoms: C2_2  and  C3_4 
REMARK    2  A    between atoms: C7_9  and  C8_10 
REMARK    3  A    between atoms: C8_10  and  C9_12 
REMARK    4  A    between atoms: C9_12  and  O1_13 
REMARK    5  A    between atoms: O1_13  and  C10_14 
REMARK    6  A    between atoms: C10_14  and  C11_15 
REMARK    7  A    between atoms: C11_15  and  O2_16 
REMARK    8  A    between atoms: C11_15  and  C12_18 
REMARK    9  A    between atoms: C12_18  and  C13_19 
REMARK   10  A    between atoms: C13_19  and  N1_20 
ROOT
HETATM    1  C8  UNL     1     -19.711   6.956  -0.179  1.00  0.00     0.228 C 
HETATM    2  F1  UNL     1     -18.500   6.528  -0.666  1.00  0.00    -0.242 F 
ENDROOT
BRANCH   1   3
HETATM    3  C7  UNL     1     -20.201   5.968   0.849  1.00  0.00    -0.000 A 
HETATM    4  C6  UNL     1     -20.659   4.737   0.432  1.00  0.00     0.043 A 
HETATM    5  C5  UNL     1     -21.101   3.863   1.408  1.00  0.00     0.025 A 
HETATM    6 CL2  UNL     1     -20.688   4.280  -1.263  1.00  0.00    -0.084 Cl
HETATM    7  C4  UNL     1     -21.094   4.189   2.760  1.00  0.00     0.010 A 
HETATM    8  C3  UNL     1     -20.634   5.423   3.165  1.00  0.00    -0.039 A 
HETATM    9  C14 UNL     1     -20.193   6.291   2.183  1.00  0.00     0.020 A 
BRANCH   8  10
HETATM   10  C2  UNL     1     -20.616   5.796   4.604  1.00  0.00     0.111 C 
HETATM   11  C1  UNL     1     -21.011   4.568   5.434  1.00  0.00     0.032 C 
HETATM   12 CL1  UNL     1     -18.942   6.199   5.074  1.00  0.00    -0.120 Cl
ENDBRANCH   8  10
ENDBRANCH   1   3
BRANCH   1  13
HETATM   13  C9  UNL     1     -19.543   8.304   0.443  1.00  0.00     0.209 C 
BRANCH  13  14
HETATM   14  O1  UNL     1     -20.151   9.282  -0.293  1.00  0.00    -0.386 OA
BRANCH  14  15
HETATM   15  C10 UNL     1     -19.670   9.424  -1.585  1.00  0.00     0.199 C 
BRANCH  15  16
HETATM   16  C11 UNL     1     -19.266  10.878  -1.724  1.00  0.00     0.143 C 
BRANCH  16  17
HETATM   17  O2  UNL     1     -19.688  11.307  -2.979  1.00  0.00    -0.393 OA
ATOM     18  H2  UNL     1     -19.938  12.220  -2.896  1.00  0.00     0.210 HD
ENDBRANCH  16  17
BRANCH  16  19
HETATM   19  C12 UNL     1     -19.885  11.760  -0.677  1.00  0.00     0.061 C 
BRANCH  19  20
HETATM   20  C13 UNL     1     -19.859  13.214  -1.037  1.00  0.00     0.232 C 
BRANCH  20  21
HETATM   21  N1  UNL     1     -20.971  13.539  -1.912  1.00  0.00    -0.079 N 
ATOM     22  H13 UNL     1     -21.775  13.888  -1.391  1.00  0.00     0.274 HD
ATOM     23  H12 UNL     1     -20.783  14.369  -2.473  1.00  0.00     0.274 HD
ATOM     24  H11 UNL     1     -21.214  12.736  -2.492  1.00  0.00     0.274 HD
ENDBRANCH  20  21
ENDBRANCH  19  20
ENDBRANCH  16  19
ENDBRANCH  15  16
ENDBRANCH  14  15
ENDBRANCH  13  14
ENDBRANCH   1  13
TORSDOF 10
ENDMDL
MODEL 2
REMARK VINA RESULT: -8.032347722      1.496      3.448
REMARK  10 active torsions:
REMARK  status: ('A' for Active; 'I' for Inactive)
REMARK    1  A    between atoms: C2_2  and  C3_4 
REMARK    2  A    between atoms: C7_9  and  C8_10 
REMARK    3  A    between atoms: C8_10  and  C9_12 
REMARK    4  A    between atoms: C9_12  and  O1_13 
REMARK    5  A    between atoms: O1_13  and  C10_14 
REMARK    6  A    between atoms: C10_14  and  C11_15 
REMARK    7  A    between atoms: C11_15  and  O2_16 
REMARK    8  A    between atoms: C11_15  and  C12_18 
REMARK    9  A    between atoms: C12_18  and  C13_19 
REMARK   10  A    between atoms: C13_19  and  N1_20 
ROOT
HETATM    1  C8  UNL     1     -20.801   7.810   1.664  1.00  0.00     0.228 C 
HETATM    2  F1  UNL     1     -21.998   8.321   1.226  1.00  0.00    -0.242 F 
ENDROOT
BRANCH   1   3
HETATM    3  C7  UNL     1     -20.821   6.311   1.507  1.00  0.00    -0.000 A 
HETATM    4  C6  UNL     1     -20.856   5.518   2.635  1.00  0.00     0.043 A 
HETATM    5  C5  UNL     1     -20.872   4.149   2.444  1.00  0.00     0.025 A 
HETATM    6 CL2  UNL     1     -20.878   6.201   4.252  1.00  0.00    -0.084 Cl
HETATM    7  C4  UNL     1     -20.855   3.571   1.179  1.00  0.00     0.010 A 
HETATM    8  C3  UNL     1     -20.820   4.374   0.060  1.00  0.00    -0.039 A 
HETATM    9  C14 UNL     1     -20.805   5.742   0.258  1.00  0.00     0.020 A 
BRANCH   8  10
HETATM   10  C2  UNL     1     -20.801   3.781  -1.304  1.00  0.00     0.111 C 
HETATM   11  C1  UNL     1     -22.233   3.382  -1.684  1.00  0.00     0.032 C 
HETATM   12 CL1  UNL     1     -20.306   5.036  -2.472  1.00  0.00    -0.120 Cl
ENDBRANCH   8  10
ENDBRANCH   1   3
BRANCH   1  13
HETATM   13  C9  UNL     1     -19.689   8.396   0.857  1.00  0.00     0.209 C 
BRANCH  13  14
HETATM   14  O1  UNL     1     -20.152   9.272  -0.084  1.00  0.00    -0.386 OA
BRANCH  14  15
HETATM   15  C10 UNL     1     -19.393   9.337  -1.243  1.00  0.00     0.199 C 
BRANCH  15  16
HETATM   16  C11 UNL     1     -19.238  10.811  -1.559  1.00  0.00     0.143 C 
BRANCH  16  17
HETATM   17  O2  UNL     1     -19.642  10.997  -2.879  1.00  0.00    -0.393 OA
ATOM     18  H2  UNL     1     -20.590  11.055  -2.879  1.00  0.00     0.210 HD
ENDBRANCH  16  17
BRANCH  16  19
HETATM   19  C12 UNL     1     -20.071  11.692  -0.670  1.00  0.00     0.061 C 
BRANCH  19  20
HETATM   20  C13 UNL     1     -19.879  13.154  -0.938  1.00  0.00     0.232 C 
BRANCH  20  21
HETATM   21  N1  UNL     1     -20.564  13.539  -2.158  1.00  0.00    -0.079 N 
ATOM     22  H13 UNL     1     -21.564  13.671  -2.006  1.00  0.00     0.274 HD
ATOM     23  H12 UNL     1     -20.327  14.490  -2.442  1.00  0.00     0.274 HD
ATOM     24  H11 UNL     1     -20.379  12.863  -2.899  1.00  0.00     0.274 HD
ENDBRANCH  20  21
ENDBRANCH  19  20
ENDBRANCH  16  19
ENDBRANCH  15  16
ENDBRANCH  14  15
ENDBRANCH  13  14
ENDBRANCH   1  13
TORSDOF 10
ENDMDL
MODEL 3
REMARK VINA RESULT: -7.840253888      5.131      7.762
REMARK  10 active torsions:
REMARK  status: ('A' for Active; 'I' for Inactive)
REMARK    1  A    between atoms: C2_2  and  C3_4 
REMARK    2  A    between atoms: C7_9  and  C8_10 
REMARK    3  A    between atoms: C8_10  and  C9_12 
REMARK    4  A    between atoms: C9_12  and  O1_13 
REMARK    5  A    between atoms: O1_13  and  C10_14 
REMARK    6  A    between atoms: C10_14  and  C11_15 
REMARK    7  A    between atoms: C11_15  and  O2_16 
REMARK    8  A    between atoms: C11_15  and  C12_18 
REMARK    9  A    between atoms: C12_18  and  C13_19 
REMARK   10  A    between atoms: C13_19  and  N1_20 
ROOT
HETATM    1  C8  UNL     1     -20.471   6.022   3.760  1.00  0.00     0.228 C 
HETATM    2  F1  UNL     1     -21.301   7.106   3.909  1.00  0.00    -0.242 F 
ENDROOT
BRANCH   1   3
HETATM    3  C7  UNL     1     -20.302   5.733   2.291  1.00  0.00    -0.000 A 
HETATM    4  C6  UNL     1     -20.713   4.514   1.794  1.00  0.00     0.043 A 
HETATM    5  C5  UNL     1     -20.538   4.292   0.442  1.00  0.00     0.025 A 
HETATM    6 CL2  UNL     1     -21.430   3.285   2.823  1.00  0.00    -0.084 Cl
HETATM    7  C4  UNL     1     -19.973   5.240  -0.405  1.00  0.00     0.010 A 
HETATM    8  C3  UNL     1     -19.566   6.455   0.103  1.00  0.00    -0.039 A 
HETATM    9  C14 UNL     1     -19.745   6.671   1.457  1.00  0.00     0.020 A 
BRANCH   8  10
HETATM   10  C2  UNL     1     -18.960   7.486  -0.780  1.00  0.00     0.111 C 
HETATM   11  C1  UNL     1     -19.156   7.058  -2.240  1.00  0.00     0.032 C 
HETATM   12 CL1  UNL     1     -19.858   9.015  -0.582  1.00  0.00    -0.120 Cl
ENDBRANCH   8  10
ENDBRANCH   1   3
BRANCH   1  13
HETATM   13  C9  UNL     1     -19.146   6.328   4.380  1.00  0.00     0.209 C 
BRANCH  13  14
HETATM   14  O1  UNL     1     -18.992   5.702   5.585  1.00  0.00    -0.386 OA
BRANCH  14  15
HETATM   15  C10 UNL     1     -20.157   5.568   6.325  1.00  0.00     0.199 C 
BRANCH  15  16
HETATM   16  C11 UNL     1     -19.765   5.807   7.769  1.00  0.00     0.143 C 
BRANCH  16  17
HETATM   17  O2  UNL     1     -20.691   6.695   8.308  1.00  0.00    -0.393 OA
ATOM     18  H2  UNL     1     -20.533   6.735   9.244  1.00  0.00     0.210 HD
ENDBRANCH  16  17
BRANCH  16  19
HETATM   19  C12 UNL     1     -19.764   4.549   8.591  1.00  0.00     0.061 C 
BRANCH  19  20
HETATM   20  C13 UNL     1     -18.897   4.640   9.811  1.00  0.00     0.232 C 
BRANCH  20  21
HETATM   21  N1  UNL     1     -19.425   5.629  10.734  1.00  0.00    -0.079 N 
ATOM     22  H13 UNL     1     -20.292   6.042  10.392  1.00  0.00     0.274 HD
ATOM     23  H12 UNL     1     -19.787   5.199  11.585  1.00  0.00     0.274 HD
ATOM     24  H11 UNL     1     -18.720   6.338  10.937  1.00  0.00     0.274 HD
ENDBRANCH  20  21
ENDBRANCH  19  20
ENDBRANCH  16  19
ENDBRANCH  15  16
ENDBRANCH  14  15
ENDBRANCH  13  14
ENDBRANCH   1  13
TORSDOF 10
ENDMDL
MODEL 4
REMARK VINA RESULT: -7.840133174      5.252      7.848
REMARK  10 active torsions:
REMARK  status: ('A' for Active; 'I' for Inactive)
REMARK    1  A    between atoms: C2_2  and  C3_4 
REMARK    2  A    between atoms: C7_9  and  C8_10 
REMARK    3  A    between atoms: C8_10  and  C9_12 
REMARK    4  A    between atoms: C9_12  and  O1_13 
REMARK    5  A    between atoms: O1_13  and  C10_14 
REMARK    6  A    between atoms: C10_14  and  C11_15 
REMARK    7  A    between atoms: C11_15  and  O2_16 
REMARK    8  A    between atoms: C11_15  and  C12_18 
REMARK    9  A    between atoms: C12_18  and  C13_19 
REMARK   10  A    between atoms: C13_19  and  N1_20 
ROOT
HETATM    1  C8  UNL     1     -20.534   5.740   4.430  1.00  0.00     0.228 C 
HETATM    2  F1  UNL     1     -21.474   6.699   4.714  1.00  0.00    -0.242 F 
ENDROOT
BRANCH   1   3
HETATM    3  C7  UNL     1     -20.382   5.629   2.935  1.00  0.00    -0.000 A 
HETATM    4  C6  UNL     1     -20.764   4.463   2.306  1.00  0.00     0.043 A 
HETATM    5  C5  UNL     1     -20.607   4.405   0.934  1.00  0.00     0.025 A 
HETATM    6 CL2  UNL     1     -21.424   3.100   3.193  1.00  0.00    -0.084 Cl
HETATM    7  C4  UNL     1     -20.088   5.464   0.196  1.00  0.00     0.010 A 
HETATM    8  C3  UNL     1     -19.709   6.624   0.836  1.00  0.00    -0.039 A 
HETATM    9  C14 UNL     1     -19.870   6.675   2.208  1.00  0.00     0.020 A 
BRANCH   8  10
HETATM   10  C2  UNL     1     -19.152   7.770   0.071  1.00  0.00     0.111 C 
HETATM   11  C1  UNL     1     -19.053   7.372  -1.407  1.00  0.00     0.032 C 
HETATM   12 CL1  UNL     1     -20.305   9.130   0.147  1.00  0.00    -0.120 Cl
ENDBRANCH   8  10
ENDBRANCH   1   3
BRANCH   1  13
HETATM   13  C9  UNL     1     -19.232   6.128   5.051  1.00  0.00     0.209 C 
BRANCH  13  14
HETATM   14  O1  UNL     1     -18.998   5.446   6.212  1.00  0.00    -0.386 OA
BRANCH  14  15
HETATM   15  C10 UNL     1     -20.087   5.359   7.066  1.00  0.00     0.199 C 
BRANCH  15  16
HETATM   16  C11 UNL     1     -19.800   6.312   8.208  1.00  0.00     0.143 C 
BRANCH  16  17
HETATM   17  O2  UNL     1     -20.977   7.005   8.475  1.00  0.00    -0.393 OA
ATOM     18  H2  UNL     1     -21.358   6.625   9.258  1.00  0.00     0.210 HD
ENDBRANCH  16  17
BRANCH  16  19
HETATM   19  C12 UNL     1     -19.358   5.609   9.460  1.00  0.00     0.061 C 
BRANCH  19  20
HETATM   20  C13 UNL     1     -19.618   4.133   9.434  1.00  0.00     0.232 C 
BRANCH  20  21
HETATM   21  N1  UNL     1     -18.514   3.436   8.800  1.00  0.00    -0.079 N 
ATOM     22  H13 UNL     1     -18.700   3.248   7.815  1.00  0.00     0.274 HD
ATOM     23  H12 UNL     1     -17.698   4.037   8.689  1.00  0.00     0.274 HD
ATOM     24  H11 UNL     1     -18.290   2.582   9.313  1.00  0.00     0.274 HD
ENDBRANCH  20  21
ENDBRANCH  19  20
ENDBRANCH  16  19
ENDBRANCH  15  16
ENDBRANCH  14  15
ENDBRANCH  13  14
ENDBRANCH   1  13
TORSDOF 10
ENDMDL
MODEL 5
REMARK VINA RESULT: -7.751373971      4.792      6.513
REMARK  10 active torsions:
REMARK  status: ('A' for Active; 'I' for Inactive)
REMARK    1  A    between atoms: C2_2  and  C3_4 
REMARK    2  A    between atoms: C7_9  and  C8_10 
REMARK    3  A    between atoms: C8_10  and  C9_12 
REMARK    4  A    between atoms: C9_12  and  O1_13 
REMARK    5  A    between atoms: O1_13  and  C10_14 
REMARK    6  A    between atoms: C10_14  and  C11_15 
REMARK    7  A    between atoms: C11_15  and  O2_16 
REMARK    8  A    between atoms: C11_15  and  C12_18 
REMARK    9  A    between atoms: C12_18  and  C13_19 
REMARK   10  A    between atoms: C13_19  and  N1_20 
ROOT
HETATM    1  C8  UNL     1     -21.223   4.181  -0.184  1.00  0.00     0.228 C 
HETATM    2  F1  UNL     1     -22.462   3.775   0.248  1.00  0.00    -0.242 F 
ENDROOT
BRANCH   1   3
HETATM    3  C7  UNL     1     -20.682   5.210   0.775  1.00  0.00    -0.000 A 
HETATM    4  C6  UNL     1     -19.960   6.275   0.280  1.00  0.00     0.043 A 
HETATM    5  C5  UNL     1     -19.482   7.193   1.195  1.00  0.00     0.025 A 
HETATM    6 CL2  UNL     1     -19.650   6.471  -1.437  1.00  0.00    -0.084 Cl
HETATM    7  C4  UNL     1     -19.706   7.072   2.563  1.00  0.00     0.010 A 
HETATM    8  C3  UNL     1     -20.429   6.003   3.045  1.00  0.00    -0.039 A 
HETATM    9  C14 UNL     1     -20.905   5.089   2.124  1.00  0.00     0.020 A 
BRANCH   8  10
HETATM   10  C2  UNL     1     -20.684   5.850   4.502  1.00  0.00     0.111 C 
HETATM   11  C1  UNL     1     -21.097   4.399   4.778  1.00  0.00     0.032 C 
HETATM   12 CL1  UNL     1     -19.155   6.111   5.385  1.00  0.00    -0.120 Cl
ENDBRANCH   8  10
ENDBRANCH   1   3
BRANCH   1  13
HETATM   13  C9  UNL     1     -20.310   3.000  -0.240  1.00  0.00     0.209 C 
BRANCH  13  14
HETATM   14  O1  UNL     1     -20.119   2.565  -1.520  1.00  0.00    -0.386 OA
BRANCH  14  15
HETATM   15  C10 UNL     1     -20.894   3.205  -2.475  1.00  0.00     0.199 C 
BRANCH  15  16
HETATM   16  C11 UNL     1     -20.580   2.526  -3.793  1.00  0.00     0.143 C 
BRANCH  16  17
HETATM   17  O2  UNL     1     -19.232   2.180  -3.770  1.00  0.00    -0.393 OA
ATOM     18  H2  UNL     1     -18.891   2.313  -4.647  1.00  0.00     0.210 HD
ENDBRANCH  16  17
BRANCH  16  19
HETATM   19  C12 UNL     1     -21.395   1.284  -4.021  1.00  0.00     0.061 C 
BRANCH  19  20
HETATM   20  C13 UNL     1     -20.572   0.032  -4.045  1.00  0.00     0.232 C 
BRANCH  20  21
HETATM   21  N1  UNL     1     -20.211  -0.363  -2.696  1.00  0.00    -0.079 N 
ATOM     22  H13 UNL     1     -19.872   0.427  -2.147  1.00  0.00     0.274 HD
ATOM     23  H12 UNL     1     -21.031  -0.596  -2.136  1.00  0.00     0.274 HD
ATOM     24  H11 UNL     1     -19.536  -1.128  -2.717  1.00  0.00     0.274 HD
ENDBRANCH  20  21
ENDBRANCH  19  20
ENDBRANCH  16  19
ENDBRANCH  15  16
ENDBRANCH  14  15
ENDBRANCH  13  14
ENDBRANCH   1  13
TORSDOF 10
ENDMDL
