MODEL 1
REMARK VINA RESULT: -7.520195960      0.000      0.000
REMARK  9 active torsions:
REMARK  status: ('A' for Active; 'I' for Inactive)
REMARK    1  A    between atoms: N1_2  and  C2_4 
REMARK    2  A    between atoms: C5_8  and  C6_9 
REMARK    3  A    between atoms: C6_9  and  C7_10 
REMARK    4  A    between atoms: C7_10  and  C8_11 
REMARK    5  A    between atoms: C8_11  and  N2_12 
REMARK    6  A    between atoms: N2_12  and  C9_14 
REMARK    7  A    between atoms: C9_14  and  C10_15 
REMARK    8  A    between atoms: C9_14  and  C11_18 
REMARK    9  A    between atoms: C10_15  and  O1_16 
ROOT
HETATM    1  C2  UNL     1     -20.075   5.326  -0.361  1.00  0.00     0.072 A 
HETATM    2  C3  UNL     1     -20.344   4.277   0.489  1.00  0.00     0.062 A 
HETATM    3 CL1  UNL     1     -20.350   2.606  -0.103  1.00  0.00    -0.082 Cl
HETATM    4  C4  UNL     1     -20.612   4.557   1.831  1.00  0.00     0.034 A 
HETATM    5  C5  UNL     1     -20.614   5.840   2.320  1.00  0.00    -0.049 A 
HETATM    6  C12 UNL     1     -20.345   6.885   1.467  1.00  0.00    -0.032 A 
HETATM    7  C13 UNL     1     -20.332   8.308   1.946  1.00  0.00     0.050 C 
HETATM    8  C14 UNL     1     -20.078   6.613   0.133  1.00  0.00     0.068 A 
HETATM    9 CL2  UNL     1     -19.728   7.931  -0.999  1.00  0.00    -0.081 Cl
ENDROOT
BRANCH   5  10
HETATM   10  C6  UNL     1     -20.914   6.100   3.775  1.00  0.00     0.041 C 
BRANCH  10  11
HETATM   11  C7  UNL     1     -20.678   4.891   4.607  1.00  0.00     0.024 C 
BRANCH  11  12
HETATM   12  C8  UNL     1     -19.802   5.203   5.768  1.00  0.00     0.114 C 
BRANCH  12  13
HETATM   13  N2  UNL     1     -20.091   4.496   6.968  1.00  0.00    -0.413 N 
ATOM     14  H2  UNL     1     -20.745   3.712   6.985  1.00  0.00     0.153 HD
BRANCH  13  15
HETATM   15  C9  UNL     1     -19.422   4.938   8.145  1.00  0.00     0.128 C 
BRANCH  15  16
HETATM   16  C10 UNL     1     -19.474   6.419   8.326  1.00  0.00     0.191 C 
BRANCH  16  17
HETATM   17  O1  UNL     1     -20.791   6.797   8.632  1.00  0.00    -0.399 OA
ATOM     18  H1  UNL     1     -20.808   7.724   8.837  1.00  0.00     0.209 HD
ENDBRANCH  16  17
ENDBRANCH  15  16
BRANCH  15  19
HETATM   19  C11 UNL     1     -19.914   4.229   9.398  1.00  0.00     0.248 C 
HETATM   20  F1  UNL     1     -19.446   4.904  10.523  1.00  0.00    -0.253 F 
ENDBRANCH  15  19
ENDBRANCH  13  15
ENDBRANCH  12  13
ENDBRANCH  11  12
ENDBRANCH  10  11
ENDBRANCH   5  10
BRANCH   1  21
HETATM   21  N1  UNL     1     -19.803   5.032  -1.725  1.00  0.00    -0.392 N 
HETATM   22  C1  UNL     1     -20.898   4.576  -2.572  1.00  0.00     0.146 C 
ATOM     23  H1  UNL     1     -18.861   5.138  -2.103  1.00  0.00     0.159 HD
ENDBRANCH   1  21
TORSDOF 9
ENDMDL
MODEL 2
REMARK VINA RESULT: -7.498749312      1.082      2.527
REMARK  9 active torsions:
REMARK  status: ('A' for Active; 'I' for Inactive)
REMARK    1  A    between atoms: N1_2  and  C2_4 
REMARK    2  A    between atoms: C5_8  and  C6_9 
REMARK    3  A    between atoms: C6_9  and  C7_10 
REMARK    4  A    between atoms: C7_10  and  C8_11 
REMARK    5  A    between atoms: C8_11  and  N2_12 
REMARK    6  A    between atoms: N2_12  and  C9_14 
REMARK    7  A    between atoms: C9_14  and  C10_15 
REMARK    8  A    between atoms: C9_14  and  C11_18 
REMARK    9  A    between atoms: C10_15  and  O1_16 
ROOT
HETATM    1  C2  UNL     1     -20.070   6.115  -0.099  1.00  0.00     0.072 A 
HETATM    2  C3  UNL     1     -19.993   7.039   0.919  1.00  0.00     0.062 A 
HETATM    3 CL1  UNL     1     -19.540   8.720   0.588  1.00  0.00    -0.082 Cl
HETATM    4  C4  UNL     1     -20.280   6.622   2.221  1.00  0.00     0.034 A 
HETATM    5  C5  UNL     1     -20.634   5.328   2.510  1.00  0.00    -0.049 A 
HETATM    6  C12 UNL     1     -20.711   4.408   1.489  1.00  0.00    -0.032 A 
HETATM    7  C13 UNL     1     -21.094   2.979   1.745  1.00  0.00     0.050 C 
HETATM    8  C14 UNL     1     -20.427   4.816   0.194  1.00  0.00     0.068 A 
HETATM    9 CL2  UNL     1     -20.512   3.662  -1.148  1.00  0.00    -0.081 Cl
ENDROOT
BRANCH   5  10
HETATM   10  C6  UNL     1     -20.932   4.918   3.930  1.00  0.00     0.041 C 
BRANCH  10  11
HETATM   11  C7  UNL     1     -20.687   6.031   4.884  1.00  0.00     0.024 C 
BRANCH  11  12
HETATM   12  C8  UNL     1     -19.605   5.685   5.845  1.00  0.00     0.114 C 
BRANCH  12  13
HETATM   13  N2  UNL     1     -19.984   4.832   6.920  1.00  0.00    -0.413 N 
ATOM     14  H2  UNL     1     -20.694   4.108   6.806  1.00  0.00     0.153 HD
BRANCH  13  15
HETATM   15  C9  UNL     1     -19.320   5.043   8.162  1.00  0.00     0.128 C 
BRANCH  15  16
HETATM   16  C10 UNL     1     -19.495   6.427   8.692  1.00  0.00     0.191 C 
BRANCH  16  17
HETATM   17  O1  UNL     1     -20.842   6.801   8.560  1.00  0.00    -0.399 OA
ATOM     18  H1  UNL     1     -20.974   7.639   8.988  1.00  0.00     0.209 HD
ENDBRANCH  16  17
ENDBRANCH  15  16
BRANCH  15  19
HETATM   19  C11 UNL     1     -19.710   4.014   9.214  1.00  0.00     0.248 C 
HETATM   20  F1  UNL     1     -19.637   4.597  10.477  1.00  0.00    -0.253 F 
ENDBRANCH  15  19
ENDBRANCH  13  15
ENDBRANCH  12  13
ENDBRANCH  11  12
ENDBRANCH  10  11
ENDBRANCH   5  10
BRANCH   1  21
HETATM   21  N1  UNL     1     -19.777   6.547  -1.421  1.00  0.00    -0.392 N 
HETATM   22  C1  UNL     1     -18.397   6.871  -1.759  1.00  0.00     0.146 C 
ATOM     23  H1  UNL     1     -20.517   6.628  -2.119  1.00  0.00     0.159 HD
ENDBRANCH   1  21
TORSDOF 9
ENDMDL
MODEL 3
REMARK VINA RESULT: -7.236899691      2.006      2.531
REMARK  9 active torsions:
REMARK  status: ('A' for Active; 'I' for Inactive)
REMARK    1  A    between atoms: N1_2  and  C2_4 
REMARK    2  A    between atoms: C5_8  and  C6_9 
REMARK    3  A    between atoms: C6_9  and  C7_10 
REMARK    4  A    between atoms: C7_10  and  C8_11 
REMARK    5  A    between atoms: C8_11  and  N2_12 
REMARK    6  A    between atoms: N2_12  and  C9_14 
REMARK    7  A    between atoms: C9_14  and  C10_15 
REMARK    8  A    between atoms: C9_14  and  C11_18 
REMARK    9  A    between atoms: C10_15  and  O1_16 
ROOT
HETATM    1  C2  UNL     1     -20.016   5.192  -1.486  1.00  0.00     0.072 A 
HETATM    2  C3  UNL     1     -20.465   4.700  -0.282  1.00  0.00     0.062 A 
HETATM    3 CL1  UNL     1     -21.067   3.037  -0.146  1.00  0.00    -0.082 Cl
HETATM    4  C4  UNL     1     -20.436   5.539   0.835  1.00  0.00     0.034 A 
HETATM    5  C5  UNL     1     -19.976   6.830   0.763  1.00  0.00    -0.049 A 
HETATM    6  C12 UNL     1     -19.528   7.318  -0.443  1.00  0.00    -0.032 A 
HETATM    7  C13 UNL     1     -19.012   8.722  -0.581  1.00  0.00     0.050 C 
HETATM    8  C14 UNL     1     -19.554   6.489  -1.555  1.00  0.00     0.068 A 
HETATM    9 CL2  UNL     1     -18.987   7.079  -3.127  1.00  0.00    -0.081 Cl
ENDROOT
BRANCH   5  10
HETATM   10  C6  UNL     1     -19.967   7.705   1.991  1.00  0.00     0.041 C 
BRANCH  10  11
HETATM   11  C7  UNL     1     -20.428   6.965   3.194  1.00  0.00     0.024 C 
BRANCH  11  12
HETATM   12  C8  UNL     1     -19.302   6.240   3.841  1.00  0.00     0.114 C 
BRANCH  12  13
HETATM   13  N2  UNL     1     -19.302   6.243   5.264  1.00  0.00    -0.413 N 
ATOM     14  H2  UNL     1     -18.974   7.047   5.799  1.00  0.00     0.153 HD
BRANCH  13  15
HETATM   15  C9  UNL     1     -19.783   5.064   5.903  1.00  0.00     0.128 C 
BRANCH  15  16
HETATM   16  C10 UNL     1     -19.917   5.213   7.382  1.00  0.00     0.191 C 
BRANCH  16  17
HETATM   17  O1  UNL     1     -19.463   6.488   7.757  1.00  0.00    -0.399 OA
ATOM     18  H1  UNL     1     -20.209   7.068   7.851  1.00  0.00     0.209 HD
ENDBRANCH  16  17
ENDBRANCH  15  16
BRANCH  15  19
HETATM   19  C11 UNL     1     -21.085   4.561   5.296  1.00  0.00     0.248 C 
HETATM   20  F1  UNL     1     -20.799   3.632   4.298  1.00  0.00    -0.253 F 
ENDBRANCH  15  19
ENDBRANCH  13  15
ENDBRANCH  12  13
ENDBRANCH  11  12
ENDBRANCH  10  11
ENDBRANCH   5  10
BRANCH   1  21
HETATM   21  N1  UNL     1     -20.048   4.332  -2.617  1.00  0.00    -0.392 N 
HETATM   22  C1  UNL     1     -21.309   4.160  -3.327  1.00  0.00     0.146 C 
ATOM     23  H1  UNL     1     -19.206   3.844  -2.925  1.00  0.00     0.159 HD
ENDBRANCH   1  21
TORSDOF 9
ENDMDL
MODEL 4
REMARK VINA RESULT: -7.110791248      5.577      8.697
REMARK  9 active torsions:
REMARK  status: ('A' for Active; 'I' for Inactive)
REMARK    1  A    between atoms: N1_2  and  C2_4 
REMARK    2  A    between atoms: C5_8  and  C6_9 
REMARK    3  A    between atoms: C6_9  and  C7_10 
REMARK    4  A    between atoms: C7_10  and  C8_11 
REMARK    5  A    between atoms: C8_11  and  N2_12 
REMARK    6  A    between atoms: N2_12  and  C9_14 
REMARK    7  A    between atoms: C9_14  and  C10_15 
REMARK    8  A    between atoms: C9_14  and  C11_18 
REMARK    9  A    between atoms: C10_15  and  O1_16 
ROOT
HETATM    1  C2  UNL     1     -20.108   5.361   1.256  1.00  0.00     0.072 A 
HETATM    2  C3  UNL     1     -20.768   4.153   1.211  1.00  0.00     0.062 A 
HETATM    3 CL1  UNL     1     -21.205   3.299   2.701  1.00  0.00    -0.082 Cl
HETATM    4  C4  UNL     1     -21.088   3.615  -0.038  1.00  0.00     0.034 A 
HETATM    5  C5  UNL     1     -20.764   4.252  -1.210  1.00  0.00    -0.049 A 
HETATM    6  C12 UNL     1     -20.104   5.458  -1.160  1.00  0.00    -0.032 A 
HETATM    7  C13 UNL     1     -19.726   6.201  -2.408  1.00  0.00     0.050 C 
HETATM    8  C14 UNL     1     -19.784   5.998   0.078  1.00  0.00     0.068 A 
HETATM    9 CL2  UNL     1     -18.934   7.549   0.187  1.00  0.00    -0.081 Cl
ENDROOT
BRANCH   5  10
HETATM   10  C6  UNL     1     -21.123   3.634  -2.538  1.00  0.00     0.041 C 
BRANCH  10  11
HETATM   11  C7  UNL     1     -20.295   2.434  -2.825  1.00  0.00     0.024 C 
BRANCH  11  12
HETATM   12  C8  UNL     1     -20.884   1.628  -3.928  1.00  0.00     0.114 C 
BRANCH  12  13
HETATM   13  N2  UNL     1     -22.063   0.901  -3.600  1.00  0.00    -0.413 N 
ATOM     14  H2  UNL     1     -22.067   0.186  -2.873  1.00  0.00     0.153 HD
BRANCH  13  15
HETATM   15  C9  UNL     1     -23.236   1.224  -4.340  1.00  0.00     0.128 C 
BRANCH  15  16
HETATM   16  C10 UNL     1     -24.312   1.825  -3.498  1.00  0.00     0.191 C 
BRANCH  16  17
HETATM   17  O1  UNL     1     -24.699   0.898  -2.518  1.00  0.00    -0.399 OA
ATOM     18  H1  UNL     1     -25.619   1.023  -2.318  1.00  0.00     0.209 HD
ENDBRANCH  16  17
ENDBRANCH  15  16
BRANCH  15  19
HETATM   19  C11 UNL     1     -22.943   2.107  -5.544  1.00  0.00     0.248 C 
HETATM   20  F1  UNL     1     -23.240   3.431  -5.228  1.00  0.00    -0.253 F 
ENDBRANCH  15  19
ENDBRANCH  13  15
ENDBRANCH  12  13
ENDBRANCH  11  12
ENDBRANCH  10  11
ENDBRANCH   5  10
BRANCH   1  21
HETATM   21  N1  UNL     1     -19.787   5.902   2.531  1.00  0.00    -0.392 N 
HETATM   22  C1  UNL     1     -20.766   6.753   3.194  1.00  0.00     0.146 C 
ATOM     23  H1  UNL     1     -18.889   5.698   2.972  1.00  0.00     0.159 HD
ENDBRANCH   1  21
TORSDOF 9
ENDMDL
MODEL 5
REMARK VINA RESULT: -7.042777573      2.071      3.214
REMARK  9 active torsions:
REMARK  status: ('A' for Active; 'I' for Inactive)
REMARK    1  A    between atoms: N1_2  and  C2_4 
REMARK    2  A    between atoms: C5_8  and  C6_9 
REMARK    3  A    between atoms: C6_9  and  C7_10 
REMARK    4  A    between atoms: C7_10  and  C8_11 
REMARK    5  A    between atoms: C8_11  and  N2_12 
REMARK    6  A    between atoms: N2_12  and  C9_14 
REMARK    7  A    between atoms: C9_14  and  C10_15 
REMARK    8  A    between atoms: C9_14  and  C11_18 
REMARK    9  A    between atoms: C10_15  and  O1_16 
ROOT
HETATM    1  C2  UNL     1     -19.588   6.654  -1.451  1.00  0.00     0.072 A 
HETATM    2  C3  UNL     1     -19.376   7.603  -0.476  1.00  0.00     0.062 A 
HETATM    3 CL1  UNL     1     -18.669   9.178  -0.878  1.00  0.00    -0.082 Cl
HETATM    4  C4  UNL     1     -19.733   7.298   0.840  1.00  0.00     0.034 A 
HETATM    5  C5  UNL     1     -20.284   6.089   1.183  1.00  0.00    -0.049 A 
HETATM    6  C12 UNL     1     -20.493   5.144   0.206  1.00  0.00    -0.032 A 
HETATM    7  C13 UNL     1     -21.093   3.804   0.522  1.00  0.00     0.050 C 
HETATM    8  C14 UNL     1     -20.141   5.441  -1.103  1.00  0.00     0.068 A 
HETATM    9 CL2  UNL     1     -20.393   4.251  -2.392  1.00  0.00    -0.081 Cl
ENDROOT
BRANCH   5  10
HETATM   10  C6  UNL     1     -20.650   5.798   2.617  1.00  0.00     0.041 C 
BRANCH  10  11
HETATM   11  C7  UNL     1     -20.029   6.773   3.550  1.00  0.00     0.024 C 
BRANCH  11  12
HETATM   12  C8  UNL     1     -18.985   6.123   4.387  1.00  0.00     0.114 C 
BRANCH  12  13
HETATM   13  N2  UNL     1     -19.113   6.313   5.792  1.00  0.00    -0.413 N 
ATOM     14  H2  UNL     1     -18.800   7.170   6.248  1.00  0.00     0.153 HD
BRANCH  13  15
HETATM   15  C9  UNL     1     -19.700   5.244   6.527  1.00  0.00     0.128 C 
BRANCH  15  16
HETATM   16  C10 UNL     1     -19.840   5.543   7.983  1.00  0.00     0.191 C 
BRANCH  16  17
HETATM   17  O1  UNL     1     -20.658   6.673   8.142  1.00  0.00    -0.399 OA
ATOM     18  H1  UNL     1     -20.700   7.144   7.318  1.00  0.00     0.209 HD
ENDBRANCH  16  17
ENDBRANCH  15  16
BRANCH  15  19
HETATM   19  C11 UNL     1     -21.032   4.795   5.943  1.00  0.00     0.248 C 
HETATM   20  F1  UNL     1     -20.806   3.801   4.994  1.00  0.00    -0.253 F 
ENDBRANCH  15  19
ENDBRANCH  13  15
ENDBRANCH  12  13
ENDBRANCH  11  12
ENDBRANCH  10  11
ENDBRANCH   5  10
BRANCH   1  21
HETATM   21  N1  UNL     1     -19.223   6.973  -2.787  1.00  0.00    -0.392 N 
HETATM   22  C1  UNL     1     -17.839   6.772  -3.199  1.00  0.00     0.146 C 
ATOM     23  H1  UNL     1     -19.915   7.334  -3.444  1.00  0.00     0.159 HD
ENDBRANCH   1  21
TORSDOF 9
ENDMDL
