MODEL 1
REMARK VINA RESULT: -7.073048470      0.000      0.000
REMARK  9 active torsions:
REMARK  status: ('A' for Active; 'I' for Inactive)
REMARK    1  A    between atoms: C2_2  and  C3_3 
REMARK    2  A    between atoms: C3_3  and  N1_4 
REMARK    3  A    between atoms: N1_4  and  C4_6 
REMARK    4  A    between atoms: C7_9  and  C8_10 
REMARK    5  A    between atoms: C8_10  and  N2_11 
REMARK    6  A    between atoms: C8_10  and  C11_17 
REMARK    7  A    between atoms: N2_11  and  C9_14 
REMARK    8  A    between atoms: C9_14  and  C10_15 
REMARK    9  A    between atoms: C11_17  and  O1_19 
ROOT
HETATM    1  C4  UNL     1     -20.584   5.734   1.311  1.00  0.00     0.072 A 
HETATM    2  C5  UNL     1     -21.250   4.522   1.288  1.00  0.00     0.033 A 
HETATM    3  C6  UNL     1     -21.395   3.795   0.092  1.00  0.00     0.013 A 
HETATM    4  C7  UNL     1     -20.915   4.207  -1.112  1.00  0.00    -0.000 A 
HETATM    5  C13 UNL     1     -20.241   5.434  -1.076  1.00  0.00     0.083 A 
HETATM    6 CL2  UNL     1     -19.524   6.019  -2.588  1.00  0.00    -0.080 Cl
HETATM    7  C14 UNL     1     -20.090   6.153   0.082  1.00  0.00     0.165 A 
HETATM    8  F1  UNL     1     -19.423   7.363   0.019  1.00  0.00    -0.202 F 
ENDROOT
BRANCH   4   9
HETATM    9  C8  UNL     1     -21.202   3.530  -2.412  1.00  0.00     0.248 C 
BRANCH   9  10
HETATM   10  N2  UNL     1     -22.469   2.755  -2.218  1.00  0.00    -0.063 N 
ATOM     11  H22 UNL     1     -22.271   1.814  -1.878  1.00  0.00     0.278 HD
ATOM     12  H21 UNL     1     -22.996   3.113  -1.421  1.00  0.00     0.278 HD
BRANCH  10  13
HETATM   13  C9  UNL     1     -23.267   2.714  -3.369  1.00  0.00     0.248 C 
BRANCH  13  14
HETATM   14  C10 UNL     1     -24.549   1.906  -3.143  1.00  0.00     0.142 C 
HETATM   15 CL1  UNL     1     -25.652   2.662  -2.005  1.00  0.00    -0.129 Cl
ENDBRANCH  13  14
ENDBRANCH  10  13
ENDBRANCH   9  10
BRANCH   9  16
HETATM   16  C11 UNL     1     -20.181   2.496  -2.845  1.00  0.00     0.149 C 
HETATM   17  C12 UNL     1     -20.367   2.262  -4.307  1.00  0.00     0.042 C 
BRANCH  16  18
HETATM   18  O1  UNL     1     -20.169   1.340  -2.138  1.00  0.00    -0.394 OA
ATOM     19  H1  UNL     1     -19.312   0.981  -1.941  1.00  0.00     0.210 HD
ENDBRANCH  16  18
ENDBRANCH   9  16
ENDBRANCH   4   9
BRANCH   1  20
HETATM   20  N1  UNL     1     -20.330   6.498   2.455  1.00  0.00    -0.363 N 
ATOM     21  H1  UNL     1     -20.519   7.485   2.279  1.00  0.00     0.165 HD
BRANCH  20  22
HETATM   22  C3  UNL     1     -19.898   6.306   3.750  1.00  0.00     0.087 C 
BRANCH  22  23
HETATM   23  C2  UNL     1     -20.858   5.842   4.750  1.00  0.00     0.007 C 
HETATM   24  C1  UNL     1     -20.858   4.540   5.025  1.00  0.00     0.012 C 
ENDBRANCH  22  23
ENDBRANCH  20  22
ENDBRANCH   1  20
TORSDOF 9
ENDMDL
MODEL 2
REMARK VINA RESULT: -7.047191654      2.906      6.474
REMARK  9 active torsions:
REMARK  status: ('A' for Active; 'I' for Inactive)
REMARK    1  A    between atoms: C2_2  and  C3_3 
REMARK    2  A    between atoms: C3_3  and  N1_4 
REMARK    3  A    between atoms: N1_4  and  C4_6 
REMARK    4  A    between atoms: C7_9  and  C8_10 
REMARK    5  A    between atoms: C8_10  and  N2_11 
REMARK    6  A    between atoms: C8_10  and  C11_17 
REMARK    7  A    between atoms: N2_11  and  C9_14 
REMARK    8  A    between atoms: C9_14  and  C10_15 
REMARK    9  A    between atoms: C11_17  and  O1_19 
ROOT
HETATM    1  C4  UNL     1     -21.505   3.690  -1.507  1.00  0.00     0.072 A 
HETATM    2  C5  UNL     1     -21.773   3.674  -0.151  1.00  0.00     0.033 A 
HETATM    3  C6  UNL     1     -21.162   4.592   0.723  1.00  0.00     0.013 A 
HETATM    4  C7  UNL     1     -20.276   5.545   0.326  1.00  0.00    -0.000 A 
HETATM    5  C13 UNL     1     -20.014   5.554  -1.049  1.00  0.00     0.083 A 
HETATM    6 CL2  UNL     1     -18.920   6.805  -1.666  1.00  0.00    -0.080 Cl
HETATM    7  C14 UNL     1     -20.603   4.666  -1.913  1.00  0.00     0.165 A 
HETATM    8  F1  UNL     1     -20.272   4.740  -3.254  1.00  0.00    -0.202 F 
ENDROOT
BRANCH   4   9
HETATM    9  C8  UNL     1     -19.498   6.415   1.258  1.00  0.00     0.248 C 
BRANCH   9  10
HETATM   10  N2  UNL     1     -19.522   5.737   2.593  1.00  0.00    -0.063 N 
ATOM     11  H22 UNL     1     -20.153   4.935   2.583  1.00  0.00     0.278 HD
ATOM     12  H21 UNL     1     -18.642   5.253   2.772  1.00  0.00     0.278 HD
BRANCH  10  13
HETATM   13  C9  UNL     1     -19.837   6.608   3.644  1.00  0.00     0.248 C 
BRANCH  13  14
HETATM   14  C10 UNL     1     -20.838   5.982   4.621  1.00  0.00     0.142 C 
HETATM   15 CL1  UNL     1     -21.134   4.279   4.311  1.00  0.00    -0.129 Cl
ENDBRANCH  13  14
ENDBRANCH  10  13
ENDBRANCH   9  10
BRANCH   9  16
HETATM   16  C11 UNL     1     -20.092   7.786   1.513  1.00  0.00     0.149 C 
HETATM   17  C12 UNL     1     -21.561   7.696   1.262  1.00  0.00     0.042 C 
BRANCH  16  18
HETATM   18  O1  UNL     1     -19.521   8.816   0.844  1.00  0.00    -0.394 OA
ATOM     19  H1  UNL     1     -19.848   9.683   1.054  1.00  0.00     0.210 HD
ENDBRANCH  16  18
ENDBRANCH   9  16
ENDBRANCH   4   9
BRANCH   1  20
HETATM   20  N1  UNL     1     -22.108   2.867  -2.463  1.00  0.00    -0.363 N 
ATOM     21  H1  UNL     1     -21.418   2.258  -2.903  1.00  0.00     0.165 HD
BRANCH  20  22
HETATM   22  C3  UNL     1     -23.364   2.638  -2.985  1.00  0.00     0.087 C 
BRANCH  22  23
HETATM   23  C2  UNL     1     -23.545   2.695  -4.434  1.00  0.00     0.007 C 
HETATM   24  C1  UNL     1     -22.516   3.141  -5.151  1.00  0.00     0.012 C 
ENDBRANCH  22  23
ENDBRANCH  20  22
ENDBRANCH   1  20
TORSDOF 9
ENDMDL
MODEL 3
REMARK VINA RESULT: -6.820799059      2.596      3.491
REMARK  9 active torsions:
REMARK  status: ('A' for Active; 'I' for Inactive)
REMARK    1  A    between atoms: C2_2  and  C3_3 
REMARK    2  A    between atoms: C3_3  and  N1_4 
REMARK    3  A    between atoms: N1_4  and  C4_6 
REMARK    4  A    between atoms: C7_9  and  C8_10 
REMARK    5  A    between atoms: C8_10  and  N2_11 
REMARK    6  A    between atoms: C8_10  and  C11_17 
REMARK    7  A    between atoms: N2_11  and  C9_14 
REMARK    8  A    between atoms: C9_14  and  C10_15 
REMARK    9  A    between atoms: C11_17  and  O1_19 
ROOT
HETATM    1  C4  UNL     1     -20.879   4.907   2.971  1.00  0.00     0.072 A 
HETATM    2  C5  UNL     1     -20.552   4.014   1.967  1.00  0.00     0.033 A 
HETATM    3  C6  UNL     1     -20.234   4.462   0.671  1.00  0.00     0.013 A 
HETATM    4  C7  UNL     1     -20.225   5.770   0.300  1.00  0.00    -0.000 A 
HETATM    5  C13 UNL     1     -20.555   6.665   1.325  1.00  0.00     0.083 A 
HETATM    6 CL2  UNL     1     -20.507   8.397   0.948  1.00  0.00    -0.080 Cl
HETATM    7  C14 UNL     1     -20.866   6.244   2.593  1.00  0.00     0.165 A 
HETATM    8  F1  UNL     1     -21.196   7.199   3.537  1.00  0.00    -0.202 F 
ENDROOT
BRANCH   4   9
HETATM    9  C8  UNL     1     -20.051   6.248  -1.105  1.00  0.00     0.248 C 
BRANCH   9  10
HETATM   10  N2  UNL     1     -19.804   5.030  -1.941  1.00  0.00    -0.063 N 
ATOM     11  H22 UNL     1     -18.955   5.137  -2.497  1.00  0.00     0.278 HD
ATOM     12  H21 UNL     1     -19.524   4.240  -1.359  1.00  0.00     0.278 HD
BRANCH  10  13
HETATM   13  C9  UNL     1     -20.896   4.693  -2.752  1.00  0.00     0.248 C 
BRANCH  13  14
HETATM   14  C10 UNL     1     -21.129   3.179  -2.789  1.00  0.00     0.142 C 
HETATM   15 CL1  UNL     1     -22.762   2.742  -3.264  1.00  0.00    -0.129 Cl
ENDBRANCH  13  14
ENDBRANCH  10  13
ENDBRANCH   9  10
BRANCH   9  16
HETATM   16  C11 UNL     1     -18.842   7.131  -1.345  1.00  0.00     0.149 C 
HETATM   17  C12 UNL     1     -19.310   8.351  -2.066  1.00  0.00     0.042 C 
BRANCH  16  18
HETATM   18  O1  UNL     1     -17.789   6.543  -1.963  1.00  0.00    -0.394 OA
ATOM     19  H1  UNL     1     -18.003   5.903  -2.632  1.00  0.00     0.210 HD
ENDBRANCH  16  18
ENDBRANCH   9  16
ENDBRANCH   4   9
BRANCH   1  20
HETATM   20  N1  UNL     1     -21.145   4.569   4.302  1.00  0.00    -0.363 N 
ATOM     21  H1  UNL     1     -22.124   4.306   4.419  1.00  0.00     0.165 HD
BRANCH  20  22
HETATM   22  C3  UNL     1     -20.470   4.487   5.501  1.00  0.00     0.087 C 
BRANCH  22  23
HETATM   23  C2  UNL     1     -19.961   5.717   6.107  1.00  0.00     0.007 C 
HETATM   24  C1  UNL     1     -19.824   5.723   7.431  1.00  0.00     0.012 C 
ENDBRANCH  22  23
ENDBRANCH  20  22
ENDBRANCH   1  20
TORSDOF 9
ENDMDL
MODEL 4
REMARK VINA RESULT: -6.504244864      2.886      4.132
REMARK  9 active torsions:
REMARK  status: ('A' for Active; 'I' for Inactive)
REMARK    1  A    between atoms: C2_2  and  C3_3 
REMARK    2  A    between atoms: C3_3  and  N1_4 
REMARK    3  A    between atoms: N1_4  and  C4_6 
REMARK    4  A    between atoms: C7_9  and  C8_10 
REMARK    5  A    between atoms: C8_10  and  N2_11 
REMARK    6  A    between atoms: C8_10  and  C11_17 
REMARK    7  A    between atoms: N2_11  and  C9_14 
REMARK    8  A    between atoms: C9_14  and  C10_15 
REMARK    9  A    between atoms: C11_17  and  O1_19 
ROOT
HETATM    1  C4  UNL     1     -20.458   5.169   3.905  1.00  0.00     0.072 A 
HETATM    2  C5  UNL     1     -19.793   6.316   3.513  1.00  0.00     0.033 A 
HETATM    3  C6  UNL     1     -19.747   6.704   2.161  1.00  0.00     0.013 A 
HETATM    4  C7  UNL     1     -20.326   6.004   1.149  1.00  0.00    -0.000 A 
HETATM    5  C13 UNL     1     -20.999   4.846   1.558  1.00  0.00     0.083 A 
HETATM    6 CL2  UNL     1     -21.840   3.905   0.313  1.00  0.00    -0.080 Cl
HETATM    7  C14 UNL     1     -21.054   4.456   2.871  1.00  0.00     0.165 A 
HETATM    8  F1  UNL     1     -21.727   3.288   3.180  1.00  0.00    -0.202 F 
ENDROOT
BRANCH   4   9
HETATM    9  C8  UNL     1     -20.147   6.312  -0.302  1.00  0.00     0.248 C 
BRANCH   9  10
HETATM   10  N2  UNL     1     -19.911   5.003  -0.989  1.00  0.00    -0.063 N 
ATOM     11  H22 UNL     1     -18.918   4.767  -0.991  1.00  0.00     0.278 HD
ATOM     12  H21 UNL     1     -20.264   4.228  -0.427  1.00  0.00     0.278 HD
BRANCH  10  13
HETATM   13  C9  UNL     1     -20.438   4.962  -2.286  1.00  0.00     0.248 C 
BRANCH  13  14
HETATM   14  C10 UNL     1     -20.571   3.525  -2.801  1.00  0.00     0.142 C 
HETATM   15 CL1  UNL     1     -22.123   3.201  -3.556  1.00  0.00    -0.129 Cl
ENDBRANCH  13  14
ENDBRANCH  10  13
ENDBRANCH   9  10
BRANCH   9  16
HETATM   16  C11 UNL     1     -18.930   7.150  -0.642  1.00  0.00     0.149 C 
HETATM   17  C12 UNL     1     -19.397   8.548  -0.881  1.00  0.00     0.042 C 
BRANCH  16  18
HETATM   18  O1  UNL     1     -18.154   6.690  -1.652  1.00  0.00    -0.394 OA
ATOM     19  H1  UNL     1     -17.486   7.286  -1.969  1.00  0.00     0.210 HD
ENDBRANCH  16  18
ENDBRANCH   9  16
ENDBRANCH   4   9
BRANCH   1  20
HETATM   20  N1  UNL     1     -20.618   4.734   5.225  1.00  0.00    -0.363 N 
ATOM     21  H1  UNL     1     -21.538   4.315   5.358  1.00  0.00     0.165 HD
BRANCH  20  22
HETATM   22  C3  UNL     1     -19.894   4.709   6.398  1.00  0.00     0.087 C 
BRANCH  22  23
HETATM   23  C2  UNL     1     -19.971   5.859   7.297  1.00  0.00     0.007 C 
HETATM   24  C1  UNL     1     -19.779   5.623   8.593  1.00  0.00     0.012 C 
ENDBRANCH  22  23
ENDBRANCH  20  22
ENDBRANCH   1  20
TORSDOF 9
ENDMDL
MODEL 5
REMARK VINA RESULT: -6.307394247      3.693      5.365
REMARK  9 active torsions:
REMARK  status: ('A' for Active; 'I' for Inactive)
REMARK    1  A    between atoms: C2_2  and  C3_3 
REMARK    2  A    between atoms: C3_3  and  N1_4 
REMARK    3  A    between atoms: N1_4  and  C4_6 
REMARK    4  A    between atoms: C7_9  and  C8_10 
REMARK    5  A    between atoms: C8_10  and  N2_11 
REMARK    6  A    between atoms: C8_10  and  C11_17 
REMARK    7  A    between atoms: N2_11  and  C9_14 
REMARK    8  A    between atoms: C9_14  and  C10_15 
REMARK    9  A    between atoms: C11_17  and  O1_19 
ROOT
HETATM    1  C4  UNL     1     -20.598   5.430   2.070  1.00  0.00     0.072 A 
HETATM    2  C5  UNL     1     -20.048   6.681   2.282  1.00  0.00     0.033 A 
HETATM    3  C6  UNL     1     -19.565   7.455   1.210  1.00  0.00     0.013 A 
HETATM    4  C7  UNL     1     -19.589   7.053  -0.088  1.00  0.00    -0.000 A 
HETATM    5  C13 UNL     1     -20.150   5.786  -0.292  1.00  0.00     0.083 A 
HETATM    6 CL2  UNL     1     -20.281   5.207  -1.963  1.00  0.00    -0.080 Cl
HETATM    7  C14 UNL     1     -20.626   5.021   0.742  1.00  0.00     0.165 A 
HETATM    8  F1  UNL     1     -21.149   3.775   0.448  1.00  0.00    -0.202 F 
ENDROOT
BRANCH   4   9
HETATM    9  C8  UNL     1     -18.934   7.788  -1.212  1.00  0.00     0.248 C 
BRANCH   9  10
HETATM   10  N2  UNL     1     -19.713   9.053  -1.403  1.00  0.00    -0.063 N 
ATOM     11  H22 UNL     1     -20.008   9.156  -2.374  1.00  0.00     0.278 HD
ATOM     12  H21 UNL     1     -20.628   8.988  -0.956  1.00  0.00     0.278 HD
BRANCH  10  13
HETATM   13  C9  UNL     1     -19.022  10.192  -0.966  1.00  0.00     0.248 C 
BRANCH  13  14
HETATM   14  C10 UNL     1     -19.488  11.454  -1.698  1.00  0.00     0.142 C 
HETATM   15 CL1  UNL     1     -19.918  12.765  -0.612  1.00  0.00    -0.129 Cl
ENDBRANCH  13  14
ENDBRANCH  10  13
ENDBRANCH   9  10
BRANCH   9  16
HETATM   16  C11 UNL     1     -18.989   7.096  -2.560  1.00  0.00     0.149 C 
HETATM   17  C12 UNL     1     -17.607   6.636  -2.888  1.00  0.00     0.042 C 
BRANCH  16  18
HETATM   18  O1  UNL     1     -19.546   7.805  -3.570  1.00  0.00    -0.394 OA
ATOM     19  H1  UNL     1     -20.221   8.427  -3.321  1.00  0.00     0.210 HD
ENDBRANCH  16  18
ENDBRANCH   9  16
ENDBRANCH   4   9
BRANCH   1  20
HETATM   20  N1  UNL     1     -21.164   4.615   3.055  1.00  0.00    -0.363 N 
ATOM     21  H1  UNL     1     -22.094   4.302   2.775  1.00  0.00     0.165 HD
BRANCH  20  22
HETATM   22  C3  UNL     1     -20.832   4.111   4.295  1.00  0.00     0.087 C 
BRANCH  22  23
HETATM   23  C2  UNL     1     -20.915   4.992   5.458  1.00  0.00     0.007 C 
HETATM   24  C1  UNL     1     -19.802   5.631   5.809  1.00  0.00     0.012 C 
ENDBRANCH  22  23
ENDBRANCH  20  22
ENDBRANCH   1  20
TORSDOF 9
ENDMDL
