MODEL 1
REMARK VINA RESULT: -7.296218304      0.000      0.000
REMARK  9 active torsions:
REMARK  status: ('A' for Active; 'I' for Inactive)
REMARK    1  A    between atoms: N1_1  and  C1_4 
REMARK    2  A    between atoms: C2_7  and  C3_8 
REMARK    3  A    between atoms: C5_12  and  O1_13 
REMARK    4  A    between atoms: O1_13  and  C6_14 
REMARK    5  A    between atoms: C6_14  and  C7_15 
REMARK    6  A    between atoms: C7_15  and  C8_16 
REMARK    7  A    between atoms: C9_18  and  C10_19 
REMARK    8  A    between atoms: C10_19  and  C11_20 
REMARK    9  A    between atoms: C11_20  and  C12_21 
ROOT
HETATM    1  C1  UNL     1      13.605  60.415  24.206  1.00  0.00     0.108 A 
HETATM    2  N2  UNL     1      14.625  61.244  23.858  1.00  0.00    -0.341 N 
ATOM      3  H2  UNL     1      15.574  61.011  24.151  1.00  0.00     0.167 HD
HETATM    4  C2  UNL     1      14.422  62.353  23.148  1.00  0.00     0.078 A 
HETATM    5  C4  UNL     1      13.140  62.658  22.757  1.00  0.00     0.068 A 
HETATM    6  C5  UNL     1      12.077  61.841  23.090  1.00  0.00     0.080 A 
HETATM    7  C9  UNL     1      12.294  60.692  23.828  1.00  0.00     0.019 A 
ENDROOT
BRANCH   7   8
HETATM    8  C10 UNL     1      11.185  59.782  24.211  1.00  0.00     0.047 C 
BRANCH   8   9
HETATM    9  C11 UNL     1      11.008  58.783  23.119  1.00  0.00     0.037 C 
BRANCH   9  10
HETATM   10  C12 UNL     1      11.059  57.351  23.602  1.00  0.00     0.186 C 
HETATM   11  C13 UNL     1      12.306  56.635  23.138  1.00  0.00     0.034 C 
HETATM   12  C14 UNL     1      11.734  55.762  22.014  1.00  0.00     0.029 C 
HETATM   13  C15 UNL     1      10.436  55.323  22.664  1.00  0.00     0.233 C 
HETATM   14  N3  UNL     1       9.919  56.630  23.091  1.00  0.00    -0.071 N 
ATOM     15  H32 UNL     1       9.144  56.568  23.753  1.00  0.00     0.277 HD
ATOM     16  H31 UNL     1       9.413  57.130  22.359  1.00  0.00     0.277 HD
ENDBRANCH   9  10
ENDBRANCH   8   9
ENDBRANCH   7   8
BRANCH   1  17
HETATM   17  N1  UNL     1      13.854  59.350  24.898  1.00  0.00    -0.385 N 
ATOM     18  H12 UNL     1      14.196  59.444  25.854  1.00  0.00     0.157 HD
ATOM     19  H11 UNL     1      13.704  58.431  24.481  1.00  0.00     0.157 HD
ENDBRANCH   1  17
BRANCH   6  20
HETATM   20  O1  UNL     1      10.796  62.179  22.680  1.00  0.00    -0.350 OA
BRANCH  20  21
HETATM   21  C6  UNL     1      10.128  63.276  23.258  1.00  0.00     0.178 C 
BRANCH  21  22
HETATM   22  C7  UNL     1       9.291  62.843  24.426  1.00  0.00     0.058 C 
BRANCH  22  23
HETATM   23  C8  UNL     1       8.151  63.826  24.603  1.00  0.00     0.224 C 
HETATM   24  F3  UNL     1       6.924  63.218  24.585  1.00  0.00    -0.255 F 
ENDBRANCH  22  23
ENDBRANCH  21  22
ENDBRANCH  20  21
ENDBRANCH   6  20
BRANCH   4  25
HETATM   25  C3  UNL     1      15.536  63.261  22.767  1.00  0.00     0.403 C 
HETATM   26  F1  UNL     1      15.677  64.245  23.733  1.00  0.00    -0.208 F 
HETATM   27  F2  UNL     1      16.701  62.565  22.637  1.00  0.00    -0.208 F 
ENDBRANCH   4  25
TORSDOF 9
ENDMDL
MODEL 2
REMARK VINA RESULT: -7.085112275      2.204      2.525
REMARK  9 active torsions:
REMARK  status: ('A' for Active; 'I' for Inactive)
REMARK    1  A    between atoms: N1_1  and  C1_4 
REMARK    2  A    between atoms: C2_7  and  C3_8 
REMARK    3  A    between atoms: C5_12  and  O1_13 
REMARK    4  A    between atoms: O1_13  and  C6_14 
REMARK    5  A    between atoms: C6_14  and  C7_15 
REMARK    6  A    between atoms: C7_15  and  C8_16 
REMARK    7  A    between atoms: C9_18  and  C10_19 
REMARK    8  A    between atoms: C10_19  and  C11_20 
REMARK    9  A    between atoms: C11_20  and  C12_21 
ROOT
HETATM    1  C1  UNL     1      13.723  60.843  24.090  1.00  0.00     0.108 A 
HETATM    2  N2  UNL     1      14.805  61.595  23.753  1.00  0.00    -0.341 N 
ATOM      3  H2  UNL     1      15.706  61.387  24.184  1.00  0.00     0.167 HD
HETATM    4  C2  UNL     1      14.725  62.596  22.878  1.00  0.00     0.078 A 
HETATM    5  C4  UNL     1      13.507  62.869  22.301  1.00  0.00     0.068 A 
HETATM    6  C5  UNL     1      12.385  62.128  22.616  1.00  0.00     0.080 A 
HETATM    7  C9  UNL     1      12.475  61.090  23.526  1.00  0.00     0.019 A 
ENDROOT
BRANCH   7   8
HETATM    8  C10 UNL     1      11.297  60.265  23.897  1.00  0.00     0.047 C 
BRANCH   8   9
HETATM    9  C11 UNL     1      11.223  59.113  22.954  1.00  0.00     0.037 C 
BRANCH   9  10
HETATM   10  C12 UNL     1      11.171  57.772  23.650  1.00  0.00     0.186 C 
HETATM   11  C13 UNL     1      12.431  56.965  23.434  1.00  0.00     0.034 C 
HETATM   12  C14 UNL     1      11.944  55.943  22.400  1.00  0.00     0.029 C 
HETATM   13  C15 UNL     1      10.571  55.638  22.965  1.00  0.00     0.233 C 
HETATM   14  N3  UNL     1      10.062  57.006  23.134  1.00  0.00    -0.071 N 
ATOM     15  H32 UNL     1       9.222  57.062  23.710  1.00  0.00     0.277 HD
ATOM     16  H31 UNL     1       9.654  57.398  22.285  1.00  0.00     0.277 HD
ENDBRANCH   9  10
ENDBRANCH   8   9
ENDBRANCH   7   8
BRANCH   1  17
HETATM   17  N1  UNL     1      13.853  59.882  24.945  1.00  0.00    -0.385 N 
ATOM     18  H12 UNL     1      13.950  60.104  25.936  1.00  0.00     0.157 HD
ATOM     19  H11 UNL     1      13.858  58.915  24.621  1.00  0.00     0.157 HD
ENDBRANCH   1  17
BRANCH   6  20
HETATM   20  O1  UNL     1      11.172  62.430  22.015  1.00  0.00    -0.350 OA
BRANCH  20  21
HETATM   21  C6  UNL     1      11.104  63.390  20.987  1.00  0.00     0.178 C 
BRANCH  21  22
HETATM   22  C7  UNL     1      11.145  62.738  19.637  1.00  0.00     0.058 C 
BRANCH  22  23
HETATM   23  C8  UNL     1      10.786  63.768  18.584  1.00  0.00     0.224 C 
HETATM   24  F3  UNL     1      10.097  63.227  17.531  1.00  0.00    -0.255 F 
ENDBRANCH  22  23
ENDBRANCH  21  22
ENDBRANCH  20  21
ENDBRANCH   6  20
BRANCH   4  25
HETATM   25  C3  UNL     1      15.907  63.420  22.509  1.00  0.00     0.403 C 
HETATM   26  F1  UNL     1      16.006  64.495  23.378  1.00  0.00    -0.208 F 
HETATM   27  F2  UNL     1      17.046  62.673  22.558  1.00  0.00    -0.208 F 
ENDBRANCH   4  25
TORSDOF 9
ENDMDL
MODEL 3
REMARK VINA RESULT: -7.035258621      3.425      6.659
REMARK  9 active torsions:
REMARK  status: ('A' for Active; 'I' for Inactive)
REMARK    1  A    between atoms: N1_1  and  C1_4 
REMARK    2  A    between atoms: C2_7  and  C3_8 
REMARK    3  A    between atoms: C5_12  and  O1_13 
REMARK    4  A    between atoms: O1_13  and  C6_14 
REMARK    5  A    between atoms: C6_14  and  C7_15 
REMARK    6  A    between atoms: C7_15  and  C8_16 
REMARK    7  A    between atoms: C9_18  and  C10_19 
REMARK    8  A    between atoms: C10_19  and  C11_20 
REMARK    9  A    between atoms: C11_20  and  C12_21 
ROOT
HETATM    1  C1  UNL     1      10.348  57.112  23.231  1.00  0.00     0.108 A 
HETATM    2  N2  UNL     1      10.825  55.868  22.958  1.00  0.00    -0.341 N 
ATOM      3  H2  UNL     1      10.168  55.132  22.697  1.00  0.00     0.167 HD
HETATM    4  C2  UNL     1      12.124  55.580  23.020  1.00  0.00     0.078 A 
HETATM    5  C4  UNL     1      13.003  56.578  23.371  1.00  0.00     0.068 A 
HETATM    6  C5  UNL     1      12.558  57.854  23.656  1.00  0.00     0.080 A 
HETATM    7  C9  UNL     1      11.208  58.146  23.589  1.00  0.00     0.019 A 
ENDROOT
BRANCH   7   8
HETATM    8  C10 UNL     1      10.681  59.502  23.886  1.00  0.00     0.047 C 
BRANCH   8   9
HETATM    9  C11 UNL     1      11.137  60.423  22.806  1.00  0.00     0.037 C 
BRANCH   9  10
HETATM   10  C12 UNL     1      11.607  61.765  23.320  1.00  0.00     0.186 C 
HETATM   11  C13 UNL     1      10.462  62.624  23.806  1.00  0.00     0.034 C 
HETATM   12  C14 UNL     1      10.336  63.618  22.645  1.00  0.00     0.029 C 
HETATM   13  C15 UNL     1      11.804  63.867  22.357  1.00  0.00     0.233 C 
HETATM   14  N3  UNL     1      12.276  62.479  22.260  1.00  0.00    -0.071 N 
ATOM     15  H32 UNL     1      13.292  62.389  22.284  1.00  0.00     0.277 HD
ATOM     16  H31 UNL     1      12.140  62.064  21.337  1.00  0.00     0.277 HD
ENDBRANCH   9  10
ENDBRANCH   8   9
ENDBRANCH   7   8
BRANCH   1  17
HETATM   17  N1  UNL     1       9.078  57.340  23.156  1.00  0.00    -0.385 N 
ATOM     18  H12 UNL     1       8.734  58.052  22.511  1.00  0.00     0.157 HD
ATOM     19  H11 UNL     1       8.434  56.807  23.741  1.00  0.00     0.157 HD
ENDBRANCH   1  17
BRANCH   6  20
HETATM   20  O1  UNL     1      13.471  58.837  24.007  1.00  0.00    -0.350 OA
BRANCH  20  21
HETATM   21  C6  UNL     1      13.687  59.160  25.360  1.00  0.00     0.178 C 
BRANCH  21  22
HETATM   22  C7  UNL     1      14.673  60.284  25.495  1.00  0.00     0.058 C 
BRANCH  22  23
HETATM   23  C8  UNL     1      14.953  60.859  24.120  1.00  0.00     0.224 C 
HETATM   24  F3  UNL     1      14.924  62.228  24.106  1.00  0.00    -0.255 F 
ENDBRANCH  22  23
ENDBRANCH  21  22
ENDBRANCH  20  21
ENDBRANCH   6  20
BRANCH   4  25
HETATM   25  C3  UNL     1      12.647  54.220  22.723  1.00  0.00     0.403 C 
HETATM   26  F1  UNL     1      13.646  53.904  23.630  1.00  0.00    -0.208 F 
HETATM   27  F2  UNL     1      11.647  53.296  22.788  1.00  0.00    -0.208 F 
ENDBRANCH   4  25
TORSDOF 9
ENDMDL
MODEL 4
REMARK VINA RESULT: -7.011162630      1.597      1.855
REMARK  9 active torsions:
REMARK  status: ('A' for Active; 'I' for Inactive)
REMARK    1  A    between atoms: N1_1  and  C1_4 
REMARK    2  A    between atoms: C2_7  and  C3_8 
REMARK    3  A    between atoms: C5_12  and  O1_13 
REMARK    4  A    between atoms: O1_13  and  C6_14 
REMARK    5  A    between atoms: C6_14  and  C7_15 
REMARK    6  A    between atoms: C7_15  and  C8_16 
REMARK    7  A    between atoms: C9_18  and  C10_19 
REMARK    8  A    between atoms: C10_19  and  C11_20 
REMARK    9  A    between atoms: C11_20  and  C12_21 
ROOT
HETATM    1  C1  UNL     1      13.412  61.091  23.667  1.00  0.00     0.108 A 
HETATM    2  N2  UNL     1      13.941  62.197  23.076  1.00  0.00    -0.341 N 
ATOM      3  H2  UNL     1      14.950  62.247  22.934  1.00  0.00     0.167 HD
HETATM    4  C2  UNL     1      13.181  63.216  22.678  1.00  0.00     0.078 A 
HETATM    5  C4  UNL     1      11.822  63.138  22.873  1.00  0.00     0.068 A 
HETATM    6  C5  UNL     1      11.247  62.033  23.469  1.00  0.00     0.080 A 
HETATM    7  C9  UNL     1      12.041  60.978  23.880  1.00  0.00     0.019 A 
ENDROOT
BRANCH   7   8
HETATM    8  C10 UNL     1      11.471  59.769  24.525  1.00  0.00     0.047 C 
BRANCH   8   9
HETATM    9  C11 UNL     1      10.680  59.028  23.501  1.00  0.00     0.037 C 
BRANCH   9  10
HETATM   10  C12 UNL     1      11.502  58.034  22.712  1.00  0.00     0.186 C 
HETATM   11  C13 UNL     1      10.640  57.022  21.992  1.00  0.00     0.034 C 
HETATM   12  C14 UNL     1      10.834  55.792  22.886  1.00  0.00     0.029 C 
HETATM   13  C15 UNL     1      12.319  55.912  23.171  1.00  0.00     0.233 C 
HETATM   14  N3  UNL     1      12.374  57.314  23.607  1.00  0.00    -0.071 N 
ATOM     15  H32 UNL     1      13.321  57.692  23.648  1.00  0.00     0.277 HD
ATOM     16  H31 UNL     1      12.148  57.445  24.593  1.00  0.00     0.277 HD
ENDBRANCH   9  10
ENDBRANCH   8   9
ENDBRANCH   7   8
BRANCH   1  17
HETATM   17  N1  UNL     1      14.193  60.128  24.035  1.00  0.00    -0.385 N 
ATOM     18  H12 UNL     1      14.677  60.191  24.931  1.00  0.00     0.157 HD
ATOM     19  H11 UNL     1      14.315  59.317  23.429  1.00  0.00     0.157 HD
ENDBRANCH   1  17
BRANCH   6  20
HETATM   20  O1  UNL     1       9.873  61.988  23.650  1.00  0.00    -0.350 OA
BRANCH  20  21
HETATM   21  C6  UNL     1       9.173  63.128  24.089  1.00  0.00     0.178 C 
BRANCH  21  22
HETATM   22  C7  UNL     1       8.946  63.084  25.572  1.00  0.00     0.058 C 
BRANCH  22  23
HETATM   23  C8  UNL     1       7.535  63.555  25.865  1.00  0.00     0.224 C 
HETATM   24  F3  UNL     1       6.638  63.155  24.911  1.00  0.00    -0.255 F 
ENDBRANCH  22  23
ENDBRANCH  21  22
ENDBRANCH  20  21
ENDBRANCH   6  20
BRANCH   4  25
HETATM   25  C3  UNL     1      13.757  64.425  22.033  1.00  0.00     0.403 C 
HETATM   26  F1  UNL     1      13.444  64.418  20.683  1.00  0.00    -0.208 F 
HETATM   27  F2  UNL     1      13.274  65.558  22.618  1.00  0.00    -0.208 F 
ENDBRANCH   4  25
TORSDOF 9
ENDMDL
MODEL 5
REMARK VINA RESULT: -6.855989174      1.226      1.324
REMARK  9 active torsions:
REMARK  status: ('A' for Active; 'I' for Inactive)
REMARK    1  A    between atoms: N1_1  and  C1_4 
REMARK    2  A    between atoms: C2_7  and  C3_8 
REMARK    3  A    between atoms: C5_12  and  O1_13 
REMARK    4  A    between atoms: O1_13  and  C6_14 
REMARK    5  A    between atoms: C6_14  and  C7_15 
REMARK    6  A    between atoms: C7_15  and  C8_16 
REMARK    7  A    between atoms: C9_18  and  C10_19 
REMARK    8  A    between atoms: C10_19  and  C11_20 
REMARK    9  A    between atoms: C11_20  and  C12_21 
ROOT
HETATM    1  C1  UNL     1      13.693  60.699  24.125  1.00  0.00     0.108 A 
HETATM    2  N2  UNL     1      14.757  61.466  23.766  1.00  0.00    -0.341 N 
ATOM      3  H2  UNL     1      15.675  61.252  24.157  1.00  0.00     0.167 HD
HETATM    4  C2  UNL     1      14.637  62.489  22.921  1.00  0.00     0.078 A 
HETATM    5  C4  UNL     1      13.396  62.769  22.399  1.00  0.00     0.068 A 
HETATM    6  C5  UNL     1      12.291  62.013  22.738  1.00  0.00     0.080 A 
HETATM    7  C9  UNL     1      12.422  60.952  23.616  1.00  0.00     0.019 A 
ENDROOT
BRANCH   7   8
HETATM    8  C10 UNL     1      11.264  60.111  24.011  1.00  0.00     0.047 C 
BRANCH   8   9
HETATM    9  C11 UNL     1      11.129  59.012  23.012  1.00  0.00     0.037 C 
BRANCH   9  10
HETATM   10  C12 UNL     1      11.103  57.635  23.636  1.00  0.00     0.186 C 
HETATM   11  C13 UNL     1      12.383  56.870  23.389  1.00  0.00     0.034 C 
HETATM   12  C14 UNL     1      11.927  55.893  22.299  1.00  0.00     0.029 C 
HETATM   13  C15 UNL     1      10.557  55.527  22.837  1.00  0.00     0.233 C 
HETATM   14  N3  UNL     1      10.016  56.872  23.072  1.00  0.00    -0.071 N 
ATOM     15  H32 UNL     1       9.171  56.879  23.644  1.00  0.00     0.277 HD
ATOM     16  H31 UNL     1       9.604  57.299  22.242  1.00  0.00     0.277 HD
ENDBRANCH   9  10
ENDBRANCH   8   9
ENDBRANCH   7   8
BRANCH   1  17
HETATM   17  N1  UNL     1      13.861  59.717  24.949  1.00  0.00    -0.385 N 
ATOM     18  H12 UNL     1      14.805  59.473  25.251  1.00  0.00     0.157 HD
ATOM     19  H11 UNL     1      13.051  59.199  25.290  1.00  0.00     0.157 HD
ENDBRANCH   1  17
BRANCH   6  20
HETATM   20  O1  UNL     1      11.054  62.322  22.193  1.00  0.00    -0.350 OA
BRANCH  20  21
HETATM   21  C6  UNL     1      10.771  63.634  21.765  1.00  0.00     0.178 C 
BRANCH  21  22
HETATM   22  C7  UNL     1      10.249  64.469  22.896  1.00  0.00     0.058 C 
BRANCH  22  23
HETATM   23  C8  UNL     1       9.872  65.837  22.362  1.00  0.00     0.224 C 
HETATM   24  F3  UNL     1       8.519  66.052  22.374  1.00  0.00    -0.255 F 
ENDBRANCH  22  23
ENDBRANCH  21  22
ENDBRANCH  20  21
ENDBRANCH   6  20
BRANCH   4  25
HETATM   25  C3  UNL     1      15.799  63.329  22.529  1.00  0.00     0.403 C 
HETATM   26  F1  UNL     1      15.928  64.381  23.422  1.00  0.00    -0.208 F 
HETATM   27  F2  UNL     1      16.944  62.589  22.512  1.00  0.00    -0.208 F 
ENDBRANCH   4  25
TORSDOF 9
ENDMDL
