MODEL 1
REMARK VINA RESULT: -5.766879114      0.000      0.000
REMARK  9 active torsions:
REMARK  status: ('A' for Active; 'I' for Inactive)
REMARK    1  A    between atoms: N1_1  and  C1_5 
REMARK    2  A    between atoms: C1_5  and  C2_6 
REMARK    3  A    between atoms: C2_6  and  C3_7 
REMARK    4  A    between atoms: C3_7  and  S1_8 
REMARK    5  A    between atoms: S1_8  and  C4_9 
REMARK    6  A    between atoms: C4_9  and  N2_10 
REMARK    7  A    between atoms: C4_9  and  C7_15 
REMARK    8  A    between atoms: N2_10  and  C5_12 
REMARK    9  A    between atoms: C5_12  and  C6_13 
ROOT
HETATM    1  C4  UNL     1      11.284  61.991  23.536  1.00  0.00     0.191 C 
ENDROOT
BRANCH   1   2
HETATM    2  S1  UNL     1      12.047  62.629  22.057  1.00  0.00    -0.138 SA
BRANCH   2   3
HETATM    3  C3  UNL     1      10.909  63.467  20.946  1.00  0.00     0.078 C 
BRANCH   3   4
HETATM    4  C2  UNL     1      11.162  62.980  19.538  1.00  0.00     0.037 C 
BRANCH   4   5
HETATM    5  C1  UNL     1      10.823  64.043  18.514  1.00  0.00     0.230 C 
BRANCH   5   6
HETATM    6  N1  UNL     1       9.983  63.476  17.477  1.00  0.00    -0.079 N 
ATOM      7  H13 UNL     1      10.491  62.818  16.888  1.00  0.00     0.274 HD
ATOM      8  H12 UNL     1       9.290  62.831  17.857  1.00  0.00     0.274 HD
ATOM      9  H11 UNL     1       9.553  64.224  16.933  1.00  0.00     0.274 HD
ENDBRANCH   5   6
ENDBRANCH   4   5
ENDBRANCH   3   4
ENDBRANCH   2   3
ENDBRANCH   1   2
BRANCH   1  10
HETATM   10  N2  UNL     1       9.910  62.327  23.718  1.00  0.00    -0.403 N 
ATOM     11  H2  UNL     1       9.153  61.761  23.334  1.00  0.00     0.154 HD
BRANCH  10  12
HETATM   12  C5  UNL     1       9.667  63.525  24.485  1.00  0.00     0.130 C 
BRANCH  12  13
HETATM   13  C6  UNL     1       8.635  63.319  25.566  1.00  0.00     0.134 C 
HETATM   14 CL1  UNL     1       7.002  63.492  24.841  1.00  0.00    -0.129 Cl
ENDBRANCH  12  13
ENDBRANCH  10  12
ENDBRANCH   1  10
BRANCH   1  15
HETATM   15  C7  UNL     1      11.371  60.492  23.556  1.00  0.00     0.065 A 
HETATM   16  N3  UNL     1      10.418  59.580  23.368  1.00  0.00    -0.346 N 
HETATM   17  C8  UNL     1      10.946  58.346  23.476  1.00  0.00     0.105 A 
ATOM     18  H3  UNL     1       9.438  59.786  23.172  1.00  0.00     0.167 HD
HETATM   19 CL2  UNL     1      10.056  56.864  23.303  1.00  0.00    -0.065 Cl
HETATM   20  C9  UNL     1      12.298  58.459  23.745  1.00  0.00     0.068 A 
HETATM   21  C10 UNL     1      12.549  59.816  23.792  1.00  0.00     0.062 A 
HETATM   22 CL3  UNL     1      14.124  60.509  24.106  1.00  0.00    -0.082 Cl
ENDBRANCH   1  15
TORSDOF 9
ENDMDL
MODEL 2
REMARK VINA RESULT: -5.563925999      2.375      3.037
REMARK  9 active torsions:
REMARK  status: ('A' for Active; 'I' for Inactive)
REMARK    1  A    between atoms: N1_1  and  C1_5 
REMARK    2  A    between atoms: C1_5  and  C2_6 
REMARK    3  A    between atoms: C2_6  and  C3_7 
REMARK    4  A    between atoms: C3_7  and  S1_8 
REMARK    5  A    between atoms: S1_8  and  C4_9 
REMARK    6  A    between atoms: C4_9  and  N2_10 
REMARK    7  A    between atoms: C4_9  and  C7_15 
REMARK    8  A    between atoms: N2_10  and  C5_12 
REMARK    9  A    between atoms: C5_12  and  C6_13 
ROOT
HETATM    1  C4  UNL     1      11.498  61.203  23.580  1.00  0.00     0.191 C 
ENDROOT
BRANCH   1   2
HETATM    2  S1  UNL     1      11.674  62.033  22.012  1.00  0.00    -0.138 SA
BRANCH   2   3
HETATM    3  C3  UNL     1      13.119  63.096  21.901  1.00  0.00     0.078 C 
BRANCH   3   4
HETATM    4  C2  UNL     1      14.055  62.759  23.038  1.00  0.00     0.037 C 
BRANCH   4   5
HETATM    5  C1  UNL     1      15.446  62.433  22.534  1.00  0.00     0.230 C 
BRANCH   5   6
HETATM    6  N1  UNL     1      16.032  61.388  23.350  1.00  0.00    -0.079 N 
ATOM      7  H13 UNL     1      16.844  60.962  22.904  1.00  0.00     0.274 HD
ATOM      8  H12 UNL     1      16.497  61.763  24.177  1.00  0.00     0.274 HD
ATOM      9  H11 UNL     1      15.321  60.698  23.590  1.00  0.00     0.274 HD
ENDBRANCH   5   6
ENDBRANCH   4   5
ENDBRANCH   3   4
ENDBRANCH   2   3
ENDBRANCH   1   2
BRANCH   1  10
HETATM   10  N2  UNL     1      10.246  61.381  24.238  1.00  0.00    -0.403 N 
ATOM     11  H2  UNL     1       9.846  60.673  24.854  1.00  0.00     0.154 HD
BRANCH  10  12
HETATM   12  C5  UNL     1       9.584  62.634  23.969  1.00  0.00     0.130 C 
BRANCH  12  13
HETATM   13  C6  UNL     1       8.964  63.237  25.206  1.00  0.00     0.134 C 
HETATM   14 CL1  UNL     1       7.199  63.415  24.934  1.00  0.00    -0.129 Cl
ENDBRANCH  12  13
ENDBRANCH  10  12
ENDBRANCH   1  10
BRANCH   1  15
HETATM   15  C7  UNL     1      11.691  59.723  23.405  1.00  0.00     0.065 A 
HETATM   16  N3  UNL     1      11.064  58.873  22.593  1.00  0.00    -0.346 N 
HETATM   17  C8  UNL     1      11.560  57.633  22.769  1.00  0.00     0.105 A 
ATOM     18  H3  UNL     1      10.323  59.122  21.939  1.00  0.00     0.167 HD
HETATM   19 CL2  UNL     1      11.028  56.218  21.913  1.00  0.00    -0.065 Cl
HETATM   20  C9  UNL     1      12.549  57.678  23.734  1.00  0.00     0.068 A 
HETATM   21  C10 UNL     1      12.619  59.001  24.123  1.00  0.00     0.062 A 
HETATM   22 CL3  UNL     1      13.723  59.606  25.338  1.00  0.00    -0.082 Cl
ENDBRANCH   1  15
TORSDOF 9
ENDMDL
MODEL 3
REMARK VINA RESULT: -5.511155046      3.510      5.522
REMARK  9 active torsions:
REMARK  status: ('A' for Active; 'I' for Inactive)
REMARK    1  A    between atoms: N1_1  and  C1_5 
REMARK    2  A    between atoms: C1_5  and  C2_6 
REMARK    3  A    between atoms: C2_6  and  C3_7 
REMARK    4  A    between atoms: C3_7  and  S1_8 
REMARK    5  A    between atoms: S1_8  and  C4_9 
REMARK    6  A    between atoms: C4_9  and  N2_10 
REMARK    7  A    between atoms: C4_9  and  C7_15 
REMARK    8  A    between atoms: N2_10  and  C5_12 
REMARK    9  A    between atoms: C5_12  and  C6_13 
ROOT
HETATM    1  C4  UNL     1      11.310  60.941  23.735  1.00  0.00     0.191 C 
ENDROOT
BRANCH   1   2
HETATM    2  S1  UNL     1      10.303  62.402  23.564  1.00  0.00    -0.138 SA
BRANCH   2   3
HETATM    3  C3  UNL     1       9.423  62.867  25.060  1.00  0.00     0.078 C 
BRANCH   3   4
HETATM    4  C2  UNL     1       8.143  63.568  24.669  1.00  0.00     0.037 C 
BRANCH   4   5
HETATM    5  C1  UNL     1       7.139  63.564  25.803  1.00  0.00     0.230 C 
BRANCH   5   6
HETATM    6  N1  UNL     1       6.089  64.527  25.533  1.00  0.00    -0.079 N 
ATOM      7  H13 UNL     1       5.573  64.303  24.682  1.00  0.00     0.274 HD
ATOM      8  H12 UNL     1       5.319  64.451  26.198  1.00  0.00     0.274 HD
ATOM      9  H11 UNL     1       6.482  65.468  25.507  1.00  0.00     0.274 HD
ENDBRANCH   5   6
ENDBRANCH   4   5
ENDBRANCH   3   4
ENDBRANCH   2   3
ENDBRANCH   1   2
BRANCH   1  10
HETATM   10  N2  UNL     1      11.068  59.907  22.783  1.00  0.00    -0.403 N 
ATOM     11  H2  UNL     1      11.136  60.063  21.777  1.00  0.00     0.154 HD
BRANCH  10  12
HETATM   12  C5  UNL     1      10.720  58.625  23.344  1.00  0.00     0.130 C 
BRANCH  12  13
HETATM   13  C6  UNL     1      11.156  57.474  22.470  1.00  0.00     0.134 C 
HETATM   14 CL1  UNL     1      12.685  56.802  23.127  1.00  0.00    -0.129 Cl
ENDBRANCH  12  13
ENDBRANCH  10  12
ENDBRANCH   1  10
BRANCH   1  15
HETATM   15  C7  UNL     1      12.764  61.301  23.626  1.00  0.00     0.065 A 
HETATM   16  N3  UNL     1      13.353  62.259  22.910  1.00  0.00    -0.346 N 
HETATM   17  C8  UNL     1      14.684  62.220  23.114  1.00  0.00     0.105 A 
ATOM     18  H3  UNL     1      12.871  62.919  22.302  1.00  0.00     0.167 HD
HETATM   19 CL2  UNL     1      15.835  63.291  22.377  1.00  0.00    -0.065 Cl
HETATM   20  C9  UNL     1      14.973  61.196  23.998  1.00  0.00     0.068 A 
HETATM   21  C10 UNL     1      13.753  60.628  24.310  1.00  0.00     0.062 A 
HETATM   22 CL3  UNL     1      13.554  59.275  25.401  1.00  0.00    -0.082 Cl
ENDBRANCH   1  15
TORSDOF 9
ENDMDL
MODEL 4
REMARK VINA RESULT: -5.414262022      3.599      5.215
REMARK  9 active torsions:
REMARK  status: ('A' for Active; 'I' for Inactive)
REMARK    1  A    between atoms: N1_1  and  C1_5 
REMARK    2  A    between atoms: C1_5  and  C2_6 
REMARK    3  A    between atoms: C2_6  and  C3_7 
REMARK    4  A    between atoms: C3_7  and  S1_8 
REMARK    5  A    between atoms: S1_8  and  C4_9 
REMARK    6  A    between atoms: C4_9  and  N2_10 
REMARK    7  A    between atoms: C4_9  and  C7_15 
REMARK    8  A    between atoms: N2_10  and  C5_12 
REMARK    9  A    between atoms: C5_12  and  C6_13 
ROOT
HETATM    1  C4  UNL     1      12.292  58.164  23.092  1.00  0.00     0.191 C 
ENDROOT
BRANCH   1   2
HETATM    2  S1  UNL     1      10.736  58.674  23.796  1.00  0.00    -0.138 SA
BRANCH   2   3
HETATM    3  C3  UNL     1      10.463  60.451  23.767  1.00  0.00     0.078 C 
BRANCH   3   4
HETATM    4  C2  UNL     1      11.297  61.049  22.658  1.00  0.00     0.037 C 
BRANCH   4   5
HETATM    5  C1  UNL     1      11.966  62.335  23.099  1.00  0.00     0.230 C 
BRANCH   5   6
HETATM    6  N1  UNL     1      10.958  63.312  23.464  1.00  0.00    -0.079 N 
ATOM      7  H13 UNL     1      11.022  64.158  22.900  1.00  0.00     0.274 HD
ATOM      8  H12 UNL     1      10.022  63.018  23.186  1.00  0.00     0.274 HD
ATOM      9  H11 UNL     1      11.017  63.512  24.463  1.00  0.00     0.274 HD
ENDBRANCH   5   6
ENDBRANCH   4   5
ENDBRANCH   3   4
ENDBRANCH   2   3
ENDBRANCH   1   2
BRANCH   1  10
HETATM   10  N2  UNL     1      13.454  58.511  23.842  1.00  0.00    -0.403 N 
ATOM     11  H2  UNL     1      14.396  58.423  23.462  1.00  0.00     0.154 HD
BRANCH  10  12
HETATM   12  C5  UNL     1      13.201  58.995  25.177  1.00  0.00     0.130 C 
BRANCH  12  13
HETATM   13  C6  UNL     1      14.271  59.942  25.661  1.00  0.00     0.134 C 
HETATM   14 CL1  UNL     1      14.963  60.798  24.243  1.00  0.00    -0.129 Cl
ENDBRANCH  12  13
ENDBRANCH  10  12
ENDBRANCH   1  10
BRANCH   1  15
HETATM   15  C7  UNL     1      12.315  56.672  22.918  1.00  0.00     0.065 A 
HETATM   16  N3  UNL     1      13.151  55.769  23.428  1.00  0.00    -0.346 N 
HETATM   17  C8  UNL     1      12.798  54.539  23.006  1.00  0.00     0.105 A 
ATOM     18  H3  UNL     1      13.938  55.976  24.042  1.00  0.00     0.167 HD
HETATM   19 CL2  UNL     1      13.619  53.068  23.429  1.00  0.00    -0.065 Cl
HETATM   20  C9  UNL     1      11.687  54.647  22.190  1.00  0.00     0.068 A 
HETATM   21  C10 UNL     1      11.396  55.996  22.145  1.00  0.00     0.062 A 
HETATM   22 CL3  UNL     1      10.067  56.681  21.237  1.00  0.00    -0.082 Cl
ENDBRANCH   1  15
TORSDOF 9
ENDMDL
MODEL 5
REMARK VINA RESULT: -5.376259089      2.103      4.275
REMARK  9 active torsions:
REMARK  status: ('A' for Active; 'I' for Inactive)
REMARK    1  A    between atoms: N1_1  and  C1_5 
REMARK    2  A    between atoms: C1_5  and  C2_6 
REMARK    3  A    between atoms: C2_6  and  C3_7 
REMARK    4  A    between atoms: C3_7  and  S1_8 
REMARK    5  A    between atoms: S1_8  and  C4_9 
REMARK    6  A    between atoms: C4_9  and  N2_10 
REMARK    7  A    between atoms: C4_9  and  C7_15 
REMARK    8  A    between atoms: N2_10  and  C5_12 
REMARK    9  A    between atoms: C5_12  and  C6_13 
ROOT
HETATM    1  C4  UNL     1      13.182  62.335  22.473  1.00  0.00     0.191 C 
ENDROOT
BRANCH   1   2
HETATM    2  S1  UNL     1      13.453  63.670  21.324  1.00  0.00    -0.138 SA
BRANCH   2   3
HETATM    3  C3  UNL     1      12.864  63.337  19.659  1.00  0.00     0.078 C 
BRANCH   3   4
HETATM    4  C2  UNL     1      11.363  63.510  19.634  1.00  0.00     0.037 C 
BRANCH   4   5
HETATM    5  C1  UNL     1      10.720  62.624  18.587  1.00  0.00     0.230 C 
BRANCH   5   6
HETATM    6  N1  UNL     1      10.039  63.442  17.603  1.00  0.00    -0.079 N 
ATOM      7  H13 UNL     1      10.562  64.288  17.379  1.00  0.00     0.274 HD
ATOM      8  H12 UNL     1      10.046  63.014  16.677  1.00  0.00     0.274 HD
ATOM      9  H11 UNL     1       9.093  63.651  17.922  1.00  0.00     0.274 HD
ENDBRANCH   5   6
ENDBRANCH   4   5
ENDBRANCH   3   4
ENDBRANCH   2   3
ENDBRANCH   1   2
BRANCH   1  10
HETATM   10  N2  UNL     1      14.114  62.245  23.548  1.00  0.00    -0.403 N 
ATOM     11  H2  UNL     1      14.360  63.048  24.128  1.00  0.00     0.154 HD
BRANCH  10  12
HETATM   12  C5  UNL     1      14.686  60.937  23.757  1.00  0.00     0.130 C 
BRANCH  12  13
HETATM   13  C6  UNL     1      14.876  60.617  25.220  1.00  0.00     0.134 C 
HETATM   14 CL1  UNL     1      13.687  59.358  25.692  1.00  0.00    -0.129 Cl
ENDBRANCH  12  13
ENDBRANCH  10  12
ENDBRANCH   1  10
BRANCH   1  15
HETATM   15  C7  UNL     1      11.817  62.454  23.090  1.00  0.00     0.065 A 
HETATM   16  N3  UNL     1      11.160  63.538  23.500  1.00  0.00    -0.346 N 
HETATM   17  C8  UNL     1       9.959  63.178  23.992  1.00  0.00     0.105 A 
ATOM     18  H3  UNL     1      11.512  64.494  23.450  1.00  0.00     0.167 HD
HETATM   19 CL2  UNL     1       8.778  64.276  24.638  1.00  0.00    -0.065 Cl
HETATM   20  C9  UNL     1       9.830  61.805  23.898  1.00  0.00     0.068 A 
HETATM   21  C10 UNL     1      11.008  61.365  23.328  1.00  0.00     0.062 A 
HETATM   22 CL3  UNL     1      11.363  59.686  22.988  1.00  0.00    -0.082 Cl
ENDBRANCH   1  15
TORSDOF 9
ENDMDL
