MODEL 1
REMARK VINA RESULT: -6.436151929      0.000      0.000
REMARK  9 active torsions:
REMARK  status: ('A' for Active; 'I' for Inactive)
REMARK    1  A    between atoms: C2_2  and  O1_3 
REMARK    2  A    between atoms: O1_3  and  C3_4 
REMARK    3  A    between atoms: C3_4  and  C4_5 
REMARK    4  A    between atoms: C4_5  and  C5_6 
REMARK    5  A    between atoms: C7_8  and  N1_9 
REMARK    6  A    between atoms: N1_9  and  C8_11 
REMARK    7  A    between atoms: C8_11  and  C11_14 
REMARK    8  A    between atoms: C12_17  and  C13_18 
REMARK    9  A    between atoms: C15_20  and  N2_21 
ROOT
HETATM    1  C5  UNL     1      11.942  60.635  23.424  1.00  0.00     0.015 A 
HETATM    2  C6  UNL     1      11.786  61.839  22.718  1.00  0.00     0.055 A 
HETATM    3  C7  UNL     1      12.801  62.748  22.602  1.00  0.00     0.040 A 
HETATM    4  C12 UNL     1      13.990  62.389  23.230  1.00  0.00     0.011 A 
HETATM    5  C15 UNL     1      14.118  61.200  23.918  1.00  0.00     0.107 A 
HETATM    6  N3  UNL     1      13.092  60.341  24.004  1.00  0.00    -0.346 N 
ATOM      7  H3  UNL     1      13.199  59.465  24.516  1.00  0.00     0.167 HD
ENDROOT
BRANCH   3   8
HETATM    8  N1  UNL     1      12.652  63.939  21.894  1.00  0.00    -0.375 N 
ATOM      9  H1  UNL     1      12.607  64.772  22.481  1.00  0.00     0.160 HD
BRANCH   8  10
HETATM   10  C8  UNL     1      12.554  64.198  20.505  1.00  0.00     0.082 C 
HETATM   11  C9  UNL     1      13.437  63.413  19.600  1.00  0.00     0.043 C 
HETATM   12  C10 UNL     1      13.024  65.678  20.280  1.00  0.00     0.043 C 
BRANCH  10  13
HETATM   13  C11 UNL     1      11.100  64.255  20.098  1.00  0.00     0.380 C 
HETATM   14  F1  UNL     1      10.267  64.895  20.953  1.00  0.00    -0.212 F 
HETATM   15  F2  UNL     1      10.628  63.006  19.725  1.00  0.00    -0.212 F 
ENDBRANCH  10  13
ENDBRANCH   8  10
ENDBRANCH   3   8
BRANCH   4  16
HETATM   16  C13 UNL     1      15.145  63.296  23.156  1.00  0.00     0.040 C 
HETATM   17  C14 UNL     1      16.103  62.952  22.032  1.00  0.00     0.010 C 
ENDBRANCH   4  16
BRANCH   1  18
HETATM   18  C4  UNL     1      10.784  59.675  23.517  1.00  0.00     0.083 C 
BRANCH  18  19
HETATM   19  C3  UNL     1      11.311  58.304  23.799  1.00  0.00     0.173 C 
BRANCH  19  20
HETATM   20  O1  UNL     1      12.050  57.803  22.755  1.00  0.00    -0.391 OA
BRANCH  20  21
HETATM   21  C2  UNL     1      11.840  56.455  22.604  1.00  0.00     0.163 C 
HETATM   22  C1  UNL     1      13.010  55.604  23.078  1.00  0.00     0.033 C 
ENDBRANCH  20  21
ENDBRANCH  19  20
ENDBRANCH  18  19
ENDBRANCH   1  18
BRANCH   5  23
HETATM   23  N2  UNL     1      15.225  60.893  24.490  1.00  0.00    -0.385 N 
ATOM     24  H22 UNL     1      15.518  61.431  25.306  1.00  0.00     0.157 HD
ATOM     25  H21 UNL     1      15.798  60.127  24.133  1.00  0.00     0.157 HD
ENDBRANCH   5  23
TORSDOF 9
ENDMDL
MODEL 2
REMARK VINA RESULT: -6.378468871      2.859      4.027
REMARK  9 active torsions:
REMARK  status: ('A' for Active; 'I' for Inactive)
REMARK    1  A    between atoms: C2_2  and  O1_3 
REMARK    2  A    between atoms: O1_3  and  C3_4 
REMARK    3  A    between atoms: C3_4  and  C4_5 
REMARK    4  A    between atoms: C4_5  and  C5_6 
REMARK    5  A    between atoms: C7_8  and  N1_9 
REMARK    6  A    between atoms: N1_9  and  C8_11 
REMARK    7  A    between atoms: C8_11  and  C11_14 
REMARK    8  A    between atoms: C12_17  and  C13_18 
REMARK    9  A    between atoms: C15_20  and  N2_21 
ROOT
HETATM    1  C5  UNL     1      11.472  60.561  23.797  1.00  0.00     0.015 A 
HETATM    2  C6  UNL     1      10.272  61.284  23.889  1.00  0.00     0.055 A 
HETATM    3  C7  UNL     1      10.196  62.609  23.562  1.00  0.00     0.040 A 
HETATM    4  C12 UNL     1      11.391  63.181  23.133  1.00  0.00     0.011 A 
HETATM    5  C15 UNL     1      12.558  62.449  23.051  1.00  0.00     0.107 A 
HETATM    6  N3  UNL     1      12.581  61.151  23.385  1.00  0.00    -0.346 N 
ATOM      7  H3  UNL     1      13.450  60.620  23.320  1.00  0.00     0.167 HD
ENDROOT
BRANCH   3   8
HETATM    8  N1  UNL     1       9.004  63.327  23.643  1.00  0.00    -0.375 N 
ATOM      9  H1  UNL     1       8.469  63.350  22.775  1.00  0.00     0.160 HD
BRANCH   8  10
HETATM   10  C8  UNL     1       8.404  64.029  24.717  1.00  0.00     0.082 C 
HETATM   11  C9  UNL     1       8.930  63.763  26.084  1.00  0.00     0.043 C 
HETATM   12  C10 UNL     1       6.912  63.551  24.800  1.00  0.00     0.043 C 
BRANCH  10  13
HETATM   13  C11 UNL     1       8.258  65.488  24.355  1.00  0.00     0.380 C 
HETATM   14  F1  UNL     1       8.097  65.761  23.037  1.00  0.00    -0.212 F 
HETATM   15  F2  UNL     1       9.246  66.260  24.945  1.00  0.00    -0.212 F 
ENDBRANCH  10  13
ENDBRANCH   8  10
ENDBRANCH   3   8
BRANCH   4  16
HETATM   16  C13 UNL     1      11.412  64.600  22.750  1.00  0.00     0.040 C 
HETATM   17  C14 UNL     1      10.886  64.848  21.349  1.00  0.00     0.010 C 
ENDBRANCH   4  16
BRANCH   1  18
HETATM   18  C4  UNL     1      11.490  59.102  24.174  1.00  0.00     0.083 C 
BRANCH  18  19
HETATM   19  C3  UNL     1      10.783  58.318  23.116  1.00  0.00     0.173 C 
BRANCH  19  20
HETATM   20  O1  UNL     1      11.620  57.444  22.465  1.00  0.00    -0.391 OA
BRANCH  20  21
HETATM   21  C2  UNL     1      12.639  57.030  23.286  1.00  0.00     0.163 C 
HETATM   22  C1  UNL     1      12.997  55.561  23.113  1.00  0.00     0.033 C 
ENDBRANCH  20  21
ENDBRANCH  19  20
ENDBRANCH  18  19
ENDBRANCH   1  18
BRANCH   5  23
HETATM   23  N2  UNL     1      13.646  63.000  22.654  1.00  0.00    -0.385 N 
ATOM     24  H22 UNL     1      14.210  63.512  23.332  1.00  0.00     0.157 HD
ATOM     25  H21 UNL     1      13.939  62.926  21.679  1.00  0.00     0.157 HD
ENDBRANCH   5  23
TORSDOF 9
ENDMDL
MODEL 3
REMARK VINA RESULT: -6.349865999      3.137      4.175
REMARK  9 active torsions:
REMARK  status: ('A' for Active; 'I' for Inactive)
REMARK    1  A    between atoms: C2_2  and  O1_3 
REMARK    2  A    between atoms: O1_3  and  C3_4 
REMARK    3  A    between atoms: C3_4  and  C4_5 
REMARK    4  A    between atoms: C4_5  and  C5_6 
REMARK    5  A    between atoms: C7_8  and  N1_9 
REMARK    6  A    between atoms: N1_9  and  C8_11 
REMARK    7  A    between atoms: C8_11  and  C11_14 
REMARK    8  A    between atoms: C12_17  and  C13_18 
REMARK    9  A    between atoms: C15_20  and  N2_21 
ROOT
HETATM    1  C5  UNL     1      11.523  60.367  23.871  1.00  0.00     0.015 A 
HETATM    2  C6  UNL     1      10.331  61.107  23.936  1.00  0.00     0.055 A 
HETATM    3  C7  UNL     1      10.282  62.431  23.599  1.00  0.00     0.040 A 
HETATM    4  C12 UNL     1      11.493  62.982  23.190  1.00  0.00     0.011 A 
HETATM    5  C15 UNL     1      12.649  62.233  23.134  1.00  0.00     0.107 A 
HETATM    6  N3  UNL     1      12.647  60.937  23.476  1.00  0.00    -0.346 N 
ATOM      7  H3  UNL     1      13.509  60.393  23.432  1.00  0.00     0.167 HD
ENDROOT
BRANCH   3   8
HETATM    8  N1  UNL     1       9.099  63.167  23.653  1.00  0.00    -0.375 N 
ATOM      9  H1  UNL     1       8.601  63.226  22.765  1.00  0.00     0.160 HD
BRANCH   8  10
HETATM   10  C8  UNL     1       8.466  63.846  24.723  1.00  0.00     0.082 C 
HETATM   11  C9  UNL     1       8.680  65.316  24.819  1.00  0.00     0.043 C 
HETATM   12  C10 UNL     1       9.096  63.298  26.051  1.00  0.00     0.043 C 
BRANCH  10  13
HETATM   13  C11 UNL     1       7.029  63.395  24.835  1.00  0.00     0.380 C 
HETATM   14  F1  UNL     1       6.110  64.174  24.214  1.00  0.00    -0.212 F 
HETATM   15  F2  UNL     1       6.688  63.108  26.148  1.00  0.00    -0.212 F 
ENDBRANCH  10  13
ENDBRANCH   8  10
ENDBRANCH   3   8
BRANCH   4  16
HETATM   16  C13 UNL     1      11.542  64.399  22.798  1.00  0.00     0.040 C 
HETATM   17  C14 UNL     1      11.035  64.647  21.390  1.00  0.00     0.010 C 
ENDBRANCH   4  16
BRANCH   1  18
HETATM   18  C4  UNL     1      11.512  58.909  24.258  1.00  0.00     0.083 C 
BRANCH  18  19
HETATM   19  C3  UNL     1      12.675  58.227  23.612  1.00  0.00     0.173 C 
BRANCH  19  20
HETATM   20  O1  UNL     1      12.285  57.242  22.738  1.00  0.00    -0.391 OA
BRANCH  20  21
HETATM   21  C2  UNL     1      12.755  56.015  23.135  1.00  0.00     0.163 C 
HETATM   22  C1  UNL     1      12.398  54.890  22.174  1.00  0.00     0.033 C 
ENDBRANCH  20  21
ENDBRANCH  19  20
ENDBRANCH  18  19
ENDBRANCH   1  18
BRANCH   5  23
HETATM   23  N2  UNL     1      13.754  62.765  22.754  1.00  0.00    -0.385 N 
ATOM     24  H22 UNL     1      13.985  63.701  23.089  1.00  0.00     0.157 HD
ATOM     25  H21 UNL     1      14.384  62.261  22.129  1.00  0.00     0.157 HD
ENDBRANCH   5  23
TORSDOF 9
ENDMDL
MODEL 4
REMARK VINA RESULT: -6.308888623      1.615      1.983
REMARK  9 active torsions:
REMARK  status: ('A' for Active; 'I' for Inactive)
REMARK    1  A    between atoms: C2_2  and  O1_3 
REMARK    2  A    between atoms: O1_3  and  C3_4 
REMARK    3  A    between atoms: C3_4  and  C4_5 
REMARK    4  A    between atoms: C4_5  and  C5_6 
REMARK    5  A    between atoms: C7_8  and  N1_9 
REMARK    6  A    between atoms: N1_9  and  C8_11 
REMARK    7  A    between atoms: C8_11  and  C11_14 
REMARK    8  A    between atoms: C12_17  and  C13_18 
REMARK    9  A    between atoms: C15_20  and  N2_21 
ROOT
HETATM    1  C5  UNL     1      12.195  59.525  23.885  1.00  0.00     0.015 A 
HETATM    2  C6  UNL     1      11.891  60.593  23.026  1.00  0.00     0.055 A 
HETATM    3  C7  UNL     1      12.718  61.675  22.894  1.00  0.00     0.040 A 
HETATM    4  C12 UNL     1      13.873  61.633  23.669  1.00  0.00     0.011 A 
HETATM    5  C15 UNL     1      14.149  60.571  24.505  1.00  0.00     0.107 A 
HETATM    6  N3  UNL     1      13.305  59.534  24.601  1.00  0.00    -0.346 N 
ATOM      7  H3  UNL     1      13.520  58.755  25.224  1.00  0.00     0.167 HD
ENDROOT
BRANCH   3   8
HETATM    8  N1  UNL     1      12.424  62.732  22.035  1.00  0.00    -0.375 N 
ATOM      9  H1  UNL     1      12.989  62.753  21.186  1.00  0.00     0.160 HD
BRANCH   8  10
HETATM   10  C8  UNL     1      11.480  63.784  22.131  1.00  0.00     0.082 C 
HETATM   11  C9  UNL     1      10.707  64.121  20.904  1.00  0.00     0.043 C 
HETATM   12  C10 UNL     1      12.285  65.097  22.428  1.00  0.00     0.043 C 
BRANCH  10  13
HETATM   13  C11 UNL     1      10.656  63.618  23.386  1.00  0.00     0.380 C 
HETATM   14  F1  UNL     1       9.599  62.775  23.298  1.00  0.00    -0.212 F 
HETATM   15  F2  UNL     1      10.319  64.843  23.939  1.00  0.00    -0.212 F 
ENDBRANCH  10  13
ENDBRANCH   8  10
ENDBRANCH   3   8
BRANCH   4  16
HETATM   16  C13 UNL     1      14.831  62.746  23.591  1.00  0.00     0.040 C 
HETATM   17  C14 UNL     1      15.834  62.593  22.464  1.00  0.00     0.010 C 
ENDBRANCH   4  16
BRANCH   1  18
HETATM   18  C4  UNL     1      11.241  58.362  23.988  1.00  0.00     0.083 C 
BRANCH  18  19
HETATM   19  C3  UNL     1      11.600  57.347  22.950  1.00  0.00     0.173 C 
BRANCH  19  20
HETATM   20  O1  UNL     1      12.898  56.913  23.069  1.00  0.00    -0.391 OA
BRANCH  20  21
HETATM   21  C2  UNL     1      12.962  55.542  23.071  1.00  0.00     0.163 C 
HETATM   22  C1  UNL     1      12.167  54.897  21.944  1.00  0.00     0.033 C 
ENDBRANCH  20  21
ENDBRANCH  19  20
ENDBRANCH  18  19
ENDBRANCH   1  18
BRANCH   5  23
HETATM   23  N2  UNL     1      15.221  60.558  25.211  1.00  0.00    -0.385 N 
ATOM     24  H22 UNL     1      15.141  60.670  26.222  1.00  0.00     0.157 HD
ATOM     25  H21 UNL     1      16.132  60.439  24.767  1.00  0.00     0.157 HD
ENDBRANCH   5  23
TORSDOF 9
ENDMDL
MODEL 5
REMARK VINA RESULT: -6.303991132      3.331      6.000
REMARK  9 active torsions:
REMARK  status: ('A' for Active; 'I' for Inactive)
REMARK    1  A    between atoms: C2_2  and  O1_3 
REMARK    2  A    between atoms: O1_3  and  C3_4 
REMARK    3  A    between atoms: C3_4  and  C4_5 
REMARK    4  A    between atoms: C4_5  and  C5_6 
REMARK    5  A    between atoms: C7_8  and  N1_9 
REMARK    6  A    between atoms: N1_9  and  C8_11 
REMARK    7  A    between atoms: C8_11  and  C11_14 
REMARK    8  A    between atoms: C12_17  and  C13_18 
REMARK    9  A    between atoms: C15_20  and  N2_21 
ROOT
HETATM    1  C5  UNL     1      11.565  62.306  22.746  1.00  0.00     0.015 A 
HETATM    2  C6  UNL     1      11.101  61.007  23.008  1.00  0.00     0.055 A 
HETATM    3  C7  UNL     1      11.898  60.053  23.577  1.00  0.00     0.040 A 
HETATM    4  C12 UNL     1      13.193  60.467  23.874  1.00  0.00     0.011 A 
HETATM    5  C15 UNL     1      13.625  61.749  23.607  1.00  0.00     0.107 A 
HETATM    6  N3  UNL     1      12.805  62.649  23.047  1.00  0.00    -0.346 N 
ATOM      7  H3  UNL     1      13.136  63.594  22.854  1.00  0.00     0.167 HD
ENDROOT
BRANCH   3   8
HETATM    8  N1  UNL     1      11.437  58.765  23.847  1.00  0.00    -0.375 N 
ATOM      9  H1  UNL     1      11.188  58.605  24.823  1.00  0.00     0.160 HD
BRANCH   8  10
HETATM   10  C8  UNL     1      11.254  57.640  23.006  1.00  0.00     0.082 C 
HETATM   11  C9  UNL     1      10.639  57.878  21.672  1.00  0.00     0.043 C 
HETATM   12  C10 UNL     1      10.222  56.698  23.721  1.00  0.00     0.043 C 
BRANCH  10  13
HETATM   13  C11 UNL     1      12.508  56.799  22.998  1.00  0.00     0.380 C 
HETATM   14  F1  UNL     1      12.476  55.689  22.220  1.00  0.00    -0.212 F 
HETATM   15  F2  UNL     1      12.955  56.539  24.284  1.00  0.00    -0.212 F 
ENDBRANCH  10  13
ENDBRANCH   8  10
ENDBRANCH   3   8
BRANCH   4  16
HETATM   16  C13 UNL     1      14.126  59.516  24.497  1.00  0.00     0.040 C 
HETATM   17  C14 UNL     1      14.011  59.468  26.008  1.00  0.00     0.010 C 
ENDBRANCH   4  16
BRANCH   1  18
HETATM   18  C4  UNL     1      10.636  63.312  22.115  1.00  0.00     0.083 C 
BRANCH  18  19
HETATM   19  C3  UNL     1      11.222  63.766  20.817  1.00  0.00     0.173 C 
BRANCH  19  20
HETATM   20  O1  UNL     1      11.826  62.742  20.128  1.00  0.00    -0.391 OA
BRANCH  20  21
HETATM   21  C2  UNL     1      11.112  62.416  19.002  1.00  0.00     0.163 C 
HETATM   22  C1  UNL     1      10.553  63.626  18.268  1.00  0.00     0.033 C 
ENDBRANCH  20  21
ENDBRANCH  19  20
ENDBRANCH  18  19
ENDBRANCH   1  18
BRANCH   5  23
HETATM   23  N2  UNL     1      14.825  62.105  23.890  1.00  0.00    -0.385 N 
ATOM     24  H22 UNL     1      15.215  62.923  23.420  1.00  0.00     0.157 HD
ATOM     25  H21 UNL     1      15.375  61.580  24.571  1.00  0.00     0.157 HD
ENDBRANCH   5  23
TORSDOF 9
ENDMDL
