MODEL 1
REMARK VINA RESULT: -6.888365130      0.000      0.000
REMARK  9 active torsions:
REMARK  status: ('A' for Active; 'I' for Inactive)
REMARK    1  A    between atoms: C2_2  and  C3_3 
REMARK    2  A    between atoms: C3_3  and  C4_4 
REMARK    3  A    between atoms: C8_8  and  C9_9 
REMARK    4  A    between atoms: C9_9  and  O1_10 
REMARK    5  A    between atoms: C9_9  and  C10_12 
REMARK    6  A    between atoms: C10_12  and  N1_13 
REMARK    7  A    between atoms: N1_13  and  C11_15 
REMARK    8  A    between atoms: C11_15  and  C12_16 
REMARK    9  A    between atoms: C12_16  and  C13_19 
ROOT
HETATM    1  C3  UNL     1      10.948  62.431  23.145  1.00  0.00     0.002 C 
HETATM    2  C7  UNL     1      10.080  61.152  23.223  1.00  0.00     0.029 C 
HETATM    3  C8  UNL     1      11.281  60.452  23.772  1.00  0.00     0.063 C 
HETATM    4  C14 UNL     1      12.138  61.642  23.373  1.00  0.00    -0.003 C 
HETATM    5  N2  UNL     1      13.407  61.654  23.372  1.00  0.00    -0.400 N 
ATOM      6  H2  UNL     1      13.827  60.761  23.628  1.00  0.00     0.158 HD
HETATM    7  C15 UNL     1      14.333  62.651  23.088  1.00  0.00     0.145 C 
ENDROOT
BRANCH   3   8
HETATM    8  C9  UNL     1      11.492  59.181  22.969  1.00  0.00     0.145 C 
BRANCH   8   9
HETATM    9  O1  UNL     1      10.313  58.360  23.217  1.00  0.00    -0.393 OA
ATOM     10  H1  UNL     1      10.631  57.582  23.658  1.00  0.00     0.210 HD
ENDBRANCH   8   9
BRANCH   8  11
HETATM   11  C10 UNL     1      12.562  58.359  23.660  1.00  0.00     0.146 C 
BRANCH  11  12
HETATM   12  N1  UNL     1      12.280  56.988  23.832  1.00  0.00    -0.414 N 
ATOM     13  H1  UNL     1      11.592  56.676  24.518  1.00  0.00     0.153 HD
BRANCH  12  14
HETATM   14  C11 UNL     1      12.978  56.057  23.024  1.00  0.00     0.176 C 
BRANCH  14  15
HETATM   15  C12 UNL     1      12.283  54.856  22.530  1.00  0.00     0.219 C 
HETATM   16  F1  UNL     1      12.443  54.876  21.123  1.00  0.00    -0.221 F 
HETATM   17 CL1  UNL     1      13.081  53.309  22.998  1.00  0.00    -0.078 Cl
BRANCH  15  18
HETATM   18  C13 UNL     1      10.807  54.793  22.758  1.00  0.00     0.284 C 
HETATM   19  F2  UNL     1      10.102  55.441  21.764  1.00  0.00    -0.251 F 
ENDBRANCH  15  18
ENDBRANCH  14  15
ENDBRANCH  12  14
ENDBRANCH  11  12
ENDBRANCH   8  11
ENDBRANCH   3   8
BRANCH   1  20
HETATM   20  C2  UNL     1      10.778  62.929  21.738  1.00  0.00     0.011 C 
HETATM   21  C1  UNL     1      11.518  62.279  20.649  1.00  0.00     0.006 C 
ENDBRANCH   1  20
BRANCH   1  22
HETATM   22  C4  UNL     1      10.450  63.358  24.217  1.00  0.00    -0.009 C 
HETATM   23  C5  UNL     1       9.287  62.951  25.015  1.00  0.00     0.011 C 
HETATM   24  C6  UNL     1      10.146  64.749  23.658  1.00  0.00     0.011 C 
ENDBRANCH   1  22
TORSDOF 9
ENDMDL
MODEL 2
REMARK VINA RESULT: -6.785158253      1.700      2.052
REMARK  9 active torsions:
REMARK  status: ('A' for Active; 'I' for Inactive)
REMARK    1  A    between atoms: C2_2  and  C3_3 
REMARK    2  A    between atoms: C3_3  and  C4_4 
REMARK    3  A    between atoms: C8_8  and  C9_9 
REMARK    4  A    between atoms: C9_9  and  O1_10 
REMARK    5  A    between atoms: C9_9  and  C10_12 
REMARK    6  A    between atoms: C10_12  and  N1_13 
REMARK    7  A    between atoms: N1_13  and  C11_15 
REMARK    8  A    between atoms: C11_15  and  C12_16 
REMARK    9  A    between atoms: C12_16  and  C13_19 
ROOT
HETATM    1  C3  UNL     1      12.163  63.399  22.096  1.00  0.00     0.002 C 
HETATM    2  C7  UNL     1      10.906  62.530  22.338  1.00  0.00     0.029 C 
HETATM    3  C8  UNL     1      11.691  61.806  23.384  1.00  0.00     0.063 C 
HETATM    4  C14 UNL     1      12.957  62.475  22.875  1.00  0.00    -0.003 C 
HETATM    5  N2  UNL     1      14.135  62.149  23.212  1.00  0.00    -0.400 N 
ATOM      6  H2  UNL     1      14.177  61.348  23.842  1.00  0.00     0.158 HD
HETATM    7  C15 UNL     1      15.381  62.674  22.887  1.00  0.00     0.145 C 
ENDROOT
BRANCH   3   8
HETATM    8  C9  UNL     1      11.571  60.317  23.115  1.00  0.00     0.145 C 
BRANCH   8   9
HETATM    9  O1  UNL     1      10.244  59.939  23.587  1.00  0.00    -0.393 OA
ATOM     10  H1  UNL     1      10.330  59.047  23.904  1.00  0.00     0.210 HD
ENDBRANCH   8   9
BRANCH   8  11
HETATM   11  C10 UNL     1      12.448  59.586  24.111  1.00  0.00     0.146 C 
BRANCH  11  12
HETATM   12  N1  UNL     1      12.234  58.196  24.226  1.00  0.00    -0.414 N 
ATOM     13  H1  UNL     1      11.926  57.784  25.107  1.00  0.00     0.153 HD
BRANCH  12  14
HETATM   14  C11 UNL     1      12.460  57.390  23.083  1.00  0.00     0.176 C 
BRANCH  14  15
HETATM   15  C12 UNL     1      11.352  56.599  22.519  1.00  0.00     0.219 C 
HETATM   16  F1  UNL     1      10.795  57.402  21.495  1.00  0.00    -0.221 F 
HETATM   17 CL1  UNL     1      11.889  55.130  21.623  1.00  0.00    -0.078 Cl
BRANCH  15  18
HETATM   18  C13 UNL     1      10.215  56.286  23.438  1.00  0.00     0.284 C 
HETATM   19  F2  UNL     1       9.146  57.137  23.246  1.00  0.00    -0.251 F 
ENDBRANCH  15  18
ENDBRANCH  14  15
ENDBRANCH  12  14
ENDBRANCH  11  12
ENDBRANCH   8  11
ENDBRANCH   3   8
BRANCH   1  20
HETATM   20  C2  UNL     1      12.394  63.339  20.612  1.00  0.00     0.011 C 
HETATM   21  C1  UNL     1      11.412  62.663  19.756  1.00  0.00     0.006 C 
ENDBRANCH   1  20
BRANCH   1  22
HETATM   22  C4  UNL     1      11.857  64.764  22.641  1.00  0.00    -0.009 C 
HETATM   23  C5  UNL     1      10.599  65.413  22.251  1.00  0.00     0.011 C 
HETATM   24  C6  UNL     1      12.983  65.754  22.338  1.00  0.00     0.011 C 
ENDBRANCH   1  22
TORSDOF 9
ENDMDL
MODEL 3
REMARK VINA RESULT: -6.671232711      3.988      6.416
REMARK  9 active torsions:
REMARK  status: ('A' for Active; 'I' for Inactive)
REMARK    1  A    between atoms: C2_2  and  C3_3 
REMARK    2  A    between atoms: C3_3  and  C4_4 
REMARK    3  A    between atoms: C8_8  and  C9_9 
REMARK    4  A    between atoms: C9_9  and  O1_10 
REMARK    5  A    between atoms: C9_9  and  C10_12 
REMARK    6  A    between atoms: C10_12  and  N1_13 
REMARK    7  A    between atoms: N1_13  and  C11_15 
REMARK    8  A    between atoms: C11_15  and  C12_16 
REMARK    9  A    between atoms: C12_16  and  C13_19 
ROOT
HETATM    1  C3  UNL     1      12.099  59.655  24.007  1.00  0.00     0.002 C 
HETATM    2  C7  UNL     1      10.663  60.232  24.009  1.00  0.00     0.029 C 
HETATM    3  C8  UNL     1      11.206  61.404  23.256  1.00  0.00     0.063 C 
HETATM    4  C14 UNL     1      12.616  60.933  23.569  1.00  0.00    -0.003 C 
HETATM    5  N2  UNL     1      13.668  61.615  23.378  1.00  0.00    -0.400 N 
ATOM      6  H2  UNL     1      13.490  62.555  23.025  1.00  0.00     0.158 HD
HETATM    7  C15 UNL     1      15.016  61.328  23.559  1.00  0.00     0.145 C 
ENDROOT
BRANCH   3   8
HETATM    8  C9  UNL     1      10.754  62.668  23.964  1.00  0.00     0.145 C 
BRANCH   8   9
HETATM    9  O1  UNL     1       9.298  62.664  23.885  1.00  0.00    -0.393 OA
ATOM     10  H1  UNL     1       9.008  63.342  24.482  1.00  0.00     0.210 HD
ENDBRANCH   8   9
BRANCH   8  11
HETATM   11  C10 UNL     1      11.085  63.850  23.077  1.00  0.00     0.146 C 
BRANCH  11  12
HETATM   12  N1  UNL     1      10.319  63.979  21.900  1.00  0.00    -0.414 N 
ATOM     13  H1  UNL     1       9.344  63.679  21.873  1.00  0.00     0.153 HD
BRANCH  12  14
HETATM   14  C11 UNL     1      10.941  64.537  20.756  1.00  0.00     0.176 C 
BRANCH  14  15
HETATM   15  C12 UNL     1      11.447  63.648  19.696  1.00  0.00     0.219 C 
HETATM   16  F1  UNL     1      11.112  62.336  20.109  1.00  0.00    -0.221 F 
HETATM   17 CL1  UNL     1      10.568  63.808  18.131  1.00  0.00    -0.078 Cl
BRANCH  15  18
HETATM   18  C13 UNL     1      12.927  63.629  19.484  1.00  0.00     0.284 C 
HETATM   19  F2  UNL     1      13.598  63.099  20.567  1.00  0.00    -0.251 F 
ENDBRANCH  15  18
ENDBRANCH  14  15
ENDBRANCH  12  14
ENDBRANCH  11  12
ENDBRANCH   8  11
ENDBRANCH   3   8
BRANCH   1  20
HETATM   20  C2  UNL     1      12.382  59.316  25.443  1.00  0.00     0.011 C 
HETATM   21  C1  UNL     1      13.748  59.462  25.962  1.00  0.00     0.006 C 
ENDBRANCH   1  20
BRANCH   1  22
HETATM   22  C4  UNL     1      12.095  58.488  23.062  1.00  0.00    -0.009 C 
HETATM   23  C5  UNL     1      10.809  58.012  22.536  1.00  0.00     0.011 C 
HETATM   24  C6  UNL     1      12.809  57.276  23.664  1.00  0.00     0.011 C 
ENDBRANCH   1  22
TORSDOF 9
ENDMDL
MODEL 4
REMARK VINA RESULT: -6.668409476      4.050      6.415
REMARK  9 active torsions:
REMARK  status: ('A' for Active; 'I' for Inactive)
REMARK    1  A    between atoms: C2_2  and  C3_3 
REMARK    2  A    between atoms: C3_3  and  C4_4 
REMARK    3  A    between atoms: C8_8  and  C9_9 
REMARK    4  A    between atoms: C9_9  and  O1_10 
REMARK    5  A    between atoms: C9_9  and  C10_12 
REMARK    6  A    between atoms: C10_12  and  N1_13 
REMARK    7  A    between atoms: N1_13  and  C11_15 
REMARK    8  A    between atoms: C11_15  and  C12_16 
REMARK    9  A    between atoms: C12_16  and  C13_19 
ROOT
HETATM    1  C3  UNL     1      11.921  59.709  23.956  1.00  0.00     0.002 C 
HETATM    2  C7  UNL     1      10.537  60.396  23.873  1.00  0.00     0.029 C 
HETATM    3  C8  UNL     1      11.208  61.505  23.128  1.00  0.00     0.063 C 
HETATM    4  C14 UNL     1      12.559  60.932  23.524  1.00  0.00    -0.003 C 
HETATM    5  N2  UNL     1      13.670  61.527  23.377  1.00  0.00    -0.400 N 
ATOM      6  H2  UNL     1      13.585  62.470  22.998  1.00  0.00     0.158 HD
HETATM    7  C15 UNL     1      14.980  61.140  23.634  1.00  0.00     0.145 C 
ENDROOT
BRANCH   3   8
HETATM    8  C9  UNL     1      10.821  62.815  23.790  1.00  0.00     0.145 C 
BRANCH   8   9
HETATM    9  O1  UNL     1       9.364  62.830  23.810  1.00  0.00    -0.393 OA
ATOM     10  H1  UNL     1       9.116  62.416  24.628  1.00  0.00     0.210 HD
ENDBRANCH   8   9
BRANCH   8  11
HETATM   11  C10 UNL     1      11.104  63.938  22.812  1.00  0.00     0.146 C 
BRANCH  11  12
HETATM   12  N1  UNL     1      10.494  63.829  21.545  1.00  0.00    -0.414 N 
ATOM     13  H1  UNL     1       9.717  63.186  21.391  1.00  0.00     0.153 HD
BRANCH  12  14
HETATM   14  C11 UNL     1      10.992  64.638  20.494  1.00  0.00     0.176 C 
BRANCH  14  15
HETATM   15  C12 UNL     1      11.603  64.003  19.314  1.00  0.00     0.219 C 
HETATM   16  F1  UNL     1      11.892  65.062  18.419  1.00  0.00    -0.221 F 
HETATM   17 CL1  UNL     1      13.231  63.296  19.628  1.00  0.00    -0.078 Cl
BRANCH  15  18
HETATM   18  C13 UNL     1      10.744  63.057  18.539  1.00  0.00     0.284 C 
HETATM   19  F2  UNL     1      10.961  61.744  18.904  1.00  0.00    -0.251 F 
ENDBRANCH  15  18
ENDBRANCH  14  15
ENDBRANCH  12  14
ENDBRANCH  11  12
ENDBRANCH   8  11
ENDBRANCH   3   8
BRANCH   1  20
HETATM   20  C2  UNL     1      12.102  59.380  25.411  1.00  0.00     0.011 C 
HETATM   21  C1  UNL     1      13.444  59.449  26.004  1.00  0.00     0.006 C 
ENDBRANCH   1  20
BRANCH   1  22
HETATM   22  C4  UNL     1      11.874  58.525  23.034  1.00  0.00    -0.009 C 
HETATM   23  C5  UNL     1      10.579  57.877  22.785  1.00  0.00     0.011 C 
HETATM   24  C6  UNL     1      12.844  57.429  23.476  1.00  0.00     0.011 C 
ENDBRANCH   1  22
TORSDOF 9
ENDMDL
MODEL 5
REMARK VINA RESULT: -6.663213796      1.725      1.979
REMARK  9 active torsions:
REMARK  status: ('A' for Active; 'I' for Inactive)
REMARK    1  A    between atoms: C2_2  and  C3_3 
REMARK    2  A    between atoms: C3_3  and  C4_4 
REMARK    3  A    between atoms: C8_8  and  C9_9 
REMARK    4  A    between atoms: C9_9  and  O1_10 
REMARK    5  A    between atoms: C9_9  and  C10_12 
REMARK    6  A    between atoms: C10_12  and  N1_13 
REMARK    7  A    between atoms: N1_13  and  C11_15 
REMARK    8  A    between atoms: C11_15  and  C12_16 
REMARK    9  A    between atoms: C12_16  and  C13_19 
ROOT
HETATM    1  C3  UNL     1      12.062  62.977  22.296  1.00  0.00     0.002 C 
HETATM    2  C7  UNL     1      10.817  62.077  22.485  1.00  0.00     0.029 C 
HETATM    3  C8  UNL     1      11.597  61.333  23.521  1.00  0.00     0.063 C 
HETATM    4  C14 UNL     1      12.859  62.042  23.059  1.00  0.00    -0.003 C 
HETATM    5  N2  UNL     1      14.037  61.727  23.408  1.00  0.00    -0.400 N 
ATOM      6  H2  UNL     1      14.082  60.907  24.011  1.00  0.00     0.158 HD
HETATM    7  C15 UNL     1      15.278  62.286  23.125  1.00  0.00     0.145 C 
ENDROOT
BRANCH   3   8
HETATM    8  C9  UNL     1      11.510  59.852  23.200  1.00  0.00     0.145 C 
BRANCH   8   9
HETATM    9  O1  UNL     1      10.120  59.480  23.431  1.00  0.00    -0.393 OA
ATOM     10  H1  UNL     1       9.610  60.020  22.839  1.00  0.00     0.210 HD
ENDBRANCH   8   9
BRANCH   8  11
HETATM   11  C10 UNL     1      12.198  59.087  24.313  1.00  0.00     0.146 C 
BRANCH  11  12
HETATM   12  N1  UNL     1      12.538  57.748  24.031  1.00  0.00    -0.414 N 
ATOM     13  H1  UNL     1      13.025  57.174  24.720  1.00  0.00     0.153 HD
BRANCH  12  14
HETATM   14  C11 UNL     1      12.185  57.223  22.763  1.00  0.00     0.176 C 
BRANCH  14  15
HETATM   15  C12 UNL     1      11.195  56.135  22.676  1.00  0.00     0.219 C 
HETATM   16  F1  UNL     1      10.338  56.311  23.789  1.00  0.00    -0.221 F 
HETATM   17 CL1  UNL     1      10.066  56.288  21.279  1.00  0.00    -0.078 Cl
BRANCH  15  18
HETATM   18  C13 UNL     1      11.717  54.740  22.797  1.00  0.00     0.284 C 
HETATM   19  F2  UNL     1      10.729  53.846  23.155  1.00  0.00    -0.251 F 
ENDBRANCH  15  18
ENDBRANCH  14  15
ENDBRANCH  12  14
ENDBRANCH  11  12
ENDBRANCH   8  11
ENDBRANCH   3   8
BRANCH   1  20
HETATM   20  C2  UNL     1      12.322  62.972  20.816  1.00  0.00     0.011 C 
HETATM   21  C1  UNL     1      11.224  62.659  19.892  1.00  0.00     0.006 C 
ENDBRANCH   1  20
BRANCH   1  22
HETATM   22  C4  UNL     1      11.719  64.317  22.881  1.00  0.00    -0.009 C 
HETATM   23  C5  UNL     1      10.334  64.796  22.782  1.00  0.00     0.011 C 
HETATM   24  C6  UNL     1      12.616  65.421  22.317  1.00  0.00     0.011 C 
ENDBRANCH   1  22
TORSDOF 9
ENDMDL
