MODEL 1
REMARK VINA RESULT: -6.862696977      0.000      0.000
REMARK  9 active torsions:
REMARK  status: ('A' for Active; 'I' for Inactive)
REMARK    1  A    between atoms: C1_2  and  C2_4 
REMARK    2  A    between atoms: C3_5  and  C4_6 
REMARK    3  A    between atoms: C4_6  and  C5_8 
REMARK    4  A    between atoms: C4_6  and  C9_19 
REMARK    5  A    between atoms: C5_8  and  C6_10 
REMARK    6  A    between atoms: C6_10  and  C7_13 
REMARK    7  A    between atoms: C7_13  and  C8_16 
REMARK    8  A    between atoms: C8_16  and  O2_17 
REMARK    9  A    between atoms: C9_19  and  C10_22 
ROOT
HETATM    1  C4  UNL     1      63.859  11.195 -23.726  1.00  0.00     0.238 C 
HETATM    2  F1  UNL     1      63.359   9.832 -23.368  1.00  0.00    -0.227 F 
ENDROOT
BRANCH   1   3
HETATM    3  C3  UNL     1      62.580  11.924 -23.865  1.00  0.00     0.009 A 
HETATM    4  C2  UNL     1      62.445  13.271 -23.948  1.00  0.00     0.064 A 
HETATM    5  C14 UNL     1      61.139  13.845 -24.083  1.00  0.00     0.090 A 
HETATM    6  C13 UNL     1      60.017  13.078 -24.132  1.00  0.00     0.160 A 
HETATM    7 CL2  UNL     1      60.930  15.590 -24.178  1.00  0.00    -0.080 Cl
HETATM    8  C12 UNL     1      60.130  11.730 -24.049  1.00  0.00     0.075 A 
HETATM    9  F11 UNL     1      58.780  13.619 -24.261  1.00  0.00    -0.203 F 
HETATM   10  C11 UNL     1      61.368  11.201 -23.922  1.00  0.00     0.039 A 
HETATM   11 CL1  UNL     1      58.725  10.663 -24.103  1.00  0.00    -0.081 Cl
BRANCH   4  12
HETATM   12  C1  UNL     1      63.460  14.239 -23.856  1.00  0.00     0.267 C 
HETATM   13  N1  UNL     1      63.615  14.939 -22.574  1.00  0.00    -0.057 NA
HETATM   14  O1  UNL     1      64.269  14.640 -24.648  1.00  0.00    -0.271 OA
ENDBRANCH   4  12
ENDBRANCH   1   3
BRANCH   1  15
HETATM   15  C5  UNL     1      64.612  10.852 -24.911  1.00  0.00     0.299 C 
HETATM   16  F2  UNL     1      65.986  11.172 -24.698  1.00  0.00    -0.239 F 
BRANCH  15  17
HETATM   17  C6  UNL     1      64.590   9.560 -25.595  1.00  0.00     0.343 C 
HETATM   18  F3  UNL     1      65.300   9.826 -26.821  1.00  0.00    -0.196 F 
HETATM   19  F4  UNL     1      63.311   9.288 -26.112  1.00  0.00    -0.196 F 
BRANCH  17  20
HETATM   20  C7  UNL     1      65.121   8.297 -25.141  1.00  0.00     0.331 C 
HETATM   21  F5  UNL     1      65.904   8.226 -24.019  1.00  0.00    -0.197 F 
HETATM   22  F6  UNL     1      63.988   7.534 -24.741  1.00  0.00    -0.197 F 
BRANCH  20  23
HETATM   23  C8  UNL     1      65.708   7.392 -26.217  1.00  0.00     0.249 C 
BRANCH  23  24
HETATM   24  O2  UNL     1      65.243   6.111 -26.053  1.00  0.00    -0.395 OA
ATOM     25  H2  UNL     1      65.844   5.617 -25.508  1.00  0.00     0.209 HD
ENDBRANCH  23  24
ENDBRANCH  20  23
ENDBRANCH  17  20
ENDBRANCH  15  17
ENDBRANCH   1  15
BRANCH   1  26
HETATM   26  C9  UNL     1      64.540  11.447 -22.430  1.00  0.00     0.343 C 
HETATM   27  F7  UNL     1      63.477  11.803 -21.469  1.00  0.00    -0.196 F 
HETATM   28  F8  UNL     1      65.461  12.449 -22.336  1.00  0.00    -0.196 F 
BRANCH  26  29
HETATM   29  C10 UNL     1      65.143  10.290 -21.672  1.00  0.00     0.428 C 
HETATM   30  F9  UNL     1      64.912  10.331 -20.310  1.00  0.00    -0.208 F 
HETATM   31  F10 UNL     1      66.573  10.448 -21.727  1.00  0.00    -0.208 F 
ENDBRANCH  26  29
ENDBRANCH   1  26
TORSDOF 9
ENDMDL
MODEL 2
REMARK VINA RESULT: -6.785148305      2.750      5.137
REMARK  9 active torsions:
REMARK  status: ('A' for Active; 'I' for Inactive)
REMARK    1  A    between atoms: C1_2  and  C2_4 
REMARK    2  A    between atoms: C3_5  and  C4_6 
REMARK    3  A    between atoms: C4_6  and  C5_8 
REMARK    4  A    between atoms: C4_6  and  C9_19 
REMARK    5  A    between atoms: C5_8  and  C6_10 
REMARK    6  A    between atoms: C6_10  and  C7_13 
REMARK    7  A    between atoms: C7_13  and  C8_16 
REMARK    8  A    between atoms: C8_16  and  O2_17 
REMARK    9  A    between atoms: C9_19  and  C10_22 
ROOT
HETATM    1  C4  UNL     1      65.126   9.153 -25.186  1.00  0.00     0.238 C 
HETATM    2  F1  UNL     1      64.086   9.570 -26.176  1.00  0.00    -0.227 F 
ENDROOT
BRANCH   1   3
HETATM    3  C3  UNL     1      64.700   9.932 -24.002  1.00  0.00     0.009 A 
HETATM    4  C2  UNL     1      65.364   9.997 -22.821  1.00  0.00     0.064 A 
HETATM    5  C14 UNL     1      64.835  10.796 -21.756  1.00  0.00     0.090 A 
HETATM    6  C13 UNL     1      63.678  11.498 -21.888  1.00  0.00     0.160 A 
HETATM    7 CL2  UNL     1      65.664  10.889 -20.207  1.00  0.00    -0.080 Cl
HETATM    8  C12 UNL     1      62.999  11.445 -23.060  1.00  0.00     0.075 A 
HETATM    9  F11 UNL     1      63.177  12.255 -20.881  1.00  0.00    -0.203 F 
HETATM   10  C11 UNL     1      63.509  10.688 -24.058  1.00  0.00     0.039 A 
HETATM   11 CL1  UNL     1      61.491  12.325 -23.314  1.00  0.00    -0.081 Cl
BRANCH   4  12
HETATM   12  C1  UNL     1      66.533   9.306 -22.459  1.00  0.00     0.267 C 
HETATM   13  N1  UNL     1      67.812  10.010 -22.614  1.00  0.00    -0.057 NA
HETATM   14  O1  UNL     1      66.718   8.199 -22.030  1.00  0.00    -0.271 OA
ENDBRANCH   4  12
ENDBRANCH   1   3
BRANCH   1  15
HETATM   15  C5  UNL     1      66.304   9.562 -25.916  1.00  0.00     0.299 C 
HETATM   16  F2  UNL     1      66.372   8.829 -27.139  1.00  0.00    -0.239 F 
BRANCH  15  17
HETATM   17  C6  UNL     1      66.678  10.938 -26.239  1.00  0.00     0.343 C 
HETATM   18  F3  UNL     1      67.974  10.791 -26.853  1.00  0.00    -0.196 F 
HETATM   19  F4  UNL     1      67.040  11.645 -25.078  1.00  0.00    -0.196 F 
BRANCH  17  20
HETATM   20  C7  UNL     1      65.985  11.879 -27.087  1.00  0.00     0.331 C 
HETATM   21  F5  UNL     1      65.312  11.456 -28.203  1.00  0.00    -0.197 F 
HETATM   22  F6  UNL     1      64.918  12.387 -26.292  1.00  0.00    -0.197 F 
BRANCH  20  23
HETATM   23  C8  UNL     1      66.735  13.165 -27.412  1.00  0.00     0.249 C 
BRANCH  23  24
HETATM   24  O2  UNL     1      66.123  14.229 -26.798  1.00  0.00    -0.395 OA
ATOM     25  H2  UNL     1      65.916  14.898 -27.440  1.00  0.00     0.209 HD
ENDBRANCH  23  24
ENDBRANCH  20  23
ENDBRANCH  17  20
ENDBRANCH  15  17
ENDBRANCH   1  15
BRANCH   1  26
HETATM   26  C9  UNL     1      64.714   7.728 -25.131  1.00  0.00     0.343 C 
HETATM   27  F7  UNL     1      63.383   7.709 -24.490  1.00  0.00    -0.196 F 
HETATM   28  F8  UNL     1      65.466   6.835 -24.423  1.00  0.00    -0.196 F 
BRANCH  26  29
HETATM   29  C10 UNL     1      64.353   7.009 -26.408  1.00  0.00     0.428 C 
HETATM   30  F9  UNL     1      62.995   6.820 -26.580  1.00  0.00    -0.208 F 
HETATM   31  F10 UNL     1      64.820   5.654 -26.276  1.00  0.00    -0.208 F 
ENDBRANCH  26  29
ENDBRANCH   1  26
TORSDOF 9
ENDMDL
MODEL 3
REMARK VINA RESULT: -6.705443722      1.401      2.184
REMARK  9 active torsions:
REMARK  status: ('A' for Active; 'I' for Inactive)
REMARK    1  A    between atoms: C1_2  and  C2_4 
REMARK    2  A    between atoms: C3_5  and  C4_6 
REMARK    3  A    between atoms: C4_6  and  C5_8 
REMARK    4  A    between atoms: C4_6  and  C9_19 
REMARK    5  A    between atoms: C5_8  and  C6_10 
REMARK    6  A    between atoms: C6_10  and  C7_13 
REMARK    7  A    between atoms: C7_13  and  C8_16 
REMARK    8  A    between atoms: C8_16  and  O2_17 
REMARK    9  A    between atoms: C9_19  and  C10_22 
ROOT
HETATM    1  C4  UNL     1      64.218  11.627 -22.712  1.00  0.00     0.238 C 
HETATM    2  F1  UNL     1      63.876  10.181 -22.877  1.00  0.00    -0.227 F 
ENDROOT
BRANCH   1   3
HETATM    3  C3  UNL     1      62.972  12.257 -23.203  1.00  0.00     0.009 A 
HETATM    4  C2  UNL     1      62.763  13.590 -23.338  1.00  0.00     0.064 A 
HETATM    5  C14 UNL     1      61.503  14.063 -23.830  1.00  0.00     0.090 A 
HETATM    6  C13 UNL     1      60.497  13.213 -24.169  1.00  0.00     0.160 A 
HETATM    7 CL2  UNL     1      61.196  15.787 -24.002  1.00  0.00    -0.080 Cl
HETATM    8  C12 UNL     1      60.686  11.876 -24.040  1.00  0.00     0.075 A 
HETATM    9  F11 UNL     1      59.305  13.658 -24.636  1.00  0.00    -0.203 F 
HETATM   10  C11 UNL     1      61.880  11.443 -23.575  1.00  0.00     0.039 A 
HETATM   11 CL1  UNL     1      59.434  10.706 -24.457  1.00  0.00    -0.081 Cl
BRANCH   4  12
HETATM   12  C1  UNL     1      63.640  14.632 -22.989  1.00  0.00     0.267 C 
HETATM   13  N1  UNL     1      64.559  15.120 -24.025  1.00  0.00    -0.057 NA
HETATM   14  O1  UNL     1      63.809  15.238 -21.966  1.00  0.00    -0.271 OA
ENDBRANCH   4  12
ENDBRANCH   1   3
BRANCH   1  15
HETATM   15  C5  UNL     1      65.405  11.670 -23.535  1.00  0.00     0.299 C 
HETATM   16  F2  UNL     1      66.396  10.814 -22.968  1.00  0.00    -0.239 F 
BRANCH  15  17
HETATM   17  C6  UNL     1      65.454  11.457 -24.981  1.00  0.00     0.343 C 
HETATM   18  F3  UNL     1      66.853  11.619 -25.289  1.00  0.00    -0.196 F 
HETATM   19  F4  UNL     1      64.926  12.565 -25.669  1.00  0.00    -0.196 F 
BRANCH  17  20
HETATM   20  C7  UNL     1      65.056  10.289 -25.728  1.00  0.00     0.331 C 
HETATM   21  F5  UNL     1      63.764   9.834 -25.686  1.00  0.00    -0.197 F 
HETATM   22  F6  UNL     1      65.178  10.657 -27.098  1.00  0.00    -0.197 F 
BRANCH  20  23
HETATM   23  C8  UNL     1      66.006   9.099 -25.667  1.00  0.00     0.249 C 
BRANCH  23  24
HETATM   24  O2  UNL     1      65.603   8.230 -24.683  1.00  0.00    -0.395 OA
ATOM     25  H2  UNL     1      66.154   8.332 -23.917  1.00  0.00     0.209 HD
ENDBRANCH  23  24
ENDBRANCH  20  23
ENDBRANCH  17  20
ENDBRANCH  15  17
ENDBRANCH   1  15
BRANCH   1  26
HETATM   26  C9  UNL     1      64.312  11.588 -21.231  1.00  0.00     0.343 C 
HETATM   27  F7  UNL     1      65.287  12.632 -20.853  1.00  0.00    -0.196 F 
HETATM   28  F8  UNL     1      64.744  10.451 -20.612  1.00  0.00    -0.196 F 
BRANCH  26  29
HETATM   29  C10 UNL     1      63.146  12.066 -20.400  1.00  0.00     0.428 C 
HETATM   30  F9  UNL     1      63.420  13.190 -19.644  1.00  0.00    -0.208 F 
HETATM   31  F10 UNL     1      62.922  11.078 -19.379  1.00  0.00    -0.208 F 
ENDBRANCH  26  29
ENDBRANCH   1  26
TORSDOF 9
ENDMDL
MODEL 4
REMARK VINA RESULT: -6.655234083      3.099      5.269
REMARK  9 active torsions:
REMARK  status: ('A' for Active; 'I' for Inactive)
REMARK    1  A    between atoms: C1_2  and  C2_4 
REMARK    2  A    between atoms: C3_5  and  C4_6 
REMARK    3  A    between atoms: C4_6  and  C5_8 
REMARK    4  A    between atoms: C4_6  and  C9_19 
REMARK    5  A    between atoms: C5_8  and  C6_10 
REMARK    6  A    between atoms: C6_10  and  C7_13 
REMARK    7  A    between atoms: C7_13  and  C8_16 
REMARK    8  A    between atoms: C8_16  and  O2_17 
REMARK    9  A    between atoms: C9_19  and  C10_22 
ROOT
HETATM    1  C4  UNL     1      64.114  13.308 -22.421  1.00  0.00     0.238 C 
HETATM    2  F1  UNL     1      63.211  14.313 -21.780  1.00  0.00    -0.227 F 
ENDROOT
BRANCH   1   3
HETATM    3  C3  UNL     1      63.124  12.459 -23.119  1.00  0.00     0.009 A 
HETATM    4  C2  UNL     1      63.354  11.213 -23.600  1.00  0.00     0.064 A 
HETATM    5  C14 UNL     1      62.298  10.501 -24.257  1.00  0.00     0.090 A 
HETATM    6  C13 UNL     1      61.058  11.038 -24.416  1.00  0.00     0.160 A 
HETATM    7 CL2  UNL     1      62.569   8.888 -24.905  1.00  0.00    -0.080 Cl
HETATM    8  C12 UNL     1      60.808  12.284 -23.943  1.00  0.00     0.075 A 
HETATM    9  F11 UNL     1      60.057  10.366 -25.036  1.00  0.00    -0.203 F 
HETATM   10  C11 UNL     1      61.814  12.945 -23.326  1.00  0.00     0.039 A 
HETATM   11 CL1  UNL     1      59.229  13.054 -24.110  1.00  0.00    -0.081 Cl
BRANCH   4  12
HETATM   12  C1  UNL     1      64.569  10.506 -23.595  1.00  0.00     0.267 C 
HETATM   13  N1  UNL     1      65.497  10.746 -24.708  1.00  0.00    -0.057 NA
HETATM   14  O1  UNL     1      65.032   9.699 -22.836  1.00  0.00    -0.271 OA
ENDBRANCH   4  12
ENDBRANCH   1   3
BRANCH   1  15
HETATM   15  C5  UNL     1      64.765  12.806 -21.233  1.00  0.00     0.299 C 
HETATM   16  F2  UNL     1      65.655  13.803 -20.731  1.00  0.00    -0.239 F 
BRANCH  15  17
HETATM   17  C6  UNL     1      64.096  12.227 -20.069  1.00  0.00     0.343 C 
HETATM   18  F3  UNL     1      62.870  11.707 -20.620  1.00  0.00    -0.196 F 
HETATM   19  F4  UNL     1      63.578  13.235 -19.236  1.00  0.00    -0.196 F 
BRANCH  17  20
HETATM   20  C7  UNL     1      64.568  11.181 -19.193  1.00  0.00     0.331 C 
HETATM   21  F5  UNL     1      65.502  10.274 -19.621  1.00  0.00    -0.197 F 
HETATM   22  F6  UNL     1      65.279  11.848 -18.157  1.00  0.00    -0.197 F 
BRANCH  20  23
HETATM   23  C8  UNL     1      63.501  10.454 -18.384  1.00  0.00     0.249 C 
BRANCH  23  24
HETATM   24  O2  UNL     1      64.096   9.665 -17.430  1.00  0.00    -0.395 OA
ATOM     25  H2  UNL     1      63.993   8.749 -17.658  1.00  0.00     0.209 HD
ENDBRANCH  23  24
ENDBRANCH  20  23
ENDBRANCH  17  20
ENDBRANCH  15  17
ENDBRANCH   1  15
BRANCH   1  26
HETATM   26  C9  UNL     1      64.796  14.275 -23.318  1.00  0.00     0.343 C 
HETATM   27  F7  UNL     1      64.402  13.908 -24.694  1.00  0.00    -0.196 F 
HETATM   28  F8  UNL     1      66.159  14.331 -23.338  1.00  0.00    -0.196 F 
BRANCH  26  29
HETATM   29  C10 UNL     1      64.345  15.715 -23.338  1.00  0.00     0.428 C 
HETATM   30  F9  UNL     1      63.514  16.028 -24.397  1.00  0.00    -0.208 F 
HETATM   31  F10 UNL     1      65.504  16.516 -23.633  1.00  0.00    -0.208 F 
ENDBRANCH  26  29
ENDBRANCH   1  26
TORSDOF 9
ENDMDL
MODEL 5
REMARK VINA RESULT: -6.639802530      1.322      2.061
REMARK  9 active torsions:
REMARK  status: ('A' for Active; 'I' for Inactive)
REMARK    1  A    between atoms: C1_2  and  C2_4 
REMARK    2  A    between atoms: C3_5  and  C4_6 
REMARK    3  A    between atoms: C4_6  and  C5_8 
REMARK    4  A    between atoms: C4_6  and  C9_19 
REMARK    5  A    between atoms: C5_8  and  C6_10 
REMARK    6  A    between atoms: C6_10  and  C7_13 
REMARK    7  A    between atoms: C7_13  and  C8_16 
REMARK    8  A    between atoms: C8_16  and  O2_17 
REMARK    9  A    between atoms: C9_19  and  C10_22 
ROOT
HETATM    1  C4  UNL     1      64.147  11.670 -22.737  1.00  0.00     0.238 C 
HETATM    2  F1  UNL     1      63.821  10.223 -22.920  1.00  0.00    -0.227 F 
ENDROOT
BRANCH   1   3
HETATM    3  C3  UNL     1      62.904  12.295 -23.239  1.00  0.00     0.009 A 
HETATM    4  C2  UNL     1      62.681  13.627 -23.355  1.00  0.00     0.064 A 
HETATM    5  C14 UNL     1      61.425  14.094 -23.862  1.00  0.00     0.090 A 
HETATM    6  C13 UNL     1      60.436  13.238 -24.234  1.00  0.00     0.160 A 
HETATM    7 CL2  UNL     1      61.100  15.817 -24.010  1.00  0.00    -0.080 Cl
HETATM    8  C12 UNL     1      60.638  11.902 -24.125  1.00  0.00     0.075 A 
HETATM    9  F11 UNL     1      59.246  13.678 -24.715  1.00  0.00    -0.203 F 
HETATM   10  C11 UNL     1      61.828  11.475 -23.646  1.00  0.00     0.039 A 
HETATM   11 CL1  UNL     1      59.407  10.724 -24.586  1.00  0.00    -0.081 Cl
BRANCH   4  12
HETATM   12  C1  UNL     1      63.538  14.673 -22.971  1.00  0.00     0.267 C 
HETATM   13  N1  UNL     1      63.387  15.208 -21.612  1.00  0.00    -0.057 NA
HETATM   14  O1  UNL     1      64.412  15.257 -23.552  1.00  0.00    -0.271 OA
ENDBRANCH   4  12
ENDBRANCH   1   3
BRANCH   1  15
HETATM   15  C5  UNL     1      65.346  11.731 -23.541  1.00  0.00     0.299 C 
HETATM   16  F2  UNL     1      66.312  10.828 -23.007  1.00  0.00    -0.239 F 
BRANCH  15  17
HETATM   17  C6  UNL     1      65.410  11.591 -24.995  1.00  0.00     0.343 C 
HETATM   18  F3  UNL     1      66.801  11.831 -25.287  1.00  0.00    -0.196 F 
HETATM   19  F4  UNL     1      64.834  12.706 -25.632  1.00  0.00    -0.196 F 
BRANCH  17  20
HETATM   20  C7  UNL     1      65.068  10.443 -25.800  1.00  0.00     0.331 C 
HETATM   21  F5  UNL     1      63.803   9.918 -25.774  1.00  0.00    -0.197 F 
HETATM   22  F6  UNL     1      65.158  10.889 -27.149  1.00  0.00    -0.197 F 
BRANCH  20  23
HETATM   23  C8  UNL     1      66.081   9.306 -25.808  1.00  0.00     0.249 C 
BRANCH  23  24
HETATM   24  O2  UNL     1      65.709   8.343 -24.902  1.00  0.00    -0.395 OA
ATOM     25  H2  UNL     1      66.131   8.506 -24.067  1.00  0.00     0.209 HD
ENDBRANCH  23  24
ENDBRANCH  20  23
ENDBRANCH  17  20
ENDBRANCH  15  17
ENDBRANCH   1  15
BRANCH   1  26
HETATM   26  C9  UNL     1      64.220  11.618 -21.254  1.00  0.00     0.343 C 
HETATM   27  F7  UNL     1      64.676  10.255 -20.912  1.00  0.00    -0.196 F 
HETATM   28  F8  UNL     1      63.090  11.815 -20.516  1.00  0.00    -0.196 F 
BRANCH  26  29
HETATM   29  C10 UNL     1      65.297  12.395 -20.537  1.00  0.00     0.428 C 
HETATM   30  F9  UNL     1      66.277  11.604 -19.970  1.00  0.00    -0.208 F 
HETATM   31  F10 UNL     1      64.688  12.980 -19.371  1.00  0.00    -0.208 F 
ENDBRANCH  26  29
ENDBRANCH   1  26
TORSDOF 9
ENDMDL
