MODEL 1
REMARK VINA RESULT: -8.802904801      0.000      0.000
REMARK  14 active torsions:
REMARK  status: ('A' for Active; 'I' for Inactive)
REMARK    1  A    between atoms: C2_2  and  C3_4 
REMARK    2  A    between atoms: C3_4  and  N1_5 
REMARK    3  A    between atoms: C3_4  and  C4_9 
REMARK    4  A    between atoms: C4_9  and  C6_11 
REMARK    5  A    between atoms: C6_11  and  C7_13 
REMARK    6  A    between atoms: C7_13  and  C9_15 
REMARK    7  A    between atoms: C9_15  and  O1_16 
REMARK    8  A    between atoms: C9_15  and  C10_18 
REMARK    9  A    between atoms: C10_18  and  C11_21 
REMARK   10  A    between atoms: C11_21  and  O2_22 
REMARK   11  A    between atoms: C12_24  and  C13_25 
REMARK   12  A    between atoms: C13_25  and  C14_27 
REMARK   13  A    between atoms: C14_27  and  C15_29 
REMARK   14  A    between atoms: C14_27  and  C16_33 
ROOT
HETATM    1  C10 UNL     1      60.534  12.300 -23.761  1.00  0.00     0.316 C 
HETATM    2  F3  UNL     1      61.268  13.402 -23.467  1.00  0.00    -0.196 F 
HETATM    3  F4  UNL     1      60.483  11.571 -22.581  1.00  0.00    -0.196 F 
ENDROOT
BRANCH   1   4
HETATM    4  C9  UNL     1      61.157  11.361 -24.758  1.00  0.00     0.204 C 
BRANCH   4   5
HETATM    5  C7  UNL     1      62.232  10.496 -24.317  1.00  0.00     0.051 C 
HETATM    6  C8  UNL     1      63.408  11.390 -23.880  1.00  0.00     0.015 C 
BRANCH   5   7
HETATM    7  C6  UNL     1      62.762   9.349 -25.017  1.00  0.00     0.182 C 
HETATM    8  F2  UNL     1      62.152   8.214 -24.392  1.00  0.00    -0.248 F 
BRANCH   7   9
HETATM    9  C4  UNL     1      64.175   8.955 -25.015  1.00  0.00     0.053 C 
HETATM   10  C5  UNL     1      65.065   9.288 -26.134  1.00  0.00     0.015 C 
BRANCH   9  11
HETATM   11  C3  UNL     1      64.186   7.415 -24.893  1.00  0.00     0.250 C 
BRANCH  11  12
HETATM   12  C2  UNL     1      64.046   6.749 -26.213  1.00  0.00     0.115 C 
HETATM   13  C1  UNL     1      64.962   5.913 -26.666  1.00  0.00     0.054 C 
HETATM   14  F1  UNL     1      62.962   6.982 -27.003  1.00  0.00    -0.209 F 
ENDBRANCH  11  12
BRANCH  11  15
HETATM   15  N1  UNL     1      65.416   6.991 -24.290  1.00  0.00    -0.068 N 
ATOM     16  H13 UNL     1      65.630   7.509 -23.437  1.00  0.00     0.275 HD
ATOM     17  H12 UNL     1      65.346   6.061 -23.877  1.00  0.00     0.275 HD
ATOM     18  H11 UNL     1      66.162   7.056 -24.982  1.00  0.00     0.275 HD
ENDBRANCH  11  15
ENDBRANCH   9  11
ENDBRANCH   7   9
ENDBRANCH   5   7
ENDBRANCH   4   5
BRANCH   4  19
HETATM   19  O1  UNL     1      60.123  10.801 -25.502  1.00  0.00    -0.389 OA
ATOM     20  H1  UNL     1      59.233  11.071 -25.310  1.00  0.00     0.210 HD
ENDBRANCH   4  19
ENDBRANCH   1   4
BRANCH   1  21
HETATM   21  C11 UNL     1      59.112  12.625 -24.088  1.00  0.00     0.116 C 
HETATM   22  C12 UNL     1      58.110  12.286 -23.296  1.00  0.00     0.052 C 
BRANCH  21  23
HETATM   23  O2  UNL     1      58.769  13.305 -25.250  1.00  0.00    -0.359 OA
ATOM     24  H2  UNL     1      57.981  13.094 -25.737  1.00  0.00     0.217 HD
ENDBRANCH  21  23
BRANCH  22  25
HETATM   25  C13 UNL     1      56.717  12.600 -23.609  1.00  0.00     0.254 C 
HETATM   26  F5  UNL     1      56.381  13.889 -23.141  1.00  0.00    -0.241 F 
BRANCH  25  27
HETATM   27  C14 UNL     1      55.682  11.644 -23.117  1.00  0.00     0.329 C 
HETATM   28  F6  UNL     1      55.240  12.194 -21.883  1.00  0.00    -0.220 F 
BRANCH  27  29
HETATM   29  C15 UNL     1      54.461  11.565 -23.960  1.00  0.00     0.435 C 
HETATM   30  F7  UNL     1      53.349  11.445 -23.151  1.00  0.00    -0.167 F 
HETATM   31  F8  UNL     1      54.480  10.606 -24.944  1.00  0.00    -0.167 F 
HETATM   32  F9  UNL     1      54.320  12.828 -24.571  1.00  0.00    -0.167 F 
ENDBRANCH  27  29
BRANCH  27  33
HETATM   33  C16 UNL     1      56.227  10.300 -22.757  1.00  0.00     0.435 C 
HETATM   34  F10 UNL     1      56.881   9.672 -23.786  1.00  0.00    -0.167 F 
HETATM   35  F11 UNL     1      55.216   9.464 -22.337  1.00  0.00    -0.167 F 
HETATM   36  F12 UNL     1      57.078  10.409 -21.640  1.00  0.00    -0.167 F 
ENDBRANCH  27  33
ENDBRANCH  25  27
ENDBRANCH  22  25
ENDBRANCH   1  21
TORSDOF 14
ENDMDL
MODEL 2
REMARK VINA RESULT: -8.722463360      0.340      1.899
REMARK  14 active torsions:
REMARK  status: ('A' for Active; 'I' for Inactive)
REMARK    1  A    between atoms: C2_2  and  C3_4 
REMARK    2  A    between atoms: C3_4  and  N1_5 
REMARK    3  A    between atoms: C3_4  and  C4_9 
REMARK    4  A    between atoms: C4_9  and  C6_11 
REMARK    5  A    between atoms: C6_11  and  C7_13 
REMARK    6  A    between atoms: C7_13  and  C9_15 
REMARK    7  A    between atoms: C9_15  and  O1_16 
REMARK    8  A    between atoms: C9_15  and  C10_18 
REMARK    9  A    between atoms: C10_18  and  C11_21 
REMARK   10  A    between atoms: C11_21  and  O2_22 
REMARK   11  A    between atoms: C12_24  and  C13_25 
REMARK   12  A    between atoms: C13_25  and  C14_27 
REMARK   13  A    between atoms: C14_27  and  C15_29 
REMARK   14  A    between atoms: C14_27  and  C16_33 
ROOT
HETATM    1  C10 UNL     1      60.647  12.371 -23.854  1.00  0.00     0.316 C 
HETATM    2  F3  UNL     1      61.343  13.505 -23.594  1.00  0.00    -0.196 F 
HETATM    3  F4  UNL     1      60.631  11.671 -22.655  1.00  0.00    -0.196 F 
ENDROOT
BRANCH   1   4
HETATM    4  C9  UNL     1      61.295  11.429 -24.831  1.00  0.00     0.204 C 
BRANCH   4   5
HETATM    5  C7  UNL     1      62.325  10.532 -24.351  1.00  0.00     0.051 C 
HETATM    6  C8  UNL     1      63.520  11.389 -23.890  1.00  0.00     0.015 C 
BRANCH   5   7
HETATM    7  C6  UNL     1      62.833   9.358 -25.022  1.00  0.00     0.182 C 
HETATM    8  F2  UNL     1      62.185   8.251 -24.384  1.00  0.00    -0.248 F 
BRANCH   7   9
HETATM    9  C4  UNL     1      64.235   8.926 -24.994  1.00  0.00     0.053 C 
HETATM   10  C5  UNL     1      65.159   9.251 -26.088  1.00  0.00     0.015 C 
BRANCH   9  11
HETATM   11  C3  UNL     1      64.203   7.385 -24.893  1.00  0.00     0.250 C 
BRANCH  11  12
HETATM   12  C2  UNL     1      64.062   6.742 -26.225  1.00  0.00     0.115 C 
HETATM   13  C1  UNL     1      64.967   5.894 -26.681  1.00  0.00     0.054 C 
HETATM   14  F1  UNL     1      62.991   7.008 -27.021  1.00  0.00    -0.209 F 
ENDBRANCH  11  12
BRANCH  11  15
HETATM   15  N1  UNL     1      65.412   6.919 -24.280  1.00  0.00    -0.068 N 
ATOM     16  H13 UNL     1      65.417   7.063 -23.270  1.00  0.00     0.275 HD
ATOM     17  H12 UNL     1      65.481   5.901 -24.279  1.00  0.00     0.275 HD
ATOM     18  H11 UNL     1      66.207   7.363 -24.741  1.00  0.00     0.275 HD
ENDBRANCH  11  15
ENDBRANCH   9  11
ENDBRANCH   7   9
ENDBRANCH   5   7
ENDBRANCH   4   5
BRANCH   4  19
HETATM   19  O1  UNL     1      60.286  10.904 -25.633  1.00  0.00    -0.389 OA
ATOM     20  H1  UNL     1      60.518  10.239 -26.270  1.00  0.00     0.210 HD
ENDBRANCH   4  19
ENDBRANCH   1   4
BRANCH   1  21
HETATM   21  C11 UNL     1      59.212  12.637 -24.176  1.00  0.00     0.116 C 
HETATM   22  C12 UNL     1      58.226  12.235 -23.394  1.00  0.00     0.052 C 
BRANCH  21  23
HETATM   23  O2  UNL     1      58.838  13.325 -25.324  1.00  0.00    -0.359 OA
ATOM     24  H2  UNL     1      58.647  14.255 -25.307  1.00  0.00     0.217 HD
ENDBRANCH  21  23
BRANCH  22  25
HETATM   25  C13 UNL     1      56.820  12.490 -23.703  1.00  0.00     0.254 C 
HETATM   26  F5  UNL     1      56.320  13.545 -22.909  1.00  0.00    -0.241 F 
BRANCH  25  27
HETATM   27  C14 UNL     1      55.881  11.336 -23.583  1.00  0.00     0.329 C 
HETATM   28  F6  UNL     1      56.423  10.340 -24.440  1.00  0.00    -0.220 F 
BRANCH  27  29
HETATM   29  C15 UNL     1      55.845  10.705 -22.238  1.00  0.00     0.435 C 
HETATM   30  F7  UNL     1      55.224  11.558 -21.347  1.00  0.00    -0.167 F 
HETATM   31  F8  UNL     1      57.053  10.261 -21.758  1.00  0.00    -0.167 F 
HETATM   32  F9  UNL     1      54.973   9.603 -22.341  1.00  0.00    -0.167 F 
ENDBRANCH  27  29
BRANCH  27  33
HETATM   33  C16 UNL     1      54.519  11.607 -24.134  1.00  0.00     0.435 C 
HETATM   34  F10 UNL     1      53.513  11.499 -23.208  1.00  0.00    -0.167 F 
HETATM   35  F11 UNL     1      54.231  10.738 -25.162  1.00  0.00    -0.167 F 
HETATM   36  F12 UNL     1      54.488  12.882 -24.733  1.00  0.00    -0.167 F 
ENDBRANCH  27  33
ENDBRANCH  25  27
ENDBRANCH  22  25
ENDBRANCH   1  21
TORSDOF 14
ENDMDL
MODEL 3
REMARK VINA RESULT: -8.421051574      1.819      2.267
REMARK  14 active torsions:
REMARK  status: ('A' for Active; 'I' for Inactive)
REMARK    1  A    between atoms: C2_2  and  C3_4 
REMARK    2  A    between atoms: C3_4  and  N1_5 
REMARK    3  A    between atoms: C3_4  and  C4_9 
REMARK    4  A    between atoms: C4_9  and  C6_11 
REMARK    5  A    between atoms: C6_11  and  C7_13 
REMARK    6  A    between atoms: C7_13  and  C9_15 
REMARK    7  A    between atoms: C9_15  and  O1_16 
REMARK    8  A    between atoms: C9_15  and  C10_18 
REMARK    9  A    between atoms: C10_18  and  C11_21 
REMARK   10  A    between atoms: C11_21  and  O2_22 
REMARK   11  A    between atoms: C12_24  and  C13_25 
REMARK   12  A    between atoms: C13_25  and  C14_27 
REMARK   13  A    between atoms: C14_27  and  C15_29 
REMARK   14  A    between atoms: C14_27  and  C16_33 
ROOT
HETATM    1  C10 UNL     1      60.359  11.551 -24.446  1.00  0.00     0.316 C 
HETATM    2  F3  UNL     1      60.283  10.200 -24.346  1.00  0.00    -0.196 F 
HETATM    3  F4  UNL     1      60.897  11.792 -25.703  1.00  0.00    -0.196 F 
ENDROOT
BRANCH   1   4
HETATM    4  C9  UNL     1      61.316  12.213 -23.493  1.00  0.00     0.204 C 
BRANCH   4   5
HETATM    5  C7  UNL     1      62.569  11.553 -23.198  1.00  0.00     0.051 C 
HETATM    6  C8  UNL     1      63.115  12.141 -21.883  1.00  0.00     0.015 C 
BRANCH   5   7
HETATM    7  C6  UNL     1      63.675  11.349 -24.104  1.00  0.00     0.182 C 
HETATM    8  F2  UNL     1      63.602  12.434 -25.036  1.00  0.00    -0.248 F 
BRANCH   7   9
HETATM    9  C4  UNL     1      63.809  10.201 -25.008  1.00  0.00     0.053 C 
HETATM   10  C5  UNL     1      63.170   8.913 -24.710  1.00  0.00     0.015 C 
BRANCH   9  11
HETATM   11  C3  UNL     1      65.323   9.922 -25.119  1.00  0.00     0.250 C 
BRANCH  11  12
HETATM   12  C2  UNL     1      65.863  10.296 -26.452  1.00  0.00     0.115 C 
HETATM   13  C1  UNL     1      66.855   9.624 -27.009  1.00  0.00     0.054 C 
HETATM   14  F1  UNL     1      65.349  11.348 -27.145  1.00  0.00    -0.209 F 
ENDBRANCH  11  12
BRANCH  11  15
HETATM   15  N1  UNL     1      66.023  10.664 -24.112  1.00  0.00    -0.068 N 
ATOM     16  H13 UNL     1      65.894  10.272 -23.179  1.00  0.00     0.275 HD
ATOM     17  H12 UNL     1      67.035  10.547 -24.175  1.00  0.00     0.275 HD
ATOM     18  H11 UNL     1      65.739  11.642 -24.166  1.00  0.00     0.275 HD
ENDBRANCH  11  15
ENDBRANCH   9  11
ENDBRANCH   7   9
ENDBRANCH   5   7
ENDBRANCH   4   5
BRANCH   4  19
HETATM   19  O1  UNL     1      61.343  13.569 -23.809  1.00  0.00    -0.389 OA
ATOM     20  H1  UNL     1      61.695  13.827 -24.652  1.00  0.00     0.210 HD
ENDBRANCH   4  19
ENDBRANCH   1   4
BRANCH   1  21
HETATM   21  C11 UNL     1      59.014  12.204 -24.459  1.00  0.00     0.116 C 
HETATM   22  C12 UNL     1      58.029  11.805 -23.674  1.00  0.00     0.052 C 
BRANCH  21  23
HETATM   23  O2  UNL     1      58.729  13.270 -25.302  1.00  0.00    -0.359 OA
ATOM     24  H2  UNL     1      58.993  13.268 -26.215  1.00  0.00     0.217 HD
ENDBRANCH  21  23
BRANCH  22  25
HETATM   25  C13 UNL     1      56.710  12.438 -23.680  1.00  0.00     0.254 C 
HETATM   26  F5  UNL     1      56.745  13.666 -22.984  1.00  0.00    -0.241 F 
BRANCH  25  27
HETATM   27  C14 UNL     1      55.572  11.634 -23.145  1.00  0.00     0.329 C 
HETATM   28  F6  UNL     1      55.226  12.269 -21.921  1.00  0.00    -0.220 F 
BRANCH  27  29
HETATM   29  C15 UNL     1      54.337  11.688 -23.968  1.00  0.00     0.435 C 
HETATM   30  F7  UNL     1      53.231  11.668 -23.141  1.00  0.00    -0.167 F 
HETATM   31  F8  UNL     1      54.244  10.744 -24.962  1.00  0.00    -0.167 F 
HETATM   32  F9  UNL     1      54.312  12.966 -24.562  1.00  0.00    -0.167 F 
ENDBRANCH  27  29
BRANCH  27  33
HETATM   33  C16 UNL     1      55.950  10.243 -22.754  1.00  0.00     0.435 C 
HETATM   34  F10 UNL     1      56.568   9.533 -23.752  1.00  0.00    -0.167 F 
HETATM   35  F11 UNL     1      54.838   9.529 -22.367  1.00  0.00    -0.167 F 
HETATM   36  F12 UNL     1      56.766  10.269 -21.606  1.00  0.00    -0.167 F 
ENDBRANCH  27  33
ENDBRANCH  25  27
ENDBRANCH  22  25
ENDBRANCH   1  21
TORSDOF 14
ENDMDL
MODEL 4
REMARK VINA RESULT: -8.362403381      1.248      1.733
REMARK  14 active torsions:
REMARK  status: ('A' for Active; 'I' for Inactive)
REMARK    1  A    between atoms: C2_2  and  C3_4 
REMARK    2  A    between atoms: C3_4  and  N1_5 
REMARK    3  A    between atoms: C3_4  and  C4_9 
REMARK    4  A    between atoms: C4_9  and  C6_11 
REMARK    5  A    between atoms: C6_11  and  C7_13 
REMARK    6  A    between atoms: C7_13  and  C9_15 
REMARK    7  A    between atoms: C9_15  and  O1_16 
REMARK    8  A    between atoms: C9_15  and  C10_18 
REMARK    9  A    between atoms: C10_18  and  C11_21 
REMARK   10  A    between atoms: C11_21  and  O2_22 
REMARK   11  A    between atoms: C12_24  and  C13_25 
REMARK   12  A    between atoms: C13_25  and  C14_27 
REMARK   13  A    between atoms: C14_27  and  C15_29 
REMARK   14  A    between atoms: C14_27  and  C16_33 
ROOT
HETATM    1  C10 UNL     1      61.366  12.269 -23.658  1.00  0.00     0.316 C 
HETATM    2  F3  UNL     1      61.834  13.536 -23.538  1.00  0.00    -0.196 F 
HETATM    3  F4  UNL     1      61.193  11.820 -22.356  1.00  0.00    -0.196 F 
ENDROOT
BRANCH   1   4
HETATM    4  C9  UNL     1      62.324  11.285 -24.273  1.00  0.00     0.204 C 
BRANCH   4   5
HETATM    5  C7  UNL     1      63.552  10.982 -23.569  1.00  0.00     0.051 C 
HETATM    6  C8  UNL     1      64.528  12.152 -23.797  1.00  0.00     0.015 C 
BRANCH   5   7
HETATM    7  C6  UNL     1      64.296   9.745 -23.621  1.00  0.00     0.182 C 
HETATM    8  F2  UNL     1      65.205   9.808 -22.516  1.00  0.00    -0.248 F 
BRANCH   7   9
HETATM    9  C4  UNL     1      65.196   9.362 -24.714  1.00  0.00     0.053 C 
HETATM   10  C5  UNL     1      64.814   9.540 -26.120  1.00  0.00     0.015 C 
BRANCH   9  11
HETATM   11  C3  UNL     1      65.477   7.855 -24.525  1.00  0.00     0.250 C 
BRANCH  11  12
HETATM   12  C2  UNL     1      64.416   7.010 -25.132  1.00  0.00     0.115 C 
HETATM   13  C1  UNL     1      64.672   6.203 -26.146  1.00  0.00     0.054 C 
HETATM   14  F1  UNL     1      63.140   7.043 -24.661  1.00  0.00    -0.209 F 
ENDBRANCH  11  12
BRANCH  11  15
HETATM   15  N1  UNL     1      66.734   7.522 -25.128  1.00  0.00    -0.068 N 
ATOM     16  H13 UNL     1      67.202   6.751 -24.651  1.00  0.00     0.275 HD
ATOM     17  H12 UNL     1      66.624   7.079 -26.040  1.00  0.00     0.275 HD
ATOM     18  H11 UNL     1      67.312   8.362 -25.170  1.00  0.00     0.275 HD
ENDBRANCH  11  15
ENDBRANCH   9  11
ENDBRANCH   7   9
ENDBRANCH   5   7
ENDBRANCH   4   5
BRANCH   4  19
HETATM   19  O1  UNL     1      61.569  10.226 -24.769  1.00  0.00    -0.389 OA
ATOM     20  H1  UNL     1      61.125  10.342 -25.600  1.00  0.00     0.210 HD
ENDBRANCH   4  19
ENDBRANCH   1   4
BRANCH   1  21
HETATM   21  C11 UNL     1      60.007  12.214 -24.279  1.00  0.00     0.116 C 
HETATM   22  C12 UNL     1      58.907  12.075 -23.561  1.00  0.00     0.052 C 
BRANCH  21  23
HETATM   23  O2  UNL     1      59.830  12.307 -25.654  1.00  0.00    -0.359 OA
ATOM     24  H2  UNL     1      60.487  11.994 -26.264  1.00  0.00     0.217 HD
ENDBRANCH  21  23
BRANCH  22  25
HETATM   25  C13 UNL     1      57.574  12.019 -24.161  1.00  0.00     0.254 C 
HETATM   26  F5  UNL     1      57.239  13.261 -24.742  1.00  0.00    -0.241 F 
BRANCH  25  27
HETATM   27  C14 UNL     1      56.450  11.605 -23.271  1.00  0.00     0.329 C 
HETATM   28  F6  UNL     1      57.065  11.311 -22.025  1.00  0.00    -0.220 F 
BRANCH  27  29
HETATM   29  C15 UNL     1      55.471  12.682 -22.971  1.00  0.00     0.435 C 
HETATM   30  F7  UNL     1      54.905  12.457 -21.731  1.00  0.00    -0.167 F 
HETATM   31  F8  UNL     1      54.516  12.902 -23.933  1.00  0.00    -0.167 F 
HETATM   32  F9  UNL     1      56.221  13.865 -22.808  1.00  0.00    -0.167 F 
ENDBRANCH  27  29
BRANCH  27  33
HETATM   33  C16 UNL     1      55.797  10.326 -23.681  1.00  0.00     0.435 C 
HETATM   34  F10 UNL     1      55.036  10.429 -24.817  1.00  0.00    -0.167 F 
HETATM   35  F11 UNL     1      54.981   9.854 -22.677  1.00  0.00    -0.167 F 
HETATM   36  F12 UNL     1      56.770   9.319 -23.843  1.00  0.00    -0.167 F 
ENDBRANCH  27  33
ENDBRANCH  25  27
ENDBRANCH  22  25
ENDBRANCH   1  21
TORSDOF 14
ENDMDL
MODEL 5
REMARK VINA RESULT: -8.257229567      1.773      3.089
REMARK  14 active torsions:
REMARK  status: ('A' for Active; 'I' for Inactive)
REMARK    1  A    between atoms: C2_2  and  C3_4 
REMARK    2  A    between atoms: C3_4  and  N1_5 
REMARK    3  A    between atoms: C3_4  and  C4_9 
REMARK    4  A    between atoms: C4_9  and  C6_11 
REMARK    5  A    between atoms: C6_11  and  C7_13 
REMARK    6  A    between atoms: C7_13  and  C9_15 
REMARK    7  A    between atoms: C9_15  and  O1_16 
REMARK    8  A    between atoms: C9_15  and  C10_18 
REMARK    9  A    between atoms: C10_18  and  C11_21 
REMARK   10  A    between atoms: C11_21  and  O2_22 
REMARK   11  A    between atoms: C12_24  and  C13_25 
REMARK   12  A    between atoms: C13_25  and  C14_27 
REMARK   13  A    between atoms: C14_27  and  C15_29 
REMARK   14  A    between atoms: C14_27  and  C16_33 
ROOT
HETATM    1  C10 UNL     1      60.745  11.583 -24.462  1.00  0.00     0.316 C 
HETATM    2  F3  UNL     1      60.791  10.229 -24.533  1.00  0.00    -0.196 F 
HETATM    3  F4  UNL     1      61.329  12.029 -25.641  1.00  0.00    -0.196 F 
ENDROOT
BRANCH   1   4
HETATM    4  C9  UNL     1      61.579  12.198 -23.372  1.00  0.00     0.204 C 
BRANCH   4   5
HETATM    5  C7  UNL     1      62.818  11.550 -22.998  1.00  0.00     0.051 C 
HETATM    6  C8  UNL     1      63.235  12.089 -21.616  1.00  0.00     0.015 C 
BRANCH   5   7
HETATM    7  C6  UNL     1      64.003  11.410 -23.813  1.00  0.00     0.182 C 
HETATM    8  F2  UNL     1      63.919  12.462 -24.781  1.00  0.00    -0.248 F 
BRANCH   7   9
HETATM    9  C4  UNL     1      64.291  10.253 -24.667  1.00  0.00     0.053 C 
HETATM   10  C5  UNL     1      63.588   8.976 -24.492  1.00  0.00     0.015 C 
BRANCH   9  11
HETATM   11  C3  UNL     1      65.795   9.953 -24.482  1.00  0.00     0.250 C 
BRANCH  11  12
HETATM   12  C2  UNL     1      66.066   9.228 -23.214  1.00  0.00     0.115 C 
HETATM   13  C1  UNL     1      66.766   8.107 -23.195  1.00  0.00     0.054 C 
HETATM   14  F1  UNL     1      65.601   9.699 -22.025  1.00  0.00    -0.209 F 
ENDBRANCH  11  12
BRANCH  11  15
HETATM   15  N1  UNL     1      66.264   9.157 -25.579  1.00  0.00    -0.068 N 
ATOM     16  H13 UNL     1      67.237   8.875 -25.466  1.00  0.00     0.275 HD
ATOM     17  H12 UNL     1      65.846   8.226 -25.591  1.00  0.00     0.275 HD
ATOM     18  H11 UNL     1      66.105   9.668 -26.447  1.00  0.00     0.275 HD
ENDBRANCH  11  15
ENDBRANCH   9  11
ENDBRANCH   7   9
ENDBRANCH   5   7
ENDBRANCH   4   5
BRANCH   4  19
HETATM   19  O1  UNL     1      61.593  13.573 -23.586  1.00  0.00    -0.389 OA
ATOM     20  H1  UNL     1      62.402  14.045 -23.426  1.00  0.00     0.210 HD
ENDBRANCH   4  19
ENDBRANCH   1   4
BRANCH   1  21
HETATM   21  C11 UNL     1      59.348  12.114 -24.487  1.00  0.00     0.116 C 
HETATM   22  C12 UNL     1      58.352  11.510 -23.861  1.00  0.00     0.052 C 
BRANCH  21  23
HETATM   23  O2  UNL     1      59.021  13.276 -25.174  1.00  0.00    -0.359 OA
ATOM     24  H2  UNL     1      59.688  13.876 -25.484  1.00  0.00     0.217 HD
ENDBRANCH  21  23
BRANCH  22  25
HETATM   25  C13 UNL     1      56.983  12.023 -23.880  1.00  0.00     0.254 C 
HETATM   26  F5  UNL     1      56.853  13.126 -23.009  1.00  0.00    -0.241 F 
BRANCH  25  27
HETATM   27  C14 UNL     1      55.894  11.051 -23.564  1.00  0.00     0.329 C 
HETATM   28  F6  UNL     1      56.275   9.854 -24.227  1.00  0.00    -0.220 F 
BRANCH  27  29
HETATM   29  C15 UNL     1      55.794  10.680 -22.129  1.00  0.00     0.435 C 
HETATM   30  F7  UNL     1      55.179   9.449 -22.014  1.00  0.00    -0.167 F 
HETATM   31  F8  UNL     1      55.212  11.618 -21.312  1.00  0.00    -0.167 F 
HETATM   32  F9  UNL     1      57.114  10.459 -21.685  1.00  0.00    -0.167 F 
ENDBRANCH  27  29
BRANCH  27  33
HETATM   33  C16 UNL     1      54.574  11.411 -24.164  1.00  0.00     0.435 C 
HETATM   34  F10 UNL     1      53.506  11.188 -23.333  1.00  0.00    -0.167 F 
HETATM   35  F11 UNL     1      54.356  10.695 -25.320  1.00  0.00    -0.167 F 
HETATM   36  F12 UNL     1      54.586  12.756 -24.582  1.00  0.00    -0.167 F 
ENDBRANCH  27  33
ENDBRANCH  25  27
ENDBRANCH  22  25
ENDBRANCH   1  21
TORSDOF 14
ENDMDL
