MODEL 1
REMARK VINA RESULT: -8.183690848      0.000      0.000
REMARK  12 active torsions:
REMARK  status: ('A' for Active; 'I' for Inactive)
REMARK    1  A    between atoms: C2_2  and  C3_4 
REMARK    2  A    between atoms: C3_4  and  C4_5 
REMARK    3  A    between atoms: C3_4  and  C11_23 
REMARK    4  A    between atoms: C4_5  and  O1_6 
REMARK    5  A    between atoms: C4_5  and  C5_8 
REMARK    6  A    between atoms: C6_11  and  C7_12 
REMARK    7  A    between atoms: C7_12  and  C8_13 
REMARK    8  A    between atoms: C8_13  and  C9_16 
REMARK    9  A    between atoms: C11_23  and  O2_24 
REMARK   10  A    between atoms: C11_23  and  C12_26 
REMARK   11  A    between atoms: C12_26  and  C13_29 
REMARK   12  A    between atoms: C13_29  and  C15_31 
ROOT
HETATM    1  C4  UNL     1      62.230  12.521 -23.495  1.00  0.00     0.181 C 
ENDROOT
BRANCH   1   2
HETATM    2  C3  UNL     1      63.718  12.275 -23.879  1.00  0.00     0.019 C 
BRANCH   2   3
HETATM    3  C2  UNL     1      64.330  13.160 -24.845  1.00  0.00     0.200 C 
HETATM    4  C1  UNL     1      64.118  14.663 -24.488  1.00  0.00     0.050 C 
HETATM    5  F1  UNL     1      65.682  13.105 -25.037  1.00  0.00    -0.245 F 
ENDBRANCH   2   3
BRANCH   2   6
HETATM    6  C11 UNL     1      64.101  10.845 -23.804  1.00  0.00     0.123 C 
BRANCH   6   7
HETATM    7  O2  UNL     1      64.700  10.549 -22.573  1.00  0.00    -0.359 OA
ATOM      8  H2  UNL     1      65.051   9.667 -22.568  1.00  0.00     0.217 HD
ENDBRANCH   6   7
BRANCH   6   9
HETATM    9  C12 UNL     1      64.729  10.078 -24.847  1.00  0.00     0.303 C 
HETATM   10  F9  UNL     1      64.168  10.195 -26.134  1.00  0.00    -0.198 F 
HETATM   11  F10 UNL     1      66.122  10.164 -24.958  1.00  0.00    -0.198 F 
BRANCH   9  12
HETATM   12  C13 UNL     1      64.519   8.568 -24.617  1.00  0.00     0.168 C 
HETATM   13  C14 UNL     1      65.468   7.681 -25.319  1.00  0.00     0.026 C 
BRANCH  12  14
HETATM   14  C15 UNL     1      63.119   8.196 -25.062  1.00  0.00     0.397 C 
HETATM   15  F11 UNL     1      62.951   6.855 -24.666  1.00  0.00    -0.171 F 
HETATM   16  F12 UNL     1      62.121   8.893 -24.474  1.00  0.00    -0.171 F 
HETATM   17  F13 UNL     1      63.013   8.152 -26.452  1.00  0.00    -0.171 F 
ENDBRANCH  12  14
ENDBRANCH   9  12
ENDBRANCH   6   9
ENDBRANCH   2   6
ENDBRANCH   1   2
BRANCH   1  18
HETATM   18  O1  UNL     1      62.092  11.810 -22.257  1.00  0.00    -0.389 OA
ATOM     19  H1  UNL     1      62.164  12.497 -21.605  1.00  0.00     0.210 HD
ENDBRANCH   1  18
BRANCH   1  20
HETATM   20  C5  UNL     1      61.255  12.149 -24.529  1.00  0.00     0.185 C 
HETATM   21  N1  UNL     1      60.134  11.287 -24.168  1.00  0.00    -0.400 N 
HETATM   22  C6  UNL     1      59.394  12.329 -23.685  1.00  0.00     0.158 C 
ATOM     23  H1  UNL     1      59.967  10.284 -24.246  1.00  0.00     0.154 HD
HETATM   24  C10 UNL     1      60.154  13.224 -24.738  1.00  0.00     0.285 C 
HETATM   25  F7  UNL     1      59.541  13.168 -25.954  1.00  0.00    -0.202 F 
HETATM   26  F8  UNL     1      60.292  14.414 -24.125  1.00  0.00    -0.202 F 
BRANCH  22  27
HETATM   27  C7  UNL     1      57.961  12.592 -23.813  1.00  0.00     0.119 C 
BRANCH  27  28
HETATM   28  C8  UNL     1      56.932  11.664 -23.368  1.00  0.00     0.341 C 
HETATM   29  F2  UNL     1      57.364  11.024 -22.148  1.00  0.00    -0.196 F 
HETATM   30  F3  UNL     1      56.718  10.586 -24.210  1.00  0.00    -0.196 F 
BRANCH  28  31
HETATM   31  C9  UNL     1      55.601  12.231 -23.018  1.00  0.00     0.454 C 
HETATM   32  F4  UNL     1      55.774  13.644 -23.198  1.00  0.00    -0.165 F 
HETATM   33  F5  UNL     1      54.605  11.760 -23.826  1.00  0.00    -0.165 F 
HETATM   34  F6  UNL     1      55.336  12.086 -21.683  1.00  0.00    -0.165 F 
ENDBRANCH  28  31
ENDBRANCH  27  28
ENDBRANCH  22  27
ENDBRANCH   1  20
TORSDOF 12
ENDMDL
MODEL 2
REMARK VINA RESULT: -8.165344856      0.657      1.267
REMARK  12 active torsions:
REMARK  status: ('A' for Active; 'I' for Inactive)
REMARK    1  A    between atoms: C2_2  and  C3_4 
REMARK    2  A    between atoms: C3_4  and  C4_5 
REMARK    3  A    between atoms: C3_4  and  C11_23 
REMARK    4  A    between atoms: C4_5  and  O1_6 
REMARK    5  A    between atoms: C4_5  and  C5_8 
REMARK    6  A    between atoms: C6_11  and  C7_12 
REMARK    7  A    between atoms: C7_12  and  C8_13 
REMARK    8  A    between atoms: C8_13  and  C9_16 
REMARK    9  A    between atoms: C11_23  and  O2_24 
REMARK   10  A    between atoms: C11_23  and  C12_26 
REMARK   11  A    between atoms: C12_26  and  C13_29 
REMARK   12  A    between atoms: C13_29  and  C15_31 
ROOT
HETATM    1  C4  UNL     1      62.262  12.490 -23.552  1.00  0.00     0.181 C 
ENDROOT
BRANCH   1   2
HETATM    2  C3  UNL     1      63.749  12.243 -23.938  1.00  0.00     0.019 C 
BRANCH   2   3
HETATM    3  C2  UNL     1      64.359  13.123 -24.911  1.00  0.00     0.200 C 
HETATM    4  C1  UNL     1      64.160  14.628 -24.553  1.00  0.00     0.050 C 
HETATM    5  F1  UNL     1      65.708  13.059 -25.115  1.00  0.00    -0.245 F 
ENDBRANCH   2   3
BRANCH   2   6
HETATM    6  C11 UNL     1      64.133  10.814 -23.856  1.00  0.00     0.123 C 
BRANCH   6   7
HETATM    7  O2  UNL     1      64.726  10.524 -22.620  1.00  0.00    -0.359 OA
ATOM      8  H2  UNL     1      64.987   9.612 -22.574  1.00  0.00     0.217 HD
ENDBRANCH   6   7
BRANCH   6   9
HETATM    9  C12 UNL     1      64.769  10.044 -24.893  1.00  0.00     0.303 C 
HETATM   10  F9  UNL     1      64.191  10.124 -26.175  1.00  0.00    -0.198 F 
HETATM   11  F10 UNL     1      66.158  10.164 -25.022  1.00  0.00    -0.198 F 
BRANCH   9  12
HETATM   12  C13 UNL     1      64.600   8.534 -24.632  1.00  0.00     0.168 C 
HETATM   13  C14 UNL     1      65.574   7.660 -25.316  1.00  0.00     0.026 C 
BRANCH  12  14
HETATM   14  C15 UNL     1      63.212   8.115 -25.071  1.00  0.00     0.397 C 
HETATM   15  F11 UNL     1      63.085   6.774 -24.661  1.00  0.00    -0.171 F 
HETATM   16  F12 UNL     1      62.194   8.787 -24.489  1.00  0.00    -0.171 F 
HETATM   17  F13 UNL     1      63.105   8.054 -26.461  1.00  0.00    -0.171 F 
ENDBRANCH  12  14
ENDBRANCH   9  12
ENDBRANCH   6   9
ENDBRANCH   2   6
ENDBRANCH   1   2
BRANCH   1  18
HETATM   18  O1  UNL     1      62.132  11.803 -22.300  1.00  0.00    -0.389 OA
ATOM     19  H1  UNL     1      61.192  11.770 -22.169  1.00  0.00     0.210 HD
ENDBRANCH   1  18
BRANCH   1  20
HETATM   20  C5  UNL     1      61.284  12.093 -24.575  1.00  0.00     0.185 C 
HETATM   21  N1  UNL     1      60.271  11.099 -24.237  1.00  0.00    -0.400 N 
HETATM   22  C6  UNL     1      59.453  12.025 -23.653  1.00  0.00     0.158 C 
ATOM     23  H1  UNL     1      60.200  10.091 -24.381  1.00  0.00     0.154 HD
HETATM   24  C10 UNL     1      60.074  13.063 -24.665  1.00  0.00     0.285 C 
HETATM   25  F7  UNL     1      59.417  13.028 -25.858  1.00  0.00    -0.202 F 
HETATM   26  F8  UNL     1      60.121  14.216 -23.972  1.00  0.00    -0.202 F 
BRANCH  22  27
HETATM   27  C7  UNL     1      57.997  12.149 -23.709  1.00  0.00     0.119 C 
BRANCH  27  28
HETATM   28  C8  UNL     1      57.093  11.369 -22.878  1.00  0.00     0.341 C 
HETATM   29  F2  UNL     1      56.101  12.244 -22.299  1.00  0.00    -0.196 F 
HETATM   30  F3  UNL     1      57.677  10.800 -21.758  1.00  0.00    -0.196 F 
BRANCH  28  31
HETATM   31  C9  UNL     1      56.284  10.312 -23.547  1.00  0.00     0.454 C 
HETATM   32  F4  UNL     1      55.528   9.731 -22.474  1.00  0.00    -0.165 F 
HETATM   33  F5  UNL     1      55.453  10.820 -24.504  1.00  0.00    -0.165 F 
HETATM   34  F6  UNL     1      57.078   9.292 -23.997  1.00  0.00    -0.165 F 
ENDBRANCH  28  31
ENDBRANCH  27  28
ENDBRANCH  22  27
ENDBRANCH   1  20
TORSDOF 12
ENDMDL
MODEL 3
REMARK VINA RESULT: -8.087980602      2.253      3.565
REMARK  12 active torsions:
REMARK  status: ('A' for Active; 'I' for Inactive)
REMARK    1  A    between atoms: C2_2  and  C3_4 
REMARK    2  A    between atoms: C3_4  and  C4_5 
REMARK    3  A    between atoms: C3_4  and  C11_23 
REMARK    4  A    between atoms: C4_5  and  O1_6 
REMARK    5  A    between atoms: C4_5  and  C5_8 
REMARK    6  A    between atoms: C6_11  and  C7_12 
REMARK    7  A    between atoms: C7_12  and  C8_13 
REMARK    8  A    between atoms: C8_13  and  C9_16 
REMARK    9  A    between atoms: C11_23  and  O2_24 
REMARK   10  A    between atoms: C11_23  and  C12_26 
REMARK   11  A    between atoms: C12_26  and  C13_29 
REMARK   12  A    between atoms: C13_29  and  C15_31 
ROOT
HETATM    1  C4  UNL     1      64.432  11.561 -24.760  1.00  0.00     0.181 C 
ENDROOT
BRANCH   1   2
HETATM    2  C3  UNL     1      65.365  10.386 -24.346  1.00  0.00     0.019 C 
BRANCH   2   3
HETATM    3  C2  UNL     1      66.335  10.620 -23.298  1.00  0.00     0.200 C 
HETATM    4  C1  UNL     1      65.950   9.906 -21.967  1.00  0.00     0.050 C 
HETATM    5  F1  UNL     1      67.624  10.203 -23.478  1.00  0.00    -0.245 F 
ENDBRANCH   2   3
BRANCH   2   6
HETATM    6  C11 UNL     1      65.662   9.466 -25.470  1.00  0.00     0.123 C 
BRANCH   6   7
HETATM    7  O2  UNL     1      65.069   9.915 -26.656  1.00  0.00    -0.359 OA
ATOM      8  H2  UNL     1      65.532   9.584 -27.416  1.00  0.00     0.217 HD
ENDBRANCH   6   7
BRANCH   6   9
HETATM    9  C12 UNL     1      65.625   8.028 -25.422  1.00  0.00     0.303 C 
HETATM   10  F9  UNL     1      66.623   7.353 -26.153  1.00  0.00    -0.198 F 
HETATM   11  F10 UNL     1      65.514   7.430 -24.162  1.00  0.00    -0.198 F 
BRANCH   9  12
HETATM   12  C13 UNL     1      64.374   7.490 -26.144  1.00  0.00     0.168 C 
HETATM   13  C14 UNL     1      63.262   7.079 -25.265  1.00  0.00     0.026 C 
BRANCH  12  14
HETATM   14  C15 UNL     1      64.771   6.291 -26.981  1.00  0.00     0.397 C 
HETATM   15  F11 UNL     1      63.627   5.976 -27.740  1.00  0.00    -0.171 F 
HETATM   16  F12 UNL     1      65.766   6.509 -27.870  1.00  0.00    -0.171 F 
HETATM   17  F13 UNL     1      64.977   5.157 -26.196  1.00  0.00    -0.171 F 
ENDBRANCH  12  14
ENDBRANCH   9  12
ENDBRANCH   6   9
ENDBRANCH   2   6
ENDBRANCH   1   2
BRANCH   1  18
HETATM   18  O1  UNL     1      65.290  12.396 -25.549  1.00  0.00    -0.389 OA
ATOM     19  H1  UNL     1      65.641  13.007 -24.912  1.00  0.00     0.210 HD
ENDBRANCH   1  18
BRANCH   1  20
HETATM   20  C5  UNL     1      63.766  12.245 -23.642  1.00  0.00     0.185 C 
HETATM   21  N1  UNL     1      63.023  13.473 -23.906  1.00  0.00    -0.400 N 
HETATM   22  C6  UNL     1      61.905  12.796 -24.304  1.00  0.00     0.158 C 
ATOM     23  H1  UNL     1      63.253  14.463 -23.823  1.00  0.00     0.154 HD
HETATM   24  C10 UNL     1      62.367  11.655 -23.318  1.00  0.00     0.285 C 
HETATM   25  F7  UNL     1      61.933  11.907 -22.051  1.00  0.00    -0.202 F 
HETATM   26  F8  UNL     1      61.991  10.516 -23.929  1.00  0.00    -0.202 F 
BRANCH  22  27
HETATM   27  C7  UNL     1      60.496  13.086 -24.039  1.00  0.00     0.119 C 
BRANCH  27  28
HETATM   28  C8  UNL     1      59.416  12.695 -24.931  1.00  0.00     0.341 C 
HETATM   29  F2  UNL     1      59.845  11.578 -25.740  1.00  0.00    -0.196 F 
HETATM   30  F3  UNL     1      59.078  13.641 -25.885  1.00  0.00    -0.196 F 
BRANCH  28  31
HETATM   31  C9  UNL     1      58.150  12.215 -24.309  1.00  0.00     0.454 C 
HETATM   32  F4  UNL     1      58.474  12.111 -22.915  1.00  0.00    -0.165 F 
HETATM   33  F5  UNL     1      57.114  13.084 -24.500  1.00  0.00    -0.165 F 
HETATM   34  F6  UNL     1      57.866  10.932 -24.691  1.00  0.00    -0.165 F 
ENDBRANCH  28  31
ENDBRANCH  27  28
ENDBRANCH  22  27
ENDBRANCH   1  20
TORSDOF 12
ENDMDL
MODEL 4
REMARK VINA RESULT: -8.080905325      0.900      1.492
REMARK  12 active torsions:
REMARK  status: ('A' for Active; 'I' for Inactive)
REMARK    1  A    between atoms: C2_2  and  C3_4 
REMARK    2  A    between atoms: C3_4  and  C4_5 
REMARK    3  A    between atoms: C3_4  and  C11_23 
REMARK    4  A    between atoms: C4_5  and  O1_6 
REMARK    5  A    between atoms: C4_5  and  C5_8 
REMARK    6  A    between atoms: C6_11  and  C7_12 
REMARK    7  A    between atoms: C7_12  and  C8_13 
REMARK    8  A    between atoms: C8_13  and  C9_16 
REMARK    9  A    between atoms: C11_23  and  O2_24 
REMARK   10  A    between atoms: C11_23  and  C12_26 
REMARK   11  A    between atoms: C12_26  and  C13_29 
REMARK   12  A    between atoms: C13_29  and  C15_31 
ROOT
HETATM    1  C4  UNL     1      62.373  12.305 -23.793  1.00  0.00     0.181 C 
ENDROOT
BRANCH   1   2
HETATM    2  C3  UNL     1      63.739  11.664 -24.173  1.00  0.00     0.019 C 
BRANCH   2   3
HETATM    3  C2  UNL     1      64.492  12.253 -25.259  1.00  0.00     0.200 C 
HETATM    4  C1  UNL     1      64.764  13.772 -25.034  1.00  0.00     0.050 C 
HETATM    5  F1  UNL     1      65.745  11.781 -25.533  1.00  0.00    -0.245 F 
ENDBRANCH   2   3
BRANCH   2   6
HETATM    6  C11 UNL     1      63.777  10.204 -23.921  1.00  0.00     0.123 C 
BRANCH   6   7
HETATM    7  O2  UNL     1      64.940   9.844 -23.227  1.00  0.00    -0.359 OA
ATOM      8  H2  UNL     1      64.728   9.383 -22.424  1.00  0.00     0.217 HD
ENDBRANCH   6   7
BRANCH   6   9
HETATM    9  C12 UNL     1      63.434   9.170 -24.862  1.00  0.00     0.303 C 
HETATM   10  F9  UNL     1      62.457   8.245 -24.445  1.00  0.00    -0.198 F 
HETATM   11  F10 UNL     1      63.143   9.565 -26.173  1.00  0.00    -0.198 F 
BRANCH   9  12
HETATM   12  C13 UNL     1      64.620   8.209 -25.073  1.00  0.00     0.168 C 
HETATM   13  C14 UNL     1      65.525   8.552 -26.188  1.00  0.00     0.026 C 
BRANCH  12  14
HETATM   14  C15 UNL     1      64.081   6.815 -25.326  1.00  0.00     0.397 C 
HETATM   15  F11 UNL     1      65.124   6.129 -25.978  1.00  0.00    -0.171 F 
HETATM   16  F12 UNL     1      63.789   6.098 -24.219  1.00  0.00    -0.171 F 
HETATM   17  F13 UNL     1      63.047   6.823 -26.263  1.00  0.00    -0.171 F 
ENDBRANCH  12  14
ENDBRANCH   9  12
ENDBRANCH   6   9
ENDBRANCH   2   6
ENDBRANCH   1   2
BRANCH   1  18
HETATM   18  O1  UNL     1      62.141  11.813 -22.466  1.00  0.00    -0.389 OA
ATOM     19  H1  UNL     1      62.390  10.898 -22.529  1.00  0.00     0.210 HD
ENDBRANCH   1  18
BRANCH   1  20
HETATM   20  C5  UNL     1      61.282  12.046 -24.745  1.00  0.00     0.185 C 
HETATM   21  N1  UNL     1      60.192  11.162 -24.346  1.00  0.00    -0.400 N 
HETATM   22  C6  UNL     1      59.529  12.158 -23.686  1.00  0.00     0.158 C 
ATOM     23  H1  UNL     1      59.997  10.173 -24.502  1.00  0.00     0.154 HD
HETATM   24  C10 UNL     1      60.187  13.146 -24.725  1.00  0.00     0.285 C 
HETATM   25  F7  UNL     1      59.443  13.215 -25.864  1.00  0.00    -0.202 F 
HETATM   26  F8  UNL     1      60.415  14.268 -24.017  1.00  0.00    -0.202 F 
BRANCH  22  27
HETATM   27  C7  UNL     1      58.097  12.445 -23.628  1.00  0.00     0.119 C 
BRANCH  27  28
HETATM   28  C8  UNL     1      57.106  11.492 -23.151  1.00  0.00     0.341 C 
HETATM   29  F2  UNL     1      57.611  10.828 -21.972  1.00  0.00    -0.196 F 
HETATM   30  F3  UNL     1      56.862  10.431 -24.007  1.00  0.00    -0.196 F 
BRANCH  28  31
HETATM   31  C9  UNL     1      55.787  12.030 -22.716  1.00  0.00     0.454 C 
HETATM   32  F4  UNL     1      54.887  11.598 -23.746  1.00  0.00    -0.165 F 
HETATM   33  F5  UNL     1      55.401  11.542 -21.501  1.00  0.00    -0.165 F 
HETATM   34  F6  UNL     1      55.762  13.397 -22.790  1.00  0.00    -0.165 F 
ENDBRANCH  28  31
ENDBRANCH  27  28
ENDBRANCH  22  27
ENDBRANCH   1  20
TORSDOF 12
ENDMDL
MODEL 5
REMARK VINA RESULT: -8.074426267      1.085      1.822
REMARK  12 active torsions:
REMARK  status: ('A' for Active; 'I' for Inactive)
REMARK    1  A    between atoms: C2_2  and  C3_4 
REMARK    2  A    between atoms: C3_4  and  C4_5 
REMARK    3  A    between atoms: C3_4  and  C11_23 
REMARK    4  A    between atoms: C4_5  and  O1_6 
REMARK    5  A    between atoms: C4_5  and  C5_8 
REMARK    6  A    between atoms: C6_11  and  C7_12 
REMARK    7  A    between atoms: C7_12  and  C8_13 
REMARK    8  A    between atoms: C8_13  and  C9_16 
REMARK    9  A    between atoms: C11_23  and  O2_24 
REMARK   10  A    between atoms: C11_23  and  C12_26 
REMARK   11  A    between atoms: C12_26  and  C13_29 
REMARK   12  A    between atoms: C13_29  and  C15_31 
ROOT
HETATM    1  C4  UNL     1      62.211  12.304 -23.768  1.00  0.00     0.181 C 
ENDROOT
BRANCH   1   2
HETATM    2  C3  UNL     1      63.606  11.714 -24.130  1.00  0.00     0.019 C 
BRANCH   2   3
HETATM    3  C2  UNL     1      64.356  12.338 -25.198  1.00  0.00     0.200 C 
HETATM    4  C1  UNL     1      64.681  13.833 -24.897  1.00  0.00     0.050 C 
HETATM    5  F1  UNL     1      65.587  11.844 -25.525  1.00  0.00    -0.245 F 
ENDBRANCH   2   3
BRANCH   2   6
HETATM    6  C11 UNL     1      63.691  10.254 -23.889  1.00  0.00     0.123 C 
BRANCH   6   7
HETATM    7  O2  UNL     1      64.869   9.925 -23.207  1.00  0.00    -0.359 OA
ATOM      8  H2  UNL     1      64.792   9.079 -22.782  1.00  0.00     0.217 HD
ENDBRANCH   6   7
BRANCH   6   9
HETATM    9  C12 UNL     1      63.371   9.217 -24.835  1.00  0.00     0.303 C 
HETATM   10  F9  UNL     1      62.403   8.277 -24.428  1.00  0.00    -0.198 F 
HETATM   11  F10 UNL     1      63.087   9.610 -26.148  1.00  0.00    -0.198 F 
BRANCH   9  12
HETATM   12  C13 UNL     1      64.572   8.273 -25.036  1.00  0.00     0.168 C 
HETATM   13  C14 UNL     1      65.499   8.648 -26.122  1.00  0.00     0.026 C 
BRANCH  12  14
HETATM   14  C15 UNL     1      64.055   6.879 -25.328  1.00  0.00     0.397 C 
HETATM   15  F11 UNL     1      65.117   6.220 -25.976  1.00  0.00    -0.171 F 
HETATM   16  F12 UNL     1      63.753   6.134 -24.241  1.00  0.00    -0.171 F 
HETATM   17  F13 UNL     1      63.037   6.894 -26.281  1.00  0.00    -0.171 F 
ENDBRANCH  12  14
ENDBRANCH   9  12
ENDBRANCH   6   9
ENDBRANCH   2   6
ENDBRANCH   1   2
BRANCH   1  18
HETATM   18  O1  UNL     1      61.973  11.789 -22.451  1.00  0.00    -0.389 OA
ATOM     19  H1  UNL     1      62.706  11.201 -22.313  1.00  0.00     0.210 HD
ENDBRANCH   1  18
BRANCH   1  20
HETATM   20  C5  UNL     1      61.148  12.019 -24.742  1.00  0.00     0.185 C 
HETATM   21  N1  UNL     1      60.118  11.044 -24.398  1.00  0.00    -0.400 N 
HETATM   22  C6  UNL     1      59.384  11.958 -23.696  1.00  0.00     0.158 C 
ATOM     23  H1  UNL     1      59.993  10.053 -24.605  1.00  0.00     0.154 HD
HETATM   24  C10 UNL     1      59.980  13.039 -24.679  1.00  0.00     0.285 C 
HETATM   25  F7  UNL     1      59.240  13.115 -25.821  1.00  0.00    -0.202 F 
HETATM   26  F8  UNL     1      60.125  14.138 -23.914  1.00  0.00    -0.202 F 
BRANCH  22  27
HETATM   27  C7  UNL     1      57.935  12.144 -23.638  1.00  0.00     0.119 C 
BRANCH  27  28
HETATM   28  C8  UNL     1      57.054  11.324 -22.820  1.00  0.00     0.341 C 
HETATM   29  F2  UNL     1      56.047  12.163 -22.215  1.00  0.00    -0.196 F 
HETATM   30  F3  UNL     1      57.658  10.742 -21.718  1.00  0.00    -0.196 F 
BRANCH  28  31
HETATM   31  C9  UNL     1      56.264  10.266 -23.509  1.00  0.00     0.454 C 
HETATM   32  F4  UNL     1      55.488   9.678 -22.455  1.00  0.00    -0.165 F 
HETATM   33  F5  UNL     1      55.451  10.773 -24.482  1.00  0.00    -0.165 F 
HETATM   34  F6  UNL     1      57.072   9.250 -23.946  1.00  0.00    -0.165 F 
ENDBRANCH  28  31
ENDBRANCH  27  28
ENDBRANCH  22  27
ENDBRANCH   1  20
TORSDOF 12
ENDMDL
