MODEL 1
REMARK VINA RESULT: -6.668015177      0.000      0.000
REMARK  13 active torsions:
REMARK  status: ('A' for Active; 'I' for Inactive)
REMARK    1  A    between atoms: C2_2  and  C3_3 
REMARK    2  A    between atoms: C2_2  and  C4_6 
REMARK    3  A    between atoms: C4_6  and  O1_7 
REMARK    4  A    between atoms: C4_6  and  C5_9 
REMARK    5  A    between atoms: C5_9  and  O2_10 
REMARK    6  A    between atoms: C5_9  and  C6_12 
REMARK    7  A    between atoms: C6_12  and  C7_13 
REMARK    8  A    between atoms: C6_12  and  C8_16 
REMARK    9  A    between atoms: C6_12  and  C9_20 
REMARK   10  A    between atoms: C9_20  and  C10_23 
REMARK   11  A    between atoms: C10_23  and  C11_26 
REMARK   12  A    between atoms: C11_26  and  C12_28 
REMARK   13  A    between atoms: C12_28  and  O3_31 
ROOT
HETATM    1  C6  UNL     1      64.031  11.644 -23.604  1.00  0.00     0.215 C 
ENDROOT
BRANCH   1   2
HETATM    2  C5  UNL     1      63.061  12.482 -24.305  1.00  0.00     0.176 C 
BRANCH   2   3
HETATM    3  C4  UNL     1      61.740  12.846 -23.741  1.00  0.00     0.156 C 
BRANCH   3   4
HETATM    4  C2  UNL     1      60.701  12.443 -24.827  1.00  0.00     0.062 C 
HETATM    5  C1  UNL     1      60.115  11.123 -24.386  1.00  0.00     0.017 C 
BRANCH   4   6
HETATM    6  C3  UNL     1      59.577  13.465 -24.709  1.00  0.00     0.271 C 
HETATM    7  F1  UNL     1      59.075  13.812 -25.938  1.00  0.00    -0.232 F 
HETATM    8 CL1  UNL     1      58.267  12.806 -23.735  1.00  0.00    -0.089 Cl
ENDBRANCH   4   6
ENDBRANCH   3   4
BRANCH   3   9
HETATM    9  O1  UNL     1      61.529  14.244 -23.675  1.00  0.00    -0.392 OA
ATOM     10  H1  UNL     1      62.425  14.559 -23.638  1.00  0.00     0.210 HD
ENDBRANCH   3   9
ENDBRANCH   2   3
BRANCH   2  11
HETATM   11  O2  UNL     1      63.514  13.715 -24.804  1.00  0.00    -0.391 OA
ATOM     12  H2  UNL     1      64.325  13.467 -25.233  1.00  0.00     0.210 HD
ENDBRANCH   2  11
ENDBRANCH   1   2
BRANCH   1  13
HETATM   13  C7  UNL     1      63.503  11.384 -22.157  1.00  0.00     0.379 C 
HETATM   14  F2  UNL     1      64.381  10.727 -21.358  1.00  0.00    -0.213 F 
HETATM   15  F3  UNL     1      63.188  12.539 -21.502  1.00  0.00    -0.213 F 
ENDBRANCH   1  13
BRANCH   1  16
HETATM   16  C8  UNL     1      65.385  12.257 -23.322  1.00  0.00     0.409 C 
HETATM   17  F4  UNL     1      66.056  12.680 -24.470  1.00  0.00    -0.170 F 
HETATM   18  F5  UNL     1      65.311  13.409 -22.570  1.00  0.00    -0.170 F 
HETATM   19  F6  UNL     1      66.307  11.357 -22.793  1.00  0.00    -0.170 F 
ENDBRANCH   1  16
BRANCH   1  20
HETATM   20  C9  UNL     1      64.116  10.252 -24.153  1.00  0.00     0.338 C 
HETATM   21  F7  UNL     1      62.887   9.631 -24.012  1.00  0.00    -0.198 F 
HETATM   22  F8  UNL     1      64.851   9.533 -23.097  1.00  0.00    -0.198 F 
BRANCH  20  23
HETATM   23  C10 UNL     1      64.788   9.831 -25.345  1.00  0.00     0.361 C 
HETATM   24  F9  UNL     1      66.151   9.536 -25.120  1.00  0.00    -0.192 F 
HETATM   25  F10 UNL     1      64.918  10.778 -26.375  1.00  0.00    -0.192 F 
BRANCH  23  26
HETATM   26  C11 UNL     1      64.307   8.608 -26.083  1.00  0.00     0.182 C 
HETATM   27  F11 UNL     1      62.967   8.703 -26.440  1.00  0.00    -0.205 F 
BRANCH  26  28
HETATM   28  C12 UNL     1      64.660   7.270 -25.594  1.00  0.00     0.106 C 
HETATM   29  C13 UNL     1      64.912   6.236 -26.679  1.00  0.00     0.053 C 
HETATM   30  C14 UNL     1      63.313   6.747 -24.965  1.00  0.00     0.053 C 
BRANCH  28  31
HETATM   31  O3  UNL     1      65.559   7.109 -24.595  1.00  0.00    -0.384 OA
ATOM     32  H3  UNL     1      65.288   6.789 -23.742  1.00  0.00     0.211 HD
ENDBRANCH  28  31
ENDBRANCH  26  28
ENDBRANCH  23  26
ENDBRANCH  20  23
ENDBRANCH   1  20
TORSDOF 13
ENDMDL
MODEL 2
REMARK VINA RESULT: -6.605285836      5.038      7.947
REMARK  13 active torsions:
REMARK  status: ('A' for Active; 'I' for Inactive)
REMARK    1  A    between atoms: C2_2  and  C3_3 
REMARK    2  A    between atoms: C2_2  and  C4_6 
REMARK    3  A    between atoms: C4_6  and  O1_7 
REMARK    4  A    between atoms: C4_6  and  C5_9 
REMARK    5  A    between atoms: C5_9  and  O2_10 
REMARK    6  A    between atoms: C5_9  and  C6_12 
REMARK    7  A    between atoms: C6_12  and  C7_13 
REMARK    8  A    between atoms: C6_12  and  C8_16 
REMARK    9  A    between atoms: C6_12  and  C9_20 
REMARK   10  A    between atoms: C9_20  and  C10_23 
REMARK   11  A    between atoms: C10_23  and  C11_26 
REMARK   12  A    between atoms: C11_26  and  C12_28 
REMARK   13  A    between atoms: C12_28  and  O3_31 
ROOT
HETATM    1  C6  UNL     1      56.050  11.378 -23.592  1.00  0.00     0.215 C 
ENDROOT
BRANCH   1   2
HETATM    2  C5  UNL     1      55.343  12.653 -23.692  1.00  0.00     0.176 C 
BRANCH   2   3
HETATM    3  C4  UNL     1      53.868  12.774 -23.648  1.00  0.00     0.156 C 
BRANCH   3   4
HETATM    4  C2  UNL     1      53.535  14.075 -24.433  1.00  0.00     0.062 C 
HETATM    5  C1  UNL     1      53.068  13.639 -25.802  1.00  0.00     0.017 C 
BRANCH   4   6
HETATM    6  C3  UNL     1      52.313  14.664 -23.738  1.00  0.00     0.271 C 
HETATM    7  F1  UNL     1      52.418  16.025 -23.594  1.00  0.00    -0.232 F 
HETATM    8 CL1  UNL     1      50.863  14.310 -24.672  1.00  0.00    -0.089 Cl
ENDBRANCH   4   6
ENDBRANCH   3   4
BRANCH   3   9
HETATM    9  O1  UNL     1      53.374  13.102 -22.363  1.00  0.00    -0.392 OA
ATOM     10  H1  UNL     1      52.649  12.492 -22.287  1.00  0.00     0.210 HD
ENDBRANCH   3   9
ENDBRANCH   2   3
BRANCH   2  11
HETATM   11  O2  UNL     1      55.746  13.683 -22.825  1.00  0.00    -0.391 OA
ATOM     12  H2  UNL     1      56.690  13.678 -22.938  1.00  0.00     0.210 HD
ENDBRANCH   2  11
ENDBRANCH   1   2
BRANCH   1  13
HETATM   13  C7  UNL     1      55.748  10.546 -24.880  1.00  0.00     0.379 C 
HETATM   14  F2  UNL     1      56.108   9.241 -24.791  1.00  0.00    -0.213 F 
HETATM   15  F3  UNL     1      54.423  10.550 -25.205  1.00  0.00    -0.213 F 
ENDBRANCH   1  13
BRANCH   1  16
HETATM   16  C8  UNL     1      55.592  10.427 -22.508  1.00  0.00     0.409 C 
HETATM   17  F4  UNL     1      55.437  11.035 -21.262  1.00  0.00    -0.170 F 
HETATM   18  F5  UNL     1      54.345   9.896 -22.747  1.00  0.00    -0.170 F 
HETATM   19  F6  UNL     1      56.523   9.436 -22.204  1.00  0.00    -0.170 F 
ENDBRANCH   1  16
BRANCH   1  20
HETATM   20  C9  UNL     1      57.540  11.520 -23.663  1.00  0.00     0.338 C 
HETATM   21  F7  UNL     1      58.109  10.271 -23.842  1.00  0.00    -0.198 F 
HETATM   22  F8  UNL     1      57.911  11.733 -22.252  1.00  0.00    -0.198 F 
BRANCH  20  23
HETATM   23  C10 UNL     1      58.281  12.541 -24.341  1.00  0.00     0.361 C 
HETATM   24  F9  UNL     1      58.635  13.607 -23.485  1.00  0.00    -0.192 F 
HETATM   25  F10 UNL     1      57.612  13.257 -25.346  1.00  0.00    -0.192 F 
BRANCH  23  26
HETATM   26  C11 UNL     1      59.594  12.200 -24.998  1.00  0.00     0.182 C 
HETATM   27  F11 UNL     1      59.450  11.240 -25.992  1.00  0.00    -0.205 F 
BRANCH  26  28
HETATM   28  C12 UNL     1      60.790  11.978 -24.177  1.00  0.00     0.106 C 
HETATM   29  C13 UNL     1      61.972  12.873 -24.509  1.00  0.00     0.053 C 
HETATM   30  C14 UNL     1      61.310  10.573 -24.668  1.00  0.00     0.053 C 
BRANCH  28  31
HETATM   31  O3  UNL     1      60.695  11.828 -22.835  1.00  0.00    -0.384 OA
ATOM     32  H3  UNL     1      61.148  12.419 -22.245  1.00  0.00     0.211 HD
ENDBRANCH  28  31
ENDBRANCH  26  28
ENDBRANCH  23  26
ENDBRANCH  20  23
ENDBRANCH   1  20
TORSDOF 13
ENDMDL
MODEL 3
REMARK VINA RESULT: -6.478703500      0.779      1.666
REMARK  13 active torsions:
REMARK  status: ('A' for Active; 'I' for Inactive)
REMARK    1  A    between atoms: C2_2  and  C3_3 
REMARK    2  A    between atoms: C2_2  and  C4_6 
REMARK    3  A    between atoms: C4_6  and  O1_7 
REMARK    4  A    between atoms: C4_6  and  C5_9 
REMARK    5  A    between atoms: C5_9  and  O2_10 
REMARK    6  A    between atoms: C5_9  and  C6_12 
REMARK    7  A    between atoms: C6_12  and  C7_13 
REMARK    8  A    between atoms: C6_12  and  C8_16 
REMARK    9  A    between atoms: C6_12  and  C9_20 
REMARK   10  A    between atoms: C9_20  and  C10_23 
REMARK   11  A    between atoms: C10_23  and  C11_26 
REMARK   12  A    between atoms: C11_26  and  C12_28 
REMARK   13  A    between atoms: C12_28  and  O3_31 
ROOT
HETATM    1  C6  UNL     1      64.229  11.462 -24.001  1.00  0.00     0.215 C 
ENDROOT
BRANCH   1   2
HETATM    2  C5  UNL     1      63.107  12.225 -24.542  1.00  0.00     0.176 C 
BRANCH   2   3
HETATM    3  C4  UNL     1      61.865  12.500 -23.783  1.00  0.00     0.156 C 
BRANCH   3   4
HETATM    4  C2  UNL     1      60.700  12.179 -24.763  1.00  0.00     0.062 C 
HETATM    5  C1  UNL     1      59.985  10.977 -24.195  1.00  0.00     0.017 C 
BRANCH   4   6
HETATM    6  C3  UNL     1      59.731  13.348 -24.635  1.00  0.00     0.271 C 
HETATM    7  F1  UNL     1      59.327  13.810 -25.862  1.00  0.00    -0.232 F 
HETATM    8 CL1  UNL     1      58.308  12.850 -23.727  1.00  0.00    -0.089 Cl
ENDBRANCH   4   6
ENDBRANCH   3   4
BRANCH   3   9
HETATM    9  O1  UNL     1      61.648  13.880 -23.551  1.00  0.00    -0.392 OA
ATOM     10  H1  UNL     1      61.438  13.875 -22.624  1.00  0.00     0.210 HD
ENDBRANCH   3   9
ENDBRANCH   2   3
BRANCH   2  11
HETATM   11  O2  UNL     1      63.392  13.484 -25.099  1.00  0.00    -0.391 OA
ATOM     12  H2  UNL     1      64.327  13.420 -25.261  1.00  0.00     0.210 HD
ENDBRANCH   2  11
ENDBRANCH   1   2
BRANCH   1  13
HETATM   13  C7  UNL     1      63.774  10.802 -22.660  1.00  0.00     0.379 C 
HETATM   14  F2  UNL     1      64.683   9.945 -22.130  1.00  0.00    -0.213 F 
HETATM   15  F3  UNL     1      63.512  11.723 -21.688  1.00  0.00    -0.213 F 
ENDBRANCH   1  13
BRANCH   1  16
HETATM   16  C8  UNL     1      65.438  12.252 -23.549  1.00  0.00     0.409 C 
HETATM   17  F4  UNL     1      65.114  13.446 -22.904  1.00  0.00    -0.170 F 
HETATM   18  F5  UNL     1      66.194  11.591 -22.607  1.00  0.00    -0.170 F 
HETATM   19  F6  UNL     1      66.222  12.724 -24.599  1.00  0.00    -0.170 F 
ENDBRANCH   1  16
BRANCH   1  20
HETATM   20  C9  UNL     1      64.583  10.263 -24.827  1.00  0.00     0.338 C 
HETATM   21  F7  UNL     1      65.877   9.872 -24.532  1.00  0.00    -0.198 F 
HETATM   22  F8  UNL     1      64.825  10.848 -26.158  1.00  0.00    -0.198 F 
BRANCH  20  23
HETATM   23  C10 UNL     1      63.746   9.140 -25.125  1.00  0.00     0.361 C 
HETATM   24  F9  UNL     1      62.451   9.527 -25.535  1.00  0.00    -0.192 F 
HETATM   25  F10 UNL     1      63.412   8.289 -24.058  1.00  0.00    -0.192 F 
BRANCH  23  26
HETATM   26  C11 UNL     1      64.153   8.169 -26.204  1.00  0.00     0.182 C 
HETATM   27  F11 UNL     1      63.061   7.525 -26.770  1.00  0.00    -0.205 F 
BRANCH  26  28
HETATM   28  C12 UNL     1      65.284   7.260 -25.985  1.00  0.00     0.106 C 
HETATM   29  C13 UNL     1      66.557   7.626 -26.730  1.00  0.00     0.053 C 
HETATM   30  C14 UNL     1      64.844   5.946 -26.737  1.00  0.00     0.053 C 
BRANCH  28  31
HETATM   31  O3  UNL     1      65.595   6.823 -24.742  1.00  0.00    -0.384 OA
ATOM     32  H3  UNL     1      65.061   6.168 -24.307  1.00  0.00     0.211 HD
ENDBRANCH  28  31
ENDBRANCH  26  28
ENDBRANCH  23  26
ENDBRANCH  20  23
ENDBRANCH   1  20
TORSDOF 13
ENDMDL
MODEL 4
REMARK VINA RESULT: -6.471155434      1.822      2.190
REMARK  13 active torsions:
REMARK  status: ('A' for Active; 'I' for Inactive)
REMARK    1  A    between atoms: C2_2  and  C3_3 
REMARK    2  A    between atoms: C2_2  and  C4_6 
REMARK    3  A    between atoms: C4_6  and  O1_7 
REMARK    4  A    between atoms: C4_6  and  C5_9 
REMARK    5  A    between atoms: C5_9  and  O2_10 
REMARK    6  A    between atoms: C5_9  and  C6_12 
REMARK    7  A    between atoms: C6_12  and  C7_13 
REMARK    8  A    between atoms: C6_12  and  C8_16 
REMARK    9  A    between atoms: C6_12  and  C9_20 
REMARK   10  A    between atoms: C9_20  and  C10_23 
REMARK   11  A    between atoms: C10_23  and  C11_26 
REMARK   12  A    between atoms: C11_26  and  C12_28 
REMARK   13  A    between atoms: C12_28  and  O3_31 
ROOT
HETATM    1  C6  UNL     1      63.670  11.343 -23.746  1.00  0.00     0.215 C 
ENDROOT
BRANCH   1   2
HETATM    2  C5  UNL     1      62.275  10.956 -23.947  1.00  0.00     0.176 C 
BRANCH   2   3
HETATM    3  C4  UNL     1      61.322  11.739 -24.768  1.00  0.00     0.156 C 
BRANCH   3   4
HETATM    4  C2  UNL     1      60.432  12.507 -23.748  1.00  0.00     0.062 C 
HETATM    5  C1  UNL     1      60.204  13.881 -24.333  1.00  0.00     0.017 C 
BRANCH   4   6
HETATM    6  C3  UNL     1      59.080  11.804 -23.783  1.00  0.00     0.271 C 
HETATM    7  F1  UNL     1      58.705  11.363 -22.539  1.00  0.00    -0.232 F 
HETATM    8 CL1  UNL     1      57.845  12.906 -24.382  1.00  0.00    -0.089 Cl
ENDBRANCH   4   6
ENDBRANCH   3   4
BRANCH   3   9
HETATM    9  O1  UNL     1      60.354  10.935 -25.416  1.00  0.00    -0.392 OA
ATOM     10  H1  UNL     1      60.677  10.951 -26.310  1.00  0.00     0.210 HD
ENDBRANCH   3   9
ENDBRANCH   2   3
BRANCH   2  11
HETATM   11  O2  UNL     1      62.026   9.644 -24.384  1.00  0.00    -0.391 OA
ATOM     12  H2  UNL     1      62.546   9.132 -23.776  1.00  0.00     0.210 HD
ENDBRANCH   2  11
ENDBRANCH   1   2
BRANCH   1  13
HETATM   13  C7  UNL     1      63.915  11.522 -22.214  1.00  0.00     0.379 C 
HETATM   14  F2  UNL     1      64.745  12.549 -21.904  1.00  0.00    -0.213 F 
HETATM   15  F3  UNL     1      62.759  11.750 -21.524  1.00  0.00    -0.213 F 
ENDBRANCH   1  13
BRANCH   1  16
HETATM   16  C8  UNL     1      64.086  12.698 -24.275  1.00  0.00     0.409 C 
HETATM   17  F4  UNL     1      63.806  12.877 -25.630  1.00  0.00    -0.170 F 
HETATM   18  F5  UNL     1      63.410  13.740 -23.683  1.00  0.00    -0.170 F 
HETATM   19  F6  UNL     1      65.464  12.904 -24.261  1.00  0.00    -0.170 F 
ENDBRANCH   1  16
BRANCH   1  20
HETATM   20  C9  UNL     1      64.641  10.253 -24.085  1.00  0.00     0.338 C 
HETATM   21  F7  UNL     1      64.418   9.170 -23.252  1.00  0.00    -0.198 F 
HETATM   22  F8  UNL     1      65.896  10.740 -23.487  1.00  0.00    -0.198 F 
BRANCH  20  23
HETATM   23  C10 UNL     1      65.055   9.838 -25.392  1.00  0.00     0.361 C 
HETATM   24  F9  UNL     1      66.269  10.441 -25.788  1.00  0.00    -0.192 F 
HETATM   25  F10 UNL     1      64.240  10.215 -26.472  1.00  0.00    -0.192 F 
BRANCH  23  26
HETATM   26  C11 UNL     1      65.310   8.378 -25.667  1.00  0.00     0.182 C 
HETATM   27  F11 UNL     1      66.367   8.187 -26.549  1.00  0.00    -0.205 F 
BRANCH  26  28
HETATM   28  C12 UNL     1      64.187   7.475 -25.940  1.00  0.00     0.106 C 
HETATM   29  C13 UNL     1      63.772   6.595 -24.773  1.00  0.00     0.053 C 
HETATM   30  C14 UNL     1      64.805   6.416 -26.930  1.00  0.00     0.053 C 
BRANCH  28  31
HETATM   31  O3  UNL     1      63.085   7.912 -26.594  1.00  0.00    -0.384 OA
ATOM     32  H3  UNL     1      62.343   7.337 -26.739  1.00  0.00     0.211 HD
ENDBRANCH  28  31
ENDBRANCH  26  28
ENDBRANCH  23  26
ENDBRANCH  20  23
ENDBRANCH   1  20
TORSDOF 13
ENDMDL
MODEL 5
REMARK VINA RESULT: -6.456403168      3.094      5.763
REMARK  13 active torsions:
REMARK  status: ('A' for Active; 'I' for Inactive)
REMARK    1  A    between atoms: C2_2  and  C3_3 
REMARK    2  A    between atoms: C2_2  and  C4_6 
REMARK    3  A    between atoms: C4_6  and  O1_7 
REMARK    4  A    between atoms: C4_6  and  C5_9 
REMARK    5  A    between atoms: C5_9  and  O2_10 
REMARK    6  A    between atoms: C5_9  and  C6_12 
REMARK    7  A    between atoms: C6_12  and  C7_13 
REMARK    8  A    between atoms: C6_12  and  C8_16 
REMARK    9  A    between atoms: C6_12  and  C9_20 
REMARK   10  A    between atoms: C9_20  and  C10_23 
REMARK   11  A    between atoms: C10_23  and  C11_26 
REMARK   12  A    between atoms: C11_26  and  C12_28 
REMARK   13  A    between atoms: C12_28  and  O3_31 
ROOT
HETATM    1  C6  UNL     1      64.194  11.987 -22.843  1.00  0.00     0.215 C 
ENDROOT
BRANCH   1   2
HETATM    2  C5  UNL     1      64.362  10.547 -23.030  1.00  0.00     0.176 C 
BRANCH   2   3
HETATM    3  C4  UNL     1      64.599   9.918 -24.349  1.00  0.00     0.156 C 
BRANCH   3   4
HETATM    4  C2  UNL     1      63.596   8.731 -24.429  1.00  0.00     0.062 C 
HETATM    5  C1  UNL     1      62.507   9.157 -25.384  1.00  0.00     0.017 C 
BRANCH   4   6
HETATM    6  C3  UNL     1      64.355   7.608 -25.125  1.00  0.00     0.271 C 
HETATM    7  F1  UNL     1      64.502   6.513 -24.312  1.00  0.00    -0.232 F 
HETATM    8 CL1  UNL     1      63.493   7.113 -26.579  1.00  0.00    -0.089 Cl
ENDBRANCH   4   6
ENDBRANCH   3   4
BRANCH   3   9
HETATM    9  O1  UNL     1      65.835   9.231 -24.425  1.00  0.00    -0.392 OA
ATOM     10  H1  UNL     1      66.230   9.654 -25.179  1.00  0.00     0.210 HD
ENDBRANCH   3   9
ENDBRANCH   2   3
BRANCH   2  11
HETATM   11  O2  UNL     1      65.313   9.899 -22.223  1.00  0.00    -0.391 OA
ATOM     12  H2  UNL     1      64.765   9.498 -21.557  1.00  0.00     0.210 HD
ENDBRANCH   2  11
ENDBRANCH   1   2
BRANCH   1  13
HETATM   13  C7  UNL     1      62.815  12.404 -23.446  1.00  0.00     0.379 C 
HETATM   14  F2  UNL     1      62.827  12.562 -24.794  1.00  0.00    -0.213 F 
HETATM   15  F3  UNL     1      61.833  11.493 -23.182  1.00  0.00    -0.213 F 
ENDBRANCH   1  13
BRANCH   1  16
HETATM   16  C8  UNL     1      65.139  12.889 -23.607  1.00  0.00     0.409 C 
HETATM   17  F4  UNL     1      65.023  12.773 -24.992  1.00  0.00    -0.170 F 
HETATM   18  F5  UNL     1      64.900  14.228 -23.391  1.00  0.00    -0.170 F 
HETATM   19  F6  UNL     1      66.483  12.571 -23.427  1.00  0.00    -0.170 F 
ENDBRANCH   1  16
BRANCH   1  20
HETATM   20  C9  UNL     1      64.032  12.382 -21.407  1.00  0.00     0.338 C 
HETATM   21  F7  UNL     1      63.071  11.578 -20.819  1.00  0.00    -0.198 F 
HETATM   22  F8  UNL     1      63.251  13.629 -21.501  1.00  0.00    -0.198 F 
BRANCH  20  23
HETATM   23  C10 UNL     1      65.069  12.729 -20.482  1.00  0.00     0.361 C 
HETATM   24  F9  UNL     1      65.283  14.124 -20.413  1.00  0.00    -0.192 F 
HETATM   25  F10 UNL     1      66.371  12.305 -20.791  1.00  0.00    -0.192 F 
BRANCH  23  26
HETATM   26  C11 UNL     1      64.935  12.348 -19.030  1.00  0.00     0.182 C 
HETATM   27  F11 UNL     1      65.556  13.261 -18.187  1.00  0.00    -0.205 F 
BRANCH  26  28
HETATM   28  C12 UNL     1      65.161  10.960 -18.612  1.00  0.00     0.106 C 
HETATM   29  C13 UNL     1      63.935  10.242 -18.072  1.00  0.00     0.053 C 
HETATM   30  C14 UNL     1      66.037  11.112 -17.310  1.00  0.00     0.053 C 
BRANCH  28  31
HETATM   31  O3  UNL     1      65.883  10.110 -19.380  1.00  0.00    -0.384 OA
ATOM     32  H3  UNL     1      66.793   9.923 -19.179  1.00  0.00     0.211 HD
ENDBRANCH  28  31
ENDBRANCH  26  28
ENDBRANCH  23  26
ENDBRANCH  20  23
ENDBRANCH   1  20
TORSDOF 13
ENDMDL
