MODEL 1
REMARK VINA RESULT: -6.264189496      0.000      0.000
REMARK  8 active torsions:
REMARK  status: ('A' for Active; 'I' for Inactive)
REMARK    1  A    between atoms: N1_1  and  C1_4 
REMARK    2  A    between atoms: C2_7  and  C3_8 
REMARK    3  A    between atoms: C3_8  and  N3_9 
REMARK    4  A    between atoms: N4_14  and  C7_15 
REMARK    5  A    between atoms: C7_15  and  C8_16 
REMARK    6  A    between atoms: C8_16  and  C9_17 
REMARK    7  A    between atoms: C9_17  and  C10_18 
REMARK    8  A    between atoms: C10_18  and  N5_19 
ROOT
HETATM    1  N3  UNL     1     -81.737 -46.845 110.361  1.00  0.00    -0.369 N 
ATOM      2  H3  UNL     1     -81.154 -47.546 109.905  1.00  0.00     0.161 HD
HETATM    3  C4  UNL     1     -81.572 -45.641 109.983  1.00  0.00     0.103 A 
HETATM    4  C5  UNL     1     -82.263 -44.557 110.476  1.00  0.00     0.065 A 
HETATM    5  C6  UNL     1     -81.991 -43.281 109.979  1.00  0.00     0.095 A 
HETATM    6  N4  UNL     1     -81.075 -43.040 109.027  1.00  0.00    -0.353 N 
HETATM    7  C11 UNL     1     -80.415 -44.151 108.567  1.00  0.00     0.184 A 
HETATM    8  N6  UNL     1     -80.660 -45.383 109.030  1.00  0.00    -0.339 N 
ATOM      9  H6  UNL     1     -80.129 -46.163 108.642  1.00  0.00     0.168 HD
ENDROOT
BRANCH   1  10
HETATM   10  C3  UNL     1     -82.644 -47.321 111.347  1.00  0.00     0.199 C 
BRANCH  10  11
HETATM   11  C2  UNL     1     -83.998 -47.618 110.794  1.00  0.00     0.130 A 
HETATM   12  N2  UNL     1     -85.097 -47.873 111.526  1.00  0.00    -0.177 N 
HETATM   13  C1  UNL     1     -86.146 -48.099 110.709  1.00  0.00     0.691 A 
ATOM     14  H2  UNL     1     -85.131 -47.892 112.545  1.00  0.00     0.185 HD
HETATM   15  N8  UNL     1     -85.697 -47.983 109.447  1.00  0.00    -0.131 N 
HETATM   16  N7  UNL     1     -84.399 -47.693 109.512  1.00  0.00    -0.273 N 
ATOM     17  H8  UNL     1     -86.249 -48.096 108.596  1.00  0.00     0.205 HD
ATOM     18  H7  UNL     1     -83.794 -47.549 108.704  1.00  0.00     0.189 HD
BRANCH  13  19
HETATM   19  N1  UNL     1     -87.353 -48.374 111.078  1.00  0.00    -0.233 N 
ATOM     20  H12 UNL     1     -87.634 -48.897 111.907  1.00  0.00     0.174 HD
ATOM     21  H11 UNL     1     -88.207 -48.105 110.589  1.00  0.00     0.174 HD
ENDBRANCH  13  19
ENDBRANCH  10  11
ENDBRANCH   1  10
BRANCH   6  22
HETATM   22  C7  UNL     1     -80.762 -41.734 108.491  1.00  0.00     0.129 C 
BRANCH  22  23
HETATM   23  C8  UNL     1     -81.871 -41.091 107.752  1.00  0.00     0.022 C 
BRANCH  23  24
HETATM   24  C9  UNL     1     -81.891 -39.623 107.649  1.00  0.00     0.029 C 
BRANCH  24  25
HETATM   25  C10 UNL     1     -82.985 -39.013 106.851  1.00  0.00     0.229 C 
BRANCH  25  26
HETATM   26  N5  UNL     1     -84.187 -39.842 106.821  1.00  0.00    -0.079 N 
ATOM     27  H53 UNL     1     -84.938 -39.379 106.307  1.00  0.00     0.274 HD
ATOM     28  H52 UNL     1     -84.055 -40.657 106.222  1.00  0.00     0.274 HD
ATOM     29  H51 UNL     1     -84.497 -40.118 107.752  1.00  0.00     0.274 HD
ENDBRANCH  25  26
ENDBRANCH  24  25
ENDBRANCH  23  24
ENDBRANCH  22  23
ENDBRANCH   6  22
TORSDOF 8
ENDMDL
MODEL 2
REMARK VINA RESULT: -6.146158315      1.294      7.405
REMARK  8 active torsions:
REMARK  status: ('A' for Active; 'I' for Inactive)
REMARK    1  A    between atoms: N1_1  and  C1_4 
REMARK    2  A    between atoms: C2_7  and  C3_8 
REMARK    3  A    between atoms: C3_8  and  N3_9 
REMARK    4  A    between atoms: N4_14  and  C7_15 
REMARK    5  A    between atoms: C7_15  and  C8_16 
REMARK    6  A    between atoms: C8_16  and  C9_17 
REMARK    7  A    between atoms: C9_17  and  C10_18 
REMARK    8  A    between atoms: C10_18  and  N5_19 
ROOT
HETATM    1  N3  UNL     1     -80.533 -41.739 108.357  1.00  0.00    -0.369 N 
ATOM      2  H3  UNL     1     -79.910 -41.754 107.550  1.00  0.00     0.161 HD
HETATM    3  C4  UNL     1     -80.838 -42.869 108.856  1.00  0.00     0.103 A 
HETATM    4  C5  UNL     1     -81.661 -43.056 109.944  1.00  0.00     0.065 A 
HETATM    5  C6  UNL     1     -81.921 -44.349 110.400  1.00  0.00     0.095 A 
HETATM    6  N4  UNL     1     -81.404 -45.450 109.828  1.00  0.00    -0.353 N 
HETATM    7  C11 UNL     1     -80.591 -45.213 108.750  1.00  0.00     0.184 A 
HETATM    8  N6  UNL     1     -80.329 -43.980 108.297  1.00  0.00    -0.339 N 
ATOM      9  H6  UNL     1     -79.714 -43.880 107.489  1.00  0.00     0.168 HD
ENDROOT
BRANCH   1  10
HETATM   10  C3  UNL     1     -80.964 -40.458 108.799  1.00  0.00     0.199 C 
BRANCH  10  11
HETATM   11  C2  UNL     1     -81.901 -39.800 107.842  1.00  0.00     0.130 A 
HETATM   12  N2  UNL     1     -82.719 -40.444 106.991  1.00  0.00    -0.177 N 
HETATM   13  C1  UNL     1     -83.427 -39.547 106.274  1.00  0.00     0.691 A 
ATOM     14  H2  UNL     1     -82.792 -41.457 106.901  1.00  0.00     0.185 HD
HETATM   15  N8  UNL     1     -83.047 -38.324 106.684  1.00  0.00    -0.131 N 
HETATM   16  N7  UNL     1     -82.125 -38.491 107.630  1.00  0.00    -0.273 N 
ATOM     17  H8  UNL     1     -83.400 -37.433 106.334  1.00  0.00     0.205 HD
ATOM     18  H7  UNL     1     -81.655 -37.733 108.124  1.00  0.00     0.189 HD
BRANCH  13  19
HETATM   19  N1  UNL     1     -84.304 -39.820 105.366  1.00  0.00    -0.233 N 
ATOM     20  H12 UNL     1     -84.346 -40.661 104.790  1.00  0.00     0.174 HD
ATOM     21  H11 UNL     1     -85.089 -39.229 105.091  1.00  0.00     0.174 HD
ENDBRANCH  13  19
ENDBRANCH  10  11
ENDBRANCH   1  10
BRANCH   6  22
HETATM   22  C7  UNL     1     -81.653 -46.805 110.267  1.00  0.00     0.129 C 
BRANCH  22  23
HETATM   23  C8  UNL     1     -82.767 -46.943 111.231  1.00  0.00     0.022 C 
BRANCH  23  24
HETATM   24  C9  UNL     1     -84.013 -47.586 110.782  1.00  0.00     0.029 C 
BRANCH  24  25
HETATM   25  C10 UNL     1     -84.956 -48.047 111.833  1.00  0.00     0.229 C 
BRANCH  25  26
HETATM   26  N5  UNL     1     -86.345 -48.044 111.381  1.00  0.00    -0.079 N 
ATOM     27  H53 UNL     1     -86.477 -47.394 110.606  1.00  0.00     0.274 HD
ATOM     28  H52 UNL     1     -86.579 -48.916 110.908  1.00  0.00     0.274 HD
ATOM     29  H51 UNL     1     -87.003 -47.850 112.137  1.00  0.00     0.274 HD
ENDBRANCH  25  26
ENDBRANCH  24  25
ENDBRANCH  23  24
ENDBRANCH  22  23
ENDBRANCH   6  22
TORSDOF 8
ENDMDL
MODEL 3
REMARK VINA RESULT: -6.084265994      1.016      1.526
REMARK  8 active torsions:
REMARK  status: ('A' for Active; 'I' for Inactive)
REMARK    1  A    between atoms: N1_1  and  C1_4 
REMARK    2  A    between atoms: C2_7  and  C3_8 
REMARK    3  A    between atoms: C3_8  and  N3_9 
REMARK    4  A    between atoms: N4_14  and  C7_15 
REMARK    5  A    between atoms: C7_15  and  C8_16 
REMARK    6  A    between atoms: C8_16  and  C9_17 
REMARK    7  A    between atoms: C9_17  and  C10_18 
REMARK    8  A    between atoms: C10_18  and  N5_19 
ROOT
HETATM    1  N3  UNL     1     -81.375 -46.456 110.666  1.00  0.00    -0.369 N 
ATOM      2  H3  UNL     1     -80.518 -47.007 110.620  1.00  0.00     0.161 HD
HETATM    3  C4  UNL     1     -81.324 -45.289 110.161  1.00  0.00     0.103 A 
HETATM    4  C5  UNL     1     -82.373 -44.397 110.125  1.00  0.00     0.065 A 
HETATM    5  C6  UNL     1     -82.193 -43.142 109.541  1.00  0.00     0.095 A 
HETATM    6  N4  UNL     1     -81.031 -42.742 108.999  1.00  0.00    -0.353 N 
HETATM    7  C11 UNL     1     -80.018 -43.663 109.059  1.00  0.00     0.184 A 
HETATM    8  N6  UNL     1     -80.169 -44.873 109.615  1.00  0.00    -0.339 N 
ATOM      9  H6  UNL     1     -79.370 -45.507 109.624  1.00  0.00     0.168 HD
ENDROOT
BRANCH   1  10
HETATM   10  C3  UNL     1     -82.494 -47.077 111.287  1.00  0.00     0.199 C 
BRANCH  10  11
HETATM   11  C2  UNL     1     -83.562 -47.452 110.314  1.00  0.00     0.130 A 
HETATM   12  N2  UNL     1     -83.389 -47.594 108.989  1.00  0.00    -0.177 N 
HETATM   13  C1  UNL     1     -84.559 -47.938 108.411  1.00  0.00     0.691 A 
ATOM     14  H2  UNL     1     -82.506 -47.463 108.495  1.00  0.00     0.185 HD
HETATM   15  N8  UNL     1     -85.477 -48.011 109.391  1.00  0.00    -0.131 N 
HETATM   16  N7  UNL     1     -84.863 -47.715 110.534  1.00  0.00    -0.273 N 
ATOM     17  H8  UNL     1     -86.463 -48.249 109.278  1.00  0.00     0.205 HD
ATOM     18  H7  UNL     1     -85.315 -47.690 111.448  1.00  0.00     0.189 HD
BRANCH  13  19
HETATM   19  N1  UNL     1     -84.752 -48.154 107.152  1.00  0.00    -0.233 N 
ATOM     20  H12 UNL     1     -84.037 -48.313 106.443  1.00  0.00     0.174 HD
ATOM     21  H11 UNL     1     -85.656 -48.197 106.681  1.00  0.00     0.174 HD
ENDBRANCH  13  19
ENDBRANCH  10  11
ENDBRANCH   1  10
BRANCH   6  22
HETATM   22  C7  UNL     1     -80.803 -41.450 108.391  1.00  0.00     0.129 C 
BRANCH  22  23
HETATM   23  C8  UNL     1     -81.986 -40.872 107.715  1.00  0.00     0.022 C 
BRANCH  23  24
HETATM   24  C9  UNL     1     -82.003 -39.427 107.436  1.00  0.00     0.029 C 
BRANCH  24  25
HETATM   25  C10 UNL     1     -83.246 -38.862 106.853  1.00  0.00     0.229 C 
BRANCH  25  26
HETATM   26  N5  UNL     1     -84.335 -39.834 106.803  1.00  0.00    -0.079 N 
ATOM     27  H53 UNL     1     -85.184 -39.415 106.424  1.00  0.00     0.274 HD
ATOM     28  H52 UNL     1     -84.165 -40.539 106.086  1.00  0.00     0.274 HD
ATOM     29  H51 UNL     1     -84.515 -40.269 107.709  1.00  0.00     0.274 HD
ENDBRANCH  25  26
ENDBRANCH  24  25
ENDBRANCH  23  24
ENDBRANCH  22  23
ENDBRANCH   6  22
TORSDOF 8
ENDMDL
MODEL 4
REMARK VINA RESULT: -5.852726415      1.672      7.580
REMARK  8 active torsions:
REMARK  status: ('A' for Active; 'I' for Inactive)
REMARK    1  A    between atoms: N1_1  and  C1_4 
REMARK    2  A    between atoms: C2_7  and  C3_8 
REMARK    3  A    between atoms: C3_8  and  N3_9 
REMARK    4  A    between atoms: N4_14  and  C7_15 
REMARK    5  A    between atoms: C7_15  and  C8_16 
REMARK    6  A    between atoms: C8_16  and  C9_17 
REMARK    7  A    between atoms: C9_17  and  C10_18 
REMARK    8  A    between atoms: C10_18  and  N5_19 
ROOT
HETATM    1  N3  UNL     1     -81.857 -43.187 108.780  1.00  0.00    -0.369 N 
ATOM      2  H3  UNL     1     -82.618 -43.019 108.123  1.00  0.00     0.161 HD
HETATM    3  C4  UNL     1     -81.960 -44.225 109.510  1.00  0.00     0.103 A 
HETATM    4  C5  UNL     1     -81.039 -44.621 110.453  1.00  0.00     0.065 A 
HETATM    5  C6  UNL     1     -81.265 -45.783 111.194  1.00  0.00     0.095 A 
HETATM    6  N4  UNL     1     -82.353 -46.555 111.039  1.00  0.00    -0.353 N 
HETATM    7  C11 UNL     1     -83.240 -46.119 110.089  1.00  0.00     0.184 A 
HETATM    8  N6  UNL     1     -83.043 -45.008 109.368  1.00  0.00    -0.339 N 
ATOM      9  H6  UNL     1     -83.747 -44.744 108.679  1.00  0.00     0.168 HD
ENDROOT
BRANCH   1  10
HETATM   10  C3  UNL     1     -80.798 -42.238 108.778  1.00  0.00     0.199 C 
BRANCH  10  11
HETATM   11  C2  UNL     1     -81.225 -40.896 108.283  1.00  0.00     0.130 A 
HETATM   12  N2  UNL     1     -82.269 -40.665 107.469  1.00  0.00    -0.177 N 
HETATM   13  C1  UNL     1     -82.370 -39.343 107.221  1.00  0.00     0.691 A 
ATOM     14  H2  UNL     1     -82.891 -41.382 107.095  1.00  0.00     0.185 HD
HETATM   15  N8  UNL     1     -81.374 -38.738 107.891  1.00  0.00    -0.131 N 
HETATM   16  N7  UNL     1     -80.690 -39.686 108.527  1.00  0.00    -0.273 N 
ATOM     17  H8  UNL     1     -81.178 -37.736 107.909  1.00  0.00     0.205 HD
ATOM     18  H7  UNL     1     -79.875 -39.519 109.117  1.00  0.00     0.189 HD
BRANCH  13  19
HETATM   19  N1  UNL     1     -83.261 -38.773 106.478  1.00  0.00    -0.233 N 
ATOM     20  H12 UNL     1     -83.172 -37.880 105.995  1.00  0.00     0.174 HD
ATOM     21  H11 UNL     1     -84.190 -39.139 106.267  1.00  0.00     0.174 HD
ENDBRANCH  13  19
ENDBRANCH  10  11
ENDBRANCH   1  10
BRANCH   6  22
HETATM   22  C7  UNL     1     -82.626 -47.760 111.790  1.00  0.00     0.129 C 
BRANCH  22  23
HETATM   23  C8  UNL     1     -83.819 -47.684 112.661  1.00  0.00     0.022 C 
BRANCH  23  24
HETATM   24  C9  UNL     1     -85.013 -48.464 112.292  1.00  0.00     0.029 C 
BRANCH  24  25
HETATM   25  C10 UNL     1     -85.729 -48.064 111.054  1.00  0.00     0.229 C 
BRANCH  25  26
HETATM   26  N5  UNL     1     -87.180 -48.133 111.197  1.00  0.00    -0.079 N 
ATOM     27  H53 UNL     1     -87.593 -48.716 110.468  1.00  0.00     0.274 HD
ATOM     28  H52 UNL     1     -87.442 -48.683 112.016  1.00  0.00     0.274 HD
ATOM     29  H51 UNL     1     -87.617 -47.212 111.220  1.00  0.00     0.274 HD
ENDBRANCH  25  26
ENDBRANCH  24  25
ENDBRANCH  23  24
ENDBRANCH  22  23
ENDBRANCH   6  22
TORSDOF 8
ENDMDL
MODEL 5
REMARK VINA RESULT: -5.640981258      2.244      8.104
REMARK  8 active torsions:
REMARK  status: ('A' for Active; 'I' for Inactive)
REMARK    1  A    between atoms: N1_1  and  C1_4 
REMARK    2  A    between atoms: C2_7  and  C3_8 
REMARK    3  A    between atoms: C3_8  and  N3_9 
REMARK    4  A    between atoms: N4_14  and  C7_15 
REMARK    5  A    between atoms: C7_15  and  C8_16 
REMARK    6  A    between atoms: C8_16  and  C9_17 
REMARK    7  A    between atoms: C9_17  and  C10_18 
REMARK    8  A    between atoms: C10_18  and  N5_19 
ROOT
HETATM    1  N3  UNL     1     -81.919 -43.194 108.876  1.00  0.00    -0.369 N 
ATOM      2  H3  UNL     1     -82.772 -42.977 108.362  1.00  0.00     0.161 HD
HETATM    3  C4  UNL     1     -81.939 -44.251 109.585  1.00  0.00     0.103 A 
HETATM    4  C5  UNL     1     -80.889 -44.711 110.347  1.00  0.00     0.065 A 
HETATM    5  C6  UNL     1     -81.033 -45.887 111.084  1.00  0.00     0.095 A 
HETATM    6  N4  UNL     1     -82.162 -46.616 111.094  1.00  0.00    -0.353 N 
HETATM    7  C11 UNL     1     -83.178 -46.118 110.320  1.00  0.00     0.184 A 
HETATM    8  N6  UNL     1     -83.060 -44.991 109.606  1.00  0.00    -0.339 N 
ATOM      9  H6  UNL     1     -83.859 -44.681 109.053  1.00  0.00     0.168 HD
ENDROOT
BRANCH   1  10
HETATM   10  C3  UNL     1     -80.838 -42.282 108.721  1.00  0.00     0.199 C 
BRANCH  10  11
HETATM   11  C2  UNL     1     -81.276 -40.946 108.220  1.00  0.00     0.130 A 
HETATM   12  N2  UNL     1     -82.351 -40.722 107.445  1.00  0.00    -0.177 N 
HETATM   13  C1  UNL     1     -82.453 -39.403 107.178  1.00  0.00     0.691 A 
ATOM     14  H2  UNL     1     -82.992 -41.440 107.109  1.00  0.00     0.185 HD
HETATM   15  N8  UNL     1     -81.427 -38.794 107.797  1.00  0.00    -0.131 N 
HETATM   16  N7  UNL     1     -80.724 -39.736 108.421  1.00  0.00    -0.273 N 
ATOM     17  H8  UNL     1     -81.224 -37.793 107.789  1.00  0.00     0.205 HD
ATOM     18  H7  UNL     1     -79.884 -39.565 108.975  1.00  0.00     0.189 HD
BRANCH  13  19
HETATM   19  N1  UNL     1     -83.369 -38.840 106.462  1.00  0.00    -0.233 N 
ATOM     20  H12 UNL     1     -84.145 -38.271 106.800  1.00  0.00     0.174 HD
ATOM     21  H11 UNL     1     -83.450 -38.885 105.446  1.00  0.00     0.174 HD
ENDBRANCH  13  19
ENDBRANCH  10  11
ENDBRANCH   1  10
BRANCH   6  22
HETATM   22  C7  UNL     1     -82.353 -47.836 111.848  1.00  0.00     0.129 C 
BRANCH  22  23
HETATM   23  C8  UNL     1     -83.718 -48.016 112.389  1.00  0.00     0.022 C 
BRANCH  23  24
HETATM   24  C9  UNL     1     -83.930 -49.016 113.449  1.00  0.00     0.029 C 
BRANCH  24  25
HETATM   25  C10 UNL     1     -82.739 -49.768 113.920  1.00  0.00     0.229 C 
BRANCH  25  26
HETATM   26  N5  UNL     1     -82.884 -50.248 115.292  1.00  0.00    -0.079 N 
ATOM     27  H53 UNL     1     -83.088 -51.248 115.310  1.00  0.00     0.274 HD
ATOM     28  H52 UNL     1     -81.986 -50.254 115.775  1.00  0.00     0.274 HD
ATOM     29  H51 UNL     1     -83.581 -49.722 115.820  1.00  0.00     0.274 HD
ENDBRANCH  25  26
ENDBRANCH  24  25
ENDBRANCH  23  24
ENDBRANCH  22  23
ENDBRANCH   6  22
TORSDOF 8
ENDMDL
