MODEL 1
REMARK VINA RESULT: -5.809207422      0.000      0.000
REMARK  9 active torsions:
REMARK  status: ('A' for Active; 'I' for Inactive)
REMARK    1  A    between atoms: N1_2  and  C4_5 
REMARK    2  A    between atoms: C4_5  and  C5_6 
REMARK    3  A    between atoms: C5_6  and  O1_7 
REMARK    4  A    between atoms: O1_7  and  C6_8 
REMARK    5  A    between atoms: C8_10  and  N2_11 
REMARK    6  A    between atoms: C9_14  and  N3_15 
REMARK    7  A    between atoms: N3_15  and  C10_17 
REMARK    8  A    between atoms: C10_17  and  C11_18 
REMARK    9  A    between atoms: C11_18  and  O2_19 
ROOT
HETATM    1  C6  UNL     1     -82.682 -46.577 111.011  1.00  0.00     0.159 A 
HETATM    2  C7  UNL     1     -83.188 -45.488 110.338  1.00  0.00     0.090 A 
HETATM    3  C8  UNL     1     -82.284 -44.504 109.896  1.00  0.00     0.075 A 
HETATM    4  C9  UNL     1     -80.940 -44.621 110.125  1.00  0.00     0.146 A 
HETATM    5  N4  UNL     1     -80.516 -45.722 110.796  1.00  0.00    -0.282 N 
ATOM      6  H4  UNL     1     -79.520 -45.838 110.983  1.00  0.00     0.188 HD
HETATM    7  N5  UNL     1     -81.365 -46.649 111.213  1.00  0.00    -0.278 N 
ATOM      8  H5  UNL     1     -80.994 -47.458 111.712  1.00  0.00     0.189 HD
ENDROOT
BRANCH   1   9
HETATM    9  O1  UNL     1     -83.575 -47.541 111.443  1.00  0.00    -0.333 OA
BRANCH   9  10
HETATM   10  C5  UNL     1     -84.692 -47.956 110.698  1.00  0.00     0.205 C 
BRANCH  10  11
HETATM   11  C4  UNL     1     -85.802 -48.288 111.646  1.00  0.00     0.262 C 
BRANCH  11  12
HETATM   12  N1  UNL     1     -87.051 -48.591 110.982  1.00  0.00    -0.077 N 
HETATM   13  C1  UNL     1     -86.962 -48.061 109.626  1.00  0.00     0.271 C 
HETATM   14  C2  UNL     1     -88.111 -47.909 111.685  1.00  0.00     0.271 C 
HETATM   15  C3  UNL     1     -87.277 -50.011 110.955  1.00  0.00     0.271 C 
ENDBRANCH  11  12
ENDBRANCH  10  11
ENDBRANCH   9  10
ENDBRANCH   1   9
BRANCH   3  16
HETATM   16  N2  UNL     1     -82.714 -43.478 109.267  1.00  0.00    -0.396 N 
ATOM     17  H22 UNL     1     -82.423 -43.337 108.300  1.00  0.00     0.156 HD
ATOM     18  H21 UNL     1     -83.338 -42.819 109.734  1.00  0.00     0.156 HD
ENDBRANCH   3  16
BRANCH   4  19
HETATM   19  N3  UNL     1     -80.101 -43.778 109.755  1.00  0.00    -0.351 N 
ATOM     20  H3  UNL     1     -79.815 -43.145 110.502  1.00  0.00     0.166 HD
BRANCH  19  21
HETATM   21  C10 UNL     1     -79.461 -43.508 108.530  1.00  0.00     0.088 C 
BRANCH  21  22
HETATM   22  C11 UNL     1     -78.158 -44.273 108.382  1.00  0.00     0.208 C 
BRANCH  22  23
HETATM   23  O2  UNL     1     -77.862 -44.282 107.013  1.00  0.00    -0.396 OA
ATOM     24  H2  UNL     1     -76.917 -44.357 106.946  1.00  0.00     0.209 HD
ENDBRANCH  22  23
ENDBRANCH  21  22
ENDBRANCH  19  21
ENDBRANCH   4  19
TORSDOF 9
ENDMDL
MODEL 2
REMARK VINA RESULT: -5.566548133      2.105      7.286
REMARK  9 active torsions:
REMARK  status: ('A' for Active; 'I' for Inactive)
REMARK    1  A    between atoms: N1_2  and  C4_5 
REMARK    2  A    between atoms: C4_5  and  C5_6 
REMARK    3  A    between atoms: C5_6  and  O1_7 
REMARK    4  A    between atoms: O1_7  and  C6_8 
REMARK    5  A    between atoms: C8_10  and  N2_11 
REMARK    6  A    between atoms: C9_14  and  N3_15 
REMARK    7  A    between atoms: N3_15  and  C10_17 
REMARK    8  A    between atoms: C10_17  and  C11_18 
REMARK    9  A    between atoms: C11_18  and  O2_19 
ROOT
HETATM    1  C6  UNL     1     -82.208 -46.001 110.909  1.00  0.00     0.159 A 
HETATM    2  C7  UNL     1     -82.654 -46.860 111.889  1.00  0.00     0.090 A 
HETATM    3  C8  UNL     1     -83.764 -47.674 111.599  1.00  0.00     0.075 A 
HETATM    4  C9  UNL     1     -84.386 -47.620 110.382  1.00  0.00     0.146 A 
HETATM    5  N4  UNL     1     -83.890 -46.749 109.467  1.00  0.00    -0.282 N 
ATOM      6  H4  UNL     1     -84.332 -46.685 108.550  1.00  0.00     0.188 HD
HETATM    7  N5  UNL     1     -82.845 -45.981 109.736  1.00  0.00    -0.278 N 
ATOM      8  H5  UNL     1     -82.511 -45.343 109.013  1.00  0.00     0.189 HD
ENDROOT
BRANCH   1   9
HETATM    9  O1  UNL     1     -81.116 -45.202 111.199  1.00  0.00    -0.333 OA
BRANCH   9  10
HETATM   10  C5  UNL     1     -80.719 -44.110 110.407  1.00  0.00     0.205 C 
BRANCH  10  11
HETATM   11  C4  UNL     1     -79.386 -44.419 109.803  1.00  0.00     0.262 C 
BRANCH  11  12
HETATM   12  N1  UNL     1     -79.372 -44.313 108.360  1.00  0.00    -0.077 N 
HETATM   13  C1  UNL     1     -80.403 -43.352 107.986  1.00  0.00     0.271 C 
HETATM   14  C2  UNL     1     -79.710 -45.604 107.811  1.00  0.00     0.271 C 
HETATM   15  C3  UNL     1     -78.082 -43.875 107.899  1.00  0.00     0.271 C 
ENDBRANCH  11  12
ENDBRANCH  10  11
ENDBRANCH   9  10
ENDBRANCH   1   9
BRANCH   3  16
HETATM   16  N2  UNL     1     -84.209 -48.485 112.482  1.00  0.00    -0.396 N 
ATOM     17  H22 UNL     1     -83.855 -48.414 113.436  1.00  0.00     0.156 HD
ATOM     18  H21 UNL     1     -84.904 -49.186 112.226  1.00  0.00     0.156 HD
ENDBRANCH   3  16
BRANCH   4  19
HETATM   19  N3  UNL     1     -85.371 -48.321 110.079  1.00  0.00    -0.351 N 
ATOM     20  H3  UNL     1     -85.111 -49.221 109.677  1.00  0.00     0.166 HD
BRANCH  19  21
HETATM   21  C10 UNL     1     -86.765 -48.140 110.170  1.00  0.00     0.088 C 
BRANCH  21  22
HETATM   22  C11 UNL     1     -87.427 -49.204 111.027  1.00  0.00     0.208 C 
BRANCH  22  23
HETATM   23  O2  UNL     1     -87.339 -50.400 110.305  1.00  0.00    -0.396 OA
ATOM     24  H2  UNL     1     -87.361 -51.100 110.946  1.00  0.00     0.209 HD
ENDBRANCH  22  23
ENDBRANCH  21  22
ENDBRANCH  19  21
ENDBRANCH   4  19
TORSDOF 9
ENDMDL
MODEL 3
REMARK VINA RESULT: -5.523466121      2.146      7.419
REMARK  9 active torsions:
REMARK  status: ('A' for Active; 'I' for Inactive)
REMARK    1  A    between atoms: N1_2  and  C4_5 
REMARK    2  A    between atoms: C4_5  and  C5_6 
REMARK    3  A    between atoms: C5_6  and  O1_7 
REMARK    4  A    between atoms: O1_7  and  C6_8 
REMARK    5  A    between atoms: C8_10  and  N2_11 
REMARK    6  A    between atoms: C9_14  and  N3_15 
REMARK    7  A    between atoms: N3_15  and  C10_17 
REMARK    8  A    between atoms: C10_17  and  C11_18 
REMARK    9  A    between atoms: C11_18  and  O2_19 
ROOT
HETATM    1  C6  UNL     1     -82.305 -47.013 110.321  1.00  0.00     0.159 A 
HETATM    2  C7  UNL     1     -82.531 -47.627 111.532  1.00  0.00     0.090 A 
HETATM    3  C8  UNL     1     -83.853 -47.982 111.858  1.00  0.00     0.075 A 
HETATM    4  C9  UNL     1     -84.888 -47.728 111.000  1.00  0.00     0.146 A 
HETATM    5  N4  UNL     1     -84.588 -47.119 109.825  1.00  0.00    -0.282 N 
ATOM      6  H4  UNL     1     -85.338 -46.915 109.164  1.00  0.00     0.188 HD
HETATM    7  N5  UNL     1     -83.344 -46.784 109.515  1.00  0.00    -0.278 N 
ATOM      8  H5  UNL     1     -83.172 -46.329 108.618  1.00  0.00     0.189 HD
ENDROOT
BRANCH   1   9
HETATM    9  O1  UNL     1     -81.003 -46.666 110.006  1.00  0.00    -0.333 OA
BRANCH   9  10
HETATM   10  C5  UNL     1     -80.337 -45.561 110.564  1.00  0.00     0.205 C 
BRANCH  10  11
HETATM   11  C4  UNL     1     -80.721 -44.335 109.797  1.00  0.00     0.262 C 
BRANCH  11  12
HETATM   12  N1  UNL     1     -79.793 -44.009 108.736  1.00  0.00    -0.077 N 
HETATM   13  C1  UNL     1     -80.253 -42.768 108.123  1.00  0.00     0.271 C 
HETATM   14  C2  UNL     1     -79.844 -45.065 107.754  1.00  0.00     0.271 C 
HETATM   15  C3  UNL     1     -78.462 -43.852 109.260  1.00  0.00     0.271 C 
ENDBRANCH  11  12
ENDBRANCH  10  11
ENDBRANCH   9  10
ENDBRANCH   1   9
BRANCH   3  16
HETATM   16  N2  UNL     1     -84.104 -48.554 112.973  1.00  0.00    -0.396 N 
ATOM     17  H22 UNL     1     -84.068 -49.572 113.022  1.00  0.00     0.156 HD
ATOM     18  H21 UNL     1     -84.335 -47.992 113.793  1.00  0.00     0.156 HD
ENDBRANCH   3  16
BRANCH   4  19
HETATM   19  N3  UNL     1     -86.074 -48.023 111.243  1.00  0.00    -0.351 N 
ATOM     20  H3  UNL     1     -86.383 -47.708 112.163  1.00  0.00     0.166 HD
BRANCH  19  21
HETATM   21  C10 UNL     1     -87.081 -48.695 110.525  1.00  0.00     0.088 C 
BRANCH  21  22
HETATM   22  C11 UNL     1     -87.735 -49.794 111.343  1.00  0.00     0.208 C 
BRANCH  22  23
HETATM   23  O2  UNL     1     -87.585 -50.975 110.605  1.00  0.00    -0.396 OA
ATOM     24  H2  UNL     1     -88.365 -51.053 110.067  1.00  0.00     0.209 HD
ENDBRANCH  22  23
ENDBRANCH  21  22
ENDBRANCH  19  21
ENDBRANCH   4  19
TORSDOF 9
ENDMDL
MODEL 4
REMARK VINA RESULT: -5.246878847      2.130      7.209
REMARK  9 active torsions:
REMARK  status: ('A' for Active; 'I' for Inactive)
REMARK    1  A    between atoms: N1_2  and  C4_5 
REMARK    2  A    between atoms: C4_5  and  C5_6 
REMARK    3  A    between atoms: C5_6  and  O1_7 
REMARK    4  A    between atoms: O1_7  and  C6_8 
REMARK    5  A    between atoms: C8_10  and  N2_11 
REMARK    6  A    between atoms: C9_14  and  N3_15 
REMARK    7  A    between atoms: N3_15  and  C10_17 
REMARK    8  A    between atoms: C10_17  and  C11_18 
REMARK    9  A    between atoms: C11_18  and  O2_19 
ROOT
HETATM    1  C6  UNL     1     -82.348 -46.934 111.026  1.00  0.00     0.159 A 
HETATM    2  C7  UNL     1     -82.698 -47.018 109.697  1.00  0.00     0.090 A 
HETATM    3  C8  UNL     1     -83.985 -47.491 109.381  1.00  0.00     0.075 A 
HETATM    4  C9  UNL     1     -84.868 -47.857 110.360  1.00  0.00     0.146 A 
HETATM    5  N4  UNL     1     -84.450 -47.747 111.647  1.00  0.00    -0.282 N 
ATOM      6  H4  UNL     1     -85.084 -48.013 112.400  1.00  0.00     0.188 HD
HETATM    7  N5  UNL     1     -83.239 -47.303 111.948  1.00  0.00    -0.278 N 
ATOM      8  H5  UNL     1     -82.975 -47.239 112.932  1.00  0.00     0.189 HD
ENDROOT
BRANCH   1   9
HETATM    9  O1  UNL     1     -81.080 -46.469 111.331  1.00  0.00    -0.333 OA
BRANCH   9  10
HETATM   10  C5  UNL     1     -80.129 -46.111 110.360  1.00  0.00     0.205 C 
BRANCH  10  11
HETATM   11  C4  UNL     1     -80.229 -44.638 110.115  1.00  0.00     0.262 C 
BRANCH  11  12
HETATM   12  N1  UNL     1     -79.679 -44.230 108.841  1.00  0.00    -0.077 N 
HETATM   13  C1  UNL     1     -80.488 -43.118 108.355  1.00  0.00     0.271 C 
HETATM   14  C2  UNL     1     -79.800 -45.337 107.924  1.00  0.00     0.271 C 
HETATM   15  C3  UNL     1     -78.306 -43.828 108.991  1.00  0.00     0.271 C 
ENDBRANCH  11  12
ENDBRANCH  10  11
ENDBRANCH   9  10
ENDBRANCH   1   9
BRANCH   3  16
HETATM   16  N2  UNL     1     -84.349 -47.583 108.159  1.00  0.00    -0.396 N 
ATOM     17  H22 UNL     1     -83.862 -48.240 107.550  1.00  0.00     0.156 HD
ATOM     18  H21 UNL     1     -85.115 -47.006 107.811  1.00  0.00     0.156 HD
ENDBRANCH   3  16
BRANCH   4  19
HETATM   19  N3  UNL     1     -86.017 -48.281 110.131  1.00  0.00    -0.351 N 
ATOM     20  H3  UNL     1     -86.127 -48.638 109.182  1.00  0.00     0.166 HD
BRANCH  19  21
HETATM   21  C10 UNL     1     -87.195 -48.375 110.896  1.00  0.00     0.088 C 
BRANCH  21  22
HETATM   22  C11 UNL     1     -87.475 -49.797 111.348  1.00  0.00     0.208 C 
BRANCH  22  23
HETATM   23  O2  UNL     1     -87.414 -50.593 110.198  1.00  0.00    -0.396 OA
ATOM     24  H2  UNL     1     -87.078 -51.438 110.476  1.00  0.00     0.209 HD
ENDBRANCH  22  23
ENDBRANCH  21  22
ENDBRANCH  19  21
ENDBRANCH   4  19
TORSDOF 9
ENDMDL
MODEL 5
REMARK VINA RESULT: -5.071432350      1.455      1.823
REMARK  9 active torsions:
REMARK  status: ('A' for Active; 'I' for Inactive)
REMARK    1  A    between atoms: N1_2  and  C4_5 
REMARK    2  A    between atoms: C4_5  and  C5_6 
REMARK    3  A    between atoms: C5_6  and  O1_7 
REMARK    4  A    between atoms: O1_7  and  C6_8 
REMARK    5  A    between atoms: C8_10  and  N2_11 
REMARK    6  A    between atoms: C9_14  and  N3_15 
REMARK    7  A    between atoms: N3_15  and  C10_17 
REMARK    8  A    between atoms: C10_17  and  C11_18 
REMARK    9  A    between atoms: C11_18  and  O2_19 
ROOT
HETATM    1  C6  UNL     1     -82.965 -47.358 111.708  1.00  0.00     0.159 A 
HETATM    2  C7  UNL     1     -82.690 -47.948 110.495  1.00  0.00     0.090 A 
HETATM    3  C8  UNL     1     -81.858 -47.256 109.596  1.00  0.00     0.075 A 
HETATM    4  C9  UNL     1     -81.333 -46.033 109.912  1.00  0.00     0.146 A 
HETATM    5  N4  UNL     1     -81.649 -45.515 111.126  1.00  0.00    -0.282 N 
ATOM      6  H4  UNL     1     -81.274 -44.604 111.392  1.00  0.00     0.188 HD
HETATM    7  N5  UNL     1     -82.433 -46.164 111.974  1.00  0.00    -0.278 N 
ATOM      8  H5  UNL     1     -82.639 -45.730 112.875  1.00  0.00     0.189 HD
ENDROOT
BRANCH   1   9
HETATM    9  O1  UNL     1     -83.785 -48.043 112.588  1.00  0.00    -0.333 OA
BRANCH   9  10
HETATM   10  C5  UNL     1     -85.102 -48.429 112.283  1.00  0.00     0.205 C 
BRANCH  10  11
HETATM   11  C4  UNL     1     -85.598 -47.580 111.155  1.00  0.00     0.262 C 
BRANCH  11  12
HETATM   12  N1  UNL     1     -86.629 -48.219 110.368  1.00  0.00    -0.077 N 
HETATM   13  C1  UNL     1     -86.090 -48.423 109.028  1.00  0.00     0.271 C 
HETATM   14  C2  UNL     1     -87.757 -47.323 110.289  1.00  0.00     0.271 C 
HETATM   15  C3  UNL     1     -87.007 -49.477 110.957  1.00  0.00     0.271 C 
ENDBRANCH  11  12
ENDBRANCH  10  11
ENDBRANCH   9  10
ENDBRANCH   1   9
BRANCH   3  16
HETATM   16  N2  UNL     1     -81.578 -47.771 108.459  1.00  0.00    -0.396 N 
ATOM     17  H22 UNL     1     -81.717 -48.772 108.326  1.00  0.00     0.156 HD
ATOM     18  H21 UNL     1     -81.224 -47.180 107.707  1.00  0.00     0.156 HD
ENDBRANCH   3  16
BRANCH   4  19
HETATM   19  N3  UNL     1     -80.592 -45.382 109.151  1.00  0.00    -0.351 N 
ATOM     20  H3  UNL     1     -80.649 -45.690 108.180  1.00  0.00     0.166 HD
BRANCH  19  21
HETATM   21  C10 UNL     1     -79.692 -44.315 109.339  1.00  0.00     0.088 C 
BRANCH  21  22
HETATM   22  C11 UNL     1     -78.681 -44.211 108.211  1.00  0.00     0.208 C 
BRANCH  22  23
HETATM   23  O2  UNL     1     -77.666 -43.363 108.673  1.00  0.00    -0.396 OA
ATOM     24  H2  UNL     1     -78.041 -42.863 109.388  1.00  0.00     0.209 HD
ENDBRANCH  22  23
ENDBRANCH  21  22
ENDBRANCH  19  21
ENDBRANCH   4  19
TORSDOF 9
ENDMDL
