MODEL 1
REMARK VINA RESULT: -6.732720515      0.000      0.000
REMARK  8 active torsions:
REMARK  status: ('A' for Active; 'I' for Inactive)
REMARK    1  A    between atoms: N1_2  and  C3_4 
REMARK    2  A    between atoms: N1_2  and  C6_9 
REMARK    3  A    between atoms: C3_4  and  C4_5 
REMARK    4  A    between atoms: C4_5  and  C5_6 
REMARK    5  A    between atoms: C5_6  and  O1_7 
REMARK    6  A    between atoms: C6_9  and  N2_10 
REMARK    7  A    between atoms: N3_12  and  C7_14 
REMARK    8  A    between atoms: C10_22  and  N7_23 
ROOT
HETATM    1  N2  UNL     1     -81.732 -46.977 109.129  1.00  0.00    -0.289 N 
ATOM      2  H2  UNL     1     -80.778 -47.102 108.788  1.00  0.00     0.187 HD
HETATM    3  N3  UNL     1     -82.403 -48.022 109.373  1.00  0.00    -0.295 N 
ATOM      4  H3  UNL     1     -81.952 -48.922 109.214  1.00  0.00     0.187 HD
ENDROOT
BRANCH   3   5
HETATM    5  C7  UNL     1     -83.732 -48.028 109.851  1.00  0.00     0.107 A 
HETATM    6  C8  UNL     1     -84.004 -48.025 111.202  1.00  0.00     0.125 A 
HETATM    7  N4  UNL     1     -85.290 -48.031 111.602  1.00  0.00    -0.338 N 
HETATM    8  C9  UNL     1     -86.305 -48.039 110.711  1.00  0.00     0.193 A 
ATOM      9  H4  UNL     1     -85.502 -48.029 112.600  1.00  0.00     0.168 HD
HETATM   10  N5  UNL     1     -87.645 -48.045 111.184  1.00  0.00    -0.063 NA
HETATM   11  N6  UNL     1     -86.018 -48.043 109.399  1.00  0.00    -0.315 N 
HETATM   12  C10 UNL     1     -84.753 -48.037 108.932  1.00  0.00     0.131 A 
ATOM     13  H6  UNL     1     -86.787 -48.049 108.729  1.00  0.00     0.170 HD
BRANCH  12  14
HETATM   14  N7  UNL     1     -84.525 -48.041 107.641  1.00  0.00    -0.383 N 
ATOM     15  H72 UNL     1     -84.075 -48.843 107.201  1.00  0.00     0.157 HD
ATOM     16  H71 UNL     1     -84.784 -47.255 107.045  1.00  0.00     0.157 HD
ENDBRANCH  12  14
ENDBRANCH   3   5
BRANCH   1  17
HETATM   17  C6  UNL     1     -82.199 -45.635 109.292  1.00  0.00     0.309 C 
BRANCH  17  18
HETATM   18  N1  UNL     1     -81.434 -44.839 110.198  1.00  0.00    -0.040 N 
HETATM   19  C1  UNL     1     -82.046 -43.500 110.237  1.00  0.00     0.279 C 
HETATM   20  C2  UNL     1     -81.559 -45.343 111.573  1.00  0.00     0.279 C 
BRANCH  18  21
HETATM   21  C3  UNL     1     -80.058 -44.679 109.848  1.00  0.00     0.246 C 
BRANCH  21  22
HETATM   22  C4  UNL     1     -79.901 -43.888 108.579  1.00  0.00     0.054 C 
BRANCH  22  23
HETATM   23  C5  UNL     1     -78.542 -44.094 107.976  1.00  0.00     0.165 C 
BRANCH  23  24
HETATM   24  O1  UNL     1     -77.612 -43.352 108.717  1.00  0.00    -0.401 OA
ATOM     25  H1  UNL     1     -76.841 -43.213 108.179  1.00  0.00     0.209 HD
ENDBRANCH  23  24
ENDBRANCH  22  23
ENDBRANCH  21  22
ENDBRANCH  18  21
ENDBRANCH  17  18
ENDBRANCH   1  17
TORSDOF 8
ENDMDL
MODEL 2
REMARK VINA RESULT: -6.703130508      0.702      1.609
REMARK  8 active torsions:
REMARK  status: ('A' for Active; 'I' for Inactive)
REMARK    1  A    between atoms: N1_2  and  C3_4 
REMARK    2  A    between atoms: N1_2  and  C6_9 
REMARK    3  A    between atoms: C3_4  and  C4_5 
REMARK    4  A    between atoms: C4_5  and  C5_6 
REMARK    5  A    between atoms: C5_6  and  O1_7 
REMARK    6  A    between atoms: C6_9  and  N2_10 
REMARK    7  A    between atoms: N3_12  and  C7_14 
REMARK    8  A    between atoms: C10_22  and  N7_23 
ROOT
HETATM    1  N2  UNL     1     -82.226 -47.056 109.256  1.00  0.00    -0.289 N 
ATOM      2  H2  UNL     1     -81.289 -47.185 108.873  1.00  0.00     0.187 HD
HETATM    3  N3  UNL     1     -82.938 -48.092 109.413  1.00  0.00    -0.295 N 
ATOM      4  H3  UNL     1     -82.533 -48.989 109.147  1.00  0.00     0.187 HD
ENDROOT
BRANCH   3   5
HETATM    5  C7  UNL     1     -84.251 -48.092 109.929  1.00  0.00     0.107 A 
HETATM    6  C8  UNL     1     -85.347 -48.089 109.093  1.00  0.00     0.125 A 
HETATM    7  N4  UNL     1     -86.578 -48.090 109.639  1.00  0.00    -0.338 N 
HETATM    8  C9  UNL     1     -86.754 -48.094 110.979  1.00  0.00     0.193 A 
ATOM      9  H4  UNL     1     -87.395 -48.087 109.029  1.00  0.00     0.168 HD
HETATM   10  N5  UNL     1     -88.073 -48.094 111.506  1.00  0.00    -0.063 NA
HETATM   11  N6  UNL     1     -85.673 -48.096 111.776  1.00  0.00    -0.315 N 
HETATM   12  C10 UNL     1     -84.414 -48.095 111.293  1.00  0.00     0.131 A 
ATOM     13  H6  UNL     1     -85.810 -48.098 112.787  1.00  0.00     0.170 HD
BRANCH  12  14
HETATM   14  N7  UNL     1     -83.392 -48.098 112.114  1.00  0.00    -0.383 N 
ATOM     15  H72 UNL     1     -82.497 -48.490 111.820  1.00  0.00     0.157 HD
ATOM     16  H71 UNL     1     -83.455 -47.715 113.057  1.00  0.00     0.157 HD
ENDBRANCH  12  14
ENDBRANCH   3   5
BRANCH   1  17
HETATM   17  C6  UNL     1     -82.628 -45.721 109.572  1.00  0.00     0.309 C 
BRANCH  17  18
HETATM   18  N1  UNL     1     -81.632 -44.933 110.226  1.00  0.00    -0.040 N 
HETATM   19  C1  UNL     1     -82.058 -43.526 110.149  1.00  0.00     0.279 C 
HETATM   20  C2  UNL     1     -81.591 -45.229 111.665  1.00  0.00     0.279 C 
BRANCH  18  21
HETATM   21  C3  UNL     1     -80.323 -45.023 109.661  1.00  0.00     0.246 C 
BRANCH  21  22
HETATM   22  C4  UNL     1     -80.041 -43.870 108.738  1.00  0.00     0.054 C 
BRANCH  22  23
HETATM   23  C5  UNL     1     -78.727 -44.047 108.034  1.00  0.00     0.165 C 
BRANCH  23  24
HETATM   24  O1  UNL     1     -77.744 -43.348 108.748  1.00  0.00    -0.401 OA
ATOM     25  H1  UNL     1     -77.314 -42.744 108.153  1.00  0.00     0.209 HD
ENDBRANCH  23  24
ENDBRANCH  22  23
ENDBRANCH  21  22
ENDBRANCH  18  21
ENDBRANCH  17  18
ENDBRANCH   1  17
TORSDOF 8
ENDMDL
MODEL 3
REMARK VINA RESULT: -6.686728392      0.983      1.335
REMARK  8 active torsions:
REMARK  status: ('A' for Active; 'I' for Inactive)
REMARK    1  A    between atoms: N1_2  and  C3_4 
REMARK    2  A    between atoms: N1_2  and  C6_9 
REMARK    3  A    between atoms: C3_4  and  C4_5 
REMARK    4  A    between atoms: C4_5  and  C5_6 
REMARK    5  A    between atoms: C5_6  and  O1_7 
REMARK    6  A    between atoms: C6_9  and  N2_10 
REMARK    7  A    between atoms: N3_12  and  C7_14 
REMARK    8  A    between atoms: C10_22  and  N7_23 
ROOT
HETATM    1  N2  UNL     1     -81.078 -46.749 111.151  1.00  0.00    -0.289 N 
ATOM      2  H2  UNL     1     -80.061 -46.833 111.127  1.00  0.00     0.187 HD
HETATM    3  N3  UNL     1     -81.751 -47.819 111.080  1.00  0.00    -0.295 N 
ATOM      4  H3  UNL     1     -81.238 -48.697 111.002  1.00  0.00     0.187 HD
ENDROOT
BRANCH   3   5
HETATM    5  C7  UNL     1     -83.161 -47.883 111.101  1.00  0.00     0.107 A 
HETATM    6  C8  UNL     1     -83.856 -47.928 112.290  1.00  0.00     0.125 A 
HETATM    7  N4  UNL     1     -85.201 -47.988 112.251  1.00  0.00    -0.338 N 
HETATM    8  C9  UNL     1     -85.872 -48.003 111.079  1.00  0.00     0.193 A 
ATOM      9  H4  UNL     1     -85.724 -48.023 113.126  1.00  0.00     0.168 HD
HETATM   10  N5  UNL     1     -87.291 -48.066 111.092  1.00  0.00    -0.063 NA
HETATM   11  N6  UNL     1     -85.176 -47.958 109.931  1.00  0.00    -0.315 N 
HETATM   12  C10 UNL     1     -83.829 -47.898 109.900  1.00  0.00     0.131 A 
ATOM     13  H6  UNL     1     -85.686 -47.970 109.048  1.00  0.00     0.170 HD
BRANCH  12  14
HETATM   14  N7  UNL     1     -83.196 -47.855 108.753  1.00  0.00    -0.383 N 
ATOM     15  H72 UNL     1     -83.429 -48.517 108.012  1.00  0.00     0.157 HD
ATOM     16  H71 UNL     1     -82.461 -47.173 108.567  1.00  0.00     0.157 HD
ENDBRANCH  12  14
ENDBRANCH   3   5
BRANCH   1  17
HETATM   17  C6  UNL     1     -81.625 -45.433 111.262  1.00  0.00     0.309 C 
BRANCH  17  18
HETATM   18  N1  UNL     1     -81.537 -44.644 110.074  1.00  0.00    -0.040 N 
HETATM   19  C1  UNL     1     -82.894 -44.539 109.511  1.00  0.00     0.279 C 
HETATM   20  C2  UNL     1     -81.161 -43.260 110.391  1.00  0.00     0.279 C 
BRANCH  18  21
HETATM   21  C3  UNL     1     -80.684 -45.174 109.059  1.00  0.00     0.246 C 
BRANCH  21  22
HETATM   22  C4  UNL     1     -79.832 -44.100 108.441  1.00  0.00     0.054 C 
BRANCH  22  23
HETATM   23  C5  UNL     1     -78.379 -44.477 108.470  1.00  0.00     0.165 C 
BRANCH  23  24
HETATM   24  O1  UNL     1     -77.626 -43.319 108.710  1.00  0.00    -0.401 OA
ATOM     25  H1  UNL     1     -76.779 -43.420 108.292  1.00  0.00     0.209 HD
ENDBRANCH  23  24
ENDBRANCH  22  23
ENDBRANCH  21  22
ENDBRANCH  18  21
ENDBRANCH  17  18
ENDBRANCH   1  17
TORSDOF 8
ENDMDL
MODEL 4
REMARK VINA RESULT: -6.429569506      3.160      6.688
REMARK  8 active torsions:
REMARK  status: ('A' for Active; 'I' for Inactive)
REMARK    1  A    between atoms: N1_2  and  C3_4 
REMARK    2  A    between atoms: N1_2  and  C6_9 
REMARK    3  A    between atoms: C3_4  and  C4_5 
REMARK    4  A    between atoms: C4_5  and  C5_6 
REMARK    5  A    between atoms: C5_6  and  O1_7 
REMARK    6  A    between atoms: C6_9  and  N2_10 
REMARK    7  A    between atoms: N3_12  and  C7_14 
REMARK    8  A    between atoms: C10_22  and  N7_23 
ROOT
HETATM    1  N2  UNL     1     -83.308 -45.052 110.303  1.00  0.00    -0.289 N 
ATOM      2  H2  UNL     1     -84.318 -45.031 110.442  1.00  0.00     0.187 HD
HETATM    3  N3  UNL     1     -82.810 -44.185 109.527  1.00  0.00    -0.295 N 
ATOM      4  H3  UNL     1     -83.447 -43.520 109.088  1.00  0.00     0.187 HD
ENDROOT
BRANCH   3   5
HETATM    5  C7  UNL     1     -81.435 -44.072 109.226  1.00  0.00     0.107 A 
HETATM    6  C8  UNL     1     -80.572 -45.129 109.426  1.00  0.00     0.125 A 
HETATM    7  N4  UNL     1     -79.270 -44.967 109.122  1.00  0.00    -0.338 N 
HETATM    8  C9  UNL     1     -78.802 -43.799 108.629  1.00  0.00     0.193 A 
ATOM      9  H4  UNL     1     -78.624 -45.742 109.268  1.00  0.00     0.168 HD
HETATM   10  N5  UNL     1     -77.420 -43.679 108.324  1.00  0.00    -0.063 NA
HETATM   11  N6  UNL     1     -79.659 -42.782 108.442  1.00  0.00    -0.315 N 
HETATM   12  C10 UNL     1     -80.973 -42.879 108.727  1.00  0.00     0.131 A 
ATOM     13  H6  UNL     1     -79.302 -41.902 108.070  1.00  0.00     0.170 HD
BRANCH  12  14
HETATM   14  N7  UNL     1     -81.770 -41.856 108.526  1.00  0.00    -0.383 N 
ATOM     15  H72 UNL     1     -81.723 -41.332 107.652  1.00  0.00     0.157 HD
ATOM     16  H71 UNL     1     -82.449 -41.556 109.224  1.00  0.00     0.157 HD
ENDBRANCH  12  14
ENDBRANCH   3   5
BRANCH   1  17
HETATM   17  C6  UNL     1     -82.570 -46.058 111.002  1.00  0.00     0.309 C 
BRANCH  17  18
HETATM   18  N1  UNL     1     -83.143 -47.366 110.951  1.00  0.00    -0.040 N 
HETATM   19  C1  UNL     1     -82.159 -48.257 110.316  1.00  0.00     0.279 C 
HETATM   20  C2  UNL     1     -83.320 -47.913 112.304  1.00  0.00     0.279 C 
BRANCH  18  21
HETATM   21  C3  UNL     1     -84.361 -47.464 110.210  1.00  0.00     0.246 C 
BRANCH  21  22
HETATM   22  C4  UNL     1     -85.497 -47.931 111.078  1.00  0.00     0.054 C 
BRANCH  22  23
HETATM   23  C5  UNL     1     -86.673 -48.358 110.248  1.00  0.00     0.165 C 
BRANCH  23  24
HETATM   24  O1  UNL     1     -86.201 -48.795 109.003  1.00  0.00    -0.401 OA
ATOM     25  H1  UNL     1     -85.722 -49.606 109.131  1.00  0.00     0.209 HD
ENDBRANCH  23  24
ENDBRANCH  22  23
ENDBRANCH  21  22
ENDBRANCH  18  21
ENDBRANCH  17  18
ENDBRANCH   1  17
TORSDOF 8
ENDMDL
MODEL 5
REMARK VINA RESULT: -6.376490072      1.574      2.331
REMARK  8 active torsions:
REMARK  status: ('A' for Active; 'I' for Inactive)
REMARK    1  A    between atoms: N1_2  and  C3_4 
REMARK    2  A    between atoms: N1_2  and  C6_9 
REMARK    3  A    between atoms: C3_4  and  C4_5 
REMARK    4  A    between atoms: C4_5  and  C5_6 
REMARK    5  A    between atoms: C5_6  and  O1_7 
REMARK    6  A    between atoms: C6_9  and  N2_10 
REMARK    7  A    between atoms: N3_12  and  C7_14 
REMARK    8  A    between atoms: C10_22  and  N7_23 
ROOT
HETATM    1  N2  UNL     1     -83.253 -45.920 109.091  1.00  0.00    -0.289 N 
ATOM      2  H2  UNL     1     -83.328 -45.604 108.123  1.00  0.00     0.187 HD
HETATM    3  N3  UNL     1     -83.537 -47.129 109.331  1.00  0.00    -0.295 N 
ATOM      4  H3  UNL     1     -83.824 -47.713 108.546  1.00  0.00     0.187 HD
ENDROOT
BRANCH   3   5
HETATM    5  C7  UNL     1     -83.485 -47.727 110.609  1.00  0.00     0.107 A 
HETATM    6  C8  UNL     1     -82.284 -48.098 111.174  1.00  0.00     0.125 A 
HETATM    7  N4  UNL     1     -82.292 -48.664 112.397  1.00  0.00    -0.338 N 
HETATM    8  C9  UNL     1     -83.445 -48.870 113.070  1.00  0.00     0.193 A 
ATOM      9  H4  UNL     1     -81.408 -48.943 112.823  1.00  0.00     0.168 HD
HETATM   10  N5  UNL     1     -83.400 -49.471 114.356  1.00  0.00    -0.063 NA
HETATM   11  N6  UNL     1     -84.604 -48.502 112.501  1.00  0.00    -0.315 N 
HETATM   12  C10 UNL     1     -84.666 -47.931 111.281  1.00  0.00     0.131 A 
ATOM     13  H6  UNL     1     -85.473 -48.659 113.012  1.00  0.00     0.170 HD
BRANCH  12  14
HETATM   14  N7  UNL     1     -85.823 -47.588 110.769  1.00  0.00    -0.383 N 
ATOM     15  H72 UNL     1     -86.427 -48.293 110.346  1.00  0.00     0.157 HD
ATOM     16  H71 UNL     1     -86.152 -46.623 110.776  1.00  0.00     0.157 HD
ENDBRANCH  12  14
ENDBRANCH   3   5
BRANCH   1  17
HETATM   17  C6  UNL     1     -82.835 -44.958 110.064  1.00  0.00     0.309 C 
BRANCH  17  18
HETATM   18  N1  UNL     1     -81.449 -44.614 110.010  1.00  0.00    -0.040 N 
HETATM   19  C1  UNL     1     -81.354 -43.147 110.089  1.00  0.00     0.279 C 
HETATM   20  C2  UNL     1     -80.743 -45.095 111.205  1.00  0.00     0.279 C 
BRANCH  18  21
HETATM   21  C3  UNL     1     -80.768 -45.031 108.826  1.00  0.00     0.246 C 
BRANCH  21  22
HETATM   22  C4  UNL     1     -79.906 -43.932 108.270  1.00  0.00     0.054 C 
BRANCH  22  23
HETATM   23  C5  UNL     1     -78.469 -44.357 108.189  1.00  0.00     0.165 C 
BRANCH  23  24
HETATM   24  O1  UNL     1     -77.681 -43.373 108.801  1.00  0.00    -0.401 OA
ATOM     25  H1  UNL     1     -76.787 -43.470 108.493  1.00  0.00     0.209 HD
ENDBRANCH  23  24
ENDBRANCH  22  23
ENDBRANCH  21  22
ENDBRANCH  18  21
ENDBRANCH  17  18
ENDBRANCH   1  17
TORSDOF 8
ENDMDL
