MODEL 1
REMARK VINA RESULT: -6.226558328      0.000      0.000
REMARK  11 active torsions:
REMARK  status: ('A' for Active; 'I' for Inactive)
REMARK    1  A    between atoms: C2_2  and  C3_3 
REMARK    2  A    between atoms: C3_3  and  C4_4 
REMARK    3  A    between atoms: C4_4  and  N1_5 
REMARK    4  A    between atoms: N1_5  and  C5_7 
REMARK    5  A    between atoms: C6_10  and  N3_11 
REMARK    6  A    between atoms: N3_11  and  C7_13 
REMARK    7  A    between atoms: C7_13  and  O1_14 
REMARK    8  A    between atoms: C8_18  and  N5_19 
REMARK    9  A    between atoms: N5_19  and  C9_21 
REMARK   10  A    between atoms: C9_21  and  C10_22 
REMARK   11  A    between atoms: C10_22  and  N6_23 
ROOT
HETATM    1  C5  UNL     1     -82.675 -45.714 110.566  1.00  0.00     0.707 A 
HETATM    2  N2  UNL     1     -83.101 -46.230 109.415  1.00  0.00    -0.021 N 
ATOM      3  H2  UNL     1     -83.257 -45.618 108.614  1.00  0.00     0.203 HD
HETATM    4  C6  UNL     1     -83.323 -47.539 109.300  1.00  0.00     0.708 A 
HETATM    5  N4  UNL     1     -83.112 -48.333 110.362  1.00  0.00    -0.021 N 
ATOM      6  H4  UNL     1     -83.283 -49.334 110.273  1.00  0.00     0.203 HD
HETATM    7  C8  UNL     1     -82.685 -47.851 111.533  1.00  0.00     0.707 A 
HETATM    8  N7  UNL     1     -82.471 -46.518 111.608  1.00  0.00    -0.022 N 
ATOM      9  H7  UNL     1     -82.145 -46.116 112.487  1.00  0.00     0.203 HD
ENDROOT
BRANCH   7  10
HETATM   10  N5  UNL     1     -82.467 -48.550 112.573  1.00  0.00    -0.223 N 
ATOM     11  H5  UNL     1     -81.496 -48.747 112.812  1.00  0.00     0.177 HD
BRANCH  10  12
HETATM   12  C9  UNL     1     -83.485 -49.082 113.437  1.00  0.00     0.165 C 
BRANCH  12  13
HETATM   13  C10 UNL     1     -82.826 -49.910 114.533  1.00  0.00     0.249 C 
BRANCH  13  14
HETATM   14  N6  UNL     1     -83.267 -51.287 114.442  1.00  0.00    -0.078 N 
ATOM     15  H63 UNL     1     -84.221 -51.362 114.088  1.00  0.00     0.274 HD
ATOM     16  H62 UNL     1     -82.793 -51.793 113.695  1.00  0.00     0.274 HD
ATOM     17  H61 UNL     1     -83.157 -51.746 115.346  1.00  0.00     0.274 HD
ENDBRANCH  13  14
ENDBRANCH  12  13
ENDBRANCH  10  12
ENDBRANCH   7  10
BRANCH   4  18
HETATM   18  N3  UNL     1     -83.737 -48.072 108.198  1.00  0.00    -0.204 N 
ATOM     19  H3  UNL     1     -83.077 -48.532 107.570  1.00  0.00     0.180 HD
BRANCH  18  20
HETATM   20  C7  UNL     1     -85.136 -48.013 107.864  1.00  0.00     0.305 C 
BRANCH  20  21
HETATM   21  O1  UNL     1     -85.883 -48.719 108.816  1.00  0.00    -0.382 OA
ATOM     22  H1  UNL     1     -86.807 -48.672 108.600  1.00  0.00     0.211 HD
ENDBRANCH  20  21
ENDBRANCH  18  20
ENDBRANCH   4  18
BRANCH   1  23
HETATM   23  N1  UNL     1     -82.471 -44.439 110.632  1.00  0.00    -0.225 N 
ATOM     24  H1  UNL     1     -82.846 -43.938 111.437  1.00  0.00     0.177 HD
BRANCH  23  25
HETATM   25  C4  UNL     1     -81.753 -43.682 109.647  1.00  0.00     0.138 C 
BRANCH  25  26
HETATM   26  C3  UNL     1     -80.327 -44.186 109.598  1.00  0.00     0.020 C 
BRANCH  26  27
HETATM   27  C2  UNL     1     -79.650 -43.793 108.306  1.00  0.00    -0.003 C 
HETATM   28  C1  UNL     1     -78.181 -44.151 108.444  1.00  0.00     0.005 C 
ENDBRANCH  26  27
ENDBRANCH  25  26
ENDBRANCH  23  25
ENDBRANCH   1  23
TORSDOF 11
ENDMDL
MODEL 2
REMARK VINA RESULT: -6.213934159      2.743      4.071
REMARK  11 active torsions:
REMARK  status: ('A' for Active; 'I' for Inactive)
REMARK    1  A    between atoms: C2_2  and  C3_3 
REMARK    2  A    between atoms: C3_3  and  C4_4 
REMARK    3  A    between atoms: C4_4  and  N1_5 
REMARK    4  A    between atoms: N1_5  and  C5_7 
REMARK    5  A    between atoms: C6_10  and  N3_11 
REMARK    6  A    between atoms: N3_11  and  C7_13 
REMARK    7  A    between atoms: C7_13  and  O1_14 
REMARK    8  A    between atoms: C8_18  and  N5_19 
REMARK    9  A    between atoms: N5_19  and  C9_21 
REMARK   10  A    between atoms: C9_21  and  C10_22 
REMARK   11  A    between atoms: C10_22  and  N6_23 
ROOT
HETATM    1  C5  UNL     1     -82.699 -47.391 110.791  1.00  0.00     0.707 A 
HETATM    2  N2  UNL     1     -82.073 -48.108 111.723  1.00  0.00    -0.021 N 
ATOM      3  H2  UNL     1     -81.053 -48.149 111.728  1.00  0.00     0.203 HD
HETATM    4  C6  UNL     1     -82.765 -48.769 112.649  1.00  0.00     0.708 A 
HETATM    5  N4  UNL     1     -84.107 -48.705 112.631  1.00  0.00    -0.021 N 
ATOM      6  H4  UNL     1     -84.635 -49.212 113.340  1.00  0.00     0.203 HD
HETATM    7  C8  UNL     1     -84.770 -47.997 111.712  1.00  0.00     0.707 A 
HETATM    8  N7  UNL     1     -84.029 -47.340 110.790  1.00  0.00    -0.022 N 
ATOM      9  H7  UNL     1     -84.504 -46.790 110.074  1.00  0.00     0.203 HD
ENDROOT
BRANCH   7  10
HETATM   10  N5  UNL     1     -86.036 -47.897 111.642  1.00  0.00    -0.223 N 
ATOM     11  H5  UNL     1     -86.501 -47.322 112.344  1.00  0.00     0.177 HD
BRANCH  10  12
HETATM   12  C9  UNL     1     -86.860 -48.532 110.651  1.00  0.00     0.165 C 
BRANCH  12  13
HETATM   13  C10 UNL     1     -87.835 -49.476 111.343  1.00  0.00     0.249 C 
BRANCH  13  14
HETATM   14  N6  UNL     1     -87.720 -50.804 110.776  1.00  0.00    -0.078 N 
ATOM     15  H63 UNL     1     -87.204 -51.438 111.385  1.00  0.00     0.274 HD
ATOM     16  H62 UNL     1     -88.613 -51.298 110.771  1.00  0.00     0.274 HD
ATOM     17  H61 UNL     1     -87.309 -50.748 109.844  1.00  0.00     0.274 HD
ENDBRANCH  13  14
ENDBRANCH  12  13
ENDBRANCH  10  12
ENDBRANCH   7  10
BRANCH   4  18
HETATM   18  N3  UNL     1     -82.189 -49.473 113.567  1.00  0.00    -0.204 N 
ATOM     19  H3  UNL     1     -81.184 -49.645 113.528  1.00  0.00     0.180 HD
BRANCH  18  20
HETATM   20  C7  UNL     1     -82.977 -50.014 114.643  1.00  0.00     0.305 C 
BRANCH  20  21
HETATM   21  O1  UNL     1     -83.246 -51.368 114.403  1.00  0.00    -0.382 OA
ATOM     22  H1  UNL     1     -83.530 -51.486 113.504  1.00  0.00     0.211 HD
ENDBRANCH  20  21
ENDBRANCH  18  20
ENDBRANCH   4  18
BRANCH   1  23
HETATM   23  N1  UNL     1     -81.987 -46.765 109.913  1.00  0.00    -0.225 N 
ATOM     24  H1  UNL     1     -81.964 -47.139 108.965  1.00  0.00     0.177 HD
BRANCH  23  25
HETATM   25  C4  UNL     1     -81.226 -45.579 110.184  1.00  0.00     0.138 C 
BRANCH  25  26
HETATM   26  C3  UNL     1     -82.115 -44.375 109.961  1.00  0.00     0.020 C 
BRANCH  26  27
HETATM   27  C2  UNL     1     -81.327 -43.201 109.431  1.00  0.00    -0.003 C 
HETATM   28  C1  UNL     1     -80.246 -43.761 108.524  1.00  0.00     0.005 C 
ENDBRANCH  26  27
ENDBRANCH  25  26
ENDBRANCH  23  25
ENDBRANCH   1  23
TORSDOF 11
ENDMDL
MODEL 3
REMARK VINA RESULT: -6.080321379      2.048      5.968
REMARK  11 active torsions:
REMARK  status: ('A' for Active; 'I' for Inactive)
REMARK    1  A    between atoms: C2_2  and  C3_3 
REMARK    2  A    between atoms: C3_3  and  C4_4 
REMARK    3  A    between atoms: C4_4  and  N1_5 
REMARK    4  A    between atoms: N1_5  and  C5_7 
REMARK    5  A    between atoms: C6_10  and  N3_11 
REMARK    6  A    between atoms: N3_11  and  C7_13 
REMARK    7  A    between atoms: C7_13  and  O1_14 
REMARK    8  A    between atoms: C8_18  and  N5_19 
REMARK    9  A    between atoms: N5_19  and  C9_21 
REMARK   10  A    between atoms: C9_21  and  C10_22 
REMARK   11  A    between atoms: C10_22  and  N6_23 
ROOT
HETATM    1  C5  UNL     1     -82.933 -47.669 109.364  1.00  0.00     0.707 A 
HETATM    2  N2  UNL     1     -83.072 -48.328 110.514  1.00  0.00    -0.021 N 
ATOM      3  H2  UNL     1     -83.637 -49.176 110.545  1.00  0.00     0.203 HD
HETATM    4  C6  UNL     1     -82.480 -47.888 111.622  1.00  0.00     0.708 A 
HETATM    5  N4  UNL     1     -81.738 -46.769 111.567  1.00  0.00    -0.021 N 
ATOM      6  H4  UNL     1     -81.286 -46.433 112.417  1.00  0.00     0.203 HD
HETATM    7  C8  UNL     1     -81.576 -46.083 110.432  1.00  0.00     0.707 A 
HETATM    8  N7  UNL     1     -82.194 -46.563 109.329  1.00  0.00    -0.022 N 
ATOM      9  H7  UNL     1     -82.091 -46.063 108.446  1.00  0.00     0.203 HD
ENDROOT
BRANCH   7  10
HETATM   10  N5  UNL     1     -80.888 -45.019 110.316  1.00  0.00    -0.223 N 
ATOM     11  H5  UNL     1     -79.952 -45.018 110.720  1.00  0.00     0.177 HD
BRANCH  10  12
HETATM   12  C9  UNL     1     -81.329 -43.819 109.658  1.00  0.00     0.165 C 
BRANCH  12  13
HETATM   13  C10 UNL     1     -80.348 -43.471 108.546  1.00  0.00     0.249 C 
BRANCH  13  14
HETATM   14  N6  UNL     1     -78.988 -43.629 109.022  1.00  0.00    -0.078 N 
ATOM     15  H63 UNL     1     -78.956 -43.928 109.997  1.00  0.00     0.274 HD
ATOM     16  H62 UNL     1     -78.527 -44.437 108.604  1.00  0.00     0.274 HD
ATOM     17  H61 UNL     1     -78.466 -42.767 108.868  1.00  0.00     0.274 HD
ENDBRANCH  13  14
ENDBRANCH  12  13
ENDBRANCH  10  12
ENDBRANCH   7  10
BRANCH   4  18
HETATM   18  N3  UNL     1     -82.594 -48.501 112.754  1.00  0.00    -0.204 N 
ATOM     19  H3  UNL     1     -81.762 -48.789 113.270  1.00  0.00     0.180 HD
BRANCH  18  20
HETATM   20  C7  UNL     1     -83.905 -48.776 113.281  1.00  0.00     0.305 C 
BRANCH  20  21
HETATM   21  O1  UNL     1     -83.854 -49.894 114.125  1.00  0.00    -0.382 OA
ATOM     22  H1  UNL     1     -83.280 -50.553 113.752  1.00  0.00     0.211 HD
ENDBRANCH  20  21
ENDBRANCH  18  20
ENDBRANCH   4  18
BRANCH   1  23
HETATM   23  N1  UNL     1     -83.525 -48.134 108.313  1.00  0.00    -0.225 N 
ATOM     24  H1  UNL     1     -83.033 -48.836 107.761  1.00  0.00     0.177 HD
BRANCH  23  25
HETATM   25  C4  UNL     1     -84.828 -47.727 107.872  1.00  0.00     0.138 C 
BRANCH  25  26
HETATM   26  C3  UNL     1     -85.865 -48.530 108.628  1.00  0.00     0.020 C 
BRANCH  26  27
HETATM   27  C2  UNL     1     -86.543 -47.693 109.687  1.00  0.00    -0.003 C 
HETATM   28  C1  UNL     1     -86.761 -48.589 110.893  1.00  0.00     0.005 C 
ENDBRANCH  26  27
ENDBRANCH  25  26
ENDBRANCH  23  25
ENDBRANCH   1  23
TORSDOF 11
ENDMDL
MODEL 4
REMARK VINA RESULT: -6.020452154      3.837      5.626
REMARK  11 active torsions:
REMARK  status: ('A' for Active; 'I' for Inactive)
REMARK    1  A    between atoms: C2_2  and  C3_3 
REMARK    2  A    between atoms: C3_3  and  C4_4 
REMARK    3  A    between atoms: C4_4  and  N1_5 
REMARK    4  A    between atoms: N1_5  and  C5_7 
REMARK    5  A    between atoms: C6_10  and  N3_11 
REMARK    6  A    between atoms: N3_11  and  C7_13 
REMARK    7  A    between atoms: C7_13  and  O1_14 
REMARK    8  A    between atoms: C8_18  and  N5_19 
REMARK    9  A    between atoms: N5_19  and  C9_21 
REMARK   10  A    between atoms: C9_21  and  C10_22 
REMARK   11  A    between atoms: C10_22  and  N6_23 
ROOT
HETATM    1  C5  UNL     1     -81.393 -42.385 108.446  1.00  0.00     0.707 A 
HETATM    2  N2  UNL     1     -80.082 -42.613 108.516  1.00  0.00    -0.021 N 
ATOM      3  H2  UNL     1     -79.436 -41.999 108.020  1.00  0.00     0.203 HD
HETATM    4  C6  UNL     1     -79.609 -43.635 109.227  1.00  0.00     0.708 A 
HETATM    5  N4  UNL     1     -80.472 -44.435 109.875  1.00  0.00    -0.021 N 
ATOM      6  H4  UNL     1     -80.108 -45.217 110.419  1.00  0.00     0.203 HD
HETATM    7  C8  UNL     1     -81.792 -44.237 109.829  1.00  0.00     0.707 A 
HETATM    8  N7  UNL     1     -82.232 -43.189 109.095  1.00  0.00    -0.022 N 
ATOM      9  H7  UNL     1     -83.234 -43.009 109.038  1.00  0.00     0.203 HD
ENDROOT
BRANCH   7  10
HETATM   10  N5  UNL     1     -82.659 -44.957 110.419  1.00  0.00    -0.223 N 
ATOM     11  H5  UNL     1     -83.233 -44.511 111.133  1.00  0.00     0.177 HD
BRANCH  10  12
HETATM   12  C9  UNL     1     -82.890 -46.351 110.155  1.00  0.00     0.165 C 
BRANCH  12  13
HETATM   13  C10 UNL     1     -82.558 -47.157 111.405  1.00  0.00     0.249 C 
BRANCH  13  14
HETATM   14  N6  UNL     1     -81.963 -48.424 111.029  1.00  0.00    -0.078 N 
ATOM     15  H63 UNL     1     -82.633 -49.192 111.082  1.00  0.00     0.274 HD
ATOM     16  H62 UNL     1     -81.762 -48.472 110.030  1.00  0.00     0.274 HD
ATOM     17  H61 UNL     1     -81.134 -48.599 111.596  1.00  0.00     0.274 HD
ENDBRANCH  13  14
ENDBRANCH  12  13
ENDBRANCH  10  12
ENDBRANCH   7  10
BRANCH   4  18
HETATM   18  N3  UNL     1     -78.344 -43.885 109.315  1.00  0.00    -0.204 N 
ATOM     19  H3  UNL     1     -77.797 -43.500 110.086  1.00  0.00     0.180 HD
BRANCH  18  20
HETATM   20  C7  UNL     1     -77.714 -44.709 108.318  1.00  0.00     0.305 C 
BRANCH  20  21
HETATM   21  O1  UNL     1     -77.986 -44.203 107.041  1.00  0.00    -0.382 OA
ATOM     22  H1  UNL     1     -77.246 -44.363 106.466  1.00  0.00     0.211 HD
ENDBRANCH  20  21
ENDBRANCH  18  20
ENDBRANCH   4  18
BRANCH   1  23
HETATM   23  N1  UNL     1     -81.807 -41.382 107.745  1.00  0.00    -0.225 N 
ATOM     24  H1  UNL     1     -82.347 -41.580 106.903  1.00  0.00     0.177 HD
BRANCH  23  25
HETATM   25  C4  UNL     1     -81.557 -40.007 108.072  1.00  0.00     0.138 C 
BRANCH  25  26
HETATM   26  C3  UNL     1     -82.177 -39.137 106.999  1.00  0.00     0.020 C 
BRANCH  26  27
HETATM   27  C2  UNL     1     -83.660 -39.390 106.876  1.00  0.00    -0.003 C 
HETATM   28  C1  UNL     1     -83.932 -39.758 105.428  1.00  0.00     0.005 C 
ENDBRANCH  26  27
ENDBRANCH  25  26
ENDBRANCH  23  25
ENDBRANCH   1  23
TORSDOF 11
ENDMDL
MODEL 5
REMARK VINA RESULT: -6.015229667      3.613      7.551
REMARK  11 active torsions:
REMARK  status: ('A' for Active; 'I' for Inactive)
REMARK    1  A    between atoms: C2_2  and  C3_3 
REMARK    2  A    between atoms: C3_3  and  C4_4 
REMARK    3  A    between atoms: C4_4  and  N1_5 
REMARK    4  A    between atoms: N1_5  and  C5_7 
REMARK    5  A    between atoms: C6_10  and  N3_11 
REMARK    6  A    between atoms: N3_11  and  C7_13 
REMARK    7  A    between atoms: C7_13  and  O1_14 
REMARK    8  A    between atoms: C8_18  and  N5_19 
REMARK    9  A    between atoms: N5_19  and  C9_21 
REMARK   10  A    between atoms: C9_21  and  C10_22 
REMARK   11  A    between atoms: C10_22  and  N6_23 
ROOT
HETATM    1  C5  UNL     1     -81.794 -44.309 109.809  1.00  0.00     0.707 A 
HETATM    2  N2  UNL     1     -80.488 -44.565 109.873  1.00  0.00    -0.021 N 
ATOM      3  H2  UNL     1     -80.158 -45.380 110.391  1.00  0.00     0.203 HD
HETATM    4  C6  UNL     1     -79.611 -43.767 109.266  1.00  0.00     0.708 A 
HETATM    5  N4  UNL     1     -80.061 -42.699 108.587  1.00  0.00    -0.021 N 
ATOM      6  H4  UNL     1     -79.388 -42.089 108.124  1.00  0.00     0.203 HD
HETATM    7  C8  UNL     1     -81.362 -42.411 108.502  1.00  0.00     0.707 A 
HETATM    8  N7  UNL     1     -82.220 -43.246 109.132  1.00  0.00    -0.022 N 
ATOM      9  H7  UNL     1     -83.221 -43.054 109.087  1.00  0.00     0.203 HD
ENDROOT
BRANCH   7  10
HETATM   10  N5  UNL     1     -81.849 -41.416 107.876  1.00  0.00    -0.223 N 
ATOM     11  H5  UNL     1     -82.611 -41.598 107.224  1.00  0.00     0.177 HD
BRANCH  10  12
HETATM   12  C9  UNL     1     -81.409 -40.055 108.019  1.00  0.00     0.165 C 
BRANCH  12  13
HETATM   13  C10 UNL     1     -82.331 -39.146 107.218  1.00  0.00     0.249 C 
BRANCH  13  14
HETATM   14  N6  UNL     1     -83.576 -39.833 106.936  1.00  0.00    -0.078 N 
ATOM     15  H63 UNL     1     -83.869 -40.428 107.711  1.00  0.00     0.274 HD
ATOM     16  H62 UNL     1     -84.372 -39.196 106.929  1.00  0.00     0.274 HD
ATOM     17  H61 UNL     1     -83.493 -40.353 106.063  1.00  0.00     0.274 HD
ENDBRANCH  13  14
ENDBRANCH  12  13
ENDBRANCH  10  12
ENDBRANCH   7  10
BRANCH   4  18
HETATM   18  N3  UNL     1     -78.338 -43.986 109.308  1.00  0.00    -0.204 N 
ATOM     19  H3  UNL     1     -77.774 -43.594 110.062  1.00  0.00     0.180 HD
BRANCH  18  20
HETATM   20  C7  UNL     1     -77.723 -44.787 108.282  1.00  0.00     0.305 C 
BRANCH  20  21
HETATM   21  O1  UNL     1     -77.952 -44.209 107.026  1.00  0.00    -0.382 OA
ATOM     22  H1  UNL     1     -78.439 -44.813 106.477  1.00  0.00     0.211 HD
ENDBRANCH  20  21
ENDBRANCH  18  20
ENDBRANCH   4  18
BRANCH   1  23
HETATM   23  N1  UNL     1     -82.609 -45.111 110.413  1.00  0.00    -0.225 N 
ATOM     24  H1  UNL     1     -83.603 -45.025 110.203  1.00  0.00     0.177 HD
BRANCH  23  25
HETATM   25  C4  UNL     1     -82.207 -46.113 111.358  1.00  0.00     0.138 C 
BRANCH  25  26
HETATM   26  C3  UNL     1     -82.624 -47.468 110.830  1.00  0.00     0.020 C 
BRANCH  26  27
HETATM   27  C2  UNL     1     -84.110 -47.687 110.989  1.00  0.00    -0.003 C 
HETATM   28  C1  UNL     1     -84.352 -48.070 112.438  1.00  0.00     0.005 C 
ENDBRANCH  26  27
ENDBRANCH  25  26
ENDBRANCH  23  25
ENDBRANCH   1  23
TORSDOF 11
ENDMDL
