MODEL 1
REMARK VINA RESULT: -7.752564911      0.000      0.000
REMARK  7 active torsions:
REMARK  status: ('A' for Active; 'I' for Inactive)
REMARK    1  A    between atoms: C2_2  and  C3_3 
REMARK    2  A    between atoms: C2_2  and  O1_19 
REMARK    3  A    between atoms: C3_3  and  S1_4 
REMARK    4  A    between atoms: S1_4  and  C4_5 
REMARK    5  A    between atoms: C5_10  and  C6_11 
REMARK    6  A    between atoms: N3_14  and  C9_15 
REMARK    7  A    between atoms: O1_19  and  C13_20 
ROOT
HETATM    1  C4  UNL     1      21.543  45.946  61.677  1.00  0.00     0.163 A 
HETATM    2  N1  UNL     1      20.722  46.078  62.713  1.00  0.00    -0.278 N 
ATOM      3  H1  UNL     1      20.960  45.888  63.686  1.00  0.00     0.189 HD
HETATM    4  N2  UNL     1      19.570  46.488  62.283  1.00  0.00    -0.286 N 
ATOM      5  H2  UNL     1      18.746  46.677  62.853  1.00  0.00     0.188 HD
HETATM    6  C5  UNL     1      19.663  46.620  60.927  1.00  0.00     0.104 A 
HETATM    7  N3  UNL     1      20.888  46.287  60.528  1.00  0.00    -0.310 N 
ENDROOT
BRANCH   1   8
HETATM    8  S1  UNL     1      23.226  45.416  61.732  1.00  0.00    -0.090 SA
BRANCH   8   9
HETATM    9  C3  UNL     1      24.417  46.779  61.741  1.00  0.00     0.114 C 
BRANCH   9  10
HETATM   10  C2  UNL     1      25.807  46.169  61.947  1.00  0.00     0.128 C 
HETATM   11  C1  UNL     1      26.330  46.823  63.210  1.00  0.00     0.040 C 
BRANCH  10  12
HETATM   12  O1  UNL     1      25.856  44.847  61.899  1.00  0.00    -0.376 OA
BRANCH  12  13
HETATM   13  C13 UNL     1      26.713  44.111  61.203  1.00  0.00     0.050 C 
HETATM   14  C14 UNL     1      27.352  42.960  61.957  1.00  0.00     0.045 C 
HETATM   15  C15 UNL     1      25.917  43.427  60.089  1.00  0.00     0.045 C 
HETATM   16  C16 UNL     1      27.806  44.878  60.476  1.00  0.00     0.045 C 
ENDBRANCH  12  13
ENDBRANCH  10  12
ENDBRANCH   9  10
ENDBRANCH   8   9
ENDBRANCH   1   8
BRANCH   7  17
HETATM   17  C9  UNL     1      21.432  46.272  59.219  1.00  0.00     0.093 C 
HETATM   18  C10 UNL     1      22.469  45.241  58.880  1.00  0.00     0.026 C 
HETATM   19  C11 UNL     1      23.196  46.334  58.092  1.00  0.00     0.004 C 
HETATM   20  C12 UNL     1      22.320  47.387  58.779  1.00  0.00     0.026 C 
ENDBRANCH   7  17
BRANCH   6  21
HETATM   21  C6  UNL     1      18.532  47.069  60.117  1.00  0.00     0.055 A 
HETATM   22  C7  UNL     1      17.266  47.544  60.870  1.00  0.00     0.013 A 
HETATM   23  C8  UNL     1      17.230  46.212  60.268  1.00  0.00     0.013 A 
ENDBRANCH   6  21
TORSDOF 7
ENDMDL
MODEL 2
REMARK VINA RESULT: -7.588309785      2.517      4.722
REMARK  7 active torsions:
REMARK  status: ('A' for Active; 'I' for Inactive)
REMARK    1  A    between atoms: C2_2  and  C3_3 
REMARK    2  A    between atoms: C2_2  and  O1_19 
REMARK    3  A    between atoms: C3_3  and  S1_4 
REMARK    4  A    between atoms: S1_4  and  C4_5 
REMARK    5  A    between atoms: C5_10  and  C6_11 
REMARK    6  A    between atoms: N3_14  and  C9_15 
REMARK    7  A    between atoms: O1_19  and  C13_20 
ROOT
HETATM    1  C4  UNL     1      23.768  44.095  61.031  1.00  0.00     0.163 A 
HETATM    2  N1  UNL     1      22.624  43.424  61.114  1.00  0.00    -0.278 N 
ATOM      3  H1  UNL     1      22.457  42.488  60.745  1.00  0.00     0.189 HD
HETATM    4  N2  UNL     1      21.756  44.154  61.742  1.00  0.00    -0.286 N 
ATOM      5  H2  UNL     1      20.792  43.898  61.953  1.00  0.00     0.188 HD
HETATM    6  C5  UNL     1      22.370  45.330  62.067  1.00  0.00     0.104 A 
HETATM    7  N3  UNL     1      23.627  45.313  61.633  1.00  0.00    -0.310 N 
ENDROOT
BRANCH   1   8
HETATM    8  S1  UNL     1      25.259  43.537  60.271  1.00  0.00    -0.090 SA
BRANCH   8   9
HETATM    9  C3  UNL     1      25.198  43.540  58.462  1.00  0.00     0.114 C 
BRANCH   9  10
HETATM   10  C2  UNL     1      25.039  44.996  58.013  1.00  0.00     0.128 C 
HETATM   11  C1  UNL     1      26.430  45.424  57.594  1.00  0.00     0.040 C 
BRANCH  10  12
HETATM   12  O1  UNL     1      24.064  45.216  57.144  1.00  0.00    -0.376 OA
BRANCH  12  13
HETATM   13  C13 UNL     1      23.231  46.249  57.133  1.00  0.00     0.050 C 
HETATM   14  C14 UNL     1      23.703  47.461  56.352  1.00  0.00     0.045 C 
HETATM   15  C15 UNL     1      21.968  45.801  56.394  1.00  0.00     0.045 C 
HETATM   16  C16 UNL     1      22.735  46.713  58.492  1.00  0.00     0.045 C 
ENDBRANCH  12  13
ENDBRANCH  10  12
ENDBRANCH   9  10
ENDBRANCH   8   9
ENDBRANCH   1   8
BRANCH   7  17
HETATM   17  C9  UNL     1      24.629  46.310  61.745  1.00  0.00     0.093 C 
HETATM   18  C10 UNL     1      25.943  45.946  62.371  1.00  0.00     0.026 C 
HETATM   19  C11 UNL     1      25.913  47.314  63.059  1.00  0.00     0.004 C 
HETATM   20  C12 UNL     1      24.432  47.448  62.689  1.00  0.00     0.026 C 
ENDBRANCH   7  17
BRANCH   6  21
HETATM   21  C6  UNL     1      21.670  46.391  62.788  1.00  0.00     0.055 A 
HETATM   22  C7  UNL     1      20.131  46.273  62.902  1.00  0.00     0.013 A 
HETATM   23  C8  UNL     1      20.662  47.223  61.926  1.00  0.00     0.013 A 
ENDBRANCH   6  21
TORSDOF 7
ENDMDL
MODEL 3
REMARK VINA RESULT: -7.467732156      3.421      5.128
REMARK  7 active torsions:
REMARK  status: ('A' for Active; 'I' for Inactive)
REMARK    1  A    between atoms: C2_2  and  C3_3 
REMARK    2  A    between atoms: C2_2  and  O1_19 
REMARK    3  A    between atoms: C3_3  and  S1_4 
REMARK    4  A    between atoms: S1_4  and  C4_5 
REMARK    5  A    between atoms: C5_10  and  C6_11 
REMARK    6  A    between atoms: N3_14  and  C9_15 
REMARK    7  A    between atoms: O1_19  and  C13_20 
ROOT
HETATM    1  C4  UNL     1      26.498  45.146  61.636  1.00  0.00     0.163 A 
HETATM    2  N1  UNL     1      26.619  46.132  62.517  1.00  0.00    -0.278 N 
ATOM      3  H1  UNL     1      27.449  46.330  63.076  1.00  0.00     0.189 HD
HETATM    4  N2  UNL     1      25.509  46.802  62.550  1.00  0.00    -0.286 N 
ATOM      5  H2  UNL     1      25.312  47.614  63.134  1.00  0.00     0.188 HD
HETATM    6  C5  UNL     1      24.654  46.219  61.658  1.00  0.00     0.104 A 
HETATM    7  N3  UNL     1      25.252  45.183  61.076  1.00  0.00    -0.310 N 
ENDROOT
BRANCH   1   8
HETATM    8  S1  UNL     1      27.729  43.951  61.221  1.00  0.00    -0.090 SA
BRANCH   8   9
HETATM    9  C3  UNL     1      27.480  42.345  62.018  1.00  0.00     0.114 C 
BRANCH   9  10
HETATM   10  C2  UNL     1      28.828  41.914  62.606  1.00  0.00     0.128 C 
HETATM   11  C1  UNL     1      29.860  42.676  61.801  1.00  0.00     0.040 C 
BRANCH  10  12
HETATM   12  O1  UNL     1      28.922  42.000  63.924  1.00  0.00    -0.376 OA
BRANCH  12  13
HETATM   13  C13 UNL     1      29.031  40.990  64.778  1.00  0.00     0.050 C 
HETATM   14  C14 UNL     1      30.184  40.039  64.523  1.00  0.00     0.045 C 
HETATM   15  C15 UNL     1      29.343  41.592  66.150  1.00  0.00     0.045 C 
HETATM   16  C16 UNL     1      27.769  40.172  64.998  1.00  0.00     0.045 C 
ENDBRANCH  12  13
ENDBRANCH  10  12
ENDBRANCH   9  10
ENDBRANCH   8   9
ENDBRANCH   1   8
BRANCH   7  17
HETATM   17  C9  UNL     1      24.750  44.292  60.095  1.00  0.00     0.093 C 
HETATM   18  C10 UNL     1      23.924  44.847  58.971  1.00  0.00     0.026 C 
HETATM   19  C11 UNL     1      23.029  43.613  59.113  1.00  0.00     0.004 C 
HETATM   20  C12 UNL     1      23.685  43.315  60.465  1.00  0.00     0.026 C 
ENDBRANCH   7  17
BRANCH   6  21
HETATM   21  C6  UNL     1      23.302  46.730  61.443  1.00  0.00     0.055 A 
HETATM   22  C7  UNL     1      22.580  47.358  62.659  1.00  0.00     0.013 A 
HETATM   23  C8  UNL     1      22.183  46.007  62.265  1.00  0.00     0.013 A 
ENDBRANCH   6  21
TORSDOF 7
ENDMDL
MODEL 4
REMARK VINA RESULT: -7.462286848      0.978      2.067
REMARK  7 active torsions:
REMARK  status: ('A' for Active; 'I' for Inactive)
REMARK    1  A    between atoms: C2_2  and  C3_3 
REMARK    2  A    between atoms: C2_2  and  O1_19 
REMARK    3  A    between atoms: C3_3  and  S1_4 
REMARK    4  A    between atoms: S1_4  and  C4_5 
REMARK    5  A    between atoms: C5_10  and  C6_11 
REMARK    6  A    between atoms: N3_14  and  C9_15 
REMARK    7  A    between atoms: O1_19  and  C13_20 
ROOT
HETATM    1  C4  UNL     1      21.440  45.723  61.422  1.00  0.00     0.163 A 
HETATM    2  N1  UNL     1      20.580  45.504  62.409  1.00  0.00    -0.278 N 
ATOM      3  H1  UNL     1      20.786  45.009  63.278  1.00  0.00     0.189 HD
HETATM    4  N2  UNL     1      19.435  46.020  62.089  1.00  0.00    -0.286 N 
ATOM      5  H2  UNL     1      18.587  46.006  62.655  1.00  0.00     0.188 HD
HETATM    6  C5  UNL     1      19.574  46.587  60.854  1.00  0.00     0.104 A 
HETATM    7  N3  UNL     1      20.819  46.413  60.419  1.00  0.00    -0.310 N 
ENDROOT
BRANCH   1   8
HETATM    8  S1  UNL     1      23.131  45.220  61.371  1.00  0.00    -0.090 SA
BRANCH   8   9
HETATM    9  C3  UNL     1      23.384  43.599  60.606  1.00  0.00     0.114 C 
BRANCH   9  10
HETATM   10  C2  UNL     1      24.789  43.598  59.994  1.00  0.00     0.128 C 
HETATM   11  C1  UNL     1      24.566  43.318  58.521  1.00  0.00     0.040 C 
BRANCH  10  12
HETATM   12  O1  UNL     1      25.536  44.650  60.291  1.00  0.00    -0.376 OA
BRANCH  12  13
HETATM   13  C13 UNL     1      26.699  44.641  60.929  1.00  0.00     0.050 C 
HETATM   14  C14 UNL     1      27.908  45.011  60.091  1.00  0.00     0.045 C 
HETATM   15  C15 UNL     1      26.637  45.737  61.995  1.00  0.00     0.045 C 
HETATM   16  C16 UNL     1      27.019  43.372  61.703  1.00  0.00     0.045 C 
ENDBRANCH  12  13
ENDBRANCH  10  12
ENDBRANCH   9  10
ENDBRANCH   8   9
ENDBRANCH   1   8
BRANCH   7  17
HETATM   17  C9  UNL     1      21.410  46.829  59.200  1.00  0.00     0.093 C 
HETATM   18  C10 UNL     1      21.721  45.795  58.158  1.00  0.00     0.026 C 
HETATM   19  C11 UNL     1      23.023  46.556  57.892  1.00  0.00     0.004 C 
HETATM   20  C12 UNL     1      22.815  47.332  59.198  1.00  0.00     0.026 C 
ENDBRANCH   7  17
BRANCH   6  21
HETATM   21  C6  UNL     1      18.462  47.264  60.188  1.00  0.00     0.055 A 
HETATM   22  C7  UNL     1      17.202  47.560  61.036  1.00  0.00     0.013 A 
HETATM   23  C8  UNL     1      17.137  46.435  60.104  1.00  0.00     0.013 A 
ENDBRANCH   6  21
TORSDOF 7
ENDMDL
MODEL 5
REMARK VINA RESULT: -7.401742273      1.114      1.624
REMARK  7 active torsions:
REMARK  status: ('A' for Active; 'I' for Inactive)
REMARK    1  A    between atoms: C2_2  and  C3_3 
REMARK    2  A    between atoms: C2_2  and  O1_19 
REMARK    3  A    between atoms: C3_3  and  S1_4 
REMARK    4  A    between atoms: S1_4  and  C4_5 
REMARK    5  A    between atoms: C5_10  and  C6_11 
REMARK    6  A    between atoms: N3_14  and  C9_15 
REMARK    7  A    between atoms: O1_19  and  C13_20 
ROOT
HETATM    1  C4  UNL     1      22.358  46.819  62.018  1.00  0.00     0.163 A 
HETATM    2  N1  UNL     1      21.419  46.955  62.947  1.00  0.00    -0.278 N 
ATOM      3  H1  UNL     1      21.585  47.038  63.951  1.00  0.00     0.189 HD
HETATM    4  N2  UNL     1      20.259  46.966  62.370  1.00  0.00    -0.286 N 
ATOM      5  H2  UNL     1      19.355  47.059  62.834  1.00  0.00     0.188 HD
HETATM    6  C5  UNL     1      20.468  46.832  61.028  1.00  0.00     0.104 A 
HETATM    7  N3  UNL     1      21.773  46.738  60.786  1.00  0.00    -0.310 N 
ENDROOT
BRANCH   1   8
HETATM    8  S1  UNL     1      24.100  46.749  62.288  1.00  0.00    -0.090 SA
BRANCH   8   9
HETATM    9  C3  UNL     1      24.883  45.267  61.604  1.00  0.00     0.114 C 
BRANCH   9  10
HETATM   10  C2  UNL     1      26.398  45.493  61.637  1.00  0.00     0.128 C 
HETATM   11  C1  UNL     1      26.617  46.455  62.787  1.00  0.00     0.040 C 
BRANCH  10  12
HETATM   12  O1  UNL     1      27.133  44.392  61.636  1.00  0.00    -0.376 OA
BRANCH  12  13
HETATM   13  C13 UNL     1      27.825  43.902  60.615  1.00  0.00     0.050 C 
HETATM   14  C14 UNL     1      28.579  44.924  59.785  1.00  0.00     0.045 C 
HETATM   15  C15 UNL     1      28.926  43.016  61.201  1.00  0.00     0.045 C 
HETATM   16  C16 UNL     1      27.058  42.988  59.675  1.00  0.00     0.045 C 
ENDBRANCH  12  13
ENDBRANCH  10  12
ENDBRANCH   9  10
ENDBRANCH   8   9
ENDBRANCH   1   8
BRANCH   7  17
HETATM   17  C9  UNL     1      22.448  46.587  59.548  1.00  0.00     0.093 C 
HETATM   18  C10 UNL     1      22.140  47.546  58.436  1.00  0.00     0.026 C 
HETATM   19  C11 UNL     1      22.211  46.351  57.481  1.00  0.00     0.004 C 
HETATM   20  C12 UNL     1      22.147  45.407  58.686  1.00  0.00     0.026 C 
ENDBRANCH   7  17
BRANCH   6  21
HETATM   21  C6  UNL     1      19.361  46.805  60.074  1.00  0.00     0.055 A 
HETATM   22  C7  UNL     1      18.091  47.611  60.440  1.00  0.00     0.013 A 
HETATM   23  C8  UNL     1      18.040  46.160  60.612  1.00  0.00     0.013 A 
ENDBRANCH   6  21
TORSDOF 7
ENDMDL
