MODEL 1
REMARK VINA RESULT: -7.931892148      0.000      0.000
REMARK  6 active torsions:
REMARK  status: ('A' for Active; 'I' for Inactive)
REMARK    1  A    between atoms: C4_5  and  C5_6 
REMARK    2  A    between atoms: C5_6  and  C6_7 
REMARK    3  A    between atoms: C6_7  and  C7_8 
REMARK    4  A    between atoms: C7_8  and  N1_9 
REMARK    5  A    between atoms: C11_13  and  C12_14 
REMARK    6  A    between atoms: C13_17  and  C14_18 
ROOT
HETATM    1  N1  UNL     1      23.005  44.474  59.720  1.00  0.00     0.101 N 
HETATM    2  C8  UNL     1      22.891  43.354  60.567  1.00  0.00     0.273 C 
HETATM    3  C9  UNL     1      23.996  43.567  61.607  1.00  0.00     0.033 C 
HETATM    4  C10 UNL     1      24.086  45.060  61.706  1.00  0.00     0.046 C 
HETATM    5  C11 UNL     1      23.091  45.581  60.685  1.00  0.00     0.299 C 
ENDROOT
BRANCH   1   6
HETATM    6  C7  UNL     1      24.044  44.604  58.807  1.00  0.00     0.273 C 
BRANCH   6   7
HETATM    7  C6  UNL     1      23.845  44.413  57.364  1.00  0.00     0.037 C 
BRANCH   7   8
HETATM    8  C5  UNL     1      22.707  45.138  56.766  1.00  0.00     0.067 C 
BRANCH   8   9
HETATM    9  C4  UNL     1      23.234  46.488  56.286  1.00  0.00     0.051 A 
HETATM   10  S1  UNL     1      24.832  47.017  56.019  1.00  0.00    -0.087 SA
HETATM   11  C3  UNL     1      24.492  48.621  55.527  1.00  0.00     0.076 A 
HETATM   12  C2  UNL     1      23.122  48.645  55.602  1.00  0.00     0.012 A 
HETATM   13  C1  UNL     1      22.365  49.914  55.249  1.00  0.00     0.068 C 
HETATM   14  N4  UNL     1      22.526  47.563  55.984  1.00  0.00    -0.357 N 
ATOM     15  H4  UNL     1      21.508  47.538  56.052  1.00  0.00     0.166 HD
ENDBRANCH   8   9
ENDBRANCH   7   8
ENDBRANCH   6   7
ENDBRANCH   1   6
BRANCH   5  16
HETATM   16  C12 UNL     1      21.791  45.834  61.324  1.00  0.00     0.182 A 
HETATM   17  N2  UNL     1      20.686  46.295  60.744  1.00  0.00    -0.325 N 
HETATM   18  C13 UNL     1      19.725  46.382  61.677  1.00  0.00     0.108 A 
ATOM     19  H2  UNL     1      20.587  46.540  59.759  1.00  0.00     0.169 HD
HETATM   20  N3  UNL     1      20.283  45.964  62.826  1.00  0.00    -0.247 N 
HETATM   21  O1  UNL     1      21.509  45.646  62.583  1.00  0.00    -0.221 OA
ATOM     22  H3  UNL     1      19.818  45.909  63.732  1.00  0.00     0.196 HD
BRANCH  18  23
HETATM   23  C14 UNL     1      18.326  46.830  61.539  1.00  0.00     0.055 A 
HETATM   24  C15 UNL     1      17.859  47.670  60.440  1.00  0.00     0.013 A 
HETATM   25  C16 UNL     1      17.598  46.180  60.319  1.00  0.00     0.013 A 
ENDBRANCH  18  23
ENDBRANCH   5  16
TORSDOF 6
ENDMDL
MODEL 2
REMARK VINA RESULT: -7.908459189      3.404      5.941
REMARK  6 active torsions:
REMARK  status: ('A' for Active; 'I' for Inactive)
REMARK    1  A    between atoms: C4_5  and  C5_6 
REMARK    2  A    between atoms: C5_6  and  C6_7 
REMARK    3  A    between atoms: C6_7  and  C7_8 
REMARK    4  A    between atoms: C7_8  and  N1_9 
REMARK    5  A    between atoms: C11_13  and  C12_14 
REMARK    6  A    between atoms: C13_17  and  C14_18 
ROOT
HETATM    1  N1  UNL     1      24.030  45.218  61.059  1.00  0.00     0.101 N 
HETATM    2  C8  UNL     1      23.562  45.063  59.740  1.00  0.00     0.273 C 
HETATM    3  C9  UNL     1      23.089  43.607  59.687  1.00  0.00     0.033 C 
HETATM    4  C10 UNL     1      22.631  43.348  61.090  1.00  0.00     0.046 C 
HETATM    5  C11 UNL     1      22.934  44.630  61.844  1.00  0.00     0.299 C 
ENDROOT
BRANCH   1   6
HETATM    6  C7  UNL     1      25.227  44.658  61.487  1.00  0.00     0.273 C 
BRANCH   6   7
HETATM    7  C6  UNL     1      26.363  44.452  60.578  1.00  0.00     0.037 C 
BRANCH   7   8
HETATM    8  C5  UNL     1      26.706  43.048  60.279  1.00  0.00     0.067 C 
BRANCH   8   9
HETATM    9  C4  UNL     1      27.695  42.587  61.347  1.00  0.00     0.051 A 
HETATM   10  S1  UNL     1      29.384  42.797  61.451  1.00  0.00    -0.087 SA
HETATM   11  C3  UNL     1      29.655  41.962  62.921  1.00  0.00     0.076 A 
HETATM   12  C2  UNL     1      28.383  41.562  63.247  1.00  0.00     0.012 A 
HETATM   13  C1  UNL     1      28.142  40.758  64.513  1.00  0.00     0.068 C 
HETATM   14  N4  UNL     1      27.428  41.892  62.439  1.00  0.00    -0.357 N 
ATOM     15  H4  UNL     1      26.468  41.615  62.645  1.00  0.00     0.166 HD
ENDBRANCH   8   9
ENDBRANCH   7   8
ENDBRANCH   6   7
ENDBRANCH   1   6
BRANCH   5  16
HETATM   16  C12 UNL     1      21.753  45.507  61.852  1.00  0.00     0.182 A 
HETATM   17  N2  UNL     1      20.486  45.150  61.655  1.00  0.00    -0.325 N 
HETATM   18  C13 UNL     1      19.720  46.249  61.743  1.00  0.00     0.108 A 
ATOM     19  H2  UNL     1      20.155  44.204  61.469  1.00  0.00     0.169 HD
HETATM   20  N3  UNL     1      20.560  47.267  61.995  1.00  0.00    -0.247 N 
HETATM   21  O1  UNL     1      21.758  46.794  62.054  1.00  0.00    -0.221 OA
ATOM     22  H3  UNL     1      20.296  48.245  62.118  1.00  0.00     0.196 HD
BRANCH  18  23
HETATM   23  C14 UNL     1      18.258  46.382  61.608  1.00  0.00     0.055 A 
HETATM   24  C15 UNL     1      17.617  47.476  60.883  1.00  0.00     0.013 A 
HETATM   25  C16 UNL     1      17.760  46.160  60.144  1.00  0.00     0.013 A 
ENDBRANCH  18  23
ENDBRANCH   5  16
TORSDOF 6
ENDMDL
MODEL 3
REMARK VINA RESULT: -7.893819951      2.682      3.981
REMARK  6 active torsions:
REMARK  status: ('A' for Active; 'I' for Inactive)
REMARK    1  A    between atoms: C4_5  and  C5_6 
REMARK    2  A    between atoms: C5_6  and  C6_7 
REMARK    3  A    between atoms: C6_7  and  C7_8 
REMARK    4  A    between atoms: C7_8  and  N1_9 
REMARK    5  A    between atoms: C11_13  and  C12_14 
REMARK    6  A    between atoms: C13_17  and  C14_18 
ROOT
HETATM    1  N1  UNL     1      23.109  45.295  59.505  1.00  0.00     0.101 N 
HETATM    2  C8  UNL     1      22.946  43.960  59.923  1.00  0.00     0.273 C 
HETATM    3  C9  UNL     1      23.979  43.798  61.043  1.00  0.00     0.033 C 
HETATM    4  C10 UNL     1      24.052  45.172  61.638  1.00  0.00     0.046 C 
HETATM    5  C11 UNL     1      23.124  46.018  60.785  1.00  0.00     0.299 C 
ENDROOT
BRANCH   1   6
HETATM    6  C7  UNL     1      24.205  45.704  58.756  1.00  0.00     0.273 C 
BRANCH   6   7
HETATM    7  C6  UNL     1      24.668  44.962  57.576  1.00  0.00     0.037 C 
BRANCH   7   8
HETATM    8  C5  UNL     1      26.044  45.251  57.127  1.00  0.00     0.067 C 
BRANCH   8   9
HETATM    9  C4  UNL     1      26.992  44.536  58.086  1.00  0.00     0.051 A 
HETATM   10  S1  UNL     1      26.898  42.979  58.774  1.00  0.00    -0.087 SA
HETATM   11  C3  UNL     1      28.331  43.026  59.709  1.00  0.00     0.076 A 
HETATM   12  C2  UNL     1      28.806  44.280  59.420  1.00  0.00     0.012 A 
HETATM   13  C1  UNL     1      30.096  44.768  60.055  1.00  0.00     0.068 C 
HETATM   14  N4  UNL     1      28.113  45.008  58.605  1.00  0.00    -0.357 N 
ATOM     15  H4  UNL     1      28.431  45.946  58.363  1.00  0.00     0.166 HD
ENDBRANCH   8   9
ENDBRANCH   7   8
ENDBRANCH   6   7
ENDBRANCH   1   6
BRANCH   5  16
HETATM   16  C12 UNL     1      21.782  46.065  61.387  1.00  0.00     0.182 A 
HETATM   17  N2  UNL     1      20.657  46.481  60.811  1.00  0.00    -0.325 N 
HETATM   18  C13 UNL     1      19.659  46.363  61.701  1.00  0.00     0.108 A 
ATOM     19  H2  UNL     1      20.569  46.829  59.857  1.00  0.00     0.169 HD
HETATM   20  N3  UNL     1      20.217  45.870  62.820  1.00  0.00    -0.247 N 
HETATM   21  O1  UNL     1      21.477  45.704  62.602  1.00  0.00    -0.221 OA
ATOM     22  H3  UNL     1      19.728  45.664  63.691  1.00  0.00     0.196 HD
BRANCH  18  23
HETATM   23  C14 UNL     1      18.228  46.684  61.548  1.00  0.00     0.055 A 
HETATM   24  C15 UNL     1      17.721  47.636  60.564  1.00  0.00     0.013 A 
HETATM   25  C16 UNL     1      17.630  46.165  60.202  1.00  0.00     0.013 A 
ENDBRANCH  18  23
ENDBRANCH   5  16
TORSDOF 6
ENDMDL
MODEL 4
REMARK VINA RESULT: -7.875424880      4.013      6.910
REMARK  6 active torsions:
REMARK  status: ('A' for Active; 'I' for Inactive)
REMARK    1  A    between atoms: C4_5  and  C5_6 
REMARK    2  A    between atoms: C5_6  and  C6_7 
REMARK    3  A    between atoms: C6_7  and  C7_8 
REMARK    4  A    between atoms: C7_8  and  N1_9 
REMARK    5  A    between atoms: C11_13  and  C12_14 
REMARK    6  A    between atoms: C13_17  and  C14_18 
ROOT
HETATM    1  N1  UNL     1      24.736  44.309  61.232  1.00  0.00     0.101 N 
HETATM    2  C8  UNL     1      24.764  45.188  60.133  1.00  0.00     0.273 C 
HETATM    3  C9  UNL     1      24.152  44.369  58.992  1.00  0.00     0.033 C 
HETATM    4  C10 UNL     1      23.185  43.470  59.701  1.00  0.00     0.046 C 
HETATM    5  C11 UNL     1      23.362  43.788  61.174  1.00  0.00     0.299 C 
ENDROOT
BRANCH   1   6
HETATM    6  C7  UNL     1      25.610  43.233  61.337  1.00  0.00     0.273 C 
BRANCH   6   7
HETATM    7  C6  UNL     1      27.023  43.406  61.697  1.00  0.00     0.037 C 
BRANCH   7   8
HETATM    8  C5  UNL     1      27.903  42.248  61.441  1.00  0.00     0.067 C 
BRANCH   8   9
HETATM    9  C4  UNL     1      28.314  41.685  62.799  1.00  0.00     0.051 A 
HETATM   10  S1  UNL     1      29.839  41.646  63.561  1.00  0.00    -0.087 SA
HETATM   11  C3  UNL     1      29.386  40.835  64.999  1.00  0.00     0.076 A 
HETATM   12  C2  UNL     1      28.043  40.641  64.791  1.00  0.00     0.012 A 
HETATM   13  C1  UNL     1      27.209  39.929  65.842  1.00  0.00     0.068 C 
HETATM   14  N4  UNL     1      27.541  41.078  63.683  1.00  0.00    -0.357 N 
ATOM     15  H4  UNL     1      26.547  40.955  63.490  1.00  0.00     0.166 HD
ENDBRANCH   8   9
ENDBRANCH   7   8
ENDBRANCH   6   7
ENDBRANCH   1   6
BRANCH   5  16
HETATM   16  C12 UNL     1      22.387  44.807  61.595  1.00  0.00     0.182 A 
HETATM   17  N2  UNL     1      21.353  45.267  60.896  1.00  0.00    -0.325 N 
HETATM   18  C13 UNL     1      20.717  46.186  61.639  1.00  0.00     0.108 A 
ATOM     19  H2  UNL     1      21.090  44.971  59.956  1.00  0.00     0.169 HD
HETATM   20  N3  UNL     1      21.398  46.264  62.795  1.00  0.00    -0.247 N 
HETATM   21  O1  UNL     1      22.382  45.433  62.738  1.00  0.00    -0.221 OA
ATOM     22  H3  UNL     1      21.174  46.874  63.582  1.00  0.00     0.196 HD
BRANCH  18  23
HETATM   23  C14 UNL     1      19.516  46.979  61.318  1.00  0.00     0.055 A 
HETATM   24  C15 UNL     1      18.741  46.799  60.093  1.00  0.00     0.013 A 
HETATM   25  C16 UNL     1      18.204  46.131  61.345  1.00  0.00     0.013 A 
ENDBRANCH  18  23
ENDBRANCH   5  16
TORSDOF 6
ENDMDL
MODEL 5
REMARK VINA RESULT: -7.768203980      6.613      9.150
REMARK  6 active torsions:
REMARK  status: ('A' for Active; 'I' for Inactive)
REMARK    1  A    between atoms: C4_5  and  C5_6 
REMARK    2  A    between atoms: C5_6  and  C6_7 
REMARK    3  A    between atoms: C6_7  and  C7_8 
REMARK    4  A    between atoms: C7_8  and  N1_9 
REMARK    5  A    between atoms: C11_13  and  C12_14 
REMARK    6  A    between atoms: C13_17  and  C14_18 
ROOT
HETATM    1  N1  UNL     1      28.887  40.017  64.968  1.00  0.00     0.101 N 
HETATM    2  C8  UNL     1      29.289  39.131  65.986  1.00  0.00     0.273 C 
HETATM    3  C9  UNL     1      29.426  40.028  67.220  1.00  0.00     0.033 C 
HETATM    4  C10 UNL     1      28.396  41.091  66.984  1.00  0.00     0.046 C 
HETATM    5  C11 UNL     1      27.806  40.767  65.623  1.00  0.00     0.299 C 
ENDROOT
BRANCH   1   6
HETATM    6  C7  UNL     1      29.767  40.926  64.393  1.00  0.00     0.273 C 
BRANCH   6   7
HETATM    7  C6  UNL     1      29.324  41.939  63.426  1.00  0.00     0.037 C 
BRANCH   7   8
HETATM    8  C5  UNL     1      28.811  41.426  62.140  1.00  0.00     0.067 C 
BRANCH   8   9
HETATM    9  C4  UNL     1      27.822  42.458  61.604  1.00  0.00     0.051 A 
HETATM   10  S1  UNL     1      28.086  43.850  60.656  1.00  0.00    -0.087 SA
HETATM   11  C3  UNL     1      26.467  44.398  60.552  1.00  0.00     0.076 A 
HETATM   12  C2  UNL     1      25.806  43.439  61.278  1.00  0.00     0.012 A 
HETATM   13  C1  UNL     1      24.301  43.530  61.461  1.00  0.00     0.068 C 
HETATM   14  N4  UNL     1      26.513  42.484  61.789  1.00  0.00    -0.357 N 
ATOM     15  H4  UNL     1      26.061  41.751  62.335  1.00  0.00     0.166 HD
ENDBRANCH   8   9
ENDBRANCH   7   8
ENDBRANCH   6   7
ENDBRANCH   1   6
BRANCH   5  16
HETATM   16  C12 UNL     1      26.599  39.939  65.777  1.00  0.00     0.182 A 
HETATM   17  N2  UNL     1      26.253  38.880  65.050  1.00  0.00    -0.325 N 
HETATM   18  C13 UNL     1      25.083  38.414  65.514  1.00  0.00     0.108 A 
ATOM     19  H2  UNL     1      26.785  38.490  64.272  1.00  0.00     0.169 HD
HETATM   20  N3  UNL     1      24.741  39.220  66.533  1.00  0.00    -0.247 N 
HETATM   21  O1  UNL     1      25.660  40.114  66.664  1.00  0.00    -0.221 OA
ATOM     22  H3  UNL     1      23.899  39.139  67.103  1.00  0.00     0.196 HD
BRANCH  18  23
HETATM   23  C14 UNL     1      24.288  37.260  65.053  1.00  0.00     0.055 A 
HETATM   24  C15 UNL     1      22.956  36.950  65.566  1.00  0.00     0.013 A 
HETATM   25  C16 UNL     1      23.023  37.681  64.239  1.00  0.00     0.013 A 
ENDBRANCH  18  23
ENDBRANCH   5  16
TORSDOF 6
ENDMDL
