MODEL 1
REMARK VINA RESULT: -8.178252256      0.000      0.000
REMARK  6 active torsions:
REMARK  status: ('A' for Active; 'I' for Inactive)
REMARK    1  A    between atoms: C3_7  and  C4_8 
REMARK    2  A    between atoms: C4_8  and  C6_10 
REMARK    3  A    between atoms: C6_10  and  C7_11 
REMARK    4  A    between atoms: C7_11  and  C8_12 
REMARK    5  A    between atoms: C8_12  and  C9_13 
REMARK    6  A    between atoms: C10_17  and  C11_18 
ROOT
HETATM    1  C8  UNL     1      23.298  47.800  62.899  1.00  0.00     0.078 C 
ENDROOT
BRANCH   1   2
HETATM    2  C7  UNL     1      22.296  46.682  62.938  1.00  0.00     0.008 C 
BRANCH   2   3
HETATM    3  C6  UNL     1      20.966  47.034  62.354  1.00  0.00     0.012 C 
BRANCH   3   4
HETATM    4  C4  UNL     1      20.414  46.019  61.401  1.00  0.00     0.051 C 
HETATM    5  C5  UNL     1      19.252  46.702  60.670  1.00  0.00     0.018 C 
BRANCH   4   6
HETATM    6  C3  UNL     1      21.445  45.624  60.405  1.00  0.00     0.102 A 
HETATM    7  N2  UNL     1      21.873  46.384  59.356  1.00  0.00    -0.287 N 
HETATM    8  N1  UNL     1      22.789  45.698  58.700  1.00  0.00    -0.288 N 
ATOM      9  H2  UNL     1      21.542  47.319  59.119  1.00  0.00     0.188 HD
HETATM   10  C2  UNL     1      22.978  44.509  59.283  1.00  0.00     0.095 A 
ATOM     11  H1  UNL     1      23.282  46.026  57.869  1.00  0.00     0.188 HD
HETATM   12  C1  UNL     1      23.915  43.472  58.843  1.00  0.00     0.091 C 
HETATM   13  N5  UNL     1      22.133  44.491  60.338  1.00  0.00    -0.329 N 
HETATM   14  C17 UNL     1      22.024  43.354  61.250  1.00  0.00     0.159 C 
ENDBRANCH   4   6
ENDBRANCH   3   4
ENDBRANCH   2   3
ENDBRANCH   1   2
BRANCH   1  15
HETATM   15  C9  UNL     1      24.647  47.176  62.725  1.00  0.00     0.103 A 
HETATM   16  N3  UNL     1      25.775  47.457  63.388  1.00  0.00    -0.247 N 
HETATM   17  O1  UNL     1      26.726  46.699  62.942  1.00  0.00    -0.222 OA
ATOM     18  H3  UNL     1      25.870  48.156  64.125  1.00  0.00     0.196 HD
HETATM   19  C10 UNL     1      26.275  45.917  62.001  1.00  0.00     0.152 A 
HETATM   20  N4  UNL     1      24.975  46.197  61.846  1.00  0.00    -0.327 N 
ATOM     21  H4  UNL     1      24.341  45.752  61.182  1.00  0.00     0.169 HD
BRANCH  19  22
HETATM   22  C11 UNL     1      27.030  44.925  61.255  1.00  0.00     0.063 C 
HETATM   23  C12 UNL     1      26.886  45.098  59.740  1.00  0.00     0.013 C 
HETATM   24  C13 UNL     1      27.886  44.157  59.125  1.00  0.00     0.001 C 
HETATM   25  C14 UNL     1      27.703  42.734  59.492  1.00  0.00     0.000 C 
HETATM   26  C15 UNL     1      27.322  42.467  60.903  1.00  0.00     0.001 C 
HETATM   27  C16 UNL     1      26.506  43.532  61.552  1.00  0.00     0.013 C 
ENDBRANCH  19  22
ENDBRANCH   1  15
TORSDOF 6
ENDMDL
MODEL 2
REMARK VINA RESULT: -8.121482079      1.710      5.421
REMARK  6 active torsions:
REMARK  status: ('A' for Active; 'I' for Inactive)
REMARK    1  A    between atoms: C3_7  and  C4_8 
REMARK    2  A    between atoms: C4_8  and  C6_10 
REMARK    3  A    between atoms: C6_10  and  C7_11 
REMARK    4  A    between atoms: C7_11  and  C8_12 
REMARK    5  A    between atoms: C8_12  and  C9_13 
REMARK    6  A    between atoms: C10_17  and  C11_18 
ROOT
HETATM    1  C8  UNL     1      26.248  46.783  62.764  1.00  0.00     0.078 C 
ENDROOT
BRANCH   1   2
HETATM    2  C7  UNL     1      26.530  45.376  62.321  1.00  0.00     0.008 C 
BRANCH   2   3
HETATM    3  C6  UNL     1      27.034  45.267  60.918  1.00  0.00     0.012 C 
BRANCH   3   4
HETATM    4  C4  UNL     1      26.768  43.948  60.260  1.00  0.00     0.051 C 
HETATM    5  C5  UNL     1      26.843  42.890  61.367  1.00  0.00     0.018 C 
BRANCH   4   6
HETATM    6  C3  UNL     1      25.405  43.928  59.664  1.00  0.00     0.102 A 
HETATM    7  N2  UNL     1      24.304  43.337  60.211  1.00  0.00    -0.287 N 
HETATM    8  N1  UNL     1      23.287  43.529  59.394  1.00  0.00    -0.288 N 
ATOM      9  H2  UNL     1      24.273  42.834  61.098  1.00  0.00     0.188 HD
HETATM   10  C2  UNL     1      23.684  44.227  58.324  1.00  0.00     0.095 A 
ATOM     11  H1  UNL     1      22.337  43.194  59.554  1.00  0.00     0.188 HD
HETATM   12  C1  UNL     1      22.838  44.634  57.198  1.00  0.00     0.091 C 
HETATM   13  N5  UNL     1      25.000  44.461  58.519  1.00  0.00    -0.329 N 
HETATM   14  C17 UNL     1      25.824  45.203  57.567  1.00  0.00     0.159 C 
ENDBRANCH   4   6
ENDBRANCH   3   4
ENDBRANCH   2   3
ENDBRANCH   1   2
BRANCH   1  15
HETATM   15  C9  UNL     1      24.764  46.968  62.722  1.00  0.00     0.103 A 
HETATM   16  N3  UNL     1      24.011  47.754  63.500  1.00  0.00    -0.247 N 
HETATM   17  O1  UNL     1      22.771  47.633  63.147  1.00  0.00    -0.222 OA
ATOM     18  H3  UNL     1      24.358  48.351  64.250  1.00  0.00     0.196 HD
HETATM   19  C10 UNL     1      22.664  46.791  62.157  1.00  0.00     0.152 A 
HETATM   20  N4  UNL     1      23.899  46.360  61.872  1.00  0.00    -0.327 N 
ATOM     21  H4  UNL     1      24.147  45.691  61.143  1.00  0.00     0.169 HD
BRANCH  19  22
HETATM   22  C11 UNL     1      21.442  46.388  61.481  1.00  0.00     0.063 C 
HETATM   23  C12 UNL     1      21.403  46.846  60.021  1.00  0.00     0.013 C 
HETATM   24  C13 UNL     1      20.205  46.169  59.414  1.00  0.00     0.001 C 
HETATM   25  C14 UNL     1      18.917  46.479  60.075  1.00  0.00     0.000 C 
HETATM   26  C15 UNL     1      18.950  46.565  61.558  1.00  0.00     0.001 C 
HETATM   27  C16 UNL     1      20.239  47.037  62.138  1.00  0.00     0.013 C 
ENDBRANCH  19  22
ENDBRANCH   1  15
TORSDOF 6
ENDMDL
MODEL 3
REMARK VINA RESULT: -8.118272922      3.245      5.382
REMARK  6 active torsions:
REMARK  status: ('A' for Active; 'I' for Inactive)
REMARK    1  A    between atoms: C3_7  and  C4_8 
REMARK    2  A    between atoms: C4_8  and  C6_10 
REMARK    3  A    between atoms: C6_10  and  C7_11 
REMARK    4  A    between atoms: C7_11  and  C8_12 
REMARK    5  A    between atoms: C8_12  and  C9_13 
REMARK    6  A    between atoms: C10_17  and  C11_18 
ROOT
HETATM    1  C8  UNL     1      25.039  43.265  60.059  1.00  0.00     0.078 C 
ENDROOT
BRANCH   1   2
HETATM    2  C7  UNL     1      24.732  44.246  61.153  1.00  0.00     0.008 C 
BRANCH   2   3
HETATM    3  C6  UNL     1      23.307  44.231  61.605  1.00  0.00     0.012 C 
BRANCH   3   4
HETATM    4  C4  UNL     1      22.776  45.562  62.039  1.00  0.00     0.051 C 
HETATM    5  C5  UNL     1      23.916  46.568  61.839  1.00  0.00     0.018 C 
BRANCH   4   6
HETATM    6  C3  UNL     1      21.622  45.965  61.190  1.00  0.00     0.102 A 
HETATM    7  N2  UNL     1      21.629  46.061  59.829  1.00  0.00    -0.287 N 
HETATM    8  N1  UNL     1      20.428  46.445  59.440  1.00  0.00    -0.288 N 
ATOM      9  H2  UNL     1      22.424  45.870  59.219  1.00  0.00     0.188 HD
HETATM   10  C2  UNL     1      19.631  46.606  60.502  1.00  0.00     0.095 A 
ATOM     11  H1  UNL     1      20.149  46.597  58.471  1.00  0.00     0.188 HD
HETATM   12  C1  UNL     1      18.227  47.025  60.470  1.00  0.00     0.091 C 
HETATM   13  N5  UNL     1      20.397  46.300  61.572  1.00  0.00    -0.329 N 
HETATM   14  C17 UNL     1      19.899  46.350  62.946  1.00  0.00     0.159 C 
ENDBRANCH   4   6
ENDBRANCH   3   4
ENDBRANCH   2   3
ENDBRANCH   1   2
BRANCH   1  15
HETATM   15  C9  UNL     1      24.436  43.803  58.801  1.00  0.00     0.103 A 
HETATM   16  N3  UNL     1      23.601  43.185  57.958  1.00  0.00    -0.247 N 
HETATM   17  O1  UNL     1      23.307  43.990  56.988  1.00  0.00    -0.222 OA
ATOM     18  H3  UNL     1      23.252  42.232  58.064  1.00  0.00     0.196 HD
HETATM   19  C10 UNL     1      23.917  45.132  57.148  1.00  0.00     0.152 A 
HETATM   20  N4  UNL     1      24.631  45.040  58.278  1.00  0.00    -0.327 N 
ATOM     21  H4  UNL     1      25.220  45.771  58.675  1.00  0.00     0.169 HD
BRANCH  19  22
HETATM   22  C11 UNL     1      23.845  46.291  56.277  1.00  0.00     0.063 C 
HETATM   23  C12 UNL     1      25.137  47.112  56.285  1.00  0.00     0.013 C 
HETATM   24  C13 UNL     1      24.984  48.126  55.184  1.00  0.00     0.001 C 
HETATM   25  C14 UNL     1      23.814  49.022  55.327  1.00  0.00     0.000 C 
HETATM   26  C15 UNL     1      22.566  48.391  55.826  1.00  0.00     0.001 C 
HETATM   27  C16 UNL     1      22.762  47.241  56.753  1.00  0.00     0.013 C 
ENDBRANCH  19  22
ENDBRANCH   1  15
TORSDOF 6
ENDMDL
MODEL 4
REMARK VINA RESULT: -8.095241502      5.573      9.041
REMARK  6 active torsions:
REMARK  status: ('A' for Active; 'I' for Inactive)
REMARK    1  A    between atoms: C3_7  and  C4_8 
REMARK    2  A    between atoms: C4_8  and  C6_10 
REMARK    3  A    between atoms: C6_10  and  C7_11 
REMARK    4  A    between atoms: C7_11  and  C8_12 
REMARK    5  A    between atoms: C8_12  and  C9_13 
REMARK    6  A    between atoms: C10_17  and  C11_18 
ROOT
HETATM    1  C8  UNL     1      28.556  41.749  61.792  1.00  0.00     0.078 C 
ENDROOT
BRANCH   1   2
HETATM    2  C7  UNL     1      29.370  41.955  63.037  1.00  0.00     0.008 C 
BRANCH   2   3
HETATM    3  C6  UNL     1      29.633  40.703  63.809  1.00  0.00     0.012 C 
BRANCH   3   4
HETATM    4  C4  UNL     1      29.279  40.779  65.262  1.00  0.00     0.051 C 
HETATM    5  C5  UNL     1      27.850  40.235  65.387  1.00  0.00     0.018 C 
BRANCH   4   6
HETATM    6  C3  UNL     1      30.192  39.925  66.068  1.00  0.00     0.102 A 
HETATM    7  N2  UNL     1      29.894  38.692  66.571  1.00  0.00    -0.287 N 
HETATM    8  N1  UNL     1      30.951  38.252  67.227  1.00  0.00    -0.288 N 
ATOM      9  H2  UNL     1      29.009  38.198  66.461  1.00  0.00     0.188 HD
HETATM   10  C2  UNL     1      31.935  39.155  67.171  1.00  0.00     0.095 A 
ATOM     11  H1  UNL     1      31.009  37.352  67.705  1.00  0.00     0.188 HD
HETATM   12  C1  UNL     1      33.261  39.023  67.781  1.00  0.00     0.091 C 
HETATM   13  N5  UNL     1      31.437  40.181  66.446  1.00  0.00    -0.329 N 
HETATM   14  C17 UNL     1      32.204  41.389  66.149  1.00  0.00     0.159 C 
ENDBRANCH   4   6
ENDBRANCH   3   4
ENDBRANCH   2   3
ENDBRANCH   1   2
BRANCH   1  15
HETATM   15  C9  UNL     1      28.043  43.091  61.374  1.00  0.00     0.103 A 
HETATM   16  N3  UNL     1      28.453  43.846  60.348  1.00  0.00    -0.247 N 
HETATM   17  O1  UNL     1      27.758  44.938  60.324  1.00  0.00    -0.222 OA
ATOM     18  H3  UNL     1      29.194  43.600  59.692  1.00  0.00     0.196 HD
HETATM   19  C10 UNL     1      26.893  44.944  61.300  1.00  0.00     0.152 A 
HETATM   20  N4  UNL     1      27.052  43.797  61.973  1.00  0.00    -0.327 N 
ATOM     21  H4  UNL     1      26.521  43.506  62.794  1.00  0.00     0.169 HD
BRANCH  19  22
HETATM   22  C11 UNL     1      25.933  45.989  61.609  1.00  0.00     0.063 C 
HETATM   23  C12 UNL     1      26.174  46.617  62.985  1.00  0.00     0.013 C 
HETATM   24  C13 UNL     1      25.258  47.808  63.056  1.00  0.00     0.001 C 
HETATM   25  C14 UNL     1      23.821  47.495  62.888  1.00  0.00     0.000 C 
HETATM   26  C15 UNL     1      23.493  46.466  61.868  1.00  0.00     0.001 C 
HETATM   27  C16 UNL     1      24.530  45.415  61.670  1.00  0.00     0.013 C 
ENDBRANCH  19  22
ENDBRANCH   1  15
TORSDOF 6
ENDMDL
MODEL 5
REMARK VINA RESULT: -7.926773311      2.126      5.689
REMARK  6 active torsions:
REMARK  status: ('A' for Active; 'I' for Inactive)
REMARK    1  A    between atoms: C3_7  and  C4_8 
REMARK    2  A    between atoms: C4_8  and  C6_10 
REMARK    3  A    between atoms: C6_10  and  C7_11 
REMARK    4  A    between atoms: C7_11  and  C8_12 
REMARK    5  A    between atoms: C8_12  and  C9_13 
REMARK    6  A    between atoms: C10_17  and  C11_18 
ROOT
HETATM    1  C8  UNL     1      25.356  46.078  61.914  1.00  0.00     0.078 C 
ENDROOT
BRANCH   1   2
HETATM    2  C7  UNL     1      25.127  44.700  61.366  1.00  0.00     0.008 C 
BRANCH   2   3
HETATM    3  C6  UNL     1      25.575  44.522  59.951  1.00  0.00     0.012 C 
BRANCH   3   4
HETATM    4  C4  UNL     1      24.520  44.004  59.022  1.00  0.00     0.051 C 
HETATM    5  C5  UNL     1      23.427  43.394  59.908  1.00  0.00     0.018 C 
BRANCH   4   6
HETATM    6  C3  UNL     1      23.933  45.116  58.227  1.00  0.00     0.102 A 
HETATM    7  N2  UNL     1      22.655  45.583  58.332  1.00  0.00    -0.287 N 
HETATM    8  N1  UNL     1      22.507  46.568  57.468  1.00  0.00    -0.288 N 
ATOM      9  H2  UNL     1      21.939  45.231  58.968  1.00  0.00     0.188 HD
HETATM   10  C2  UNL     1      23.647  46.765  56.797  1.00  0.00     0.095 A 
ATOM     11  H1  UNL     1      21.649  47.103  57.333  1.00  0.00     0.188 HD
HETATM   12  C1  UNL     1      23.871  47.771  55.754  1.00  0.00     0.091 C 
HETATM   13  N5  UNL     1      24.513  45.851  57.288  1.00  0.00    -0.329 N 
HETATM   14  C17 UNL     1      25.891  45.728  56.816  1.00  0.00     0.159 C 
ENDBRANCH   4   6
ENDBRANCH   3   4
ENDBRANCH   2   3
ENDBRANCH   1   2
BRANCH   1  15
HETATM   15  C9  UNL     1      24.017  46.638  62.275  1.00  0.00     0.103 A 
HETATM   16  N3  UNL     1      23.721  47.492  63.262  1.00  0.00    -0.247 N 
HETATM   17  O1  UNL     1      22.448  47.732  63.244  1.00  0.00    -0.222 OA
ATOM     18  H3  UNL     1      24.390  47.889  63.921  1.00  0.00     0.196 HD
HETATM   19  C10 UNL     1      21.877  47.068  62.278  1.00  0.00     0.152 A 
HETATM   20  N4  UNL     1      22.839  46.374  61.657  1.00  0.00    -0.327 N 
ATOM     21  H4  UNL     1      22.709  45.754  60.857  1.00  0.00     0.169 HD
BRANCH  19  22
HETATM   22  C11 UNL     1      20.467  47.070  61.931  1.00  0.00     0.063 C 
HETATM   23  C12 UNL     1      19.697  45.929  62.601  1.00  0.00     0.013 C 
HETATM   24  C13 UNL     1      18.243  46.202  62.327  1.00  0.00     0.001 C 
HETATM   25  C14 UNL     1      17.887  46.278  60.892  1.00  0.00     0.000 C 
HETATM   26  C15 UNL     1      18.868  46.965  60.013  1.00  0.00     0.001 C 
HETATM   27  C16 UNL     1      20.291  46.853  60.440  1.00  0.00     0.013 C 
ENDBRANCH  19  22
ENDBRANCH   1  15
TORSDOF 6
ENDMDL
