MODEL 1
REMARK VINA RESULT: -9.413331200      0.000      0.000
REMARK  9 active torsions:
REMARK  status: ('A' for Active; 'I' for Inactive)
REMARK    1  A    between atoms: C2_2  and  N1_3 
REMARK    2  A    between atoms: N1_3  and  C3_4 
REMARK    3  A    between atoms: N1_3  and  C5_6 
REMARK    4  A    between atoms: C5_6  and  C6_7 
REMARK    5  A    between atoms: C10_13  and  N3_14 
REMARK    6  A    between atoms: N3_14  and  S1_16 
REMARK    7  A    between atoms: S1_16  and  C11_19 
REMARK    8  A    between atoms: C18_26  and  N4_27 
REMARK    9  A    between atoms: N4_27  and  C19_29 
ROOT
HETATM    1  C19 UNL     1      27.810   7.240  -6.215  1.00  0.00     0.045 A 
HETATM    2  C20 UNL     1      27.290   6.240  -5.429  1.00  0.00    -0.033 A 
HETATM    3  C21 UNL     1      26.645   6.504  -4.118  1.00  0.00     0.050 C 
HETATM    4  C22 UNL     1      27.345   4.903  -5.831  1.00  0.00     0.031 A 
HETATM    5  C23 UNL     1      27.918   4.569  -7.019  1.00  0.00     0.045 A 
HETATM    6  C24 UNL     1      27.964   3.180  -7.415  1.00  0.00     0.099 C 
HETATM    7  N5  UNL     1      27.988   2.072  -7.720  1.00  0.00    -0.191 NA
HETATM    8  C25 UNL     1      28.443   5.547  -7.819  1.00  0.00     0.031 A 
HETATM    9  C26 UNL     1      28.386   6.889  -7.412  1.00  0.00    -0.033 A 
HETATM   10  C27 UNL     1      28.948   7.926  -8.274  1.00  0.00     0.050 C 
ENDROOT
BRANCH   1  11
HETATM   11  N4  UNL     1      27.757   8.566  -5.817  1.00  0.00    -0.338 N 
ATOM     12  H4  UNL     1      28.637   8.984  -5.514  1.00  0.00     0.167 HD
BRANCH  11  13
HETATM   13  C18 UNL     1      26.719   9.329  -5.787  1.00  0.00     0.152 A 
HETATM   14  C10 UNL     1      26.565  10.145  -4.687  1.00  0.00     0.160 A 
HETATM   15  N2  UNL     1      25.452  10.948  -4.678  1.00  0.00    -0.337 N 
HETATM   16  C9  UNL     1      24.563  10.952  -5.663  1.00  0.00     0.060 A 
ATOM     17  H2  UNL     1      25.301  11.567  -3.881  1.00  0.00     0.167 HD
HETATM   18  C8  UNL     1      23.462  11.814  -5.549  1.00  0.00     0.032 A 
HETATM   19  C28 UNL     1      24.744  10.126  -6.750  1.00  0.00     0.061 A 
HETATM   20  C7  UNL     1      22.556  11.805  -6.578  1.00  0.00     0.011 A 
HETATM   21  C6  UNL     1      22.719  10.986  -7.674  1.00  0.00    -0.038 A 
HETATM   22  C29 UNL     1      23.807  10.144  -7.772  1.00  0.00     0.040 A 
HETATM   23  N6  UNL     1      25.820   9.325  -6.798  1.00  0.00    -0.337 N 
ATOM     24  H6  UNL     1      25.960   8.710  -7.600  1.00  0.00     0.167 HD
BRANCH  14  25
HETATM   25  N3  UNL     1      27.304  10.254  -3.686  1.00  0.00    -0.263 N 
ATOM     26  H3  UNL     1      28.234  10.599  -3.926  1.00  0.00     0.180 HD
BRANCH  25  27
HETATM   27  S1  UNL     1      27.133   9.969  -2.044  1.00  0.00     0.264 S 
HETATM   28  O1  UNL     1      28.138   8.952  -1.514  1.00  0.00    -0.200 OA
HETATM   29  O2  UNL     1      25.764   9.395  -1.697  1.00  0.00    -0.200 OA
BRANCH  27  30
HETATM   30  C11 UNL     1      27.376  11.412  -1.082  1.00  0.00     0.085 A 
HETATM   31  C12 UNL     1      27.826  12.553  -1.701  1.00  0.00     0.026 A 
HETATM   32  C13 UNL     1      28.040  13.731  -0.990  1.00  0.00     0.002 A 
HETATM   33  C14 UNL     1      27.785  13.730   0.371  1.00  0.00     0.001 A 
HETATM   34  C15 UNL     1      27.332  12.578   0.981  1.00  0.00     0.008 A 
HETATM   35  C16 UNL     1      27.120  11.395   0.251  1.00  0.00    -0.039 A 
HETATM   36  C17 UNL     1      26.631  10.179   0.940  1.00  0.00     0.050 C 
ENDBRANCH  27  30
ENDBRANCH  25  27
ENDBRANCH  14  25
BRANCH  21  37
HETATM   37  C5  UNL     1      21.674  11.045  -8.752  1.00  0.00     0.160 C 
BRANCH  37  38
HETATM   38  N1  UNL     1      22.252  10.614  -9.984  1.00  0.00    -0.390 N 
BRANCH  38  39
HETATM   39  C2  UNL     1      21.706   9.437 -10.536  1.00  0.00     0.054 C 
HETATM   40  C1  UNL     1      22.685   8.333 -10.838  1.00  0.00     0.054 C 
ENDBRANCH  38  39
BRANCH  38  41
HETATM   41  C3  UNL     1      22.660  11.619 -10.887  1.00  0.00     0.118 C 
HETATM   42  C4  UNL     1      24.144  11.820 -11.047  1.00  0.00     0.026 C 
ENDBRANCH  38  41
ENDBRANCH  37  38
ENDBRANCH  21  37
ENDBRANCH  11  13
ENDBRANCH   1  11
TORSDOF 9
ENDMDL
MODEL 2
REMARK VINA RESULT: -9.387953265      2.653      8.364
REMARK  9 active torsions:
REMARK  status: ('A' for Active; 'I' for Inactive)
REMARK    1  A    between atoms: C2_2  and  N1_3 
REMARK    2  A    between atoms: N1_3  and  C3_4 
REMARK    3  A    between atoms: N1_3  and  C5_6 
REMARK    4  A    between atoms: C5_6  and  C6_7 
REMARK    5  A    between atoms: C10_13  and  N3_14 
REMARK    6  A    between atoms: N3_14  and  S1_16 
REMARK    7  A    between atoms: S1_16  and  C11_19 
REMARK    8  A    between atoms: C18_26  and  N4_27 
REMARK    9  A    between atoms: N4_27  and  C19_29 
ROOT
HETATM    1  C19 UNL     1      25.993   9.584  -7.611  1.00  0.00     0.045 A 
HETATM    2  C20 UNL     1      24.934  10.460  -7.657  1.00  0.00    -0.033 A 
HETATM    3  C21 UNL     1      23.863  10.477  -6.630  1.00  0.00     0.050 C 
HETATM    4  C22 UNL     1      24.813  11.391  -8.691  1.00  0.00     0.031 A 
HETATM    5  C23 UNL     1      25.750  11.447  -9.676  1.00  0.00     0.045 A 
HETATM    6  C24 UNL     1      25.604  12.418 -10.735  1.00  0.00     0.099 C 
HETATM    7  N5  UNL     1      25.479  13.200 -11.568  1.00  0.00    -0.191 NA
HETATM    8  C25 UNL     1      26.813  10.586  -9.651  1.00  0.00     0.031 A 
HETATM    9  C26 UNL     1      26.932   9.651  -8.610  1.00  0.00    -0.033 A 
HETATM   10  C27 UNL     1      28.072   8.737  -8.594  1.00  0.00     0.050 C 
ENDROOT
BRANCH   1  11
HETATM   11  N4  UNL     1      26.114   8.659  -6.586  1.00  0.00    -0.338 N 
ATOM     12  H4  UNL     1      25.733   7.730  -6.767  1.00  0.00     0.167 HD
BRANCH  11  13
HETATM   13  C18 UNL     1      26.654   8.843  -5.431  1.00  0.00     0.152 A 
HETATM   14  C10 UNL     1      27.438   7.827  -4.929  1.00  0.00     0.160 A 
HETATM   15  N2  UNL     1      28.002   8.046  -3.697  1.00  0.00    -0.337 N 
HETATM   16  C9  UNL     1      27.813   9.166  -3.012  1.00  0.00     0.060 A 
ATOM     17  H2  UNL     1      28.589   7.317  -3.291  1.00  0.00     0.167 HD
HETATM   18  C8  UNL     1      28.439   9.283  -1.761  1.00  0.00     0.032 A 
HETATM   19  C28 UNL     1      27.024  10.165  -3.539  1.00  0.00     0.061 A 
HETATM   20  C7  UNL     1      28.232  10.448  -1.070  1.00  0.00     0.011 A 
HETATM   21  C6  UNL     1      27.446  11.459  -1.580  1.00  0.00    -0.038 A 
HETATM   22  C29 UNL     1      26.838  11.330  -2.810  1.00  0.00     0.040 A 
HETATM   23  N6  UNL     1      26.455   9.990  -4.741  1.00  0.00    -0.337 N 
ATOM     24  H6  UNL     1      25.869  10.725  -5.137  1.00  0.00     0.167 HD
BRANCH  14  25
HETATM   25  N3  UNL     1      27.708   6.722  -5.445  1.00  0.00    -0.263 N 
ATOM     26  H3  UNL     1      28.674   6.670  -5.770  1.00  0.00     0.180 HD
BRANCH  25  27
HETATM   27  S1  UNL     1      26.862   5.304  -5.731  1.00  0.00     0.264 S 
HETATM   28  O1  UNL     1      25.541   5.242  -4.974  1.00  0.00    -0.200 OA
HETATM   29  O2  UNL     1      27.638   4.070  -5.284  1.00  0.00    -0.200 OA
BRANCH  27  30
HETATM   30  C11 UNL     1      26.445   5.099  -7.420  1.00  0.00     0.085 A 
HETATM   31  C12 UNL     1      25.120   4.990  -7.767  1.00  0.00     0.026 A 
HETATM   32  C13 UNL     1      24.726   4.824  -9.092  1.00  0.00     0.002 A 
HETATM   33  C14 UNL     1      25.709   4.772 -10.066  1.00  0.00     0.001 A 
HETATM   34  C15 UNL     1      27.036   4.884  -9.706  1.00  0.00     0.008 A 
HETATM   35  C16 UNL     1      27.420   5.051  -8.363  1.00  0.00    -0.039 A 
HETATM   36  C17 UNL     1      28.855   5.170  -8.014  1.00  0.00     0.050 C 
ENDBRANCH  27  30
ENDBRANCH  25  27
ENDBRANCH  14  25
BRANCH  21  37
HETATM   37  C5  UNL     1      27.279  12.701  -0.749  1.00  0.00     0.160 C 
BRANCH  37  38
HETATM   38  N1  UNL     1      28.398  13.559  -0.966  1.00  0.00    -0.390 N 
BRANCH  38  39
HETATM   39  C2  UNL     1      28.246  14.514  -1.992  1.00  0.00     0.054 C 
HETATM   40  C1  UNL     1      29.103  14.315  -3.214  1.00  0.00     0.054 C 
ENDBRANCH  38  39
BRANCH  38  41
HETATM   41  C3  UNL     1      29.137  13.950   0.172  1.00  0.00     0.118 C 
HETATM   42  C4  UNL     1      28.860  13.198   1.446  1.00  0.00     0.026 C 
ENDBRANCH  38  41
ENDBRANCH  37  38
ENDBRANCH  21  37
ENDBRANCH  11  13
ENDBRANCH   1  11
TORSDOF 9
ENDMDL
MODEL 3
REMARK VINA RESULT: -9.366669163      0.092      1.374
REMARK  9 active torsions:
REMARK  status: ('A' for Active; 'I' for Inactive)
REMARK    1  A    between atoms: C2_2  and  N1_3 
REMARK    2  A    between atoms: N1_3  and  C3_4 
REMARK    3  A    between atoms: N1_3  and  C5_6 
REMARK    4  A    between atoms: C5_6  and  C6_7 
REMARK    5  A    between atoms: C10_13  and  N3_14 
REMARK    6  A    between atoms: N3_14  and  S1_16 
REMARK    7  A    between atoms: S1_16  and  C11_19 
REMARK    8  A    between atoms: C18_26  and  N4_27 
REMARK    9  A    between atoms: N4_27  and  C19_29 
ROOT
HETATM    1  C19 UNL     1      27.794   7.219  -6.141  1.00  0.00     0.045 A 
HETATM    2  C20 UNL     1      28.364   6.861  -7.339  1.00  0.00    -0.033 A 
HETATM    3  C21 UNL     1      28.961   7.852  -8.271  1.00  0.00     0.050 C 
HETATM    4  C22 UNL     1      28.410   5.526  -7.747  1.00  0.00     0.031 A 
HETATM    5  C23 UNL     1      27.887   4.550  -6.955  1.00  0.00     0.045 A 
HETATM    6  C24 UNL     1      27.946   3.176  -7.397  1.00  0.00     0.099 C 
HETATM    7  N5  UNL     1      28.005   2.086  -7.758  1.00  0.00    -0.191 NA
HETATM    8  C25 UNL     1      27.314   4.882  -5.758  1.00  0.00     0.031 A 
HETATM    9  C26 UNL     1      27.270   6.225  -5.352  1.00  0.00    -0.033 A 
HETATM   10  C27 UNL     1      26.656   6.567  -4.071  1.00  0.00     0.050 C 
ENDROOT
BRANCH   1  11
HETATM   11  N4  UNL     1      27.747   8.543  -5.737  1.00  0.00    -0.338 N 
ATOM     12  H4  UNL     1      28.620   8.945  -5.396  1.00  0.00     0.167 HD
BRANCH  11  13
HETATM   13  C18 UNL     1      26.721   9.323  -5.742  1.00  0.00     0.152 A 
HETATM   14  C10 UNL     1      26.571  10.180  -4.674  1.00  0.00     0.160 A 
HETATM   15  N2  UNL     1      25.472  11.002  -4.702  1.00  0.00    -0.337 N 
HETATM   16  C9  UNL     1      24.591  10.984  -5.694  1.00  0.00     0.060 A 
ATOM     17  H2  UNL     1      25.325  11.651  -3.929  1.00  0.00     0.167 HD
HETATM   18  C8  UNL     1      23.503  11.868  -5.620  1.00  0.00     0.032 A 
HETATM   19  C28 UNL     1      24.767  10.117  -6.749  1.00  0.00     0.061 A 
HETATM   20  C7  UNL     1      22.605  11.835  -6.655  1.00  0.00     0.011 A 
HETATM   21  C6  UNL     1      22.763  10.975  -7.720  1.00  0.00    -0.038 A 
HETATM   22  C29 UNL     1      23.837  10.113  -7.779  1.00  0.00     0.040 A 
HETATM   23  N6  UNL     1      25.829   9.297  -6.759  1.00  0.00    -0.337 N 
ATOM     24  H6  UNL     1      25.965   8.652  -7.538  1.00  0.00     0.167 HD
BRANCH  14  25
HETATM   25  N3  UNL     1      27.305  10.314  -3.671  1.00  0.00    -0.263 N 
ATOM     26  H3  UNL     1      28.220  10.697  -3.908  1.00  0.00     0.180 HD
BRANCH  25  27
HETATM   27  S1  UNL     1      27.144  10.014  -2.030  1.00  0.00     0.264 S 
HETATM   28  O1  UNL     1      28.156   8.997  -1.515  1.00  0.00    -0.200 OA
HETATM   29  O2  UNL     1      25.779   9.431  -1.682  1.00  0.00    -0.200 OA
BRANCH  27  30
HETATM   30  C11 UNL     1      27.385  11.450  -1.058  1.00  0.00     0.085 A 
HETATM   31  C12 UNL     1      27.839  12.594  -1.667  1.00  0.00     0.026 A 
HETATM   32  C13 UNL     1      28.052  13.767  -0.947  1.00  0.00     0.002 A 
HETATM   33  C14 UNL     1      27.793  13.757   0.414  1.00  0.00     0.001 A 
HETATM   34  C15 UNL     1      27.336  12.601   1.014  1.00  0.00     0.008 A 
HETATM   35  C16 UNL     1      27.125  11.424   0.274  1.00  0.00    -0.039 A 
HETATM   36  C17 UNL     1      26.632  10.203   0.953  1.00  0.00     0.050 C 
ENDBRANCH  27  30
ENDBRANCH  25  27
ENDBRANCH  14  25
BRANCH  21  37
HETATM   37  C5  UNL     1      21.727  11.012  -8.808  1.00  0.00     0.160 C 
BRANCH  37  38
HETATM   38  N1  UNL     1      22.347  10.684 -10.051  1.00  0.00    -0.390 N 
BRANCH  38  39
HETATM   39  C2  UNL     1      21.789   9.588 -10.741  1.00  0.00     0.054 C 
HETATM   40  C1  UNL     1      22.658   8.363 -10.849  1.00  0.00     0.054 C 
ENDBRANCH  38  39
BRANCH  38  41
HETATM   41  C3  UNL     1      22.829  11.757 -10.831  1.00  0.00     0.118 C 
HETATM   42  C4  UNL     1      24.291  11.726 -11.190  1.00  0.00     0.026 C 
ENDBRANCH  38  41
ENDBRANCH  37  38
ENDBRANCH  21  37
ENDBRANCH  11  13
ENDBRANCH   1  11
TORSDOF 9
ENDMDL
MODEL 4
REMARK VINA RESULT: -9.360309878      0.815      1.950
REMARK  9 active torsions:
REMARK  status: ('A' for Active; 'I' for Inactive)
REMARK    1  A    between atoms: C2_2  and  N1_3 
REMARK    2  A    between atoms: N1_3  and  C3_4 
REMARK    3  A    between atoms: N1_3  and  C5_6 
REMARK    4  A    between atoms: C5_6  and  C6_7 
REMARK    5  A    between atoms: C10_13  and  N3_14 
REMARK    6  A    between atoms: N3_14  and  S1_16 
REMARK    7  A    between atoms: S1_16  and  C11_19 
REMARK    8  A    between atoms: C18_26  and  N4_27 
REMARK    9  A    between atoms: N4_27  and  C19_29 
ROOT
HETATM    1  C19 UNL     1      27.316   7.007  -5.683  1.00  0.00     0.045 A 
HETATM    2  C20 UNL     1      27.972   6.816  -6.876  1.00  0.00    -0.033 A 
HETATM    3  C21 UNL     1      28.520   7.937  -7.679  1.00  0.00     0.050 C 
HETATM    4  C22 UNL     1      28.157   5.534  -7.400  1.00  0.00     0.031 A 
HETATM    5  C23 UNL     1      27.687   4.446  -6.731  1.00  0.00     0.045 A 
HETATM    6  C24 UNL     1      27.889   3.131  -7.291  1.00  0.00     0.099 C 
HETATM    7  N5  UNL     1      28.064   2.089  -7.746  1.00  0.00    -0.191 NA
HETATM    8  C25 UNL     1      27.031   4.613  -5.541  1.00  0.00     0.031 A 
HETATM    9  C26 UNL     1      26.847   5.902  -5.018  1.00  0.00    -0.033 A 
HETATM   10  C27 UNL     1      26.146   6.067  -3.747  1.00  0.00     0.050 C 
ENDROOT
BRANCH   1  11
HETATM   11  N4  UNL     1      27.131   8.278  -5.163  1.00  0.00    -0.338 N 
ATOM     12  H4  UNL     1      27.886   8.645  -4.584  1.00  0.00     0.167 HD
BRANCH  11  13
HETATM   13  C18 UNL     1      26.110   9.047  -5.330  1.00  0.00     0.152 A 
HETATM   14  C10 UNL     1      25.567   9.631  -4.206  1.00  0.00     0.160 A 
HETATM   15  N2  UNL     1      24.481  10.446  -4.408  1.00  0.00    -0.337 N 
HETATM   16  C9  UNL     1      23.969  10.670  -5.612  1.00  0.00     0.060 A 
ATOM     17  H2  UNL     1      24.050  10.897  -3.601  1.00  0.00     0.167 HD
HETATM   18  C8  UNL     1      22.857  11.521  -5.703  1.00  0.00     0.032 A 
HETATM   19  C28 UNL     1      24.533  10.072  -6.717  1.00  0.00     0.061 A 
HETATM   20  C7  UNL     1      22.343  11.740  -6.954  1.00  0.00     0.011 A 
HETATM   21  C6  UNL     1      22.893  11.152  -8.072  1.00  0.00    -0.038 A 
HETATM   22  C29 UNL     1      23.986  10.318  -7.967  1.00  0.00     0.040 A 
HETATM   23  N6  UNL     1      25.596   9.268  -6.562  1.00  0.00    -0.337 N 
ATOM     24  H6  UNL     1      26.019   8.823  -7.376  1.00  0.00     0.167 HD
BRANCH  14  25
HETATM   25  N3  UNL     1      25.929   9.519  -3.015  1.00  0.00    -0.263 N 
ATOM     26  H3  UNL     1      25.162   9.244  -2.401  1.00  0.00     0.180 HD
BRANCH  25  27
HETATM   27  S1  UNL     1      27.373   9.711  -2.187  1.00  0.00     0.264 S 
HETATM   28  O1  UNL     1      28.592   9.621  -3.098  1.00  0.00    -0.200 OA
HETATM   29  O2  UNL     1      27.581   8.631  -1.132  1.00  0.00    -0.200 OA
BRANCH  27  30
HETATM   30  C11 UNL     1      27.492  11.270  -1.398  1.00  0.00     0.085 A 
HETATM   31  C12 UNL     1      27.481  11.321  -0.025  1.00  0.00     0.026 A 
HETATM   32  C13 UNL     1      27.570  12.530   0.659  1.00  0.00     0.002 A 
HETATM   33  C14 UNL     1      27.673  13.696  -0.081  1.00  0.00     0.001 A 
HETATM   34  C15 UNL     1      27.683  13.632  -1.459  1.00  0.00     0.008 A 
HETATM   35  C16 UNL     1      27.592  12.404  -2.138  1.00  0.00    -0.039 A 
HETATM   36  C17 UNL     1      27.609  12.374  -3.618  1.00  0.00     0.050 C 
ENDBRANCH  27  30
ENDBRANCH  25  27
ENDBRANCH  14  25
BRANCH  21  37
HETATM   37  C5  UNL     1      22.261  11.453  -9.402  1.00  0.00     0.160 C 
BRANCH  37  38
HETATM   38  N1  UNL     1      22.779  10.548 -10.378  1.00  0.00    -0.390 N 
BRANCH  38  39
HETATM   39  C2  UNL     1      22.004   9.394 -10.612  1.00  0.00     0.054 C 
HETATM   40  C1  UNL     1      22.772   8.119 -10.843  1.00  0.00     0.054 C 
ENDBRANCH  38  39
BRANCH  38  41
HETATM   41  C3  UNL     1      23.443  11.113 -11.488  1.00  0.00     0.118 C 
HETATM   42  C4  UNL     1      24.947  11.143 -11.430  1.00  0.00     0.026 C 
ENDBRANCH  38  41
ENDBRANCH  37  38
ENDBRANCH  21  37
ENDBRANCH  11  13
ENDBRANCH   1  11
TORSDOF 9
ENDMDL
MODEL 5
REMARK VINA RESULT: -9.324490618      2.648      8.445
REMARK  9 active torsions:
REMARK  status: ('A' for Active; 'I' for Inactive)
REMARK    1  A    between atoms: C2_2  and  N1_3 
REMARK    2  A    between atoms: N1_3  and  C3_4 
REMARK    3  A    between atoms: N1_3  and  C5_6 
REMARK    4  A    between atoms: C5_6  and  C6_7 
REMARK    5  A    between atoms: C10_13  and  N3_14 
REMARK    6  A    between atoms: N3_14  and  S1_16 
REMARK    7  A    between atoms: S1_16  and  C11_19 
REMARK    8  A    between atoms: C18_26  and  N4_27 
REMARK    9  A    between atoms: N4_27  and  C19_29 
ROOT
HETATM    1  C19 UNL     1      25.874   9.609  -7.561  1.00  0.00     0.045 A 
HETATM    2  C20 UNL     1      26.829   9.637  -8.549  1.00  0.00    -0.033 A 
HETATM    3  C21 UNL     1      27.999   8.723  -8.561  1.00  0.00     0.050 C 
HETATM    4  C22 UNL     1      26.745  10.543  -9.610  1.00  0.00     0.031 A 
HETATM    5  C23 UNL     1      25.705  11.418  -9.680  1.00  0.00     0.045 A 
HETATM    6  C24 UNL     1      25.638  12.346 -10.785  1.00  0.00     0.099 C 
HETATM    7  N5  UNL     1      25.594  13.075 -11.674  1.00  0.00    -0.191 NA
HETATM    8  C25 UNL     1      24.742  11.409  -8.708  1.00  0.00     0.031 A 
HETATM    9  C26 UNL     1      24.831  10.497  -7.645  1.00  0.00    -0.033 A 
HETATM   10  C27 UNL     1      23.796  10.496  -6.613  1.00  0.00     0.050 C 
ENDROOT
BRANCH   1  11
HETATM   11  N4  UNL     1      25.958   8.712  -6.509  1.00  0.00    -0.338 N 
ATOM     12  H4  UNL     1      25.500   7.810  -6.645  1.00  0.00     0.167 HD
BRANCH  11  13
HETATM   13  C18 UNL     1      26.550   8.890  -5.378  1.00  0.00     0.152 A 
HETATM   14  C10 UNL     1      27.384   7.886  -4.935  1.00  0.00     0.160 A 
HETATM   15  N2  UNL     1      28.003   8.099  -3.729  1.00  0.00    -0.337 N 
HETATM   16  C9  UNL     1      27.820   9.202  -3.014  1.00  0.00     0.060 A 
ATOM     17  H2  UNL     1      28.628   7.379  -3.366  1.00  0.00     0.167 HD
HETATM   18  C8  UNL     1      28.503   9.314  -1.794  1.00  0.00     0.032 A 
HETATM   19  C28 UNL     1      26.980  10.188  -3.483  1.00  0.00     0.061 A 
HETATM   20  C7  UNL     1      28.301  10.460  -1.071  1.00  0.00     0.011 A 
HETATM   21  C6  UNL     1      27.465  11.459  -1.523  1.00  0.00    -0.038 A 
HETATM   22  C29 UNL     1      26.800  11.335  -2.724  1.00  0.00     0.040 A 
HETATM   23  N6  UNL     1      26.355  10.019  -4.659  1.00  0.00    -0.337 N 
ATOM     24  H6  UNL     1      25.732  10.745  -5.011  1.00  0.00     0.167 HD
BRANCH  14  25
HETATM   25  N3  UNL     1      27.656   6.798  -5.485  1.00  0.00    -0.263 N 
ATOM     26  H3  UNL     1      28.606   6.778  -5.858  1.00  0.00     0.180 HD
BRANCH  25  27
HETATM   27  S1  UNL     1      26.835   5.362  -5.755  1.00  0.00     0.264 S 
HETATM   28  O1  UNL     1      25.510   5.291  -5.004  1.00  0.00    -0.200 OA
HETATM   29  O2  UNL     1      27.627   4.148  -5.285  1.00  0.00    -0.200 OA
BRANCH  27  30
HETATM   30  C11 UNL     1      26.431   5.127  -7.442  1.00  0.00     0.085 A 
HETATM   31  C12 UNL     1      25.109   5.016  -7.798  1.00  0.00     0.026 A 
HETATM   32  C13 UNL     1      24.725   4.826  -9.123  1.00  0.00     0.002 A 
HETATM   33  C14 UNL     1      25.715   4.751 -10.088  1.00  0.00     0.001 A 
HETATM   34  C15 UNL     1      27.040   4.865  -9.718  1.00  0.00     0.008 A 
HETATM   35  C16 UNL     1      27.414   5.057  -8.376  1.00  0.00    -0.039 A 
HETATM   36  C17 UNL     1      28.846   5.177  -8.017  1.00  0.00     0.050 C 
ENDBRANCH  27  30
ENDBRANCH  25  27
ENDBRANCH  14  25
BRANCH  21  37
HETATM   37  C5  UNL     1      27.307  12.680  -0.662  1.00  0.00     0.160 C 
BRANCH  37  38
HETATM   38  N1  UNL     1      28.398  13.567  -0.909  1.00  0.00    -0.390 N 
BRANCH  38  39
HETATM   39  C2  UNL     1      28.197  14.511  -1.937  1.00  0.00     0.054 C 
HETATM   40  C1  UNL     1      29.040  14.333  -3.172  1.00  0.00     0.054 C 
ENDBRANCH  38  39
BRANCH  38  41
HETATM   41  C3  UNL     1      29.152  13.985   0.209  1.00  0.00     0.118 C 
HETATM   42  C4  UNL     1      28.950  13.210   1.485  1.00  0.00     0.026 C 
ENDBRANCH  38  41
ENDBRANCH  37  38
ENDBRANCH  21  37
ENDBRANCH  11  13
ENDBRANCH   1  11
TORSDOF 9
ENDMDL
