MODEL 1
REMARK VINA RESULT: -9.853345752      0.000      0.000
REMARK  9 active torsions:
REMARK  status: ('A' for Active; 'I' for Inactive)
REMARK    1  A    between atoms: C4_4  and  O1_5 
REMARK    2  A    between atoms: C10_12  and  C11_13 
REMARK    3  A    between atoms: C11_13  and  C13_15 
REMARK    4  A    between atoms: C13_15  and  C14_16 
REMARK       I    between atoms: C14_16  and  N1_18 
REMARK    5  A    between atoms: C23_27  and  O3_28 
REMARK    6  A    between atoms: O3_28  and  C24_29 
REMARK    7  A    between atoms: C24_29  and  C25_31 
REMARK    8  A    between atoms: C25_31  and  C26_32 
REMARK    9  A    between atoms: C30_36  and  C31_37 
ROOT
HETATM    1  C1  UNL     1      27.844   3.030  -6.721  1.00  0.00     0.015 C 
HETATM    2  C2  UNL     1      27.639   4.280  -6.426  1.00  0.00    -0.071 C 
HETATM    3  C3  UNL     1      27.160   4.827  -5.125  1.00  0.00     0.073 C 
HETATM    4  C4  UNL     1      26.493   6.123  -5.482  1.00  0.00     0.076 C 
HETATM    5  C5  UNL     1      27.203   7.338  -4.974  1.00  0.00     0.026 C 
HETATM    6  C6  UNL     1      27.360   7.275  -3.478  1.00  0.00     0.009 C 
HETATM    7  C7  UNL     1      27.846   8.572  -2.878  1.00  0.00     0.010 C 
HETATM    8  C8  UNL     1      26.999   9.736  -3.222  1.00  0.00    -0.036 C 
HETATM    9  C9  UNL     1      25.592   9.661  -2.754  1.00  0.00     0.016 C 
HETATM   10  C10 UNL     1      27.663  11.070  -3.117  1.00  0.00    -0.002 C 
HETATM   11  C18 UNL     1      26.665  11.942  -3.850  1.00  0.00     0.006 C 
HETATM   12  C19 UNL     1      26.287  11.031  -5.035  1.00  0.00     0.006 C 
HETATM   13  C20 UNL     1      26.913   9.716  -4.768  1.00  0.00    -0.001 C 
HETATM   14  C21 UNL     1      26.215   8.498  -5.219  1.00  0.00    -0.000 C 
HETATM   15  C22 UNL     1      25.743   8.548  -6.628  1.00  0.00     0.039 C 
HETATM   16  C23 UNL     1      26.576   7.620  -7.490  1.00  0.00     0.144 C 
HETATM   17  C28 UNL     1      26.529   6.196  -7.025  1.00  0.00     0.032 C 
HETATM   18  C29 UNL     1      25.304   5.468  -7.482  1.00  0.00     0.022 C 
HETATM   19  C30 UNL     1      27.812   5.512  -7.268  1.00  0.00     0.128 C 
ENDROOT
BRANCH  10  20
HETATM   20  C11 UNL     1      28.140  11.542  -1.846  1.00  0.00    -0.005 C 
HETATM   21  C12 UNL     1      28.005  10.672  -0.641  1.00  0.00     0.011 C 
BRANCH  20  22
HETATM   22  C13 UNL     1      27.526  12.879  -1.484  1.00  0.00     0.107 C 
BRANCH  22  23
HETATM   23  C14 UNL     1      28.481  13.953  -1.255  1.00  0.00     0.220 C 
HETATM   24  O2  UNL     1      28.743  14.331  -0.093  1.00  0.00    -0.273 OA
HETATM   25  N1  UNL     1      29.133  14.592  -2.336  1.00  0.00    -0.352 N 
HETATM   26  C15 UNL     1      29.142  14.490  -3.800  1.00  0.00     0.127 C 
HETATM   27  C17 UNL     1      30.102  15.656  -2.491  1.00  0.00     0.127 C 
HETATM   28  C16 UNL     1      29.373  16.006  -3.794  1.00  0.00     0.040 C 
ENDBRANCH  22  23
ENDBRANCH  20  22
ENDBRANCH  10  20
BRANCH   4  29
HETATM   29  O1  UNL     1      25.230   6.099  -4.967  1.00  0.00    -0.388 OA
ATOM     30  H1  UNL     1      25.244   6.569  -4.141  1.00  0.00     0.210 HD
ENDBRANCH   4  29
BRANCH  16  31
HETATM   31  O3  UNL     1      26.200   7.657  -8.837  1.00  0.00    -0.315 OA
BRANCH  31  32
HETATM   32  C24 UNL     1      26.458   8.681  -9.704  1.00  0.00     0.259 C 
HETATM   33  O4  UNL     1      26.054   8.515 -10.878  1.00  0.00    -0.265 OA
BRANCH  32  34
HETATM   34  C25 UNL     1      27.175   9.917  -9.284  1.00  0.00     0.111 C 
BRANCH  34  35
HETATM   35  C26 UNL     1      26.416  11.156  -9.759  1.00  0.00     0.005 C 
HETATM   36  C27 UNL     1      26.357  12.162  -8.629  1.00  0.00     0.005 C 
ENDBRANCH  34  35
ENDBRANCH  32  34
ENDBRANCH  31  32
ENDBRANCH  16  31
BRANCH  19  37
HETATM   37  C31 UNL     1      28.221   5.208  -8.627  1.00  0.00     0.182 C 
HETATM   38  O5  UNL     1      29.467   5.203  -8.938  1.00  0.00    -0.647 OA
HETATM   39  O6  UNL     1      27.394   4.902  -9.699  1.00  0.00    -0.647 OA
ENDBRANCH  19  37
TORSDOF 9
ENDMDL
MODEL 2
REMARK VINA RESULT: -9.640020144      0.845      1.273
REMARK  9 active torsions:
REMARK  status: ('A' for Active; 'I' for Inactive)
REMARK    1  A    between atoms: C4_4  and  O1_5 
REMARK    2  A    between atoms: C10_12  and  C11_13 
REMARK    3  A    between atoms: C11_13  and  C13_15 
REMARK    4  A    between atoms: C13_15  and  C14_16 
REMARK       I    between atoms: C14_16  and  N1_18 
REMARK    5  A    between atoms: C23_27  and  O3_28 
REMARK    6  A    between atoms: O3_28  and  C24_29 
REMARK    7  A    between atoms: C24_29  and  C25_31 
REMARK    8  A    between atoms: C25_31  and  C26_32 
REMARK    9  A    between atoms: C30_36  and  C31_37 
ROOT
HETATM    1  C1  UNL     1      27.835   2.954  -6.754  1.00  0.00     0.015 C 
HETATM    2  C2  UNL     1      27.637   4.209  -6.476  1.00  0.00    -0.071 C 
HETATM    3  C3  UNL     1      27.154   4.776  -5.185  1.00  0.00     0.073 C 
HETATM    4  C4  UNL     1      26.499   6.072  -5.563  1.00  0.00     0.076 C 
HETATM    5  C5  UNL     1      27.214   7.289  -5.065  1.00  0.00     0.026 C 
HETATM    6  C6  UNL     1      27.361   7.242  -3.567  1.00  0.00     0.009 C 
HETATM    7  C7  UNL     1      27.852   8.543  -2.980  1.00  0.00     0.010 C 
HETATM    8  C8  UNL     1      27.016   9.709  -3.344  1.00  0.00    -0.036 C 
HETATM    9  C9  UNL     1      25.605   9.650  -2.885  1.00  0.00     0.016 C 
HETATM   10  C10 UNL     1      27.689  11.039  -3.251  1.00  0.00    -0.002 C 
HETATM   11  C18 UNL     1      26.702  11.910  -4.001  1.00  0.00     0.006 C 
HETATM   12  C19 UNL     1      26.326  10.987  -5.178  1.00  0.00     0.006 C 
HETATM   13  C20 UNL     1      26.941   9.671  -4.891  1.00  0.00    -0.001 C 
HETATM   14  C21 UNL     1      26.236   8.452  -5.331  1.00  0.00    -0.000 C 
HETATM   15  C22 UNL     1      25.775   8.488  -6.744  1.00  0.00     0.039 C 
HETATM   16  C23 UNL     1      26.606   7.544  -7.588  1.00  0.00     0.144 C 
HETATM   17  C28 UNL     1      26.545   6.126  -7.106  1.00  0.00     0.032 C 
HETATM   18  C29 UNL     1      25.318   5.401  -7.563  1.00  0.00     0.022 C 
HETATM   19  C30 UNL     1      27.825   5.430  -7.331  1.00  0.00     0.128 C 
ENDROOT
BRANCH  10  20
HETATM   20  C11 UNL     1      28.161  11.523  -1.982  1.00  0.00    -0.005 C 
HETATM   21  C12 UNL     1      28.117  10.626  -0.791  1.00  0.00     0.011 C 
BRANCH  20  22
HETATM   22  C13 UNL     1      27.461  12.806  -1.583  1.00  0.00     0.107 C 
BRANCH  22  23
HETATM   23  C14 UNL     1      28.344  13.929  -1.303  1.00  0.00     0.220 C 
HETATM   24  O2  UNL     1      28.461  14.369  -0.140  1.00  0.00    -0.273 OA
HETATM   25  N1  UNL     1      29.090  14.545  -2.336  1.00  0.00    -0.352 N 
HETATM   26  C15 UNL     1      29.266  14.378  -3.783  1.00  0.00     0.127 C 
HETATM   27  C17 UNL     1      30.031  15.640  -2.436  1.00  0.00     0.127 C 
HETATM   28  C16 UNL     1      29.440  15.901  -3.827  1.00  0.00     0.040 C 
ENDBRANCH  22  23
ENDBRANCH  20  22
ENDBRANCH  10  20
BRANCH   4  29
HETATM   29  O1  UNL     1      25.232   6.063  -5.056  1.00  0.00    -0.388 OA
ATOM     30  H1  UNL     1      24.973   6.965  -4.906  1.00  0.00     0.210 HD
ENDBRANCH   4  29
BRANCH  16  31
HETATM   31  O3  UNL     1      26.240   7.567  -8.938  1.00  0.00    -0.315 OA
BRANCH  31  32
HETATM   32  C24 UNL     1      26.279   8.664  -9.751  1.00  0.00     0.259 C 
HETATM   33  O4  UNL     1      27.309   9.371  -9.662  1.00  0.00    -0.265 OA
BRANCH  32  34
HETATM   34  C25 UNL     1      25.169   9.002 -10.686  1.00  0.00     0.111 C 
BRANCH  34  35
HETATM   35  C26 UNL     1      23.825   8.599 -10.080  1.00  0.00     0.005 C 
HETATM   36  C27 UNL     1      23.290   7.394 -10.822  1.00  0.00     0.005 C 
ENDBRANCH  34  35
ENDBRANCH  32  34
ENDBRANCH  31  32
ENDBRANCH  16  31
BRANCH  19  37
HETATM   37  C31 UNL     1      28.241   5.105  -8.684  1.00  0.00     0.182 C 
HETATM   38  O5  UNL     1      29.487   5.123  -8.996  1.00  0.00    -0.647 OA
HETATM   39  O6  UNL     1      27.421   4.757  -9.748  1.00  0.00    -0.647 OA
ENDBRANCH  19  37
TORSDOF 9
ENDMDL
MODEL 3
REMARK VINA RESULT: -9.278026065      1.247      1.476
REMARK  9 active torsions:
REMARK  status: ('A' for Active; 'I' for Inactive)
REMARK    1  A    between atoms: C4_4  and  O1_5 
REMARK    2  A    between atoms: C10_12  and  C11_13 
REMARK    3  A    between atoms: C11_13  and  C13_15 
REMARK    4  A    between atoms: C13_15  and  C14_16 
REMARK       I    between atoms: C14_16  and  N1_18 
REMARK    5  A    between atoms: C23_27  and  O3_28 
REMARK    6  A    between atoms: O3_28  and  C24_29 
REMARK    7  A    between atoms: C24_29  and  C25_31 
REMARK    8  A    between atoms: C25_31  and  C26_32 
REMARK    9  A    between atoms: C30_36  and  C31_37 
ROOT
HETATM    1  C1  UNL     1      27.975   2.384  -7.473  1.00  0.00     0.015 C 
HETATM    2  C2  UNL     1      27.679   3.535  -6.944  1.00  0.00    -0.071 C 
HETATM    3  C3  UNL     1      27.085   3.777  -5.599  1.00  0.00     0.073 C 
HETATM    4  C4  UNL     1      26.370   5.090  -5.732  1.00  0.00     0.076 C 
HETATM    5  C5  UNL     1      26.975   6.201  -4.932  1.00  0.00     0.026 C 
HETATM    6  C6  UNL     1      27.036   5.832  -3.473  1.00  0.00     0.009 C 
HETATM    7  C7  UNL     1      27.407   6.994  -2.583  1.00  0.00     0.010 C 
HETATM    8  C8  UNL     1      26.519   8.168  -2.745  1.00  0.00    -0.036 C 
HETATM    9  C9  UNL     1      25.091   7.937  -2.411  1.00  0.00     0.016 C 
HETATM   10  C10 UNL     1      27.098   9.477  -2.317  1.00  0.00    -0.002 C 
HETATM   11  C18 UNL     1      26.102  10.441  -2.929  1.00  0.00     0.006 C 
HETATM   12  C19 UNL     1      25.856   9.783  -4.301  1.00  0.00     0.006 C 
HETATM   13  C20 UNL     1      26.537   8.468  -4.264  1.00  0.00    -0.001 C 
HETATM   14  C21 UNL     1      25.941   7.343  -5.007  1.00  0.00    -0.000 C 
HETATM   15  C22 UNL     1      25.561   7.667  -6.408  1.00  0.00     0.039 C 
HETATM   16  C23 UNL     1      26.500   6.976  -7.376  1.00  0.00     0.144 C 
HETATM   17  C28 UNL     1      26.503   5.485  -7.219  1.00  0.00     0.032 C 
HETATM   18  C29 UNL     1      25.355   4.818  -7.909  1.00  0.00     0.022 C 
HETATM   19  C30 UNL     1      27.837   4.922  -7.498  1.00  0.00     0.128 C 
ENDROOT
BRANCH  10  20
HETATM   20  C11 UNL     1      27.461   9.692  -0.943  1.00  0.00    -0.005 C 
HETATM   21  C12 UNL     1      26.428  10.157   0.027  1.00  0.00     0.011 C 
BRANCH  20  22
HETATM   22  C13 UNL     1      28.630  10.648  -0.821  1.00  0.00     0.107 C 
BRANCH  22  23
HETATM   23  C14 UNL     1      28.266  12.044  -0.628  1.00  0.00     0.220 C 
HETATM   24  O2  UNL     1      27.953  12.468   0.505  1.00  0.00    -0.273 OA
HETATM   25  N1  UNL     1      28.261  12.952  -1.714  1.00  0.00    -0.352 N 
HETATM   26  C15 UNL     1      28.543  12.911  -3.153  1.00  0.00     0.127 C 
HETATM   27  C17 UNL     1      27.965  14.357  -1.900  1.00  0.00     0.127 C 
HETATM   28  C16 UNL     1      27.441  13.969  -3.288  1.00  0.00     0.040 C 
ENDBRANCH  22  23
ENDBRANCH  20  22
ENDBRANCH  10  20
BRANCH   4  29
HETATM   29  O1  UNL     1      25.080   4.905  -5.331  1.00  0.00    -0.388 OA
ATOM     30  H1  UNL     1      24.534   4.879  -6.108  1.00  0.00     0.210 HD
ENDBRANCH   4  29
BRANCH  16  31
HETATM   31  O3  UNL     1      26.213   7.278  -8.711  1.00  0.00    -0.315 OA
BRANCH  31  32
HETATM   32  C24 UNL     1      26.571   8.427  -9.359  1.00  0.00     0.259 C 
HETATM   33  O4  UNL     1      26.140   8.549 -10.528  1.00  0.00    -0.265 OA
BRANCH  32  34
HETATM   34  C25 UNL     1      27.422   9.468  -8.719  1.00  0.00     0.111 C 
BRANCH  34  35
HETATM   35  C26 UNL     1      26.837  10.858  -8.971  1.00  0.00     0.005 C 
HETATM   36  C27 UNL     1      26.110  11.320  -7.726  1.00  0.00     0.005 C 
ENDBRANCH  34  35
ENDBRANCH  32  34
ENDBRANCH  31  32
ENDBRANCH  16  31
BRANCH  19  37
HETATM   37  C31 UNL     1      28.352   4.926  -8.856  1.00  0.00     0.182 C 
HETATM   38  O5  UNL     1      29.577   5.239  -9.079  1.00  0.00    -0.647 OA
HETATM   39  O6  UNL     1      27.652   4.618 -10.014  1.00  0.00    -0.647 OA
ENDBRANCH  19  37
TORSDOF 9
ENDMDL
MODEL 4
REMARK VINA RESULT: -9.168329157      1.367      1.928
REMARK  9 active torsions:
REMARK  status: ('A' for Active; 'I' for Inactive)
REMARK    1  A    between atoms: C4_4  and  O1_5 
REMARK    2  A    between atoms: C10_12  and  C11_13 
REMARK    3  A    between atoms: C11_13  and  C13_15 
REMARK    4  A    between atoms: C13_15  and  C14_16 
REMARK       I    between atoms: C14_16  and  N1_18 
REMARK    5  A    between atoms: C23_27  and  O3_28 
REMARK    6  A    between atoms: O3_28  and  C24_29 
REMARK    7  A    between atoms: C24_29  and  C25_31 
REMARK    8  A    between atoms: C25_31  and  C26_32 
REMARK    9  A    between atoms: C30_36  and  C31_37 
ROOT
HETATM    1  C1  UNL     1      28.067   3.269  -6.470  1.00  0.00     0.015 C 
HETATM    2  C2  UNL     1      27.778   4.527  -6.306  1.00  0.00    -0.071 C 
HETATM    3  C3  UNL     1      27.350   5.191  -5.042  1.00  0.00     0.073 C 
HETATM    4  C4  UNL     1      26.551   6.379  -5.491  1.00  0.00     0.076 C 
HETATM    5  C5  UNL     1      27.190   7.698  -5.187  1.00  0.00     0.026 C 
HETATM    6  C6  UNL     1      27.460   7.829  -3.712  1.00  0.00     0.009 C 
HETATM    7  C7  UNL     1      27.876   9.223  -3.308  1.00  0.00     0.010 C 
HETATM    8  C8  UNL     1      26.910  10.269  -3.714  1.00  0.00    -0.036 C 
HETATM    9  C9  UNL     1      25.552  10.145  -3.127  1.00  0.00     0.016 C 
HETATM   10  C10 UNL     1      27.464  11.652  -3.820  1.00  0.00    -0.002 C 
HETATM   11  C18 UNL     1      26.345  12.350  -4.564  1.00  0.00     0.006 C 
HETATM   12  C19 UNL     1      25.961  11.275  -5.601  1.00  0.00     0.006 C 
HETATM   13  C20 UNL     1      26.714  10.054  -5.236  1.00  0.00    -0.001 C 
HETATM   14  C21 UNL     1      26.092   8.740  -5.483  1.00  0.00    -0.000 C 
HETATM   15  C22 UNL     1      25.516   8.582  -6.845  1.00  0.00     0.039 C 
HETATM   16  C23 UNL     1      26.360   7.622  -7.659  1.00  0.00     0.144 C 
HETATM   17  C28 UNL     1      26.468   6.266  -7.029  1.00  0.00     0.032 C 
HETATM   18  C29 UNL     1      25.280   5.396  -7.297  1.00  0.00     0.022 C 
HETATM   19  C30 UNL     1      27.784   5.657  -7.296  1.00  0.00     0.128 C 
ENDROOT
BRANCH  10  20
HETATM   20  C11 UNL     1      27.990  12.311  -2.655  1.00  0.00    -0.005 C 
HETATM   21  C12 UNL     1      27.589  11.836  -1.299  1.00  0.00     0.011 C 
BRANCH  20  22
HETATM   22  C13 UNL     1      27.718  13.800  -2.689  1.00  0.00     0.107 C 
BRANCH  22  23
HETATM   23  C14 UNL     1      28.710  14.592  -3.402  1.00  0.00     0.220 C 
HETATM   24  O2  UNL     1      29.879  14.172  -3.536  1.00  0.00    -0.273 OA
HETATM   25  N1  UNL     1      28.375  15.849  -3.959  1.00  0.00    -0.352 N 
HETATM   26  C15 UNL     1      27.188  16.705  -4.049  1.00  0.00     0.127 C 
HETATM   27  C17 UNL     1      29.067  16.880  -4.704  1.00  0.00     0.127 C 
HETATM   28  C16 UNL     1      28.166  17.884  -3.975  1.00  0.00     0.040 C 
ENDBRANCH  22  23
ENDBRANCH  20  22
ENDBRANCH  10  20
BRANCH   4  29
HETATM   29  O1  UNL     1      25.335   6.322  -4.874  1.00  0.00    -0.388 OA
ATOM     30  H1  UNL     1      24.927   5.498  -5.112  1.00  0.00     0.210 HD
ENDBRANCH   4  29
BRANCH  16  31
HETATM   31  O3  UNL     1      25.886   7.465  -8.966  1.00  0.00    -0.315 OA
BRANCH  31  32
HETATM   32  C24 UNL     1      26.077   8.349  -9.989  1.00  0.00     0.259 C 
HETATM   33  O4  UNL     1      27.033   9.147  -9.848  1.00  0.00    -0.265 OA
BRANCH  32  34
HETATM   34  C25 UNL     1      25.207   8.368 -11.198  1.00  0.00     0.111 C 
BRANCH  34  35
HETATM   35  C26 UNL     1      25.576   7.217 -12.134  1.00  0.00     0.005 C 
HETATM   36  C27 UNL     1      24.577   6.094 -11.954  1.00  0.00     0.005 C 
ENDBRANCH  34  35
ENDBRANCH  32  34
ENDBRANCH  31  32
ENDBRANCH  16  31
BRANCH  19  37
HETATM   37  C31 UNL     1      28.118   5.220  -8.640  1.00  0.00     0.182 C 
HETATM   38  O5  UNL     1      29.347   5.119  -8.997  1.00  0.00    -0.647 OA
HETATM   39  O6  UNL     1      27.230   4.876  -9.650  1.00  0.00    -0.647 OA
ENDBRANCH  19  37
TORSDOF 9
ENDMDL
MODEL 5
REMARK VINA RESULT: -9.162863138      4.133      6.879
REMARK  9 active torsions:
REMARK  status: ('A' for Active; 'I' for Inactive)
REMARK    1  A    between atoms: C4_4  and  O1_5 
REMARK    2  A    between atoms: C10_12  and  C11_13 
REMARK    3  A    between atoms: C11_13  and  C13_15 
REMARK    4  A    between atoms: C13_15  and  C14_16 
REMARK       I    between atoms: C14_16  and  N1_18 
REMARK    5  A    between atoms: C23_27  and  O3_28 
REMARK    6  A    between atoms: O3_28  and  C24_29 
REMARK    7  A    between atoms: C24_29  and  C25_31 
REMARK    8  A    between atoms: C25_31  and  C26_32 
REMARK    9  A    between atoms: C30_36  and  C31_37 
ROOT
HETATM    1  C1  UNL     1      27.018   4.173  -9.697  1.00  0.00     0.015 C 
HETATM    2  C2  UNL     1      26.691   5.220  -8.999  1.00  0.00    -0.071 C 
HETATM    3  C3  UNL     1      26.470   6.604  -9.509  1.00  0.00     0.073 C 
HETATM    4  C4  UNL     1      26.766   7.491  -8.336  1.00  0.00     0.076 C 
HETATM    5  C5  UNL     1      25.571   8.213  -7.796  1.00  0.00     0.026 C 
HETATM    6  C6  UNL     1      24.920   9.040  -8.872  1.00  0.00     0.009 C 
HETATM    7  C7  UNL     1      23.862   9.977  -8.340  1.00  0.00     0.010 C 
HETATM    8  C8  UNL     1      24.354  10.878  -7.274  1.00  0.00    -0.036 C 
HETATM    9  C9  UNL     1      25.445  11.802  -7.674  1.00  0.00     0.016 C 
HETATM   10  C10 UNL     1      23.305  11.440  -6.371  1.00  0.00    -0.002 C 
HETATM   11  C18 UNL     1      24.163  11.992  -5.250  1.00  0.00     0.006 C 
HETATM   12  C19 UNL     1      25.210  10.871  -5.097  1.00  0.00     0.006 C 
HETATM   13  C20 UNL     1      24.988   9.934  -6.223  1.00  0.00    -0.001 C 
HETATM   14  C21 UNL     1      26.153   9.242  -6.804  1.00  0.00    -0.000 C 
HETATM   15  C22 UNL     1      27.054   8.612  -5.803  1.00  0.00     0.039 C 
HETATM   16  C23 UNL     1      26.929   7.102  -5.865  1.00  0.00     0.144 C 
HETATM   17  C28 UNL     1      27.262   6.548  -7.218  1.00  0.00     0.032 C 
HETATM   18  C29 UNL     1      28.734   6.403  -7.448  1.00  0.00     0.022 C 
HETATM   19  C30 UNL     1      26.443   5.361  -7.524  1.00  0.00     0.128 C 
ENDROOT
BRANCH  10  20
HETATM   20  C11 UNL     1      22.282  12.300  -6.900  1.00  0.00    -0.005 C 
HETATM   21  C12 UNL     1      22.451  13.780  -6.818  1.00  0.00     0.011 C 
BRANCH  20  22
HETATM   22  C13 UNL     1      20.928  11.986  -6.299  1.00  0.00     0.107 C 
BRANCH  22  23
HETATM   23  C14 UNL     1      20.001  11.304  -7.191  1.00  0.00     0.220 C 
HETATM   24  O2  UNL     1      20.419  10.477  -8.029  1.00  0.00    -0.273 OA
HETATM   25  N1  UNL     1      18.610  11.558  -7.130  1.00  0.00    -0.352 N 
HETATM   26  C15 UNL     1      17.704  12.404  -6.346  1.00  0.00     0.127 C 
HETATM   27  C17 UNL     1      17.431  11.092  -7.828  1.00  0.00     0.127 C 
HETATM   28  C16 UNL     1      16.865  12.503  -7.626  1.00  0.00     0.040 C 
ENDBRANCH  22  23
ENDBRANCH  20  22
ENDBRANCH  10  20
BRANCH   4  29
HETATM   29  O1  UNL     1      27.698   8.407  -8.729  1.00  0.00    -0.388 OA
ATOM     30  H1  UNL     1      27.984   8.880  -7.957  1.00  0.00     0.210 HD
ENDBRANCH   4  29
BRANCH  16  31
HETATM   31  O3  UNL     1      27.728   6.458  -4.915  1.00  0.00    -0.315 OA
BRANCH  31  32
HETATM   32  C24 UNL     1      27.295   5.973  -3.714  1.00  0.00     0.259 C 
HETATM   33  O4  UNL     1      27.669   4.812  -3.429  1.00  0.00    -0.265 OA
BRANCH  32  34
HETATM   34  C25 UNL     1      26.432   6.770  -2.798  1.00  0.00     0.111 C 
BRANCH  34  35
HETATM   35  C26 UNL     1      27.244   7.888  -2.145  1.00  0.00     0.005 C 
HETATM   36  C27 UNL     1      26.336   9.072  -1.889  1.00  0.00     0.005 C 
ENDBRANCH  34  35
ENDBRANCH  32  34
ENDBRANCH  31  32
ENDBRANCH  16  31
BRANCH  19  37
HETATM   37  C31 UNL     1      26.668   4.123  -6.800  1.00  0.00     0.182 C 
HETATM   38  O5  UNL     1      25.685   3.523  -6.231  1.00  0.00    -0.647 OA
HETATM   39  O6  UNL     1      27.877   3.462  -6.632  1.00  0.00    -0.647 OA
ENDBRANCH  19  37
TORSDOF 9
ENDMDL
