MODEL 1
REMARK VINA RESULT: -8.069203920      0.000      0.000
REMARK  0 active torsions:
REMARK  status: ('A' for Active; 'I' for Inactive)
ROOT
HETATM    1  C1  UNL     1      -1.338  -6.606  -8.665  1.00  0.00     0.018 C 
HETATM    2  C2  UNL     1      -0.661  -7.497  -9.716  1.00  0.00    -0.015 C 
HETATM    3  C3  UNL     1      -1.595  -8.615 -10.012  1.00  0.00     0.012 C 
HETATM    4  C4  UNL     1      -0.887  -9.741 -10.740  1.00  0.00     0.008 C 
HETATM    5  C5  UNL     1       0.143 -10.274  -9.791  1.00  0.00     0.027 C 
HETATM    6  C6  UNL     1       1.105  -9.256  -9.304  1.00  0.00     0.198 C 
HETATM    7  N1  UNL     1       2.351  -9.557 -10.033  1.00  0.00    -0.061 N 
ATOM      8  H11 UNL     1       3.189  -9.083  -9.697  1.00  0.00     0.278 HD
ATOM      9  H12 UNL     1       2.416  -9.178 -10.978  1.00  0.00     0.278 HD
HETATM   10  C7  UNL     1       2.359 -10.983  -9.932  1.00  0.00     0.130 C 
HETATM   11  C8  UNL     1       2.541 -11.390  -8.493  1.00  0.00     0.047 C 
HETATM   12  C9  UNL     1       3.348 -11.696 -10.763  1.00  0.00     0.039 C 
HETATM   13  C10 UNL     1       3.074 -13.148 -10.805  1.00  0.00     0.002 C 
HETATM   14  C11 UNL     1       1.826 -13.646 -10.219  1.00  0.00     0.001 C 
HETATM   15  C12 UNL     1       0.665 -12.710 -10.178  1.00  0.00     0.012 C 
HETATM   16  C13 UNL     1       0.986 -11.300 -10.469  1.00  0.00    -0.005 C 
HETATM   17  C14 UNL     1       0.967 -11.065 -11.948  1.00  0.00     0.018 C 
HETATM   18  C15 UNL     1       0.718  -7.851  -9.375  1.00  0.00     0.051 C 
HETATM   19  C16 UNL     1       1.539  -7.155 -10.469  1.00  0.00     0.175 C 
HETATM   20  O1  UNL     1       0.761  -6.034 -10.731  1.00  0.00    -0.390 OA
HETATM   21  C17 UNL     1      -0.488  -6.596 -10.946  1.00  0.00     0.177 C 
ENDROOT
TORSDOF 0
ENDMDL
MODEL 2
REMARK VINA RESULT: -8.002866680      1.554      1.948
REMARK  0 active torsions:
REMARK  status: ('A' for Active; 'I' for Inactive)
ROOT
HETATM    1  C1  UNL     1       1.003  -7.013  -9.422  1.00  0.00     0.018 C 
HETATM    2  C2  UNL     1       0.996  -8.016 -10.584  1.00  0.00    -0.015 C 
HETATM    3  C3  UNL     1      -0.227  -8.848 -10.441  1.00  0.00     0.012 C 
HETATM    4  C4  UNL     1      -0.145 -10.095 -11.298  1.00  0.00     0.008 C 
HETATM    5  C5  UNL     1       0.996 -10.903 -10.759  1.00  0.00     0.027 C 
HETATM    6  C6  UNL     1       2.292 -10.180 -10.728  1.00  0.00     0.198 C 
HETATM    7  N1  UNL     1       3.060 -10.769 -11.841  1.00  0.00    -0.061 N 
ATOM      8  H11 UNL     1       4.053 -10.536 -11.868  1.00  0.00     0.278 HD
ATOM      9  H12 UNL     1       2.862 -10.391 -12.767  1.00  0.00     0.278 HD
HETATM   10  C7  UNL     1       2.750 -12.151 -11.652  1.00  0.00     0.130 C 
HETATM   11  C8  UNL     1       3.346 -12.635 -10.355  1.00  0.00     0.047 C 
HETATM   12  C9  UNL     1       3.148 -13.069 -12.737  1.00  0.00     0.039 C 
HETATM   13  C10 UNL     1       2.526 -14.401 -12.576  1.00  0.00     0.002 C 
HETATM   14  C11 UNL     1       1.503 -14.579 -11.541  1.00  0.00     0.001 C 
HETATM   15  C12 UNL     1       0.713 -13.378 -11.142  1.00  0.00     0.012 C 
HETATM   16  C13 UNL     1       1.243 -12.090 -11.626  1.00  0.00    -0.005 C 
HETATM   17  C14 UNL     1       0.735 -11.814 -13.008  1.00  0.00     0.018 C 
HETATM   18  C15 UNL     1       2.268  -8.722 -10.749  1.00  0.00     0.051 C 
HETATM   19  C16 UNL     1       2.770  -8.227 -12.112  1.00  0.00     0.175 C 
HETATM   20  O1  UNL     1       2.256  -6.937 -12.148  1.00  0.00    -0.390 OA
HETATM   21  C17 UNL     1       0.918  -7.152 -11.851  1.00  0.00     0.177 C 
ENDROOT
TORSDOF 0
ENDMDL
MODEL 3
REMARK VINA RESULT: -7.975798544      2.468      5.489
REMARK  0 active torsions:
REMARK  status: ('A' for Active; 'I' for Inactive)
ROOT
HETATM    1  C1  UNL     1       2.967 -13.829 -13.050  1.00  0.00     0.018 C 
HETATM    2  C2  UNL     1       2.056 -12.742 -12.463  1.00  0.00    -0.015 C 
HETATM    3  C3  UNL     1       1.436 -12.022 -13.606  1.00  0.00     0.012 C 
HETATM    4  C4  UNL     1       0.826 -10.708 -13.160  1.00  0.00     0.008 C 
HETATM    5  C5  UNL     1       1.961  -9.859 -12.675  1.00  0.00     0.027 C 
HETATM    6  C6  UNL     1       2.764 -10.478 -11.593  1.00  0.00     0.198 C 
HETATM    7  N1  UNL     1       2.360  -9.745 -10.379  1.00  0.00    -0.061 N 
ATOM      8  H11 UNL     1       2.941  -9.897  -9.553  1.00  0.00     0.278 HD
ATOM      9  H12 UNL     1       1.500 -10.063  -9.933  1.00  0.00     0.278 HD
HETATM   10  C7  UNL     1       2.341  -8.411 -10.890  1.00  0.00     0.130 C 
HETATM   11  C8  UNL     1       3.739  -7.986 -11.258  1.00  0.00     0.047 C 
HETATM   12  C9  UNL     1       1.738  -7.381 -10.020  1.00  0.00     0.039 C 
HETATM   13  C10 UNL     1       1.506  -6.120 -10.755  1.00  0.00     0.002 C 
HETATM   14  C11 UNL     1       1.704  -6.104 -12.208  1.00  0.00     0.001 C 
HETATM   15  C12 UNL     1       1.521  -7.391 -12.940  1.00  0.00     0.012 C 
HETATM   16  C13 UNL     1       1.442  -8.592 -12.087  1.00  0.00    -0.005 C 
HETATM   17  C14 UNL     1       0.033  -8.797 -11.621  1.00  0.00     0.018 C 
HETATM   18  C15 UNL     1       2.712 -11.928 -11.438  1.00  0.00     0.051 C 
HETATM   19  C16 UNL     1       1.931 -12.273 -10.163  1.00  0.00     0.175 C 
HETATM   20  O1  UNL     1       1.570 -13.592 -10.405  1.00  0.00    -0.390 OA
HETATM   21  C17 UNL     1       0.993 -13.506 -11.663  1.00  0.00     0.177 C 
ENDROOT
TORSDOF 0
ENDMDL
MODEL 4
REMARK VINA RESULT: -7.792843211      2.507      5.541
REMARK  0 active torsions:
REMARK  status: ('A' for Active; 'I' for Inactive)
ROOT
HETATM    1  C1  UNL     1       0.999 -14.652 -11.641  1.00  0.00     0.018 C 
HETATM    2  C2  UNL     1       1.850 -13.375 -11.667  1.00  0.00    -0.015 C 
HETATM    3  C3  UNL     1       2.106 -12.988 -10.254  1.00  0.00     0.012 C 
HETATM    4  C4  UNL     1       2.605 -11.560 -10.160  1.00  0.00     0.008 C 
HETATM    5  C5  UNL     1       1.491 -10.690 -10.654  1.00  0.00     0.027 C 
HETATM    6  C6  UNL     1       1.031 -11.012 -12.028  1.00  0.00     0.198 C 
HETATM    7  N1  UNL     1       1.576  -9.921 -12.857  1.00  0.00    -0.061 N 
ATOM      8  H11 UNL     1       1.212  -9.861 -13.808  1.00  0.00     0.278 HD
ATOM      9  H12 UNL     1       2.548 -10.028 -13.148  1.00  0.00     0.278 HD
HETATM   10  C7  UNL     1       1.298  -8.805 -12.010  1.00  0.00     0.130 C 
HETATM   11  C8  UNL     1      -0.192  -8.612 -11.893  1.00  0.00     0.047 C 
HETATM   12  C9  UNL     1       1.921  -7.521 -12.389  1.00  0.00     0.039 C 
HETATM   13  C10 UNL     1       1.811  -6.524 -11.303  1.00  0.00     0.002 C 
HETATM   14  C11 UNL     1       1.308  -6.959  -9.996  1.00  0.00     0.001 C 
HETATM   15  C12 UNL     1       1.512  -8.389  -9.624  1.00  0.00     0.012 C 
HETATM   16  C13 UNL     1       1.939  -9.270 -10.727  1.00  0.00    -0.005 C 
HETATM   17  C14 UNL     1       3.429  -9.223 -10.873  1.00  0.00     0.018 C 
HETATM   18  C15 UNL     1       1.319 -12.341 -12.556  1.00  0.00     0.051 C 
HETATM   19  C16 UNL     1       2.394 -12.230 -13.646  1.00  0.00     0.175 C 
HETATM   20  O1  UNL     1       2.877 -13.531 -13.695  1.00  0.00    -0.390 OA
HETATM   21  C17 UNL     1       3.157 -13.785 -12.361  1.00  0.00     0.177 C 
ENDROOT
TORSDOF 0
ENDMDL
MODEL 5
REMARK VINA RESULT: -7.678991241      1.677      3.306
REMARK  0 active torsions:
REMARK  status: ('A' for Active; 'I' for Inactive)
ROOT
HETATM    1  C1  UNL     1       2.965  -6.363 -11.661  1.00  0.00     0.018 C 
HETATM    2  C2  UNL     1       2.634  -7.665 -10.918  1.00  0.00    -0.015 C 
HETATM    3  C3  UNL     1       3.900  -8.432 -10.788  1.00  0.00     0.012 C 
HETATM    4  C4  UNL     1       3.630  -9.876 -10.416  1.00  0.00     0.008 C 
HETATM    5  C5  UNL     1       2.876 -10.474 -11.564  1.00  0.00     0.027 C 
HETATM    6  C6  UNL     1       1.621  -9.759 -11.905  1.00  0.00     0.198 C 
HETATM    7  N1  UNL     1       0.554 -10.642 -11.400  1.00  0.00    -0.061 N 
ATOM      8  H11 UNL     1      -0.393 -10.415 -11.706  1.00  0.00     0.278 HD
ATOM      9  H12 UNL     1       0.341 -10.558 -10.406  1.00  0.00     0.278 HD
HETATM   10  C7  UNL     1       1.059 -11.909 -11.824  1.00  0.00     0.130 C 
HETATM   11  C8  UNL     1       1.060 -11.979 -13.329  1.00  0.00     0.047 C 
HETATM   12  C9  UNL     1       0.376 -13.103 -11.287  1.00  0.00     0.039 C 
HETATM   13  C10 UNL     1       1.151 -14.334 -11.549  1.00  0.00     0.002 C 
HETATM   14  C11 UNL     1       2.505 -14.210 -12.097  1.00  0.00     0.001 C 
HETATM   15  C12 UNL     1       3.254 -12.955 -11.800  1.00  0.00     0.012 C 
HETATM   16  C13 UNL     1       2.444 -11.861 -11.231  1.00  0.00    -0.005 C 
HETATM   17  C14 UNL     1       2.352 -12.013  -9.744  1.00  0.00     0.018 C 
HETATM   18  C15 UNL     1       1.479  -8.372 -11.475  1.00  0.00     0.051 C 
HETATM   19  C16 UNL     1       0.444  -8.297 -10.344  1.00  0.00     0.175 C 
HETATM   20  O1  UNL     1       0.764  -7.082  -9.753  1.00  0.00    -0.390 OA
HETATM   21  C17 UNL     1       2.127  -7.216  -9.540  1.00  0.00     0.177 C 
ENDROOT
TORSDOF 0
ENDMDL
