MODEL 1
REMARK VINA RESULT: -8.722657614      0.000      0.000
REMARK  0 active torsions:
REMARK  status: ('A' for Active; 'I' for Inactive)
ROOT
HETATM    1  C1  UNL     1       1.766  -8.611 -13.449  1.00  0.00     0.016 C 
HETATM    2  C2  UNL     1       1.809  -9.189 -12.008  1.00  0.00    -0.036 C 
HETATM    3  C3  UNL     1       0.419  -9.209 -11.592  1.00  0.00     0.010 C 
HETATM    4  C4  UNL     1       0.051  -7.716 -11.551  1.00  0.00     0.001 C 
HETATM    5  C5  UNL     1       1.348  -6.951 -11.565  1.00  0.00     0.005 C 
HETATM    6  C6  UNL     1       2.366  -7.998 -11.206  1.00  0.00    -0.006 C 
HETATM    7  C7  UNL     1       2.350  -8.373  -9.773  1.00  0.00     0.006 C 
HETATM    8  C8  UNL     1       3.345  -9.462  -9.570  1.00  0.00     0.009 C 
HETATM    9  C9  UNL     1       3.594 -10.387 -10.676  1.00  0.00     0.029 C 
HETATM   10  C10 UNL     1       2.718 -10.318 -11.893  1.00  0.00     0.008 C 
HETATM   11  C11 UNL     1       2.342 -11.709 -11.719  1.00  0.00     0.029 C 
HETATM   12  C12 UNL     1       0.951 -12.186 -11.541  1.00  0.00     0.011 C 
HETATM   13  C13 UNL     1       1.020 -13.729 -11.532  1.00  0.00     0.035 C 
HETATM   14  C14 UNL     1       2.131 -14.072 -10.530  1.00  0.00     0.160 C 
HETATM   15  C15 UNL     1       1.765 -13.438  -9.239  1.00  0.00     0.038 C 
HETATM   16  C16 UNL     1       2.261 -12.010  -9.205  1.00  0.00     0.044 C 
HETATM   17  C17 UNL     1       3.067 -11.769 -10.426  1.00  0.00     0.104 C 
HETATM   18  O1  UNL     1       4.006 -12.802 -10.489  1.00  0.00    -0.228 OA
HETATM   19  O2  UNL     1       3.375 -13.829 -11.012  1.00  0.00    -0.235 OA
ENDROOT
TORSDOF 0
ENDMDL
MODEL 2
REMARK VINA RESULT: -8.563739671      2.289      4.980
REMARK  0 active torsions:
REMARK  status: ('A' for Active; 'I' for Inactive)
ROOT
HETATM    1  C1  UNL     1       3.372 -13.160 -10.380  1.00  0.00     0.016 C 
HETATM    2  C2  UNL     1       2.417 -12.349 -11.296  1.00  0.00    -0.036 C 
HETATM    3  C3  UNL     1       1.120 -12.965 -11.091  1.00  0.00     0.010 C 
HETATM    4  C4  UNL     1       1.319 -14.381 -11.658  1.00  0.00     0.001 C 
HETATM    5  C5  UNL     1       2.574 -14.341 -12.489  1.00  0.00     0.005 C 
HETATM    6  C6  UNL     1       2.801 -12.869 -12.693  1.00  0.00    -0.006 C 
HETATM    7  C7  UNL     1       1.873 -12.257 -13.673  1.00  0.00     0.006 C 
HETATM    8  C8  UNL     1       2.154 -10.796 -13.724  1.00  0.00     0.009 C 
HETATM    9  C9  UNL     1       2.643 -10.142 -12.510  1.00  0.00     0.029 C 
HETATM   10  C10 UNL     1       2.668 -10.918 -11.226  1.00  0.00     0.008 C 
HETATM   11  C11 UNL     1       1.816  -9.927 -10.593  1.00  0.00     0.029 C 
HETATM   12  C12 UNL     1       0.496 -10.219  -9.989  1.00  0.00     0.011 C 
HETATM   13  C13 UNL     1       0.024  -8.906  -9.325  1.00  0.00     0.035 C 
HETATM   14  C14 UNL     1       0.205  -7.827 -10.403  1.00  0.00     0.160 C 
HETATM   15  C15 UNL     1      -0.573  -8.262 -11.589  1.00  0.00     0.038 C 
HETATM   16  C16 UNL     1       0.269  -9.176 -12.452  1.00  0.00     0.044 C 
HETATM   17  C17 UNL     1       1.637  -9.220 -11.885  1.00  0.00     0.104 C 
HETATM   18  O1  UNL     1       2.041  -7.892 -11.726  1.00  0.00    -0.228 OA
HETATM   19  O2  UNL     1       1.502  -7.485 -10.600  1.00  0.00    -0.235 OA
ENDROOT
TORSDOF 0
ENDMDL
MODEL 3
REMARK VINA RESULT: -8.405944859      2.427      5.003
REMARK  0 active torsions:
REMARK  status: ('A' for Active; 'I' for Inactive)
ROOT
HETATM    1  C1  UNL     1       2.342 -12.725 -13.322  1.00  0.00     0.016 C 
HETATM    2  C2  UNL     1       1.903 -11.899 -12.083  1.00  0.00    -0.036 C 
HETATM    3  C3  UNL     1       2.869 -12.254 -11.060  1.00  0.00     0.010 C 
HETATM    4  C4  UNL     1       2.587 -13.748 -10.824  1.00  0.00     0.001 C 
HETATM    5  C5  UNL     1       1.242 -14.035 -11.436  1.00  0.00     0.005 C 
HETATM    6  C6  UNL     1       0.650 -12.664 -11.620  1.00  0.00    -0.006 C 
HETATM    7  C7  UNL     1       0.186 -12.047 -10.356  1.00  0.00     0.006 C 
HETATM    8  C8  UNL     1      -0.303 -10.675 -10.665  1.00  0.00     0.009 C 
HETATM    9  C9  UNL     1       0.321  -9.951 -11.773  1.00  0.00     0.029 C 
HETATM   10  C10 UNL     1       1.537 -10.535 -12.430  1.00  0.00     0.008 C 
HETATM   11  C11 UNL     1       2.296  -9.337 -12.122  1.00  0.00     0.029 C 
HETATM   12  C12 UNL     1       3.539  -9.316 -11.316  1.00  0.00     0.011 C 
HETATM   13  C13 UNL     1       4.062  -7.863 -11.367  1.00  0.00     0.035 C 
HETATM   14  C14 UNL     1       2.850  -6.990 -11.015  1.00  0.00     0.160 C 
HETATM   15  C15 UNL     1       2.352  -7.448  -9.694  1.00  0.00     0.038 C 
HETATM   16  C16 UNL     1       1.390  -8.601  -9.875  1.00  0.00     0.044 C 
HETATM   17  C17 UNL     1       1.167  -8.796 -11.327  1.00  0.00     0.104 C 
HETATM   18  O1  UNL     1       0.817  -7.545 -11.844  1.00  0.00    -0.228 OA
HETATM   19  O2  UNL     1       1.948  -6.902 -12.023  1.00  0.00    -0.235 OA
ENDROOT
TORSDOF 0
ENDMDL
MODEL 4
REMARK VINA RESULT: -8.352474599      1.503      2.663
REMARK  0 active torsions:
REMARK  status: ('A' for Active; 'I' for Inactive)
ROOT
HETATM    1  C1  UNL     1      -1.245  -8.661 -10.162  1.00  0.00     0.016 C 
HETATM    2  C2  UNL     1       0.088  -9.173 -10.771  1.00  0.00    -0.036 C 
HETATM    3  C3  UNL     1       1.100  -8.737  -9.828  1.00  0.00     0.010 C 
HETATM    4  C4  UNL     1       1.028  -7.203  -9.931  1.00  0.00     0.001 C 
HETATM    5  C5  UNL     1       0.268  -6.891 -11.192  1.00  0.00     0.005 C 
HETATM    6  C6  UNL     1       0.298  -8.195 -11.941  1.00  0.00    -0.006 C 
HETATM    7  C7  UNL     1       1.615  -8.496 -12.550  1.00  0.00     0.006 C 
HETATM    8  C8  UNL     1       1.530  -9.838 -13.191  1.00  0.00     0.009 C 
HETATM    9  C9  UNL     1       0.630 -10.830 -12.602  1.00  0.00     0.029 C 
HETATM   10  C10 UNL     1      -0.025 -10.528 -11.287  1.00  0.00     0.008 C 
HETATM   11  C11 UNL     1       0.562 -11.721 -10.704  1.00  0.00     0.029 C 
HETATM   12  C12 UNL     1       1.454 -11.725  -9.522  1.00  0.00     0.011 C 
HETATM   13  C13 UNL     1       1.719 -13.209  -9.184  1.00  0.00     0.035 C 
HETATM   14  C14 UNL     1       2.130 -13.853 -10.516  1.00  0.00     0.160 C 
HETATM   15  C15 UNL     1       3.298 -13.092 -11.025  1.00  0.00     0.038 C 
HETATM   16  C16 UNL     1       2.828 -11.895 -11.821  1.00  0.00     0.044 C 
HETATM   17  C17 UNL     1       1.352 -11.965 -11.935  1.00  0.00     0.104 C 
HETATM   18  O1  UNL     1       1.053 -13.244 -12.412  1.00  0.00    -0.228 OA
HETATM   19  O2  UNL     1       1.088 -14.034 -11.363  1.00  0.00    -0.235 OA
ENDROOT
TORSDOF 0
ENDMDL
MODEL 5
REMARK VINA RESULT: -8.308361837      2.266      4.957
REMARK  0 active torsions:
REMARK  status: ('A' for Active; 'I' for Inactive)
ROOT
HETATM    1  C1  UNL     1       1.860 -13.424  -9.223  1.00  0.00     0.016 C 
HETATM    2  C2  UNL     1       1.641 -12.365 -10.337  1.00  0.00    -0.036 C 
HETATM    3  C3  UNL     1       0.392 -12.759 -10.961  1.00  0.00     0.010 C 
HETATM    4  C4  UNL     1       0.736 -14.121 -11.588  1.00  0.00     0.001 C 
HETATM    5  C5  UNL     1       2.238 -14.219 -11.612  1.00  0.00     0.005 C 
HETATM    6  C6  UNL     1       2.676 -12.796 -11.392  1.00  0.00    -0.006 C 
HETATM    7  C7  UNL     1       2.495 -11.932 -12.581  1.00  0.00     0.006 C 
HETATM    8  C8  UNL     1       2.893 -10.546 -12.208  1.00  0.00     0.009 C 
HETATM    9  C9  UNL     1       2.697 -10.119 -10.823  1.00  0.00     0.029 C 
HETATM   10  C10 UNL     1       1.944 -11.016  -9.885  1.00  0.00     0.008 C 
HETATM   11  C11 UNL     1       0.982  -9.961  -9.624  1.00  0.00     0.029 C 
HETATM   12  C12 UNL     1      -0.474 -10.075  -9.869  1.00  0.00     0.011 C 
HETATM   13  C13 UNL     1      -1.107  -8.775  -9.324  1.00  0.00     0.035 C 
HETATM   14  C14 UNL     1      -0.268  -7.640  -9.927  1.00  0.00     0.160 C 
HETATM   15  C15 UNL     1      -0.307  -7.804 -11.401  1.00  0.00     0.038 C 
HETATM   16  C16 UNL     1       0.780  -8.759 -11.844  1.00  0.00     0.044 C 
HETATM   17  C17 UNL     1       1.604  -9.103 -10.662  1.00  0.00     0.104 C 
HETATM   18  O1  UNL     1       1.978  -7.891 -10.074  1.00  0.00    -0.228 OA
HETATM   19  O2  UNL     1       0.951  -7.515  -9.347  1.00  0.00    -0.235 OA
ENDROOT
TORSDOF 0
ENDMDL
