MODEL 1
REMARK VINA RESULT: -8.340904598      0.000      0.000
REMARK  1 active torsions:
REMARK  status: ('A' for Active; 'I' for Inactive)
REMARK    1  A    between atoms: C3_5  and  C4_6 
ROOT
HETATM    1  C1  UNL     1       4.038  -8.154  -9.458  1.00  0.00     0.062 C 
HETATM    2  C2  UNL     1       2.982  -8.849 -10.246  1.00  0.00    -0.021 C 
HETATM    3  N1  UNL     1       1.754  -8.798  -9.959  1.00  0.00    -0.391 N 
ATOM      4  H1  UNL     1       1.364  -8.283  -9.169  1.00  0.00     0.159 HD
HETATM    5  C3  UNL     1       0.972  -9.573 -10.907  1.00  0.00     0.097 C 
HETATM    6  C8  UNL     1       1.909 -10.630 -11.304  1.00  0.00    -0.011 C 
HETATM    7  C9  UNL     1       2.303 -11.575 -10.237  1.00  0.00     0.015 C 
HETATM    8  C10 UNL     1       3.295 -12.622 -10.678  1.00  0.00     0.033 C 
HETATM    9  C11 UNL     1       2.593 -13.885 -11.157  1.00  0.00     0.121 C 
HETATM   10  C12 UNL     1       1.249 -13.540 -11.742  1.00  0.00     0.039 C 
HETATM   11  C13 UNL     1       1.658 -12.646 -12.863  1.00  0.00     0.016 C 
HETATM   12  C14 UNL     1       2.974 -13.262 -13.273  1.00  0.00     0.173 C 
HETATM   13  O1  UNL     1       3.277 -14.262 -12.339  1.00  0.00    -0.385 OA
HETATM   14  C15 UNL     1       1.659 -11.204 -12.654  1.00  0.00    -0.002 C 
HETATM   15  C16 UNL     1       2.570 -10.597 -13.738  1.00  0.00     0.011 C 
HETATM   16  C17 UNL     1       3.142  -9.700 -11.470  1.00  0.00     0.063 C 
ENDROOT
BRANCH   5  17
HETATM   17  C4  UNL     1      -0.347  -9.779 -10.364  1.00  0.00    -0.030 C 
HETATM   18  C5  UNL     1      -0.875 -11.182 -10.264  1.00  0.00     0.016 C 
HETATM   19  C6  UNL     1      -0.276  -9.307  -8.888  1.00  0.00     0.016 C 
HETATM   20  C7  UNL     1      -1.456  -8.923 -10.933  1.00  0.00     0.016 C 
ENDBRANCH   5  17
TORSDOF 1
ENDMDL
MODEL 2
REMARK VINA RESULT: -7.903377002      1.187      1.390
REMARK  1 active torsions:
REMARK  status: ('A' for Active; 'I' for Inactive)
REMARK    1  A    between atoms: C3_5  and  C4_6 
ROOT
HETATM    1  C1  UNL     1       4.348  -7.629 -11.662  1.00  0.00     0.062 C 
HETATM    2  C2  UNL     1       3.105  -8.446 -11.708  1.00  0.00    -0.021 C 
HETATM    3  N1  UNL     1       2.029  -8.108 -11.144  1.00  0.00    -0.391 N 
ATOM      4  H1  UNL     1       1.901  -7.251 -10.605  1.00  0.00     0.159 HD
HETATM    5  C3  UNL     1       0.994  -9.105 -11.367  1.00  0.00     0.097 C 
HETATM    6  C8  UNL     1       1.769 -10.346 -11.480  1.00  0.00    -0.011 C 
HETATM    7  C9  UNL     1       2.485 -10.772 -10.259  1.00  0.00     0.015 C 
HETATM    8  C10 UNL     1       3.298 -12.031 -10.430  1.00  0.00     0.033 C 
HETATM    9  C11 UNL     1       2.493 -13.267 -10.056  1.00  0.00     0.121 C 
HETATM   10  C12 UNL     1       1.030 -13.033 -10.329  1.00  0.00     0.039 C 
HETATM   11  C13 UNL     1       1.059 -12.786 -11.799  1.00  0.00     0.016 C 
HETATM   12  C14 UNL     1       2.186 -13.693 -12.232  1.00  0.00     0.173 C 
HETATM   13  O1  UNL     1       2.775 -14.213 -11.072  1.00  0.00    -0.385 OA
HETATM   14  C15 UNL     1       1.114 -11.414 -12.284  1.00  0.00    -0.002 C 
HETATM   15  C16 UNL     1       1.634 -11.473 -13.733  1.00  0.00     0.011 C 
HETATM   16  C17 UNL     1       2.881  -9.760 -12.395  1.00  0.00     0.063 C 
ENDROOT
BRANCH   5  17
HETATM   17  C4  UNL     1      -0.086  -8.870 -10.442  1.00  0.00    -0.030 C 
HETATM   18  C5  UNL     1       0.093  -9.275  -9.007  1.00  0.00     0.016 C 
HETATM   19  C6  UNL     1      -0.257  -7.329 -10.373  1.00  0.00     0.016 C 
HETATM   20  C7  UNL     1      -1.459  -9.337 -10.872  1.00  0.00     0.016 C 
ENDBRANCH   5  17
TORSDOF 1
ENDMDL
MODEL 3
REMARK VINA RESULT: -7.785213469      2.491      4.811
REMARK  1 active torsions:
REMARK  status: ('A' for Active; 'I' for Inactive)
REMARK    1  A    between atoms: C3_5  and  C4_6 
ROOT
HETATM    1  C1  UNL     1       2.881 -11.429 -14.552  1.00  0.00     0.062 C 
HETATM    2  C2  UNL     1       2.579 -11.341 -13.097  1.00  0.00    -0.021 C 
HETATM    3  N1  UNL     1       2.180 -12.321 -12.410  1.00  0.00    -0.391 N 
ATOM      4  H1  UNL     1       2.026 -13.261 -12.774  1.00  0.00     0.159 HD
HETATM    5  C3  UNL     1       1.971 -11.928 -11.026  1.00  0.00     0.097 C 
HETATM    6  C8  UNL     1       1.591 -10.516 -11.150  1.00  0.00    -0.011 C 
HETATM    7  C9  UNL     1       0.312 -10.252 -11.844  1.00  0.00     0.015 C 
HETATM    8  C10 UNL     1      -0.021  -8.787 -11.983  1.00  0.00     0.033 C 
HETATM    9  C11 UNL     1      -0.870  -8.298 -10.818  1.00  0.00     0.121 C 
HETATM   10  C12 UNL     1      -0.548  -9.088  -9.576  1.00  0.00     0.039 C 
HETATM   11  C13 UNL     1       0.899  -8.768  -9.412  1.00  0.00     0.016 C 
HETATM   12  C14 UNL     1       0.952  -7.349  -9.926  1.00  0.00     0.173 C 
HETATM   13  O1  UNL     1      -0.311  -7.048 -10.454  1.00  0.00    -0.385 OA
HETATM   14  C15 UNL     1       1.892  -9.685  -9.953  1.00  0.00    -0.002 C 
HETATM   15  C16 UNL     1       3.205  -8.891 -10.093  1.00  0.00     0.011 C 
HETATM   16  C17 UNL     1       2.680 -10.147 -12.196  1.00  0.00     0.063 C 
ENDROOT
BRANCH   5  17
HETATM   17  C4  UNL     1       1.201 -12.949 -10.363  1.00  0.00    -0.030 C 
HETATM   18  C5  UNL     1      -0.271 -12.728 -10.163  1.00  0.00     0.016 C 
HETATM   19  C6  UNL     1       1.265 -14.195 -11.286  1.00  0.00     0.016 C 
HETATM   20  C7  UNL     1       1.755 -13.476  -9.058  1.00  0.00     0.016 C 
ENDBRANCH   5  17
TORSDOF 1
ENDMDL
MODEL 4
REMARK VINA RESULT: -7.679114307      2.487      4.518
REMARK  1 active torsions:
REMARK  status: ('A' for Active; 'I' for Inactive)
REMARK    1  A    between atoms: C3_5  and  C4_6 
ROOT
HETATM    1  C1  UNL     1       3.375 -11.111  -7.546  1.00  0.00     0.062 C 
HETATM    2  C2  UNL     1       2.460 -11.119  -8.720  1.00  0.00    -0.021 C 
HETATM    3  N1  UNL     1       2.427 -12.051  -9.570  1.00  0.00    -0.391 N 
ATOM      4  H1  UNL     1       3.016 -12.883  -9.541  1.00  0.00     0.159 HD
HETATM    5  C3  UNL     1       1.435 -11.776 -10.597  1.00  0.00     0.097 C 
HETATM    6  C8  UNL     1       1.434 -10.310 -10.654  1.00  0.00    -0.011 C 
HETATM    7  C9  UNL     1       2.688  -9.682 -11.125  1.00  0.00     0.015 C 
HETATM    8  C10 UNL     1       2.656  -8.174 -11.132  1.00  0.00     0.033 C 
HETATM    9  C11 UNL     1       2.203  -7.636 -12.482  1.00  0.00     0.121 C 
HETATM   10  C12 UNL     1       1.264  -8.612 -13.140  1.00  0.00     0.039 C 
HETATM   11  C13 UNL     1       0.162  -8.654 -12.136  1.00  0.00     0.016 C 
HETATM   12  C14 UNL     1       0.178  -7.238 -11.614  1.00  0.00     0.173 C 
HETATM   13  O1  UNL     1       1.290  -6.596 -12.177  1.00  0.00    -0.385 OA
HETATM   14  C15 UNL     1       0.159  -9.710 -11.134  1.00  0.00    -0.002 C 
HETATM   15  C16 UNL     1      -0.743  -9.229  -9.981  1.00  0.00     0.011 C 
HETATM   16  C17 UNL     1       1.445 -10.088  -9.116  1.00  0.00     0.063 C 
ENDROOT
BRANCH   5  17
HETATM   17  C4  UNL     1       1.663 -12.660 -11.712  1.00  0.00    -0.030 C 
HETATM   18  C5  UNL     1       3.033 -13.247 -11.899  1.00  0.00     0.016 C 
HETATM   19  C6  UNL     1       0.763 -13.899 -11.462  1.00  0.00     0.016 C 
HETATM   20  C7  UNL     1       1.194 -12.178 -13.066  1.00  0.00     0.016 C 
ENDBRANCH   5  17
TORSDOF 1
ENDMDL
MODEL 5
REMARK VINA RESULT: -7.668241437      1.593      3.486
REMARK  1 active torsions:
REMARK  status: ('A' for Active; 'I' for Inactive)
REMARK    1  A    between atoms: C3_5  and  C4_6 
ROOT
HETATM    1  C1  UNL     1      -1.484  -8.221  -9.415  1.00  0.00     0.062 C 
HETATM    2  C2  UNL     1      -0.109  -8.674  -9.765  1.00  0.00    -0.021 C 
HETATM    3  N1  UNL     1       0.614  -8.098 -10.623  1.00  0.00    -0.391 N 
ATOM      4  H1  UNL     1       0.336  -7.276 -11.159  1.00  0.00     0.159 HD
HETATM    5  C3  UNL     1       1.899  -8.768 -10.745  1.00  0.00     0.097 C 
HETATM    6  C8  UNL     1       1.564 -10.160 -10.425  1.00  0.00    -0.011 C 
HETATM    7  C9  UNL     1       0.661 -10.840 -11.379  1.00  0.00     0.015 C 
HETATM    8  C10 UNL     1       0.313 -12.256 -10.993  1.00  0.00     0.033 C 
HETATM    9  C11 UNL     1       1.277 -13.255 -11.618  1.00  0.00     0.121 C 
HETATM   10  C12 UNL     1       2.632 -12.623 -11.799  1.00  0.00     0.039 C 
HETATM   11  C13 UNL     1       2.975 -12.296 -10.385  1.00  0.00     0.016 C 
HETATM   12  C14 UNL     1       2.322 -13.440  -9.647  1.00  0.00     0.173 C 
HETATM   13  O1  UNL     1       1.580 -14.173 -10.582  1.00  0.00    -0.385 OA
HETATM   14  C15 UNL     1       2.694 -10.959  -9.880  1.00  0.00    -0.002 C 
HETATM   15  C16 UNL     1       2.666 -11.060  -8.343  1.00  0.00     0.011 C 
HETATM   16  C17 UNL     1       0.659  -9.832  -9.205  1.00  0.00     0.063 C 
ENDROOT
BRANCH   5  17
HETATM   17  C4  UNL     1       2.547  -8.315 -11.949  1.00  0.00    -0.030 C 
HETATM   18  C5  UNL     1       2.524  -9.204 -13.160  1.00  0.00     0.016 C 
HETATM   19  C6  UNL     1       1.766  -7.054 -12.404  1.00  0.00     0.016 C 
HETATM   20  C7  UNL     1       3.960  -7.794 -11.804  1.00  0.00     0.016 C 
ENDBRANCH   5  17
TORSDOF 1
ENDMDL
