MODEL 1
REMARK VINA RESULT: -6.884081053      0.000      0.000
REMARK  3 active torsions:
REMARK  status: ('A' for Active; 'I' for Inactive)
REMARK    1  A    between atoms: C3_3  and  C4_4 
REMARK    2  A    between atoms: C4_4  and  N1_5 
REMARK    3  A    between atoms: N1_5  and  C5_7 
ROOT
HETATM    1  C1  UNL     1      21.170 -42.599 -15.457  1.00  0.00     0.012 C 
HETATM    2  C2  UNL     1      22.052 -41.907 -15.016  1.00  0.00    -0.116 C 
HETATM    3  C3  UNL     1      23.121 -41.097 -14.514  1.00  0.00     0.112 C 
ENDROOT
BRANCH   3   4
HETATM    4  C4  UNL     1      23.405 -41.391 -13.029  1.00  0.00     0.126 C 
BRANCH   4   5
HETATM    5  N1  UNL     1      23.896 -42.737 -13.033  1.00  0.00    -0.412 N 
ATOM      6  H1  UNL     1      24.480 -43.063 -13.803  1.00  0.00     0.154 HD
BRANCH   5   7
HETATM    7  C5  UNL     1      23.574 -43.607 -11.981  1.00  0.00     0.026 C 
HETATM    8  C6  UNL     1      24.405 -44.880 -12.227  1.00  0.00     0.035 C 
HETATM    9  C7  UNL     1      24.141 -45.929 -11.197  1.00  0.00    -0.012 C 
HETATM   10  C8  UNL     1      22.695 -46.336 -11.286  1.00  0.00     0.009 C 
HETATM   11  C12 UNL     1      24.469 -45.350  -9.831  1.00  0.00     0.009 C 
HETATM   12  C9  UNL     1      21.829 -45.136 -11.077  1.00  0.00    -0.012 C 
HETATM   13  C10 UNL     1      22.088 -44.626  -9.676  1.00  0.00     0.009 C 
HETATM   14  C14 UNL     1      22.134 -44.022 -12.040  1.00  0.00     0.035 C 
HETATM   15  C11 UNL     1      23.523 -44.200  -9.594  1.00  0.00    -0.012 C 
HETATM   16  C13 UNL     1      23.850 -43.095 -10.593  1.00  0.00     0.035 C 
ENDBRANCH   5   7
ENDBRANCH   4   5
ENDBRANCH   3   4
TORSDOF 3
ENDMDL
MODEL 2
REMARK VINA RESULT: -6.835954376      0.238      1.984
REMARK  3 active torsions:
REMARK  status: ('A' for Active; 'I' for Inactive)
REMARK    1  A    between atoms: C3_3  and  C4_4 
REMARK    2  A    between atoms: C4_4  and  N1_5 
REMARK    3  A    between atoms: N1_5  and  C5_7 
ROOT
HETATM    1  C1  UNL     1      21.172 -42.616 -15.506  1.00  0.00     0.012 C 
HETATM    2  C2  UNL     1      22.060 -41.963 -15.021  1.00  0.00    -0.116 C 
HETATM    3  C3  UNL     1      23.138 -41.200 -14.468  1.00  0.00     0.112 C 
ENDROOT
BRANCH   3   4
HETATM    4  C4  UNL     1      23.364 -41.534 -12.982  1.00  0.00     0.126 C 
BRANCH   4   5
HETATM    5  N1  UNL     1      24.038 -42.797 -13.012  1.00  0.00    -0.412 N 
ATOM      6  H1  UNL     1      24.790 -42.956 -13.682  1.00  0.00     0.154 HD
BRANCH   5   7
HETATM    7  C5  UNL     1      23.665 -43.816 -12.124  1.00  0.00     0.026 C 
HETATM    8  C6  UNL     1      23.788 -43.204 -10.716  1.00  0.00     0.035 C 
HETATM    9  C7  UNL     1      23.454 -44.192  -9.645  1.00  0.00    -0.012 C 
HETATM   10  C8  UNL     1      24.444 -45.324  -9.711  1.00  0.00     0.009 C 
HETATM   11  C12 UNL     1      22.036 -44.685  -9.876  1.00  0.00     0.009 C 
HETATM   12  C9  UNL     1      24.392 -45.950 -11.066  1.00  0.00    -0.012 C 
HETATM   13  C10 UNL     1      23.005 -46.528 -11.247  1.00  0.00     0.009 C 
HETATM   14  C14 UNL     1      24.630 -44.963 -12.175  1.00  0.00     0.035 C 
HETATM   15  C11 UNL     1      22.021 -45.398 -11.204  1.00  0.00    -0.012 C 
HETATM   16  C13 UNL     1      22.278 -44.373 -12.303  1.00  0.00     0.035 C 
ENDBRANCH   5   7
ENDBRANCH   4   5
ENDBRANCH   3   4
TORSDOF 3
ENDMDL
MODEL 3
REMARK VINA RESULT: -6.789614965      0.181      1.865
REMARK  3 active torsions:
REMARK  status: ('A' for Active; 'I' for Inactive)
REMARK    1  A    between atoms: C3_3  and  C4_4 
REMARK    2  A    between atoms: C4_4  and  N1_5 
REMARK    3  A    between atoms: N1_5  and  C5_7 
ROOT
HETATM    1  C1  UNL     1      21.172 -42.629 -15.508  1.00  0.00     0.012 C 
HETATM    2  C2  UNL     1      22.034 -41.945 -15.018  1.00  0.00    -0.116 C 
HETATM    3  C3  UNL     1      23.080 -41.144 -14.458  1.00  0.00     0.112 C 
ENDROOT
BRANCH   3   4
HETATM    4  C4  UNL     1      23.368 -41.530 -12.995  1.00  0.00     0.126 C 
BRANCH   4   5
HETATM    5  N1  UNL     1      23.987 -42.817 -13.095  1.00  0.00    -0.412 N 
ATOM      6  H1  UNL     1      24.570 -43.040 -13.902  1.00  0.00     0.154 HD
BRANCH   5   7
HETATM    7  C5  UNL     1      23.794 -43.772 -12.086  1.00  0.00     0.026 C 
HETATM    8  C6  UNL     1      22.317 -44.195 -12.193  1.00  0.00     0.035 C 
HETATM    9  C7  UNL     1      21.944 -45.195 -11.146  1.00  0.00    -0.012 C 
HETATM   10  C8  UNL     1      22.113 -44.559  -9.793  1.00  0.00     0.009 C 
HETATM   11  C12 UNL     1      22.845 -46.408 -11.302  1.00  0.00     0.009 C 
HETATM   12  C9  UNL     1      23.526 -44.102  -9.632  1.00  0.00    -0.012 C 
HETATM   13  C10 UNL     1      24.409 -45.330  -9.687  1.00  0.00     0.009 C 
HETATM   14  C14 UNL     1      23.965 -43.166 -10.724  1.00  0.00     0.035 C 
HETATM   15  C11 UNL     1      24.259 -45.952 -11.043  1.00  0.00    -0.012 C 
HETATM   16  C13 UNL     1      24.667 -44.995 -12.159  1.00  0.00     0.035 C 
ENDBRANCH   5   7
ENDBRANCH   4   5
ENDBRANCH   3   4
TORSDOF 3
ENDMDL
MODEL 4
REMARK VINA RESULT: -6.657147546      0.976      2.211
REMARK  3 active torsions:
REMARK  status: ('A' for Active; 'I' for Inactive)
REMARK    1  A    between atoms: C3_3  and  C4_4 
REMARK    2  A    between atoms: C4_4  and  N1_5 
REMARK    3  A    between atoms: N1_5  and  C5_7 
ROOT
HETATM    1  C1  UNL     1      23.015 -40.732 -14.692  1.00  0.00     0.012 C 
HETATM    2  C2  UNL     1      22.380 -41.749 -14.808  1.00  0.00    -0.116 C 
HETATM    3  C3  UNL     1      21.598 -42.940 -14.953  1.00  0.00     0.112 C 
ENDROOT
BRANCH   3   4
HETATM    4  C4  UNL     1      21.494 -43.715 -13.626  1.00  0.00     0.126 C 
BRANCH   4   5
HETATM    5  N1  UNL     1      22.849 -44.061 -13.323  1.00  0.00    -0.412 N 
ATOM      6  H1  UNL     1      23.569 -43.974 -14.041  1.00  0.00     0.154 HD
BRANCH   5   7
HETATM    7  C5  UNL     1      23.190 -44.522 -12.043  1.00  0.00     0.026 C 
HETATM    8  C6  UNL     1      22.046 -45.464 -11.624  1.00  0.00     0.035 C 
HETATM    9  C7  UNL     1      22.248 -46.013 -10.249  1.00  0.00    -0.012 C 
HETATM   10  C8  UNL     1      22.245 -44.869  -9.270  1.00  0.00     0.009 C 
HETATM   11  C12 UNL     1      23.572 -46.758 -10.222  1.00  0.00     0.009 C 
HETATM   12  C9  UNL     1      23.323 -43.901  -9.635  1.00  0.00    -0.012 C 
HETATM   13  C10 UNL     1      24.646 -44.624  -9.508  1.00  0.00     0.009 C 
HETATM   14  C14 UNL     1      23.202 -43.400 -11.048  1.00  0.00     0.035 C 
HETATM   15  C11 UNL     1      24.658 -45.750 -10.498  1.00  0.00    -0.012 C 
HETATM   16  C13 UNL     1      24.500 -45.253 -11.931  1.00  0.00     0.035 C 
ENDBRANCH   5   7
ENDBRANCH   4   5
ENDBRANCH   3   4
TORSDOF 3
ENDMDL
MODEL 5
REMARK VINA RESULT: -6.611337387      1.216      2.300
REMARK  3 active torsions:
REMARK  status: ('A' for Active; 'I' for Inactive)
REMARK    1  A    between atoms: C3_3  and  C4_4 
REMARK    2  A    between atoms: C4_4  and  N1_5 
REMARK    3  A    between atoms: N1_5  and  C5_7 
ROOT
HETATM    1  C1  UNL     1      23.462 -40.502 -14.958  1.00  0.00     0.012 C 
HETATM    2  C2  UNL     1      24.128 -40.719 -13.977  1.00  0.00    -0.116 C 
HETATM    3  C3  UNL     1      24.934 -41.002 -12.828  1.00  0.00     0.112 C 
ENDROOT
BRANCH   3   4
HETATM    4  C4  UNL     1      24.074 -41.427 -11.623  1.00  0.00     0.126 C 
BRANCH   4   5
HETATM    5  N1  UNL     1      23.276 -42.501 -12.133  1.00  0.00    -0.412 N 
ATOM      6  H1  UNL     1      22.707 -42.360 -12.968  1.00  0.00     0.154 HD
BRANCH   5   7
HETATM    7  C5  UNL     1      23.273 -43.745 -11.487  1.00  0.00     0.026 C 
HETATM    8  C6  UNL     1      23.910 -43.497 -10.107  1.00  0.00     0.035 C 
HETATM    9  C7  UNL     1      24.012 -44.753  -9.303  1.00  0.00    -0.012 C 
HETATM   10  C8  UNL     1      24.915 -45.714 -10.028  1.00  0.00     0.009 C 
HETATM   11  C12 UNL     1      22.616 -45.326  -9.135  1.00  0.00     0.009 C 
HETATM   12  C9  UNL     1      24.362 -45.982 -11.390  1.00  0.00    -0.012 C 
HETATM   13  C10 UNL     1      23.014 -46.646 -11.212  1.00  0.00     0.009 C 
HETATM   14  C14 UNL     1      24.158 -44.728 -12.193  1.00  0.00     0.035 C 
HETATM   15  C11 UNL     1      22.109 -45.680 -10.509  1.00  0.00    -0.012 C 
HETATM   16  C13 UNL     1      21.925 -44.389 -11.301  1.00  0.00     0.035 C 
ENDBRANCH   5   7
ENDBRANCH   4   5
ENDBRANCH   3   4
TORSDOF 3
ENDMDL
