MODEL 1
REMARK VINA RESULT: -6.412849725      0.000      0.000
REMARK  2 active torsions:
REMARK  status: ('A' for Active; 'I' for Inactive)
REMARK    1  A    between atoms: C2_2  and  C3_3 
REMARK    2  A    between atoms: C11_11  and  N1_12 
ROOT
HETATM    1  C3  UNL     1      24.697 -46.148 -11.093  1.00  0.00    -0.010 C 
HETATM    2  C4  UNL     1      24.754 -45.149 -12.186  1.00  0.00     0.011 C 
HETATM    3  C5  UNL     1      23.876 -43.965 -11.914  1.00  0.00     0.017 C 
HETATM    4  C6  UNL     1      24.296 -43.316 -10.618  1.00  0.00     0.011 C 
HETATM    5  C7  UNL     1      24.291 -44.258  -9.469  1.00  0.00    -0.009 C 
HETATM    6  C8  UNL     1      22.846 -44.326  -8.944  1.00  0.00     0.010 C 
HETATM    7  C9  UNL     1      22.676 -45.581  -9.727  1.00  0.00    -0.007 C 
HETATM    8  C10 UNL     1      22.005 -45.411 -11.050  1.00  0.00     0.038 C 
HETATM    9  C11 UNL     1      22.425 -44.253 -11.851  1.00  0.00     0.190 C 
HETATM   10  C13 UNL     1      24.172 -45.692  -9.795  1.00  0.00    -0.002 C 
ENDROOT
BRANCH   9  11
HETATM   11  N1  UNL     1      21.823 -44.344 -13.171  1.00  0.00    -0.074 N 
HETATM   12  C12 UNL     1      22.014 -43.089 -13.907  1.00  0.00     0.267 C 
ATOM     13  H12 UNL     1      22.172 -45.147 -13.693  1.00  0.00     0.277 HD
ATOM     14  H11 UNL     1      20.840 -44.610 -13.123  1.00  0.00     0.277 HD
ENDBRANCH   9  11
BRANCH   1  15
HETATM   15  C2  UNL     1      26.026 -46.861 -10.854  1.00  0.00     0.000 C 
HETATM   16  C1  UNL     1      26.888 -46.835 -12.092  1.00  0.00     0.005 C 
ENDBRANCH   1  15
TORSDOF 2
ENDMDL
MODEL 2
REMARK VINA RESULT: -6.348291421      1.103      3.210
REMARK  2 active torsions:
REMARK  status: ('A' for Active; 'I' for Inactive)
REMARK    1  A    between atoms: C2_2  and  C3_3 
REMARK    2  A    between atoms: C11_11  and  N1_12 
ROOT
HETATM    1  C3  UNL     1      22.936 -44.091  -9.545  1.00  0.00    -0.010 C 
HETATM    2  C4  UNL     1      21.709 -44.748 -10.054  1.00  0.00     0.011 C 
HETATM    3  C5  UNL     1      21.950 -45.470 -11.346  1.00  0.00     0.017 C 
HETATM    4  C6  UNL     1      23.029 -46.505 -11.148  1.00  0.00     0.011 C 
HETATM    5  C7  UNL     1      24.291 -45.933 -10.613  1.00  0.00    -0.009 C 
HETATM    6  C8  UNL     1      25.078 -45.371 -11.812  1.00  0.00     0.010 C 
HETATM    7  C9  UNL     1      24.545 -44.026 -11.464  1.00  0.00    -0.007 C 
HETATM    8  C10 UNL     1      23.357 -43.594 -12.260  1.00  0.00     0.038 C 
HETATM    9  C11 UNL     1      22.323 -44.611 -12.492  1.00  0.00     0.190 C 
HETATM   10  C13 UNL     1      24.221 -44.553 -10.096  1.00  0.00    -0.002 C 
ENDROOT
BRANCH   9  11
HETATM   11  N1  UNL     1      21.166 -43.981 -13.108  1.00  0.00    -0.074 N 
HETATM   12  C12 UNL     1      21.552 -43.313 -14.357  1.00  0.00     0.267 C 
ATOM     13  H12 UNL     1      20.403 -44.643 -13.251  1.00  0.00     0.277 HD
ATOM     14  H11 UNL     1      20.695 -43.344 -12.466  1.00  0.00     0.277 HD
ENDBRANCH   9  11
BRANCH   1  15
HETATM   15  C2  UNL     1      23.034 -44.088  -8.022  1.00  0.00     0.000 C 
HETATM   16  C1  UNL     1      24.204 -43.257  -7.554  1.00  0.00     0.005 C 
ENDBRANCH   1  15
TORSDOF 2
ENDMDL
MODEL 3
REMARK VINA RESULT: -6.295135611      1.800      3.725
REMARK  2 active torsions:
REMARK  status: ('A' for Active; 'I' for Inactive)
REMARK    1  A    between atoms: C2_2  and  C3_3 
REMARK    2  A    between atoms: C11_11  and  N1_12 
ROOT
HETATM    1  C3  UNL     1      22.193 -44.420 -11.556  1.00  0.00    -0.010 C 
HETATM    2  C4  UNL     1      23.083 -43.249 -11.736  1.00  0.00     0.011 C 
HETATM    3  C5  UNL     1      24.455 -43.493 -11.183  1.00  0.00     0.017 C 
HETATM    4  C6  UNL     1      25.063 -44.695 -11.863  1.00  0.00     0.011 C 
HETATM    5  C7  UNL     1      24.219 -45.913 -11.752  1.00  0.00    -0.009 C 
HETATM    6  C8  UNL     1      24.526 -46.554 -10.387  1.00  0.00     0.010 C 
HETATM    7  C9  UNL     1      23.302 -45.891  -9.859  1.00  0.00    -0.007 C 
HETATM    8  C10 UNL     1      23.546 -44.616  -9.122  1.00  0.00     0.038 C 
HETATM    9  C11 UNL     1      24.522 -43.694  -9.718  1.00  0.00     0.190 C 
HETATM   10  C13 UNL     1      22.837 -45.715 -11.276  1.00  0.00    -0.002 C 
ENDROOT
BRANCH   9  11
HETATM   11  N1  UNL     1      24.496 -42.437  -8.988  1.00  0.00    -0.074 N 
HETATM   12  C12 UNL     1      25.517 -41.521  -9.510  1.00  0.00     0.267 C 
ATOM     13  H12 UNL     1      23.568 -42.013  -8.992  1.00  0.00     0.277 HD
ATOM     14  H11 UNL     1      24.592 -42.579  -7.983  1.00  0.00     0.277 HD
ENDBRANCH   9  11
BRANCH   1  15
HETATM   15  C2  UNL     1      21.202 -44.610 -12.702  1.00  0.00     0.000 C 
HETATM   16  C1  UNL     1      21.593 -43.782 -13.902  1.00  0.00     0.005 C 
ENDBRANCH   1  15
TORSDOF 2
ENDMDL
MODEL 4
REMARK VINA RESULT: -6.268709148      3.006      5.027
REMARK  2 active torsions:
REMARK  status: ('A' for Active; 'I' for Inactive)
REMARK    1  A    between atoms: C2_2  and  C3_3 
REMARK    2  A    between atoms: C11_11  and  N1_12 
ROOT
HETATM    1  C3  UNL     1      23.757 -41.288 -12.637  1.00  0.00    -0.010 C 
HETATM    2  C4  UNL     1      25.131 -40.735 -12.599  1.00  0.00     0.011 C 
HETATM    3  C5  UNL     1      26.081 -41.632 -11.864  1.00  0.00     0.017 C 
HETATM    4  C6  UNL     1      26.103 -42.988 -12.526  1.00  0.00     0.011 C 
HETATM    5  C7  UNL     1      24.756 -43.606 -12.628  1.00  0.00    -0.009 C 
HETATM    6  C8  UNL     1      24.467 -44.290 -11.279  1.00  0.00     0.010 C 
HETATM    7  C9  UNL     1      23.677 -43.089 -10.898  1.00  0.00    -0.007 C 
HETATM    8  C10 UNL     1      24.404 -42.101 -10.046  1.00  0.00     0.038 C 
HETATM    9  C11 UNL     1      25.795 -41.813 -10.423  1.00  0.00     0.190 C 
HETATM   10  C13 UNL     1      23.605 -42.725 -12.353  1.00  0.00    -0.002 C 
ENDROOT
BRANCH   9  11
HETATM   11  N1  UNL     1      26.286 -40.705  -9.620  1.00  0.00    -0.074 N 
HETATM   12  C12 UNL     1      27.692 -40.428  -9.937  1.00  0.00     0.267 C 
ATOM     13  H12 UNL     1      25.703 -39.874  -9.721  1.00  0.00     0.277 HD
ATOM     14  H11 UNL     1      26.145 -40.867  -8.623  1.00  0.00     0.277 HD
ENDBRANCH   9  11
BRANCH   1  15
HETATM   15  C2  UNL     1      23.010 -40.968 -13.929  1.00  0.00     0.000 C 
HETATM   16  C1  UNL     1      23.970 -40.638 -15.046  1.00  0.00     0.005 C 
ENDBRANCH   1  15
TORSDOF 2
ENDMDL
MODEL 5
REMARK VINA RESULT: -6.039716911      1.717      3.336
REMARK  2 active torsions:
REMARK  status: ('A' for Active; 'I' for Inactive)
REMARK    1  A    between atoms: C2_2  and  C3_3 
REMARK    2  A    between atoms: C11_11  and  N1_12 
ROOT
HETATM    1  C3  UNL     1      24.791 -45.727 -10.948  1.00  0.00    -0.010 C 
HETATM    2  C4  UNL     1      23.738 -46.295 -10.073  1.00  0.00     0.011 C 
HETATM    3  C5  UNL     1      22.553 -45.384  -9.952  1.00  0.00     0.017 C 
HETATM    4  C6  UNL     1      21.980 -45.122 -11.323  1.00  0.00     0.011 C 
HETATM    5  C7  UNL     1      22.980 -44.573 -12.275  1.00  0.00    -0.009 C 
HETATM    6  C8  UNL     1      23.047 -43.054 -12.034  1.00  0.00     0.010 C 
HETATM    7  C9  UNL     1      24.256 -43.293 -11.200  1.00  0.00    -0.007 C 
HETATM    8  C10 UNL     1      24.006 -43.341  -9.729  1.00  0.00     0.038 C 
HETATM    9  C11 UNL     1      22.817 -44.085  -9.293  1.00  0.00     0.190 C 
HETATM   10  C13 UNL     1      24.393 -44.637 -11.855  1.00  0.00    -0.002 C 
ENDROOT
BRANCH   9  11
HETATM   11  N1  UNL     1      22.829 -44.194  -7.843  1.00  0.00    -0.074 N 
HETATM   12  C12 UNL     1      23.912 -43.381  -7.278  1.00  0.00     0.267 C 
ATOM     13  H12 UNL     1      21.924 -43.958  -7.437  1.00  0.00     0.277 HD
ATOM     14  H11 UNL     1      22.883 -45.165  -7.537  1.00  0.00     0.277 HD
ENDBRANCH   9  11
BRANCH   1  15
HETATM   15  C2  UNL     1      25.540 -46.782 -11.758  1.00  0.00     0.000 C 
HETATM   16  C1  UNL     1      26.890 -47.078 -11.149  1.00  0.00     0.005 C 
ENDBRANCH   1  15
TORSDOF 2
ENDMDL
