MODEL 1
REMARK VINA RESULT: -5.087485439      0.000      0.000
REMARK  1 active torsions:
REMARK  status: ('A' for Active; 'I' for Inactive)
REMARK    1  A    between atoms: C5_5  and  N1_6 
ROOT
HETATM    1  C1  UNL     1     -26.384   5.009 -13.048  1.00  0.00     0.037 C 
HETATM    2  C2  UNL     1     -25.365   3.880 -12.812  1.00  0.00     0.021 C 
HETATM    3  C3  UNL     1     -24.025   4.556 -12.686  1.00  0.00     0.037 C 
HETATM    4  C4  UNL     1     -25.745   3.311 -11.462  1.00  0.00     0.062 C 
HETATM    5  C5  UNL     1     -25.097   1.981 -11.209  1.00  0.00     0.188 C 
HETATM    6  C6  UNL     1     -25.149   1.048 -12.356  1.00  0.00     0.062 C 
HETATM    7  C7  UNL     1     -25.133   1.636 -13.706  1.00  0.00     0.021 C 
HETATM    8  C8  UNL     1     -23.783   1.384 -14.399  1.00  0.00     0.037 C 
HETATM    9  C9  UNL     1     -26.099   0.802 -14.574  1.00  0.00     0.037 C 
HETATM   10  N2  UNL     1     -25.486   2.973 -13.875  1.00  0.00    -0.405 N 
ATOM     11  H2  UNL     1     -25.835   3.295 -14.778  1.00  0.00     0.154 HD
ENDROOT
BRANCH   5  12
HETATM   12  N1  UNL     1     -23.725   2.119 -10.742  1.00  0.00    -0.075 N 
ATOM     13  H13 UNL     1     -23.352   3.042 -10.961  1.00  0.00     0.274 HD
ATOM     14  H12 UNL     1     -23.685   2.167  -9.723  1.00  0.00     0.274 HD
ATOM     15  H11 UNL     1     -23.121   1.381 -11.101  1.00  0.00     0.274 HD
ENDBRANCH   5  12
TORSDOF 1
ENDMDL
MODEL 2
REMARK VINA RESULT: -4.984260192      2.280      3.603
REMARK  1 active torsions:
REMARK  status: ('A' for Active; 'I' for Inactive)
REMARK    1  A    between atoms: C5_5  and  N1_6 
ROOT
HETATM    1  C1  UNL     1     -29.226   5.081 -13.501  1.00  0.00     0.037 C 
HETATM    2  C2  UNL     1     -28.015   4.149 -13.321  1.00  0.00     0.021 C 
HETATM    3  C3  UNL     1     -27.981   3.278 -14.550  1.00  0.00     0.037 C 
HETATM    4  C4  UNL     1     -26.820   5.078 -13.357  1.00  0.00     0.062 C 
HETATM    5  C5  UNL     1     -25.574   4.413 -12.852  1.00  0.00     0.188 C 
HETATM    6  C6  UNL     1     -25.760   3.627 -11.613  1.00  0.00     0.062 C 
HETATM    7  C7  UNL     1     -27.074   2.996 -11.405  1.00  0.00     0.021 C 
HETATM    8  C8  UNL     1     -26.985   1.471 -11.584  1.00  0.00     0.037 C 
HETATM    9  C9  UNL     1     -27.403   3.123  -9.902  1.00  0.00     0.037 C 
HETATM   10  N2  UNL     1     -28.181   3.471 -12.105  1.00  0.00    -0.405 N 
ATOM     11  H2  UNL     1     -29.118   3.324 -11.731  1.00  0.00     0.154 HD
ENDROOT
BRANCH   5  12
HETATM   12  N1  UNL     1     -24.939   3.590 -13.873  1.00  0.00    -0.075 N 
ATOM     13  H13 UNL     1     -24.002   3.308 -13.589  1.00  0.00     0.274 HD
ATOM     14  H12 UNL     1     -25.375   2.669 -13.929  1.00  0.00     0.274 HD
ATOM     15  H11 UNL     1     -24.928   4.049 -14.783  1.00  0.00     0.274 HD
ENDBRANCH   5  12
TORSDOF 1
ENDMDL
MODEL 3
REMARK VINA RESULT: -4.955981153      2.122      3.802
REMARK  1 active torsions:
REMARK  status: ('A' for Active; 'I' for Inactive)
REMARK    1  A    between atoms: C5_5  and  N1_6 
ROOT
HETATM    1  C1  UNL     1     -24.143   1.659  -8.291  1.00  0.00     0.037 C 
HETATM    2  C2  UNL     1     -25.052   1.476  -9.519  1.00  0.00     0.021 C 
HETATM    3  C3  UNL     1     -25.533   0.050  -9.465  1.00  0.00     0.037 C 
HETATM    4  C4  UNL     1     -26.228   2.390  -9.252  1.00  0.00     0.062 C 
HETATM    5  C5  UNL     1     -27.054   2.621 -10.483  1.00  0.00     0.188 C 
HETATM    6  C6  UNL     1     -26.265   2.902 -11.703  1.00  0.00     0.062 C 
HETATM    7  C7  UNL     1     -24.937   2.275 -11.807  1.00  0.00     0.021 C 
HETATM    8  C8  UNL     1     -24.941   1.150 -12.855  1.00  0.00     0.037 C 
HETATM    9  C9  UNL     1     -23.997   3.314 -12.456  1.00  0.00     0.037 C 
HETATM   10  N2  UNL     1     -24.302   1.818 -10.654  1.00  0.00    -0.405 N 
ATOM     11  H2  UNL     1     -23.286   1.731 -10.635  1.00  0.00     0.154 HD
ENDROOT
BRANCH   5  12
HETATM   12  N1  UNL     1     -27.985   1.530 -10.732  1.00  0.00    -0.075 N 
ATOM     13  H13 UNL     1     -28.512   1.296  -9.892  1.00  0.00     0.274 HD
ATOM     14  H12 UNL     1     -28.756   1.831 -11.329  1.00  0.00     0.274 HD
ATOM     15  H11 UNL     1     -27.519   0.709 -11.117  1.00  0.00     0.274 HD
ENDBRANCH   5  12
TORSDOF 1
ENDMDL
MODEL 4
REMARK VINA RESULT: -4.948457080      2.157      3.549
REMARK  1 active torsions:
REMARK  status: ('A' for Active; 'I' for Inactive)
REMARK    1  A    between atoms: C5_5  and  N1_6 
ROOT
HETATM    1  C1  UNL     1     -27.741   4.290 -12.998  1.00  0.00     0.037 C 
HETATM    2  C2  UNL     1     -27.069   3.072 -12.340  1.00  0.00     0.021 C 
HETATM    3  C3  UNL     1     -27.204   1.945 -13.330  1.00  0.00     0.037 C 
HETATM    4  C4  UNL     1     -25.609   3.457 -12.246  1.00  0.00     0.062 C 
HETATM    5  C5  UNL     1     -24.847   2.554 -11.322  1.00  0.00     0.188 C 
HETATM    6  C6  UNL     1     -25.535   2.264 -10.045  1.00  0.00     0.062 C 
HETATM    7  C7  UNL     1     -27.007   2.235 -10.063  1.00  0.00     0.021 C 
HETATM    8  C8  UNL     1     -27.530   0.796  -9.920  1.00  0.00     0.037 C 
HETATM    9  C9  UNL     1     -27.489   2.883  -8.747  1.00  0.00     0.037 C 
HETATM   10  N2  UNL     1     -27.692   2.865 -11.101  1.00  0.00    -0.405 N 
ATOM     11  H2  UNL     1     -28.653   3.176 -10.958  1.00  0.00     0.154 HD
ENDROOT
BRANCH   5  12
HETATM   12  N1  UNL     1     -24.456   1.310 -11.970  1.00  0.00    -0.075 N 
ATOM     13  H13 UNL     1     -24.984   0.520 -11.602  1.00  0.00     0.274 HD
ATOM     14  H12 UNL     1     -24.776   1.281 -12.938  1.00  0.00     0.274 HD
ATOM     15  H11 UNL     1     -23.452   1.144 -11.908  1.00  0.00     0.274 HD
ENDBRANCH   5  12
TORSDOF 1
ENDMDL
MODEL 5
REMARK VINA RESULT: -4.903503905      1.834      3.678
REMARK  1 active torsions:
REMARK  status: ('A' for Active; 'I' for Inactive)
REMARK    1  A    between atoms: C5_5  and  N1_6 
ROOT
HETATM    1  C1  UNL     1     -23.546   0.000 -14.195  1.00  0.00     0.037 C 
HETATM    2  C2  UNL     1     -24.489   1.058 -13.597  1.00  0.00     0.021 C 
HETATM    3  C3  UNL     1     -23.977   2.388 -14.086  1.00  0.00     0.037 C 
HETATM    4  C4  UNL     1     -25.823   0.784 -14.255  1.00  0.00     0.062 C 
HETATM    5  C5  UNL     1     -26.952   1.478 -13.551  1.00  0.00     0.188 C 
HETATM    6  C6  UNL     1     -26.911   1.370 -12.076  1.00  0.00     0.062 C 
HETATM    7  C7  UNL     1     -25.584   1.281 -11.442  1.00  0.00     0.021 C 
HETATM    8  C8  UNL     1     -25.238   2.586 -10.706  1.00  0.00     0.037 C 
HETATM    9  C9  UNL     1     -25.707   0.278 -10.276  1.00  0.00     0.037 C 
HETATM   10  N2  UNL     1     -24.486   0.886 -12.205  1.00  0.00    -0.405 N 
ATOM     11  H2  UNL     1     -23.676   0.470 -11.747  1.00  0.00     0.154 HD
ENDROOT
BRANCH   5  12
HETATM   12  N1  UNL     1     -27.068   2.875 -13.945  1.00  0.00    -0.075 N 
ATOM     13  H13 UNL     1     -27.828   3.338 -13.447  1.00  0.00     0.274 HD
ATOM     14  H12 UNL     1     -26.284   3.425 -13.591  1.00  0.00     0.274 HD
ATOM     15  H11 UNL     1     -27.168   2.982 -14.954  1.00  0.00     0.274 HD
ENDBRANCH   5  12
TORSDOF 1
ENDMDL
