MODEL 1
REMARK VINA RESULT: -5.136411048      0.000      0.000
REMARK  1 active torsions:
REMARK  status: ('A' for Active; 'I' for Inactive)
REMARK    1  A    between atoms: O1_1  and  C1_3 
ROOT
HETATM    1  C1  UNL     1     -27.618   1.735  -9.964  1.00  0.00     0.118 C 
HETATM    2  C2  UNL     1     -26.899   2.604  -8.978  1.00  0.00     0.034 C 
HETATM    3  C3  UNL     1     -26.434   1.671  -7.852  1.00  0.00     0.032 C 
HETATM    4  C4  UNL     1     -25.314   0.854  -8.422  1.00  0.00     0.059 C 
HETATM    5  C5  UNL     1     -24.982  -0.255  -7.414  1.00  0.00     0.057 C 
HETATM    6  C6  UNL     1     -24.397   0.651  -6.322  1.00  0.00     0.198 C 
HETATM    7  O2  UNL     1     -24.036   1.822  -6.935  1.00  0.00    -0.286 OA
HETATM    8  N1  UNL     1     -24.088   1.652  -8.263  1.00  0.00    -0.091 NA
HETATM    9  C7  UNL     1     -25.521   0.359  -9.791  1.00  0.00     0.032 C 
HETATM   10  C8  UNL     1     -26.894   0.495 -10.344  1.00  0.00     0.034 C 
ENDROOT
BRANCH   1  11
HETATM   11  O1  UNL     1     -28.829   1.343  -9.348  1.00  0.00    -0.396 OA
ATOM     12  H1  UNL     1     -29.128   0.568  -9.810  1.00  0.00     0.210 HD
ENDBRANCH   1  11
TORSDOF 1
ENDMDL
MODEL 2
REMARK VINA RESULT: -4.878243112      2.166      2.764
REMARK  1 active torsions:
REMARK  status: ('A' for Active; 'I' for Inactive)
REMARK    1  A    between atoms: O1_1  and  C1_3 
ROOT
HETATM    1  C1  UNL     1     -27.165   3.391 -12.306  1.00  0.00     0.118 C 
HETATM    2  C2  UNL     1     -26.777   3.923 -10.960  1.00  0.00     0.034 C 
HETATM    3  C3  UNL     1     -27.498   3.039  -9.933  1.00  0.00     0.032 C 
HETATM    4  C4  UNL     1     -26.798   1.714  -9.959  1.00  0.00     0.059 C 
HETATM    5  C5  UNL     1     -27.632   0.727  -9.129  1.00  0.00     0.057 C 
HETATM    6  C6  UNL     1     -27.376   1.370  -7.759  1.00  0.00     0.198 C 
HETATM    7  O2  UNL     1     -26.240   2.125  -7.884  1.00  0.00    -0.286 OA
HETATM    8  N1  UNL     1     -25.647   1.828  -9.048  1.00  0.00    -0.091 NA
HETATM    9  C7  UNL     1     -26.446   1.206 -11.292  1.00  0.00     0.032 C 
HETATM   10  C8  UNL     1     -27.045   1.918 -12.451  1.00  0.00     0.034 C 
ENDROOT
BRANCH   1  11
HETATM   11  O1  UNL     1     -28.527   3.722 -12.493  1.00  0.00    -0.396 OA
ATOM     12  H1  UNL     1     -28.901   3.034 -13.031  1.00  0.00     0.210 HD
ENDBRANCH   1  11
TORSDOF 1
ENDMDL
MODEL 3
REMARK VINA RESULT: -4.845547791      8.315      9.616
REMARK  1 active torsions:
REMARK  status: ('A' for Active; 'I' for Inactive)
REMARK    1  A    between atoms: O1_1  and  C1_3 
ROOT
HETATM    1  C1  UNL     1     -28.981   6.043 -14.643  1.00  0.00     0.118 C 
HETATM    2  C2  UNL     1     -28.108   6.626 -13.574  1.00  0.00     0.034 C 
HETATM    3  C3  UNL     1     -26.904   7.242 -14.300  1.00  0.00     0.032 C 
HETATM    4  C4  UNL     1     -27.417   8.470 -14.989  1.00  0.00     0.059 C 
HETATM    5  C5  UNL     1     -26.309   8.982 -15.921  1.00  0.00     0.057 C 
HETATM    6  C6  UNL     1     -25.331   9.428 -14.825  1.00  0.00     0.198 C 
HETATM    7  O2  UNL     1     -26.070   9.595 -13.684  1.00  0.00    -0.286 OA
HETATM    8  N1  UNL     1     -27.371   9.558 -13.998  1.00  0.00    -0.091 NA
HETATM    9  C7  UNL     1     -28.721   8.331 -15.651  1.00  0.00     0.032 C 
HETATM   10  C8  UNL     1     -29.250   6.948 -15.789  1.00  0.00     0.034 C 
ENDROOT
BRANCH   1  11
HETATM   11  O1  UNL     1     -28.297   4.914 -15.151  1.00  0.00    -0.396 OA
ATOM     12  H1  UNL     1     -28.832   4.157 -14.942  1.00  0.00     0.210 HD
ENDBRANCH   1  11
TORSDOF 1
ENDMDL
MODEL 4
REMARK VINA RESULT: -4.838873621      8.421      9.678
REMARK  1 active torsions:
REMARK  status: ('A' for Active; 'I' for Inactive)
REMARK    1  A    between atoms: O1_1  and  C1_3 
ROOT
HETATM    1  C1  UNL     1     -27.964   6.426 -13.580  1.00  0.00     0.118 C 
HETATM    2  C2  UNL     1     -27.161   7.415 -12.790  1.00  0.00     0.034 C 
HETATM    3  C3  UNL     1     -26.134   8.003 -13.768  1.00  0.00     0.032 C 
HETATM    4  C4  UNL     1     -26.905   8.895 -14.694  1.00  0.00     0.059 C 
HETATM    5  C5  UNL     1     -25.963   9.313 -15.833  1.00  0.00     0.057 C 
HETATM    6  C6  UNL     1     -25.031  10.197 -14.993  1.00  0.00     0.198 C 
HETATM    7  O2  UNL     1     -25.727  10.541 -13.865  1.00  0.00    -0.286 OA
HETATM    8  N1  UNL     1     -27.013  10.202 -14.027  1.00  0.00    -0.091 NA
HETATM    9  C7  UNL     1     -28.192   8.365 -15.164  1.00  0.00     0.032 C 
HETATM   10  C8  UNL     1     -28.458   6.929 -14.887  1.00  0.00     0.034 C 
ENDROOT
BRANCH   1  11
HETATM   11  O1  UNL     1     -27.107   5.333 -13.847  1.00  0.00    -0.396 OA
ATOM     12  H1  UNL     1     -27.661   4.623 -14.150  1.00  0.00     0.210 HD
ENDBRANCH   1  11
TORSDOF 1
ENDMDL
MODEL 5
REMARK VINA RESULT: -4.810520761      1.689      1.938
REMARK  1 active torsions:
REMARK  status: ('A' for Active; 'I' for Inactive)
REMARK    1  A    between atoms: O1_1  and  C1_3 
ROOT
HETATM    1  C1  UNL     1     -27.007   3.494 -10.563  1.00  0.00     0.118 C 
HETATM    2  C2  UNL     1     -27.378   3.206  -9.140  1.00  0.00     0.034 C 
HETATM    3  C3  UNL     1     -27.233   1.688  -8.965  1.00  0.00     0.032 C 
HETATM    4  C4  UNL     1     -25.761   1.407  -8.967  1.00  0.00     0.059 C 
HETATM    5  C5  UNL     1     -25.574  -0.116  -9.037  1.00  0.00     0.057 C 
HETATM    6  C6  UNL     1     -26.115  -0.437  -7.638  1.00  0.00     0.198 C 
HETATM    7  O2  UNL     1     -26.031   0.719  -6.908  1.00  0.00    -0.286 OA
HETATM    8  N1  UNL     1     -25.293   1.608  -7.586  1.00  0.00    -0.091 NA
HETATM    9  C7  UNL     1     -24.974   2.141  -9.968  1.00  0.00     0.032 C 
HETATM   10  C8  UNL     1     -25.743   2.861 -11.017  1.00  0.00     0.034 C 
ENDROOT
BRANCH   1  11
HETATM   11  O1  UNL     1     -28.049   2.975 -11.365  1.00  0.00    -0.396 OA
ATOM     12  H1  UNL     1     -28.173   3.590 -12.079  1.00  0.00     0.210 HD
ENDBRANCH   1  11
TORSDOF 1
ENDMDL
