MODEL 1
REMARK VINA RESULT: -5.362974898      0.000      0.000
REMARK  1 active torsions:
REMARK  status: ('A' for Active; 'I' for Inactive)
REMARK    1  A    between atoms: O1_1  and  C1_3 
ROOT
HETATM    1  C1  UNL     1     -26.455   2.016 -12.449  1.00  0.00     0.146 C 
HETATM    2  C2  UNL     1     -25.193   1.458 -11.789  1.00  0.00     0.264 C 
HETATM    3  N1  UNL     1     -24.738   0.532 -12.794  1.00  0.00    -0.064 N 
ATOM      4  H11 UNL     1     -25.147  -0.397 -12.695  1.00  0.00     0.278 HD
ATOM      5  H12 UNL     1     -23.762   0.262 -12.674  1.00  0.00     0.278 HD
HETATM    6  C3  UNL     1     -25.000   1.122 -14.068  1.00  0.00     0.128 C 
HETATM    7  C4  UNL     1     -25.707   0.208 -15.028  1.00  0.00     0.039 C 
HETATM    8  C5  UNL     1     -24.884  -0.959 -15.470  1.00  0.00     0.002 C 
HETATM    9  C6  UNL     1     -23.422  -0.826 -15.142  1.00  0.00     0.000 C 
HETATM   10  C7  UNL     1     -23.007   0.592 -15.485  1.00  0.00     0.002 C 
HETATM   11  C8  UNL     1     -23.703   1.618 -14.646  1.00  0.00     0.039 C 
HETATM   12  C9  UNL     1     -25.899   2.323 -13.841  1.00  0.00     0.072 C 
ENDROOT
BRANCH   1  13
HETATM   13  O1  UNL     1     -27.434   1.060 -12.597  1.00  0.00    -0.394 OA
ATOM     14  H1  UNL     1     -28.017   1.250 -13.323  1.00  0.00     0.210 HD
ENDBRANCH   1  13
TORSDOF 1
ENDMDL
MODEL 2
REMARK VINA RESULT: -5.189934054      3.383      5.399
REMARK  1 active torsions:
REMARK  status: ('A' for Active; 'I' for Inactive)
REMARK    1  A    between atoms: O1_1  and  C1_3 
ROOT
HETATM    1  C1  UNL     1     -26.710   2.262 -12.496  1.00  0.00     0.146 C 
HETATM    2  C2  UNL     1     -25.704   2.964 -13.409  1.00  0.00     0.264 C 
HETATM    3  N1  UNL     1     -26.498   4.056 -13.913  1.00  0.00    -0.064 N 
ATOM      4  H11 UNL     1     -27.024   3.812 -14.753  1.00  0.00     0.278 HD
ATOM      5  H12 UNL     1     -25.936   4.803 -14.320  1.00  0.00     0.278 HD
HETATM    6  C3  UNL     1     -27.332   4.505 -12.844  1.00  0.00     0.128 C 
HETATM    7  C4  UNL     1     -28.781   4.643 -13.221  1.00  0.00     0.039 C 
HETATM    8  C5  UNL     1     -29.048   5.733 -14.207  1.00  0.00     0.002 C 
HETATM    9  C6  UNL     1     -27.897   6.684 -14.384  1.00  0.00     0.000 C 
HETATM   10  C7  UNL     1     -27.354   7.002 -13.003  1.00  0.00     0.002 C 
HETATM   11  C8  UNL     1     -26.784   5.802 -12.316  1.00  0.00     0.039 C 
HETATM   12  C9  UNL     1     -27.250   3.475 -11.733  1.00  0.00     0.072 C 
ENDROOT
BRANCH   1  13
HETATM   13  O1  UNL     1     -27.760   1.715 -13.196  1.00  0.00    -0.394 OA
ATOM     14  H1  UNL     1     -27.683   0.772 -13.285  1.00  0.00     0.210 HD
ENDBRANCH   1  13
TORSDOF 1
ENDMDL
MODEL 3
REMARK VINA RESULT: -5.163211686      2.029      3.834
REMARK  1 active torsions:
REMARK  status: ('A' for Active; 'I' for Inactive)
REMARK    1  A    between atoms: O1_1  and  C1_3 
ROOT
HETATM    1  C1  UNL     1     -24.204  -0.368 -15.567  1.00  0.00     0.146 C 
HETATM    2  C2  UNL     1     -23.594  -0.909 -14.273  1.00  0.00     0.264 C 
HETATM    3  N1  UNL     1     -23.535   0.286 -13.471  1.00  0.00    -0.064 N 
ATOM      4  H11 UNL     1     -22.672   0.814 -13.605  1.00  0.00     0.278 HD
ATOM      5  H12 UNL     1     -23.420   0.093 -12.476  1.00  0.00     0.278 HD
HETATM    6  C3  UNL     1     -24.706   1.051 -13.758  1.00  0.00     0.128 C 
HETATM    7  C4  UNL     1     -24.428   2.495 -14.071  1.00  0.00     0.039 C 
HETATM    8  C5  UNL     1     -23.911   3.277 -12.908  1.00  0.00     0.002 C 
HETATM    9  C6  UNL     1     -24.076   2.576 -11.587  1.00  0.00     0.000 C 
HETATM   10  C7  UNL     1     -25.469   1.976 -11.562  1.00  0.00     0.002 C 
HETATM   11  C8  UNL     1     -25.663   0.921 -12.605  1.00  0.00     0.039 C 
HETATM   12  C9  UNL     1     -25.364   0.442 -14.982  1.00  0.00     0.072 C 
ENDROOT
BRANCH   1  13
HETATM   13  O1  UNL     1     -23.368   0.516 -16.210  1.00  0.00    -0.394 OA
ATOM     14  H1  UNL     1     -23.829   1.285 -16.526  1.00  0.00     0.210 HD
ENDBRANCH   1  13
TORSDOF 1
ENDMDL
MODEL 4
REMARK VINA RESULT: -5.120488045      7.468      8.550
REMARK  1 active torsions:
REMARK  status: ('A' for Active; 'I' for Inactive)
REMARK    1  A    between atoms: O1_1  and  C1_3 
ROOT
HETATM    1  C1  UNL     1     -29.481   7.370 -16.147  1.00  0.00     0.146 C 
HETATM    2  C2  UNL     1     -28.807   6.708 -14.945  1.00  0.00     0.264 C 
HETATM    3  N1  UNL     1     -27.496   7.303 -14.997  1.00  0.00    -0.064 N 
ATOM      4  H11 UNL     1     -26.846   6.787 -15.590  1.00  0.00     0.278 HD
ATOM      5  H12 UNL     1     -26.980   7.209 -14.122  1.00  0.00     0.278 HD
HETATM    6  C3  UNL     1     -27.660   8.662 -15.403  1.00  0.00     0.128 C 
HETATM    7  C4  UNL     1     -26.755   9.074 -16.530  1.00  0.00     0.039 C 
HETATM    8  C5  UNL     1     -25.307   9.108 -16.161  1.00  0.00     0.002 C 
HETATM    9  C6  UNL     1     -25.060   9.050 -14.679  1.00  0.00     0.000 C 
HETATM   10  C7  UNL     1     -26.053   9.986 -14.015  1.00  0.00     0.002 C 
HETATM   11  C8  UNL     1     -27.473   9.551 -14.204  1.00  0.00     0.039 C 
HETATM   12  C9  UNL     1     -29.089   8.827 -15.887  1.00  0.00     0.072 C 
ENDROOT
BRANCH   1  13
HETATM   13  O1  UNL     1     -28.909   6.996 -17.341  1.00  0.00    -0.394 OA
ATOM     14  H1  UNL     1     -28.507   7.728 -17.794  1.00  0.00     0.210 HD
ENDBRANCH   1  13
TORSDOF 1
ENDMDL
MODEL 5
REMARK VINA RESULT: -5.069720715      4.922      6.250
REMARK  1 active torsions:
REMARK  status: ('A' for Active; 'I' for Inactive)
REMARK    1  A    between atoms: O1_1  and  C1_3 
ROOT
HETATM    1  C1  UNL     1     -25.135   7.805 -12.561  1.00  0.00     0.146 C 
HETATM    2  C2  UNL     1     -25.249   7.324 -14.008  1.00  0.00     0.264 C 
HETATM    3  N1  UNL     1     -25.877   6.040 -13.827  1.00  0.00    -0.064 N 
ATOM      4  H11 UNL     1     -25.206   5.286 -13.676  1.00  0.00     0.278 HD
ATOM      5  H12 UNL     1     -26.295   5.676 -14.683  1.00  0.00     0.278 HD
HETATM    6  C3  UNL     1     -26.817   6.170 -12.760  1.00  0.00     0.128 C 
HETATM    7  C4  UNL     1     -26.699   5.100 -11.711  1.00  0.00     0.039 C 
HETATM    8  C5  UNL     1     -27.074   3.737 -12.194  1.00  0.00     0.002 C 
HETATM    9  C6  UNL     1     -27.800   3.740 -13.511  1.00  0.00     0.000 C 
HETATM   10  C7  UNL     1     -28.827   4.856 -13.460  1.00  0.00     0.002 C 
HETATM   11  C8  UNL     1     -28.204   6.211 -13.340  1.00  0.00     0.039 C 
HETATM   12  C9  UNL     1     -26.556   7.501 -12.079  1.00  0.00     0.072 C 
ENDROOT
BRANCH   1  13
HETATM   13  O1  UNL     1     -24.274   7.030 -11.818  1.00  0.00    -0.394 OA
ATOM     14  H1  UNL     1     -23.375   7.100 -12.118  1.00  0.00     0.210 HD
ENDBRANCH   1  13
TORSDOF 1
ENDMDL
