MODEL 1
REMARK VINA RESULT: -4.381835615      0.000      0.000
REMARK  2 active torsions:
REMARK  status: ('A' for Active; 'I' for Inactive)
REMARK    1  A    between atoms: N1_1  and  C1_5 
REMARK    2  A    between atoms: C1_5  and  C10_14 
ROOT
HETATM    1  C1  UNL     1     -26.828   5.987 -33.891  1.00  0.00     0.128 C 
HETATM    2  C2  UNL     1     -26.488   4.575 -34.227  1.00  0.00     0.039 C 
HETATM    3  C3  UNL     1     -27.621   3.680 -33.808  1.00  0.00     0.007 C 
HETATM    4  C4  UNL     1     -28.151   4.274 -32.494  1.00  0.00    -0.010 C 
HETATM    5  C5  UNL     1     -26.940   4.241 -31.612  1.00  0.00     0.010 C 
HETATM    6  C6  UNL     1     -26.509   5.652 -31.381  1.00  0.00    -0.007 C 
HETATM    7  C7  UNL     1     -27.664   6.205 -30.517  1.00  0.00     0.010 C 
HETATM    8  C8  UNL     1     -28.512   6.682 -31.714  1.00  0.00    -0.009 C 
HETATM    9  C9  UNL     1     -27.402   7.622 -32.232  1.00  0.00     0.012 C 
HETATM   10  C10 UNL     1     -26.401   6.505 -32.588  1.00  0.00     0.026 C 
HETATM   11  C11 UNL     1     -28.810   5.585 -32.672  1.00  0.00    -0.004 C 
HETATM   12  C12 UNL     1     -28.356   6.080 -34.057  1.00  0.00     0.044 C 
ENDROOT
BRANCH   1  13
HETATM   13  N1  UNL     1     -26.248   6.852 -34.928  1.00  0.00    -0.070 N 
ATOM     14  H13 UNL     1     -26.666   7.783 -34.945  1.00  0.00     0.275 HD
ATOM     15  H12 UNL     1     -25.292   7.136 -34.716  1.00  0.00     0.275 HD
ATOM     16  H11 UNL     1     -26.328   6.368 -35.822  1.00  0.00     0.275 HD
ENDBRANCH   1  13
TORSDOF 2
ENDMDL
MODEL 2
REMARK VINA RESULT: -4.327574710      1.263      3.110
REMARK  2 active torsions:
REMARK  status: ('A' for Active; 'I' for Inactive)
REMARK    1  A    between atoms: N1_1  and  C1_5 
REMARK    2  A    between atoms: C1_5  and  C10_14 
ROOT
HETATM    1  C1  UNL     1     -28.577   6.527 -32.636  1.00  0.00     0.128 C 
HETATM    2  C2  UNL     1     -28.620   6.650 -31.151  1.00  0.00     0.039 C 
HETATM    3  C3  UNL     1     -27.219   6.607 -30.609  1.00  0.00     0.007 C 
HETATM    4  C4  UNL     1     -26.468   5.593 -31.487  1.00  0.00    -0.010 C 
HETATM    5  C5  UNL     1     -27.274   4.344 -31.299  1.00  0.00     0.010 C 
HETATM    6  C6  UNL     1     -27.964   4.050 -32.591  1.00  0.00    -0.007 C 
HETATM    7  C7  UNL     1     -26.781   3.674 -33.510  1.00  0.00     0.010 C 
HETATM    8  C8  UNL     1     -26.525   5.115 -33.998  1.00  0.00    -0.009 C 
HETATM    9  C9  UNL     1     -27.950   5.260 -34.574  1.00  0.00     0.012 C 
HETATM   10  C10 UNL     1     -28.679   5.186 -33.218  1.00  0.00     0.026 C 
HETATM   11  C11 UNL     1     -26.274   6.058 -32.876  1.00  0.00    -0.004 C 
HETATM   12  C12 UNL     1     -27.267   7.221 -33.055  1.00  0.00     0.044 C 
ENDROOT
BRANCH   1  13
HETATM   13  N1  UNL     1     -29.668   7.340 -33.191  1.00  0.00    -0.070 N 
ATOM     14  H13 UNL     1     -30.478   7.387 -32.573  1.00  0.00     0.275 HD
ATOM     15  H12 UNL     1     -29.450   8.336 -33.205  1.00  0.00     0.275 HD
ATOM     16  H11 UNL     1     -29.897   6.973 -34.114  1.00  0.00     0.275 HD
ENDBRANCH   1  13
TORSDOF 2
ENDMDL
MODEL 3
REMARK VINA RESULT: -4.263972709      1.351      2.306
REMARK  2 active torsions:
REMARK  status: ('A' for Active; 'I' for Inactive)
REMARK    1  A    between atoms: N1_1  and  C1_5 
REMARK    2  A    between atoms: C1_5  and  C10_14 
ROOT
HETATM    1  C1  UNL     1     -27.261   4.056 -33.308  1.00  0.00     0.128 C 
HETATM    2  C2  UNL     1     -26.821   3.353 -32.069  1.00  0.00     0.039 C 
HETATM    3  C3  UNL     1     -27.544   3.933 -30.887  1.00  0.00     0.007 C 
HETATM    4  C4  UNL     1     -27.658   5.439 -31.172  1.00  0.00    -0.010 C 
HETATM    5  C5  UNL     1     -26.224   5.849 -31.318  1.00  0.00     0.010 C 
HETATM    6  C6  UNL     1     -25.997   6.203 -32.751  1.00  0.00    -0.007 C 
HETATM    7  C7  UNL     1     -26.838   7.489 -32.903  1.00  0.00     0.010 C 
HETATM    8  C8  UNL     1     -28.134   6.757 -33.310  1.00  0.00    -0.009 C 
HETATM    9  C9  UNL     1     -27.474   6.102 -34.542  1.00  0.00     0.012 C 
HETATM   10  C10 UNL     1     -26.489   5.222 -33.748  1.00  0.00     0.026 C 
HETATM   11  C11 UNL     1     -28.559   5.752 -32.300  1.00  0.00    -0.004 C 
HETATM   12  C12 UNL     1     -28.735   4.422 -33.057  1.00  0.00     0.044 C 
ENDROOT
BRANCH   1  13
HETATM   13  N1  UNL     1     -27.262   3.080 -34.407  1.00  0.00    -0.070 N 
ATOM     14  H13 UNL     1     -26.783   3.423 -35.240  1.00  0.00     0.275 HD
ATOM     15  H12 UNL     1     -26.660   2.278 -34.224  1.00  0.00     0.275 HD
ATOM     16  H11 UNL     1     -28.229   2.814 -34.591  1.00  0.00     0.275 HD
ENDBRANCH   1  13
TORSDOF 2
ENDMDL
MODEL 4
REMARK VINA RESULT: -4.153033763      1.216      2.835
REMARK  2 active torsions:
REMARK  status: ('A' for Active; 'I' for Inactive)
REMARK    1  A    between atoms: N1_1  and  C1_5 
REMARK    2  A    between atoms: C1_5  and  C10_14 
ROOT
HETATM    1  C1  UNL     1     -27.922   5.581 -33.847  1.00  0.00     0.128 C 
HETATM    2  C2  UNL     1     -28.086   6.802 -34.687  1.00  0.00     0.039 C 
HETATM    3  C3  UNL     1     -26.905   7.709 -34.478  1.00  0.00     0.007 C 
HETATM    4  C4  UNL     1     -26.549   7.584 -32.988  1.00  0.00    -0.010 C 
HETATM    5  C5  UNL     1     -27.819   8.009 -32.315  1.00  0.00     0.010 C 
HETATM    6  C6  UNL     1     -28.410   6.804 -31.660  1.00  0.00    -0.007 C 
HETATM    7  C7  UNL     1     -27.393   6.517 -30.534  1.00  0.00     0.010 C 
HETATM    8  C8  UNL     1     -26.503   5.590 -31.388  1.00  0.00    -0.009 C 
HETATM    9  C9  UNL     1     -27.658   4.606 -31.671  1.00  0.00     0.012 C 
HETATM   10  C10 UNL     1     -28.506   5.588 -32.502  1.00  0.00     0.026 C 
HETATM   11  C11 UNL     1     -26.016   6.254 -32.626  1.00  0.00    -0.004 C 
HETATM   12  C12 UNL     1     -26.403   5.332 -33.797  1.00  0.00     0.044 C 
ENDROOT
BRANCH   1  13
HETATM   13  N1  UNL     1     -28.500   4.446 -34.579  1.00  0.00    -0.070 N 
ATOM     14  H13 UNL     1     -28.775   4.688 -35.531  1.00  0.00     0.275 HD
ATOM     15  H12 UNL     1     -27.809   3.734 -34.814  1.00  0.00     0.275 HD
ATOM     16  H11 UNL     1     -29.275   4.076 -34.028  1.00  0.00     0.275 HD
ENDBRANCH   1  13
TORSDOF 2
ENDMDL
MODEL 5
REMARK VINA RESULT: -4.106188405      1.305      2.890
REMARK  2 active torsions:
REMARK  status: ('A' for Active; 'I' for Inactive)
REMARK    1  A    between atoms: N1_1  and  C1_5 
REMARK    2  A    between atoms: C1_5  and  C10_14 
ROOT
HETATM    1  C1  UNL     1     -28.400   6.246 -33.647  1.00  0.00     0.128 C 
HETATM    2  C2  UNL     1     -27.837   7.561 -33.227  1.00  0.00     0.039 C 
HETATM    3  C3  UNL     1     -26.336   7.486 -33.247  1.00  0.00     0.007 C 
HETATM    4  C4  UNL     1     -25.987   6.070 -32.762  1.00  0.00    -0.010 C 
HETATM    5  C5  UNL     1     -26.620   6.029 -31.403  1.00  0.00     0.010 C 
HETATM    6  C6  UNL     1     -27.770   5.079 -31.467  1.00  0.00    -0.007 C 
HETATM    7  C7  UNL     1     -27.057   3.722 -31.659  1.00  0.00     0.010 C 
HETATM    8  C8  UNL     1     -27.054   3.787 -33.200  1.00  0.00    -0.009 C 
HETATM    9  C9  UNL     1     -28.592   3.883 -33.282  1.00  0.00     0.012 C 
HETATM   10  C10 UNL     1     -28.703   5.263 -32.603  1.00  0.00     0.026 C 
HETATM   11  C11 UNL     1     -26.387   5.013 -33.714  1.00  0.00    -0.004 C 
HETATM   12  C12 UNL     1     -27.391   5.688 -34.668  1.00  0.00     0.044 C 
ENDROOT
BRANCH   1  13
HETATM   13  N1  UNL     1     -29.640   6.502 -34.394  1.00  0.00    -0.070 N 
ATOM     14  H13 UNL     1     -29.468   6.813 -35.350  1.00  0.00     0.275 HD
ATOM     15  H12 UNL     1     -30.148   5.647 -34.619  1.00  0.00     0.275 HD
ATOM     16  H11 UNL     1     -30.200   7.165 -33.858  1.00  0.00     0.275 HD
ENDBRANCH   1  13
TORSDOF 2
ENDMDL
