MODEL 1
REMARK VINA RESULT: -4.790266127      0.000      0.000
REMARK  2 active torsions:
REMARK  status: ('A' for Active; 'I' for Inactive)
REMARK    1  A    between atoms: C7_7  and  C8_8 
REMARK    2  A    between atoms: C12_12  and  N1_13 
ROOT
HETATM    1  C1  UNL     1     -29.271   9.763 -30.606  1.00  0.00     0.013 C 
HETATM    2  C2  UNL     1     -28.774   8.808 -31.166  1.00  0.00    -0.105 C 
HETATM    3  C3  UNL     1     -28.157   7.667 -31.830  1.00  0.00     0.052 C 
HETATM    4  C4  UNL     1     -27.166   8.077 -32.853  1.00  0.00     0.025 C 
HETATM    5  C5  UNL     1     -26.132   7.101 -33.224  1.00  0.00     0.003 C 
HETATM    6  C6  UNL     1     -25.955   5.927 -32.343  1.00  0.00     0.016 C 
HETATM    7  C7  UNL     1     -27.217   5.567 -31.585  1.00  0.00     0.006 C 
HETATM    8  C10 UNL     1     -28.365   5.444 -32.566  1.00  0.00     0.017 C 
HETATM    9  C11 UNL     1     -29.190   6.705 -32.381  1.00  0.00     0.026 C 
HETATM   10  C12 UNL     1     -27.545   6.773 -30.741  1.00  0.00     0.216 C 
ENDROOT
BRANCH  10  11
HETATM   11  N1  UNL     1     -28.578   6.547 -29.785  1.00  0.00    -0.072 N 
ATOM     12  H13 UNL     1     -29.192   7.351 -29.653  1.00  0.00     0.274 HD
ATOM     13  H12 UNL     1     -29.293   5.894 -30.107  1.00  0.00     0.274 HD
ATOM     14  H11 UNL     1     -28.113   6.247 -28.928  1.00  0.00     0.274 HD
ENDBRANCH  10  11
BRANCH   7  15
HETATM   15  C8  UNL     1     -27.032   4.330 -30.792  1.00  0.00    -0.025 C 
HETATM   16  C9  UNL     1     -27.039   3.116 -31.281  1.00  0.00     0.008 C 
ENDBRANCH   7  15
TORSDOF 2
ENDMDL
MODEL 2
REMARK VINA RESULT: -4.765899740      1.671      3.276
REMARK  2 active torsions:
REMARK  status: ('A' for Active; 'I' for Inactive)
REMARK    1  A    between atoms: C7_7  and  C8_8 
REMARK    2  A    between atoms: C12_12  and  N1_13 
ROOT
HETATM    1  C1  UNL     1     -28.479   7.449 -29.633  1.00  0.00     0.013 C 
HETATM    2  C2  UNL     1     -28.017   6.634 -30.406  1.00  0.00    -0.105 C 
HETATM    3  C3  UNL     1     -27.479   5.642 -31.326  1.00  0.00     0.052 C 
HETATM    4  C4  UNL     1     -27.036   4.409 -30.634  1.00  0.00     0.025 C 
HETATM    5  C5  UNL     1     -26.960   3.175 -31.428  1.00  0.00     0.003 C 
HETATM    6  C6  UNL     1     -27.621   3.174 -32.750  1.00  0.00     0.016 C 
HETATM    7  C7  UNL     1     -27.724   4.559 -33.356  1.00  0.00     0.006 C 
HETATM    8  C10 UNL     1     -26.355   5.207 -33.346  1.00  0.00     0.017 C 
HETATM    9  C11 UNL     1     -26.399   6.222 -32.218  1.00  0.00     0.026 C 
HETATM   10  C12 UNL     1     -28.553   5.368 -32.390  1.00  0.00     0.216 C 
ENDROOT
BRANCH  10  11
HETATM   11  N1  UNL     1     -28.950   6.641 -32.893  1.00  0.00    -0.072 N 
ATOM     12  H13 UNL     1     -28.949   7.375 -32.185  1.00  0.00     0.274 HD
ATOM     13  H12 UNL     1     -28.260   7.064 -33.514  1.00  0.00     0.274 HD
ATOM     14  H11 UNL     1     -29.860   6.504 -33.333  1.00  0.00     0.274 HD
ENDBRANCH  10  11
BRANCH   7  15
HETATM   15  C8  UNL     1     -28.300   4.506 -34.720  1.00  0.00    -0.025 C 
HETATM   16  C9  UNL     1     -27.660   4.815 -35.819  1.00  0.00     0.008 C 
ENDBRANCH   7  15
TORSDOF 2
ENDMDL
MODEL 3
REMARK VINA RESULT: -4.694876532      2.544      4.514
REMARK  2 active torsions:
REMARK  status: ('A' for Active; 'I' for Inactive)
REMARK    1  A    between atoms: C7_7  and  C8_8 
REMARK    2  A    between atoms: C12_12  and  N1_13 
ROOT
HETATM    1  C1  UNL     1     -27.519   1.527 -31.411  1.00  0.00     0.013 C 
HETATM    2  C2  UNL     1     -27.534   2.674 -31.810  1.00  0.00    -0.105 C 
HETATM    3  C3  UNL     1     -27.529   4.051 -32.282  1.00  0.00     0.052 C 
HETATM    4  C4  UNL     1     -27.172   5.015 -31.215  1.00  0.00     0.025 C 
HETATM    5  C5  UNL     1     -26.639   6.320 -31.628  1.00  0.00     0.003 C 
HETATM    6  C6  UNL     1     -26.201   6.462 -33.033  1.00  0.00     0.016 C 
HETATM    7  C7  UNL     1     -26.916   5.510 -33.971  1.00  0.00     0.006 C 
HETATM    8  C10 UNL     1     -28.411   5.647 -33.768  1.00  0.00     0.017 C 
HETATM    9  C11 UNL     1     -28.824   4.416 -32.980  1.00  0.00     0.026 C 
HETATM   10  C12 UNL     1     -26.575   4.124 -33.485  1.00  0.00     0.216 C 
ENDROOT
BRANCH  10  11
HETATM   11  N1  UNL     1     -26.975   3.084 -34.374  1.00  0.00    -0.072 N 
ATOM     12  H13 UNL     1     -27.379   2.277 -33.899  1.00  0.00     0.274 HD
ATOM     13  H12 UNL     1     -27.794   3.323 -34.934  1.00  0.00     0.274 HD
ATOM     14  H11 UNL     1     -26.154   2.856 -34.935  1.00  0.00     0.274 HD
ENDBRANCH  10  11
BRANCH   7  15
HETATM   15  C8  UNL     1     -26.525   5.750 -35.379  1.00  0.00    -0.025 C 
HETATM   16  C9  UNL     1     -26.207   6.916 -35.882  1.00  0.00     0.008 C 
ENDBRANCH   7  15
TORSDOF 2
ENDMDL
MODEL 4
REMARK VINA RESULT: -4.521391038      2.067      4.291
REMARK  2 active torsions:
REMARK  status: ('A' for Active; 'I' for Inactive)
REMARK    1  A    between atoms: C7_7  and  C8_8 
REMARK    2  A    between atoms: C12_12  and  N1_13 
ROOT
HETATM    1  C1  UNL     1     -25.829   4.156 -35.946  1.00  0.00     0.013 C 
HETATM    2  C2  UNL     1     -26.390   4.223 -34.871  1.00  0.00    -0.105 C 
HETATM    3  C3  UNL     1     -27.044   4.298 -33.572  1.00  0.00     0.052 C 
HETATM    4  C4  UNL     1     -26.973   3.019 -32.828  1.00  0.00     0.025 C 
HETATM    5  C5  UNL     1     -27.116   3.075 -31.367  1.00  0.00     0.003 C 
HETATM    6  C6  UNL     1     -26.999   4.400 -30.721  1.00  0.00     0.016 C 
HETATM    7  C7  UNL     1     -27.375   5.540 -31.648  1.00  0.00     0.006 C 
HETATM    8  C10 UNL     1     -28.736   5.258 -32.251  1.00  0.00     0.017 C 
HETATM    9  C11 UNL     1     -28.460   4.826 -33.680  1.00  0.00     0.026 C 
HETATM   10  C12 UNL     1     -26.406   5.465 -32.802  1.00  0.00     0.216 C 
ENDROOT
BRANCH  10  11
HETATM   11  N1  UNL     1     -26.457   6.592 -33.672  1.00  0.00    -0.072 N 
ATOM     12  H13 UNL     1     -25.601   7.148 -33.666  1.00  0.00     0.274 HD
ATOM     13  H12 UNL     1     -26.437   6.342 -34.661  1.00  0.00     0.274 HD
ATOM     14  H11 UNL     1     -27.286   7.122 -33.406  1.00  0.00     0.274 HD
ENDBRANCH  10  11
BRANCH   7  15
HETATM   15  C8  UNL     1     -27.342   6.840 -30.939  1.00  0.00    -0.025 C 
HETATM   16  C9  UNL     1     -28.231   7.243 -30.067  1.00  0.00     0.008 C 
ENDBRANCH   7  15
TORSDOF 2
ENDMDL
MODEL 5
REMARK VINA RESULT: -4.469305454      2.232      3.855
REMARK  2 active torsions:
REMARK  status: ('A' for Active; 'I' for Inactive)
REMARK    1  A    between atoms: C7_7  and  C8_8 
REMARK    2  A    between atoms: C12_12  and  N1_13 
ROOT
HETATM    1  C1  UNL     1     -27.725   7.027 -30.442  1.00  0.00     0.013 C 
HETATM    2  C2  UNL     1     -27.594   5.982 -31.045  1.00  0.00    -0.105 C 
HETATM    3  C3  UNL     1     -27.454   4.718 -31.756  1.00  0.00     0.052 C 
HETATM    4  C4  UNL     1     -27.041   3.610 -30.863  1.00  0.00     0.025 C 
HETATM    5  C5  UNL     1     -27.347   2.240 -31.296  1.00  0.00     0.003 C 
HETATM    6  C6  UNL     1     -28.308   2.075 -32.407  1.00  0.00     0.016 C 
HETATM    7  C7  UNL     1     -28.352   3.278 -33.328  1.00  0.00     0.006 C 
HETATM    8  C10 UNL     1     -26.943   3.615 -33.769  1.00  0.00     0.017 C 
HETATM    9  C11 UNL     1     -26.555   4.847 -32.969  1.00  0.00     0.026 C 
HETATM   10  C12 UNL     1     -28.787   4.437 -32.467  1.00  0.00     0.216 C 
ENDROOT
BRANCH  10  11
HETATM   11  N1  UNL     1     -29.103   5.617 -33.201  1.00  0.00    -0.072 N 
ATOM     12  H13 UNL     1     -28.585   6.439 -32.890  1.00  0.00     0.274 HD
ATOM     13  H12 UNL     1     -28.754   5.604 -34.159  1.00  0.00     0.274 HD
ATOM     14  H11 UNL     1     -30.115   5.729 -33.140  1.00  0.00     0.274 HD
ENDBRANCH  10  11
BRANCH   7  15
HETATM   15  C8  UNL     1     -29.250   3.037 -34.482  1.00  0.00    -0.025 C 
HETATM   16  C9  UNL     1     -29.561   1.858 -34.958  1.00  0.00     0.008 C 
ENDBRANCH   7  15
TORSDOF 2
ENDMDL
