MODEL 1
REMARK VINA RESULT: -4.067455430      0.000      0.000
REMARK  1 active torsions:
REMARK  status: ('A' for Active; 'I' for Inactive)
REMARK    1  A    between atoms: N1_9  and  C9_10 
ROOT
HETATM    1  C1  UNL     1     -28.937   6.698 -31.906  1.00  0.00     0.002 C 
HETATM    2  C2  UNL     1     -29.482   5.744 -32.917  1.00  0.00     0.002 C 
HETATM    3  C3  UNL     1     -28.658   5.632 -34.162  1.00  0.00     0.025 C 
HETATM    4  C4  UNL     1     -27.384   4.795 -33.951  1.00  0.00     0.080 C 
HETATM    5  C5  UNL     1     -26.231   5.749 -34.131  1.00  0.00     0.027 C 
HETATM    6  C6  UNL     1     -26.055   6.372 -32.776  1.00  0.00     0.027 C 
HETATM    7  C7  UNL     1     -26.757   5.447 -31.826  1.00  0.00     0.080 C 
HETATM    8  C8  UNL     1     -27.858   6.129 -31.039  1.00  0.00     0.025 C 
HETATM    9  N1  UNL     1     -27.375   4.405 -32.596  1.00  0.00    -0.400 N 
ENDROOT
BRANCH   9  10
HETATM   10  C9  UNL     1     -27.035   3.092 -32.244  1.00  0.00     0.080 A 
HETATM   11  C10 UNL     1     -28.219   2.142 -32.004  1.00  0.00     0.027 A 
HETATM   12  C11 UNL     1     -27.207   2.446 -30.938  1.00  0.00     0.027 A 
ENDBRANCH   9  10
TORSDOF 1
ENDMDL
MODEL 2
REMARK VINA RESULT: -3.997101798      1.025      1.215
REMARK  1 active torsions:
REMARK  status: ('A' for Active; 'I' for Inactive)
REMARK    1  A    between atoms: N1_9  and  C9_10 
ROOT
HETATM    1  C1  UNL     1     -29.549   5.722 -33.214  1.00  0.00     0.002 C 
HETATM    2  C2  UNL     1     -29.729   4.333 -33.730  1.00  0.00     0.002 C 
HETATM    3  C3  UNL     1     -28.748   3.939 -34.789  1.00  0.00     0.025 C 
HETATM    4  C4  UNL     1     -27.357   3.622 -34.213  1.00  0.00     0.080 C 
HETATM    5  C5  UNL     1     -26.435   4.681 -34.761  1.00  0.00     0.027 C 
HETATM    6  C6  UNL     1     -26.579   5.826 -33.800  1.00  0.00     0.027 C 
HETATM    7  C7  UNL     1     -27.172   5.224 -32.560  1.00  0.00     0.080 C 
HETATM    8  C8  UNL     1     -28.490   5.858 -32.164  1.00  0.00     0.025 C 
HETATM    9  N1  UNL     1     -27.435   3.837 -32.822  1.00  0.00    -0.400 N 
ENDROOT
BRANCH   9  10
HETATM   10  C9  UNL     1     -26.856   2.920 -31.935  1.00  0.00     0.080 A 
HETATM   11  C10 UNL     1     -27.805   1.845 -31.379  1.00  0.00     0.027 A 
HETATM   12  C11 UNL     1     -27.082   2.814 -30.489  1.00  0.00     0.027 A 
ENDBRANCH   9  10
TORSDOF 1
ENDMDL
MODEL 3
REMARK VINA RESULT: -3.742104481      1.692      3.146
REMARK  1 active torsions:
REMARK  status: ('A' for Active; 'I' for Inactive)
REMARK    1  A    between atoms: N1_9  and  C9_10 
ROOT
HETATM    1  C1  UNL     1     -27.224   8.416 -32.654  1.00  0.00     0.002 C 
HETATM    2  C2  UNL     1     -26.517   7.401 -33.489  1.00  0.00     0.002 C 
HETATM    3  C3  UNL     1     -25.917   6.274 -32.708  1.00  0.00     0.025 C 
HETATM    4  C4  UNL     1     -26.972   5.258 -32.236  1.00  0.00     0.080 C 
HETATM    5  C5  UNL     1     -26.985   5.347 -30.732  1.00  0.00     0.027 C 
HETATM    6  C6  UNL     1     -27.931   6.475 -30.439  1.00  0.00     0.027 C 
HETATM    7  C7  UNL     1     -28.734   6.649 -31.695  1.00  0.00     0.080 C 
HETATM    8  C8  UNL     1     -28.625   8.042 -32.282  1.00  0.00     0.025 C 
HETATM    9  N1  UNL     1     -28.222   5.737 -32.678  1.00  0.00    -0.400 N 
ENDROOT
BRANCH   9  10
HETATM   10  C9  UNL     1     -29.152   4.857 -33.247  1.00  0.00     0.080 A 
HETATM   11  C10 UNL     1     -29.512   5.132 -34.716  1.00  0.00     0.027 A 
HETATM   12  C11 UNL     1     -30.540   5.146 -33.623  1.00  0.00     0.027 A 
ENDBRANCH   9  10
TORSDOF 1
ENDMDL
MODEL 4
REMARK VINA RESULT: -3.707421442      1.540      2.338
REMARK  1 active torsions:
REMARK  status: ('A' for Active; 'I' for Inactive)
REMARK    1  A    between atoms: N1_9  and  C9_10 
ROOT
HETATM    1  C1  UNL     1     -29.936   3.785 -34.671  1.00  0.00     0.002 C 
HETATM    2  C2  UNL     1     -28.972   2.733 -35.110  1.00  0.00     0.002 C 
HETATM    3  C3  UNL     1     -27.650   3.264 -35.568  1.00  0.00     0.025 C 
HETATM    4  C4  UNL     1     -26.753   3.701 -34.397  1.00  0.00     0.080 C 
HETATM    5  C5  UNL     1     -26.593   5.193 -34.535  1.00  0.00     0.027 C 
HETATM    6  C6  UNL     1     -27.795   5.757 -33.834  1.00  0.00     0.027 C 
HETATM    7  C7  UNL     1     -28.300   4.643 -32.965  1.00  0.00     0.080 C 
HETATM    8  C8  UNL     1     -29.734   4.259 -33.265  1.00  0.00     0.025 C 
HETATM    9  N1  UNL     1     -27.493   3.483 -33.217  1.00  0.00    -0.400 N 
ENDROOT
BRANCH   9  10
HETATM   10  C9  UNL     1     -26.879   2.903 -32.099  1.00  0.00     0.080 A 
HETATM   11  C10 UNL     1     -27.670   1.773 -31.420  1.00  0.00     0.027 A 
HETATM   12  C11 UNL     1     -27.283   3.029 -30.694  1.00  0.00     0.027 A 
ENDBRANCH   9  10
TORSDOF 1
ENDMDL
MODEL 5
REMARK VINA RESULT: -3.700073642      1.945      3.586
REMARK  1 active torsions:
REMARK  status: ('A' for Active; 'I' for Inactive)
REMARK    1  A    between atoms: N1_9  and  C9_10 
ROOT
HETATM    1  C1  UNL     1     -26.186   5.854 -31.436  1.00  0.00     0.002 C 
HETATM    2  C2  UNL     1     -27.372   5.495 -30.603  1.00  0.00     0.002 C 
HETATM    3  C3  UNL     1     -28.175   6.670 -30.140  1.00  0.00     0.025 C 
HETATM    4  C4  UNL     1     -29.048   7.264 -31.259  1.00  0.00     0.080 C 
HETATM    5  C5  UNL     1     -28.504   8.645 -31.517  1.00  0.00     0.027 C 
HETATM    6  C6  UNL     1     -27.388   8.424 -32.496  1.00  0.00     0.027 C 
HETATM    7  C7  UNL     1     -27.647   7.068 -33.084  1.00  0.00     0.080 C 
HETATM    8  C8  UNL     1     -26.497   6.102 -32.879  1.00  0.00     0.025 C 
HETATM    9  N1  UNL     1     -28.789   6.507 -32.420  1.00  0.00    -0.400 N 
ENDROOT
BRANCH   9  10
HETATM   10  C9  UNL     1     -29.847   6.101 -33.246  1.00  0.00     0.080 A 
HETATM   11  C10 UNL     1     -29.933   4.591 -33.519  1.00  0.00     0.027 A 
HETATM   12  C11 UNL     1     -29.761   5.596 -34.621  1.00  0.00     0.027 A 
ENDBRANCH   9  10
TORSDOF 1
ENDMDL
