MODEL 1
REMARK VINA RESULT: -4.449621416      0.000      0.000
REMARK  4 active torsions:
REMARK  status: ('A' for Active; 'I' for Inactive)
REMARK    1  A    between atoms: C1_2  and  N1_3 
REMARK    2  A    between atoms: N1_3  and  C2_5 
REMARK    3  A    between atoms: C2_5  and  C3_6 
REMARK    4  A    between atoms: C7_10  and  C8_11 
ROOT
HETATM    1  C3  UNL     1     124.513 107.549 -42.564  1.00  0.00    -0.019 A 
HETATM    2  C4  UNL     1     125.450 107.540 -43.795  1.00  0.00     0.016 C 
HETATM    3  C5  UNL     1     124.698 107.361 -45.067  1.00  0.00    -0.012 C 
HETATM    4  C6  UNL     1     123.740 108.544 -45.211  1.00  0.00     0.015 C 
HETATM    5  C7  UNL     1     122.798 107.783 -44.345  1.00  0.00    -0.026 C 
HETATM    6  C9  UNL     1     123.432 106.512 -44.890  1.00  0.00     0.015 C 
HETATM    7  C10 UNL     1     123.142 107.808 -42.864  1.00  0.00     0.006 A 
HETATM    8  C11 UNL     1     123.908 108.941 -42.305  1.00  0.00     0.018 A 
ENDROOT
BRANCH   1   9
HETATM    9  C2  UNL     1     125.203 107.067 -41.327  1.00  0.00     0.132 C 
BRANCH   9  10
HETATM   10  N1  UNL     1     124.698 105.859 -40.760  1.00  0.00    -0.367 N 
ATOM     11  H1  UNL     1     124.301 105.884 -39.821  1.00  0.00     0.161 HD
BRANCH  10  12
HETATM   12  C1  UNL     1     124.726 104.639 -41.450  1.00  0.00     0.348 C 
HETATM   13  O1  UNL     1     124.229 103.607 -40.955  1.00  0.00    -0.284 OA
ENDBRANCH  10  12
ENDBRANCH   9  10
ENDBRANCH   1   9
BRANCH   5  14
HETATM   14  C8  UNL     1     121.377 108.012 -44.669  1.00  0.00     0.095 C 
HETATM   15 BR1  UNL     1     120.296 108.510 -43.171  1.00  0.00    -0.096 Br
ENDBRANCH   5  14
TORSDOF 4
ENDMDL
MODEL 2
REMARK VINA RESULT: -4.272617545      1.930      2.720
REMARK  4 active torsions:
REMARK  status: ('A' for Active; 'I' for Inactive)
REMARK    1  A    between atoms: C1_2  and  N1_3 
REMARK    2  A    between atoms: N1_3  and  C2_5 
REMARK    3  A    between atoms: C2_5  and  C3_6 
REMARK    4  A    between atoms: C7_10  and  C8_11 
ROOT
HETATM    1  C3  UNL     1     123.884 107.736 -42.798  1.00  0.00    -0.019 A 
HETATM    2  C4  UNL     1     122.836 107.558 -43.922  1.00  0.00     0.016 C 
HETATM    3  C5  UNL     1     121.673 108.470 -43.750  1.00  0.00    -0.012 C 
HETATM    4  C6  UNL     1     122.196 109.906 -43.814  1.00  0.00     0.015 C 
HETATM    5  C7  UNL     1     122.520 109.766 -42.368  1.00  0.00    -0.026 C 
HETATM    6  C9  UNL     1     121.372 108.772 -42.276  1.00  0.00     0.015 C 
HETATM    7  C10 UNL     1     123.778 108.964 -42.079  1.00  0.00     0.006 A 
HETATM    8  C11 UNL     1     124.856 108.895 -43.086  1.00  0.00     0.018 A 
ENDROOT
BRANCH   1   9
HETATM    9  C2  UNL     1     124.662 106.482 -42.548  1.00  0.00     0.132 C 
BRANCH   9  10
HETATM   10  N1  UNL     1     124.514 105.903 -41.253  1.00  0.00    -0.367 N 
ATOM     11  H1  UNL     1     124.054 106.445 -40.521  1.00  0.00     0.161 HD
BRANCH  10  12
HETATM   12  C1  UNL     1     124.976 104.615 -40.951  1.00  0.00     0.348 C 
HETATM   13  O1  UNL     1     124.198 103.641 -40.920  1.00  0.00    -0.284 OA
ENDBRANCH  10  12
ENDBRANCH   9  10
ENDBRANCH   1   9
BRANCH   5  14
HETATM   14  C8  UNL     1     122.378 111.020 -41.604  1.00  0.00     0.095 C 
HETATM   15 BR1  UNL     1     123.703 111.271 -40.245  1.00  0.00    -0.096 Br
ENDBRANCH   5  14
TORSDOF 4
ENDMDL
MODEL 3
REMARK VINA RESULT: -4.115261121      1.467      1.735
REMARK  4 active torsions:
REMARK  status: ('A' for Active; 'I' for Inactive)
REMARK    1  A    between atoms: C1_2  and  N1_3 
REMARK    2  A    between atoms: N1_3  and  C2_5 
REMARK    3  A    between atoms: C2_5  and  C3_6 
REMARK    4  A    between atoms: C7_10  and  C8_11 
ROOT
HETATM    1  C3  UNL     1     124.319 107.782 -42.674  1.00  0.00    -0.019 A 
HETATM    2  C4  UNL     1     123.996 106.951 -43.938  1.00  0.00     0.016 C 
HETATM    3  C5  UNL     1     122.753 107.416 -44.610  1.00  0.00    -0.012 C 
HETATM    4  C6  UNL     1     122.973 108.867 -45.042  1.00  0.00     0.015 C 
HETATM    5  C7  UNL     1     122.578 109.253 -43.660  1.00  0.00    -0.026 C 
HETATM    6  C9  UNL     1     121.728 107.992 -43.622  1.00  0.00     0.015 C 
HETATM    7  C10 UNL     1     123.661 109.047 -42.613  1.00  0.00     0.006 A 
HETATM    8  C11 UNL     1     125.083 109.076 -43.009  1.00  0.00     0.018 A 
ENDROOT
BRANCH   1   9
HETATM    9  C2  UNL     1     125.090 106.994 -41.662  1.00  0.00     0.132 C 
BRANCH   9  10
HETATM   10  N1  UNL     1     124.403 105.891 -41.074  1.00  0.00    -0.367 N 
ATOM     11  H1  UNL     1     123.563 106.072 -40.524  1.00  0.00     0.161 HD
BRANCH  10  12
HETATM   12  C1  UNL     1     124.841 104.568 -41.225  1.00  0.00     0.348 C 
HETATM   13  O1  UNL     1     124.140 103.610 -40.842  1.00  0.00    -0.284 OA
ENDBRANCH  10  12
ENDBRANCH   9  10
ENDBRANCH   1   9
BRANCH   5  14
HETATM   14  C8  UNL     1     121.862 110.541 -43.586  1.00  0.00     0.095 C 
HETATM   15 BR1  UNL     1     122.081 111.472 -41.927  1.00  0.00    -0.096 Br
ENDBRANCH   5  14
TORSDOF 4
ENDMDL
MODEL 4
REMARK VINA RESULT: -4.024596040      2.177      2.931
REMARK  4 active torsions:
REMARK  status: ('A' for Active; 'I' for Inactive)
REMARK    1  A    between atoms: C1_2  and  N1_3 
REMARK    2  A    between atoms: N1_3  and  C2_5 
REMARK    3  A    between atoms: C2_5  and  C3_6 
REMARK    4  A    between atoms: C7_10  and  C8_11 
ROOT
HETATM    1  C3  UNL     1     123.867 107.766 -43.085  1.00  0.00    -0.019 A 
HETATM    2  C4  UNL     1     122.735 107.618 -44.130  1.00  0.00     0.016 C 
HETATM    3  C5  UNL     1     121.550 108.450 -43.789  1.00  0.00    -0.012 C 
HETATM    4  C6  UNL     1     121.996 109.913 -43.778  1.00  0.00     0.015 C 
HETATM    5  C7  UNL     1     122.451 109.680 -42.380  1.00  0.00    -0.026 C 
HETATM    6  C9  UNL     1     121.364 108.621 -42.275  1.00  0.00     0.015 C 
HETATM    7  C10 UNL     1     123.766 108.927 -42.262  1.00  0.00     0.006 A 
HETATM    8  C11 UNL     1     124.754 108.994 -43.358  1.00  0.00     0.018 A 
ENDROOT
BRANCH   1   9
HETATM    9  C2  UNL     1     124.722 106.540 -43.004  1.00  0.00     0.132 C 
BRANCH   9  10
HETATM   10  N1  UNL     1     124.435 105.648 -41.928  1.00  0.00    -0.367 N 
ATOM     11  H1  UNL     1     123.738 104.916 -42.069  1.00  0.00     0.161 HD
BRANCH  10  12
HETATM   12  C1  UNL     1     125.076 105.741 -40.686  1.00  0.00     0.348 C 
HETATM   13  O1  UNL     1     125.745 106.749 -40.379  1.00  0.00    -0.284 OA
ENDBRANCH  10  12
ENDBRANCH   9  10
ENDBRANCH   1   9
BRANCH   5  14
HETATM   14  C8  UNL     1     122.317 110.862 -41.507  1.00  0.00     0.095 C 
HETATM   15 BR1  UNL     1     123.775 111.116 -40.294  1.00  0.00    -0.096 Br
ENDBRANCH   5  14
TORSDOF 4
ENDMDL
MODEL 5
REMARK VINA RESULT: -3.990913479      2.379      2.943
REMARK  4 active torsions:
REMARK  status: ('A' for Active; 'I' for Inactive)
REMARK    1  A    between atoms: C1_2  and  N1_3 
REMARK    2  A    between atoms: N1_3  and  C2_5 
REMARK    3  A    between atoms: C2_5  and  C3_6 
REMARK    4  A    between atoms: C7_10  and  C8_11 
ROOT
HETATM    1  C3  UNL     1     124.478 106.607 -44.075  1.00  0.00    -0.019 A 
HETATM    2  C4  UNL     1     125.576 107.355 -44.868  1.00  0.00     0.016 C 
HETATM    3  C5  UNL     1     125.212 108.775 -45.122  1.00  0.00    -0.012 C 
HETATM    4  C6  UNL     1     125.055 109.465 -43.766  1.00  0.00     0.015 C 
HETATM    5  C7  UNL     1     123.665 108.931 -43.747  1.00  0.00    -0.026 C 
HETATM    6  C9  UNL     1     123.698 108.980 -45.267  1.00  0.00     0.015 C 
HETATM    7  C10 UNL     1     123.561 107.458 -43.387  1.00  0.00     0.006 A 
HETATM    8  C11 UNL     1     124.606 106.826 -42.557  1.00  0.00     0.018 A 
ENDROOT
BRANCH   1   9
HETATM    9  C2  UNL     1     124.469 105.140 -44.369  1.00  0.00     0.132 C 
BRANCH   9  10
HETATM   10  N1  UNL     1     124.490 104.780 -45.750  1.00  0.00    -0.367 N 
ATOM     11  H1  UNL     1     124.813 105.466 -46.432  1.00  0.00     0.161 HD
BRANCH  10  12
HETATM   12  C1  UNL     1     124.082 103.518 -46.201  1.00  0.00     0.348 C 
HETATM   13  O1  UNL     1     124.365 102.483 -45.565  1.00  0.00    -0.284 OA
ENDBRANCH  10  12
ENDBRANCH   9  10
ENDBRANCH   1   9
BRANCH   5  14
HETATM   14  C8  UNL     1     122.699 109.818 -43.072  1.00  0.00     0.095 C 
HETATM   15 BR1  UNL     1     121.179 108.916 -42.337  1.00  0.00    -0.096 Br
ENDBRANCH   5  14
TORSDOF 4
ENDMDL
