MODEL 1
REMARK VINA RESULT: -4.498493151      0.000      0.000
REMARK  4 active torsions:
REMARK  status: ('A' for Active; 'I' for Inactive)
REMARK    1  A    between atoms: C2_2  and  C3_3 
REMARK    2  A    between atoms: C3_3  and  C4_4 
REMARK    3  A    between atoms: C6_6  and  C7_7 
REMARK    4  A    between atoms: C8_10  and  C9_11 
ROOT
HETATM    1  C3  UNL     1     124.030 106.898 -44.300  1.00  0.00    -0.002 A 
HETATM    2  C6  UNL     1     124.120 106.440 -42.909  1.00  0.00     0.098 A 
HETATM    3  C8  UNL     1     124.879 105.759 -43.972  1.00  0.00     0.052 A 
ENDROOT
BRANCH   1   4
HETATM    4  C2  UNL     1     124.790 108.077 -44.833  1.00  0.00    -0.026 C 
HETATM    5  C1  UNL     1     126.077 108.068 -45.089  1.00  0.00     0.008 C 
ENDBRANCH   1   4
BRANCH   1   6
HETATM    6  C4  UNL     1     122.638 106.846 -44.880  1.00  0.00     0.010 C 
HETATM    7  C5  UNL     1     121.797 107.963 -44.239  1.00  0.00     0.006 C 
ENDBRANCH   1   6
BRANCH   2   8
HETATM    8  C7  UNL     1     124.789 107.227 -41.861  1.00  0.00     0.237 C 
HETATM    9  N1  UNL     1     125.559 106.587 -40.879  1.00  0.00    -0.062 NA
HETATM   10  O1  UNL     1     124.669 108.465 -41.849  1.00  0.00    -0.276 OA
ENDBRANCH   2   8
BRANCH   3  11
HETATM   11  C9  UNL     1     124.634 104.417 -44.489  1.00  0.00    -0.009 C 
HETATM   12 BR1  UNL     1     124.573 102.888 -43.384  1.00  0.00    -0.056 Br
HETATM   13  C10 UNL     1     124.414 104.243 -45.814  1.00  0.00    -0.016 C 
HETATM   14  C11 UNL     1     124.166 102.886 -46.344  1.00  0.00     0.037 C 
ENDBRANCH   3  11
TORSDOF 4
ENDMDL
MODEL 2
REMARK VINA RESULT: -4.370348889      1.839      2.829
REMARK  4 active torsions:
REMARK  status: ('A' for Active; 'I' for Inactive)
REMARK    1  A    between atoms: C2_2  and  C3_3 
REMARK    2  A    between atoms: C3_3  and  C4_4 
REMARK    3  A    between atoms: C6_6  and  C7_7 
REMARK    4  A    between atoms: C8_10  and  C9_11 
ROOT
HETATM    1  C3  UNL     1     124.303 106.686 -43.474  1.00  0.00    -0.002 A 
HETATM    2  C6  UNL     1     125.476 106.894 -44.330  1.00  0.00     0.098 A 
HETATM    3  C8  UNL     1     124.370 106.028 -44.774  1.00  0.00     0.052 A 
ENDROOT
BRANCH   1   4
HETATM    4  C2  UNL     1     123.178 107.671 -43.358  1.00  0.00    -0.026 C 
HETATM    5  C1  UNL     1     122.174 107.743 -44.201  1.00  0.00     0.008 C 
ENDBRANCH   1   4
BRANCH   1   6
HETATM    6  C4  UNL     1     124.617 106.066 -42.135  1.00  0.00     0.010 C 
HETATM    7  C5  UNL     1     125.205 107.151 -41.216  1.00  0.00     0.006 C 
ENDBRANCH   1   6
BRANCH   2   8
HETATM    8  C7  UNL     1     125.760 108.184 -44.979  1.00  0.00     0.237 C 
HETATM    9  N1  UNL     1     126.002 109.327 -44.203  1.00  0.00    -0.062 NA
HETATM   10  O1  UNL     1     125.786 108.257 -46.220  1.00  0.00    -0.276 OA
ENDBRANCH   2   8
BRANCH   3  11
HETATM   11  C9  UNL     1     124.411 104.578 -44.924  1.00  0.00    -0.009 C 
HETATM   12 BR1  UNL     1     124.755 103.407 -43.485  1.00  0.00    -0.056 Br
HETATM   13  C10 UNL     1     124.170 104.028 -46.138  1.00  0.00    -0.016 C 
HETATM   14  C11 UNL     1     124.210 102.558 -46.297  1.00  0.00     0.037 C 
ENDBRANCH   3  11
TORSDOF 4
ENDMDL
MODEL 3
REMARK VINA RESULT: -4.251974302      3.613      5.402
REMARK  4 active torsions:
REMARK  status: ('A' for Active; 'I' for Inactive)
REMARK    1  A    between atoms: C2_2  and  C3_3 
REMARK    2  A    between atoms: C3_3  and  C4_4 
REMARK    3  A    between atoms: C6_6  and  C7_7 
REMARK    4  A    between atoms: C8_10  and  C9_11 
ROOT
HETATM    1  C3  UNL     1     123.981 107.932 -42.624  1.00  0.00    -0.002 A 
HETATM    2  C6  UNL     1     124.618 108.631 -43.747  1.00  0.00     0.098 A 
HETATM    3  C8  UNL     1     124.979 108.961 -42.358  1.00  0.00     0.052 A 
ENDROOT
BRANCH   1   4
HETATM    4  C2  UNL     1     124.391 106.565 -42.162  1.00  0.00    -0.026 C 
HETATM    5  C1  UNL     1     125.117 106.338 -41.092  1.00  0.00     0.008 C 
ENDBRANCH   1   4
BRANCH   1   6
HETATM    6  C4  UNL     1     122.482 108.095 -42.565  1.00  0.00     0.010 C 
HETATM    7  C5  UNL     1     121.941 108.195 -44.001  1.00  0.00     0.006 C 
ENDBRANCH   1   6
BRANCH   2   8
HETATM    8  C7  UNL     1     125.563 107.964 -44.658  1.00  0.00     0.237 C 
HETATM    9  N1  UNL     1     125.200 106.775 -45.306  1.00  0.00    -0.062 NA
HETATM   10  O1  UNL     1     126.687 108.461 -44.851  1.00  0.00    -0.276 OA
ENDBRANCH   2   8
BRANCH   3  11
HETATM   11  C9  UNL     1     124.668 110.199 -41.651  1.00  0.00    -0.009 C 
HETATM   12 BR1  UNL     1     123.998 111.734 -42.520  1.00  0.00    -0.056 Br
HETATM   13  C10 UNL     1     124.838 110.260 -40.310  1.00  0.00    -0.016 C 
HETATM   14  C11 UNL     1     124.524 111.512 -39.587  1.00  0.00     0.037 C 
ENDBRANCH   3  11
TORSDOF 4
ENDMDL
MODEL 4
REMARK VINA RESULT: -4.237301923      3.051      4.665
REMARK  4 active torsions:
REMARK  status: ('A' for Active; 'I' for Inactive)
REMARK    1  A    between atoms: C2_2  and  C3_3 
REMARK    2  A    between atoms: C3_3  and  C4_4 
REMARK    3  A    between atoms: C6_6  and  C7_7 
REMARK    4  A    between atoms: C8_10  and  C9_11 
ROOT
HETATM    1  C3  UNL     1     124.731 107.393 -43.702  1.00  0.00    -0.002 A 
HETATM    2  C6  UNL     1     123.806 106.329 -44.111  1.00  0.00     0.098 A 
HETATM    3  C8  UNL     1     123.440 107.746 -44.282  1.00  0.00     0.052 A 
ENDROOT
BRANCH   1   4
HETATM    4  C2  UNL     1     125.901 107.835 -44.531  1.00  0.00    -0.026 C 
HETATM    5  C1  UNL     1     125.838 108.765 -45.455  1.00  0.00     0.008 C 
ENDBRANCH   1   4
BRANCH   1   6
HETATM    6  C4  UNL     1     125.084 107.376 -42.236  1.00  0.00     0.010 C 
HETATM    7  C5  UNL     1     124.692 106.008 -41.651  1.00  0.00     0.006 C 
ENDBRANCH   1   6
BRANCH   2   8
HETATM    8  C7  UNL     1     124.072 105.451 -45.262  1.00  0.00     0.237 C 
HETATM    9  N1  UNL     1     123.179 105.413 -46.342  1.00  0.00    -0.062 NA
HETATM   10  O1  UNL     1     125.094 104.743 -45.273  1.00  0.00    -0.276 OA
ENDBRANCH   2   8
BRANCH   3  11
HETATM   11  C9  UNL     1     122.414 108.472 -43.542  1.00  0.00    -0.009 C 
HETATM   12 BR1  UNL     1     120.571 108.103 -43.713  1.00  0.00    -0.056 Br
HETATM   13  C10 UNL     1     122.782 109.442 -42.672  1.00  0.00    -0.016 C 
HETATM   14  C11 UNL     1     121.747 110.182 -41.918  1.00  0.00     0.037 C 
ENDBRANCH   3  11
TORSDOF 4
ENDMDL
MODEL 5
REMARK VINA RESULT: -4.218865420      3.074      3.854
REMARK  4 active torsions:
REMARK  status: ('A' for Active; 'I' for Inactive)
REMARK    1  A    between atoms: C2_2  and  C3_3 
REMARK    2  A    between atoms: C3_3  and  C4_4 
REMARK    3  A    between atoms: C6_6  and  C7_7 
REMARK    4  A    between atoms: C8_10  and  C9_11 
ROOT
HETATM    1  C3  UNL     1     124.545 108.322 -43.363  1.00  0.00    -0.002 A 
HETATM    2  C6  UNL     1     124.043 107.499 -42.257  1.00  0.00     0.098 A 
HETATM    3  C8  UNL     1     123.328 107.541 -43.545  1.00  0.00     0.052 A 
ENDROOT
BRANCH   1   4
HETATM    4  C2  UNL     1     125.668 107.899 -44.264  1.00  0.00    -0.026 C 
HETATM    5  C1  UNL     1     126.066 108.582 -45.313  1.00  0.00     0.008 C 
ENDBRANCH   1   4
BRANCH   1   6
HETATM    6  C4  UNL     1     124.631 109.795 -43.049  1.00  0.00     0.010 C 
HETATM    7  C5  UNL     1     124.802 109.965 -41.530  1.00  0.00     0.006 C 
ENDBRANCH   1   6
BRANCH   2   8
HETATM    8  C7  UNL     1     124.739 106.288 -41.795  1.00  0.00     0.237 C 
HETATM    9  N1  UNL     1     125.563 106.336 -40.662  1.00  0.00    -0.062 NA
HETATM   10  O1  UNL     1     124.592 105.219 -42.414  1.00  0.00    -0.276 OA
ENDBRANCH   2   8
BRANCH   3  11
HETATM   11  C9  UNL     1     122.027 108.152 -43.795  1.00  0.00    -0.009 C 
HETATM   12 BR1  UNL     1     120.950 108.870 -42.422  1.00  0.00    -0.056 Br
HETATM   13  C10 UNL     1     121.566 108.239 -45.065  1.00  0.00    -0.016 C 
HETATM   14  C11 UNL     1     120.249 108.858 -45.327  1.00  0.00     0.037 C 
ENDBRANCH   3  11
TORSDOF 4
ENDMDL
