MODEL 1
REMARK VINA RESULT: -4.547649724      0.000      0.000
REMARK  6 active torsions:
REMARK  status: ('A' for Active; 'I' for Inactive)
REMARK    1  A    between atoms: C2_2  and  C3_3 
REMARK    2  A    between atoms: C6_6  and  N1_7 
REMARK    3  A    between atoms: N1_7  and  C8_9 
REMARK    4  A    between atoms: C8_9  and  N2_11 
REMARK    5  A    between atoms: N2_11  and  C9_13 
REMARK    6  A    between atoms: C9_13  and  C10_14 
ROOT
HETATM    1  C8  UNL     1     124.469 106.741 -44.321  1.00  0.00     0.169 C 
HETATM    2  S1  UNL     1     125.695 107.685 -44.906  1.00  0.00    -0.041 SA
ENDROOT
BRANCH   1   3
HETATM    3  N1  UNL     1     124.018 105.625 -45.078  1.00  0.00    -0.357 N 
HETATM    4  C7  UNL     1     122.811 105.787 -45.861  1.00  0.00     0.152 C 
BRANCH   3   5
HETATM    5  C6  UNL     1     124.765 104.415 -45.030  1.00  0.00     0.093 C 
HETATM    6  C3  UNL     1     124.274 103.369 -44.054  1.00  0.00     0.030 C 
HETATM    7  C4  UNL     1     124.448 102.299 -45.138  1.00  0.00     0.012 C 
HETATM    8  C5  UNL     1     124.353 103.442 -46.142  1.00  0.00     0.027 C 
BRANCH   6   9
HETATM    9  C2  UNL     1     125.190 103.085 -42.926  1.00  0.00    -0.030 C 
HETATM   10  C1  UNL     1     124.979 103.498 -41.689  1.00  0.00     0.007 C 
ENDBRANCH   6   9
ENDBRANCH   3   5
ENDBRANCH   1   3
BRANCH   1  11
HETATM   11  N2  UNL     1     123.897 107.080 -43.059  1.00  0.00    -0.364 N 
ATOM     12  H2  UNL     1     123.285 106.418 -42.582  1.00  0.00     0.162 HD
BRANCH  11  13
HETATM   13  C9  UNL     1     124.183 108.352 -42.462  1.00  0.00     0.164 C 
BRANCH  13  14
HETATM   14  C10 UNL     1     123.027 109.320 -42.570  1.00  0.00     0.125 C 
HETATM   15  C11 UNL     1     121.725 108.550 -42.507  1.00  0.00     0.052 C 
HETATM   16 CL1  UNL     1     123.081 110.238 -44.089  1.00  0.00    -0.100 Cl
HETATM   17 CL2  UNL     1     123.019 110.480 -41.230  1.00  0.00    -0.100 Cl
ENDBRANCH  13  14
ENDBRANCH  11  13
ENDBRANCH   1  11
TORSDOF 6
ENDMDL
MODEL 2
REMARK VINA RESULT: -4.512601025      0.782      1.213
REMARK  6 active torsions:
REMARK  status: ('A' for Active; 'I' for Inactive)
REMARK    1  A    between atoms: C2_2  and  C3_3 
REMARK    2  A    between atoms: C6_6  and  N1_7 
REMARK    3  A    between atoms: N1_7  and  C8_9 
REMARK    4  A    between atoms: C8_9  and  N2_11 
REMARK    5  A    between atoms: N2_11  and  C9_13 
REMARK    6  A    between atoms: C9_13  and  C10_14 
ROOT
HETATM    1  C8  UNL     1     124.502 106.762 -44.321  1.00  0.00     0.169 C 
HETATM    2  S1  UNL     1     125.715 107.704 -44.935  1.00  0.00    -0.041 SA
ENDROOT
BRANCH   1   3
HETATM    3  N1  UNL     1     124.030 105.647 -45.067  1.00  0.00    -0.357 N 
HETATM    4  C7  UNL     1     122.813 105.816 -45.832  1.00  0.00     0.152 C 
BRANCH   3   5
HETATM    5  C6  UNL     1     124.769 104.431 -45.026  1.00  0.00     0.093 C 
HETATM    6  C3  UNL     1     124.269 103.381 -44.059  1.00  0.00     0.030 C 
HETATM    7  C4  UNL     1     124.437 102.319 -45.151  1.00  0.00     0.012 C 
HETATM    8  C5  UNL     1     124.352 103.470 -46.147  1.00  0.00     0.027 C 
BRANCH   6   9
HETATM    9  C2  UNL     1     125.180 103.083 -42.932  1.00  0.00    -0.030 C 
HETATM   10  C1  UNL     1     124.976 103.498 -41.695  1.00  0.00     0.007 C 
ENDBRANCH   6   9
ENDBRANCH   3   5
ENDBRANCH   1   3
BRANCH   1  11
HETATM   11  N2  UNL     1     123.961 107.101 -43.045  1.00  0.00    -0.364 N 
ATOM     12  H2  UNL     1     123.359 106.441 -42.553  1.00  0.00     0.162 HD
BRANCH  11  13
HETATM   13  C9  UNL     1     124.265 108.372 -42.453  1.00  0.00     0.164 C 
BRANCH  13  14
HETATM   14  C10 UNL     1     123.116 109.349 -42.549  1.00  0.00     0.125 C 
HETATM   15  C11 UNL     1     123.266 110.401 -41.470  1.00  0.00     0.052 C 
HETATM   16 CL1  UNL     1     121.549 108.539 -42.350  1.00  0.00    -0.100 Cl
HETATM   17 CL2  UNL     1     123.103 110.191 -44.108  1.00  0.00    -0.100 Cl
ENDBRANCH  13  14
ENDBRANCH  11  13
ENDBRANCH   1  11
TORSDOF 6
ENDMDL
MODEL 3
REMARK VINA RESULT: -4.503710083      2.219      2.619
REMARK  6 active torsions:
REMARK  status: ('A' for Active; 'I' for Inactive)
REMARK    1  A    between atoms: C2_2  and  C3_3 
REMARK    2  A    between atoms: C6_6  and  N1_7 
REMARK    3  A    between atoms: N1_7  and  C8_9 
REMARK    4  A    between atoms: C8_9  and  N2_11 
REMARK    5  A    between atoms: N2_11  and  C9_13 
REMARK    6  A    between atoms: C9_13  and  C10_14 
ROOT
HETATM    1  C8  UNL     1     124.659 106.354 -44.741  1.00  0.00     0.169 C 
HETATM    2  S1  UNL     1     124.366 106.635 -43.138  1.00  0.00    -0.041 SA
ENDROOT
BRANCH   1   3
HETATM    3  N1  UNL     1     124.104 105.204 -45.367  1.00  0.00    -0.357 N 
HETATM    4  C7  UNL     1     122.821 105.346 -46.021  1.00  0.00     0.152 C 
BRANCH   3   5
HETATM    5  C6  UNL     1     124.829 103.980 -45.320  1.00  0.00     0.093 C 
HETATM    6  C3  UNL     1     124.379 102.979 -44.279  1.00  0.00     0.030 C 
HETATM    7  C4  UNL     1     124.465 101.869 -45.332  1.00  0.00     0.012 C 
HETATM    8  C5  UNL     1     124.331 102.978 -46.370  1.00  0.00     0.027 C 
BRANCH   6   9
HETATM    9  C2  UNL     1     125.356 102.716 -43.200  1.00  0.00    -0.030 C 
HETATM   10  C1  UNL     1     125.164 103.055 -41.938  1.00  0.00     0.007 C 
ENDBRANCH   6   9
ENDBRANCH   3   5
ENDBRANCH   1   3
BRANCH   1  11
HETATM   11  N2  UNL     1     125.467 107.288 -45.455  1.00  0.00    -0.364 N 
ATOM     12  H2  UNL     1     125.598 107.185 -46.462  1.00  0.00     0.162 HD
BRANCH  11  13
HETATM   13  C9  UNL     1     126.097 108.370 -44.757  1.00  0.00     0.164 C 
BRANCH  13  14
HETATM   14  C10 UNL     1     125.606 109.724 -45.217  1.00  0.00     0.125 C 
HETATM   15  C11 UNL     1     126.007 110.771 -44.199  1.00  0.00     0.052 C 
HETATM   16 CL1  UNL     1     123.842 109.752 -45.408  1.00  0.00    -0.100 Cl
HETATM   17 CL2  UNL     1     126.332 110.190 -46.766  1.00  0.00    -0.100 Cl
ENDBRANCH  13  14
ENDBRANCH  11  13
ENDBRANCH   1  11
TORSDOF 6
ENDMDL
MODEL 4
REMARK VINA RESULT: -4.493959094      0.823      1.183
REMARK  6 active torsions:
REMARK  status: ('A' for Active; 'I' for Inactive)
REMARK    1  A    between atoms: C2_2  and  C3_3 
REMARK    2  A    between atoms: C6_6  and  N1_7 
REMARK    3  A    between atoms: N1_7  and  C8_9 
REMARK    4  A    between atoms: C8_9  and  N2_11 
REMARK    5  A    between atoms: N2_11  and  C9_13 
REMARK    6  A    between atoms: C9_13  and  C10_14 
ROOT
HETATM    1  C8  UNL     1     124.472 106.796 -44.340  1.00  0.00     0.169 C 
HETATM    2  S1  UNL     1     125.713 107.715 -44.933  1.00  0.00    -0.041 SA
ENDROOT
BRANCH   1   3
HETATM    3  N1  UNL     1     124.017 105.668 -45.078  1.00  0.00    -0.357 N 
HETATM    4  C7  UNL     1     122.805 105.816 -45.854  1.00  0.00     0.152 C 
BRANCH   3   5
HETATM    5  C6  UNL     1     124.767 104.459 -45.017  1.00  0.00     0.093 C 
HETATM    6  C3  UNL     1     124.276 103.421 -44.033  1.00  0.00     0.030 C 
HETATM    7  C4  UNL     1     124.454 102.342 -45.107  1.00  0.00     0.012 C 
HETATM    8  C5  UNL     1     124.359 103.476 -46.122  1.00  0.00     0.027 C 
BRANCH   6   9
HETATM    9  C2  UNL     1     125.190 103.149 -42.901  1.00  0.00    -0.030 C 
HETATM   10  C1  UNL     1     124.958 103.540 -41.661  1.00  0.00     0.007 C 
ENDBRANCH   6   9
ENDBRANCH   3   5
ENDBRANCH   1   3
BRANCH   1  11
HETATM   11  N2  UNL     1     123.891 107.167 -43.092  1.00  0.00    -0.364 N 
ATOM     12  H2  UNL     1     123.260 106.525 -42.611  1.00  0.00     0.162 HD
BRANCH  11  13
HETATM   13  C9  UNL     1     124.194 108.443 -42.512  1.00  0.00     0.164 C 
BRANCH  13  14
HETATM   14  C10 UNL     1     123.006 109.378 -42.508  1.00  0.00     0.125 C 
HETATM   15  C11 UNL     1     122.987 110.164 -43.801  1.00  0.00     0.052 C 
HETATM   16 CL1  UNL     1     123.071 110.513 -41.144  1.00  0.00    -0.100 Cl
HETATM   17 CL2  UNL     1     121.475 108.489 -42.408  1.00  0.00    -0.100 Cl
ENDBRANCH  13  14
ENDBRANCH  11  13
ENDBRANCH   1  11
TORSDOF 6
ENDMDL
MODEL 5
REMARK VINA RESULT: -4.480475129      2.077      3.000
REMARK  6 active torsions:
REMARK  status: ('A' for Active; 'I' for Inactive)
REMARK    1  A    between atoms: C2_2  and  C3_3 
REMARK    2  A    between atoms: C6_6  and  N1_7 
REMARK    3  A    between atoms: N1_7  and  C8_9 
REMARK    4  A    between atoms: C8_9  and  N2_11 
REMARK    5  A    between atoms: N2_11  and  C9_13 
REMARK    6  A    between atoms: C9_13  and  C10_14 
ROOT
HETATM    1  C8  UNL     1     124.389 104.555 -45.175  1.00  0.00     0.169 C 
HETATM    2  S1  UNL     1     123.280 104.485 -46.400  1.00  0.00    -0.041 SA
ENDROOT
BRANCH   1   3
HETATM    3  N1  UNL     1     124.822 103.354 -44.548  1.00  0.00    -0.357 N 
HETATM    4  C7  UNL     1     124.526 102.104 -45.212  1.00  0.00     0.152 C 
BRANCH   3   5
HETATM    5  C6  UNL     1     125.519 103.439 -43.309  1.00  0.00     0.093 C 
HETATM    6  C3  UNL     1     124.733 103.049 -42.077  1.00  0.00     0.030 C 
HETATM    7  C4  UNL     1     125.935 102.232 -41.589  1.00  0.00     0.012 C 
HETATM    8  C5  UNL     1     126.376 102.194 -43.048  1.00  0.00     0.027 C 
BRANCH   6   9
HETATM    9  C2  UNL     1     124.467 104.153 -41.128  1.00  0.00    -0.030 C 
HETATM   10  C1  UNL     1     125.123 105.300 -41.136  1.00  0.00     0.007 C 
ENDBRANCH   6   9
ENDBRANCH   3   5
ENDBRANCH   1   3
BRANCH   1  11
HETATM   11  N2  UNL     1     124.883 105.834 -44.781  1.00  0.00    -0.364 N 
ATOM     12  H2  UNL     1     125.877 106.046 -44.867  1.00  0.00     0.162 HD
BRANCH  11  13
HETATM   13  C9  UNL     1     123.981 106.822 -44.264  1.00  0.00     0.164 C 
BRANCH  13  14
HETATM   14  C10 UNL     1     124.634 108.175 -44.093  1.00  0.00     0.125 C 
HETATM   15  C11 UNL     1     123.819 109.217 -44.829  1.00  0.00     0.052 C 
HETATM   16 CL1  UNL     1     126.292 108.187 -44.727  1.00  0.00    -0.100 Cl
HETATM   17 CL2  UNL     1     124.695 108.660 -42.389  1.00  0.00    -0.100 Cl
ENDBRANCH  13  14
ENDBRANCH  11  13
ENDBRANCH   1  11
TORSDOF 6
ENDMDL
