MODEL 1
REMARK VINA RESULT: -5.572822298      0.000      0.000
REMARK  4 active torsions:
REMARK  status: ('A' for Active; 'I' for Inactive)
REMARK    1  A    between atoms: C2_2  and  C3_3 
REMARK       I    between atoms: C3_3  and  N1_5 
REMARK    2  A    between atoms: N1_5  and  C4_7 
REMARK    3  A    between atoms: C4_7  and  C5_9 
REMARK       I    between atoms: N2_14  and  C8_15 
REMARK    4  A    between atoms: C8_15  and  C9_17 
ROOT
HETATM    1  C1  UNL     1      89.330  98.077 -44.139  1.00  0.00     0.049 C 
HETATM    2  C2  UNL     1      90.771  98.194 -43.684  1.00  0.00     0.114 C 
HETATM    3  C6  UNL     1      91.776  98.237 -44.813  1.00  0.00     0.061 C 
HETATM    4  C7  UNL     1      92.457  99.280 -43.915  1.00  0.00     0.130 C 
HETATM    5  N2  UNL     1      91.187  99.509 -43.297  1.00  0.00    -0.334 N 
HETATM    6  C8  UNL     1      90.603 100.588 -42.601  1.00  0.00     0.225 C 
HETATM    7  O2  UNL     1      89.408 100.434 -42.175  1.00  0.00    -0.273 OA
ENDROOT
BRANCH   2   8
HETATM    8  C3  UNL     1      91.093  97.100 -42.762  1.00  0.00     0.248 C 
HETATM    9  O1  UNL     1      91.106  97.361 -41.510  1.00  0.00    -0.271 OA
HETATM   10  N1  UNL     1      91.387  95.781 -43.196  1.00  0.00    -0.324 N 
ATOM     11  H1  UNL     1      91.374  95.587 -44.198  1.00  0.00     0.165 HD
BRANCH  10  12
HETATM   12  C4  UNL     1      91.705  94.701 -42.293  1.00  0.00     0.337 C 
HETATM   13  F1  UNL     1      92.807  94.963 -41.509  1.00  0.00    -0.221 F 
BRANCH  12  14
HETATM   14  C5  UNL     1      91.967  93.400 -43.011  1.00  0.00     0.406 C 
HETATM   15  F2  UNL     1      92.110  92.418 -42.048  1.00  0.00    -0.209 F 
HETATM   16  F3  UNL     1      93.184  93.451 -43.688  1.00  0.00    -0.209 F 
ENDBRANCH  12  14
ENDBRANCH  10  12
ENDBRANCH   2   8
BRANCH   6  17
HETATM   17  C9  UNL     1      91.265 101.868 -42.331  1.00  0.00     0.078 C 
HETATM   18  C10 UNL     1      90.224 102.808 -41.740  1.00  0.00     0.014 C 
HETATM   19  C11 UNL     1      90.795 103.655 -40.641  1.00  0.00     0.001 C 
HETATM   20  C12 UNL     1      91.367 102.895 -39.489  1.00  0.00     0.000 C 
HETATM   21  C13 UNL     1      91.828 101.552 -39.937  1.00  0.00     0.001 C 
HETATM   22  C14 UNL     1      92.379 101.650 -41.333  1.00  0.00     0.014 C 
ENDBRANCH   6  17
TORSDOF 4
ENDMDL
MODEL 2
REMARK VINA RESULT: -5.524180811      1.560      1.993
REMARK  4 active torsions:
REMARK  status: ('A' for Active; 'I' for Inactive)
REMARK    1  A    between atoms: C2_2  and  C3_3 
REMARK       I    between atoms: C3_3  and  N1_5 
REMARK    2  A    between atoms: N1_5  and  C4_7 
REMARK    3  A    between atoms: C4_7  and  C5_9 
REMARK       I    between atoms: N2_14  and  C8_15 
REMARK    4  A    between atoms: C8_15  and  C9_17 
ROOT
HETATM    1  C1  UNL     1      88.460  98.763 -44.282  1.00  0.00     0.049 C 
HETATM    2  C2  UNL     1      89.942  99.011 -44.488  1.00  0.00     0.114 C 
HETATM    3  C6  UNL     1      90.293  99.575 -45.846  1.00  0.00     0.061 C 
HETATM    4  C7  UNL     1      91.287 100.415 -45.032  1.00  0.00     0.130 C 
HETATM    5  N2  UNL     1      90.453 100.206 -43.888  1.00  0.00    -0.334 N 
HETATM    6  C8  UNL     1      90.237 100.900 -42.678  1.00  0.00     0.225 C 
HETATM    7  O2  UNL     1      89.390 100.404 -41.860  1.00  0.00    -0.273 OA
ENDROOT
BRANCH   2   8
HETATM    8  C3  UNL     1      90.693  97.774 -44.245  1.00  0.00     0.248 C 
HETATM    9  O1  UNL     1      91.215  97.188 -45.254  1.00  0.00    -0.271 OA
HETATM   10  N1  UNL     1      90.861  97.210 -42.953  1.00  0.00    -0.324 N 
ATOM     11  H1  UNL     1      90.438  97.689 -42.157  1.00  0.00     0.165 HD
BRANCH  10  12
HETATM   12  C4  UNL     1      91.598  95.995 -42.709  1.00  0.00     0.337 C 
HETATM   13  F1  UNL     1      91.000  94.883 -43.261  1.00  0.00    -0.221 F 
BRANCH  12  14
HETATM   14  C5  UNL     1      91.788  95.715 -41.238  1.00  0.00     0.406 C 
HETATM   15  F2  UNL     1      92.165  96.902 -40.637  1.00  0.00    -0.209 F 
HETATM   16  F3  UNL     1      92.848  94.832 -41.041  1.00  0.00    -0.209 F 
ENDBRANCH  12  14
ENDBRANCH  10  12
ENDBRANCH   2   8
BRANCH   6  17
HETATM   17  C9  UNL     1      90.911 102.143 -42.293  1.00  0.00     0.078 C 
HETATM   18  C10 UNL     1      90.122 102.758 -41.147  1.00  0.00     0.014 C 
HETATM   19  C11 UNL     1      91.022 103.363 -40.110  1.00  0.00     0.001 C 
HETATM   20  C12 UNL     1      91.993 102.416 -39.483  1.00  0.00     0.000 C 
HETATM   21  C13 UNL     1      92.304 101.304 -40.423  1.00  0.00     0.001 C 
HETATM   22  C14 UNL     1      92.315 101.826 -41.833  1.00  0.00     0.014 C 
ENDBRANCH   6  17
TORSDOF 4
ENDMDL
MODEL 3
REMARK VINA RESULT: -5.385799968      2.398      4.856
REMARK  4 active torsions:
REMARK  status: ('A' for Active; 'I' for Inactive)
REMARK    1  A    between atoms: C2_2  and  C3_3 
REMARK       I    between atoms: C3_3  and  N1_5 
REMARK    2  A    between atoms: N1_5  and  C4_7 
REMARK    3  A    between atoms: C4_7  and  C5_9 
REMARK       I    between atoms: N2_14  and  C8_15 
REMARK    4  A    between atoms: C8_15  and  C9_17 
ROOT
HETATM    1  C1  UNL     1      92.177  98.391 -44.742  1.00  0.00     0.049 C 
HETATM    2  C2  UNL     1      91.109  98.259 -43.674  1.00  0.00     0.114 C 
HETATM    3  C6  UNL     1      91.135  99.354 -42.633  1.00  0.00     0.061 C 
HETATM    4  C7  UNL     1      89.609  99.250 -42.757  1.00  0.00     0.130 C 
HETATM    5  N2  UNL     1      89.799  98.693 -44.061  1.00  0.00    -0.334 N 
HETATM    6  C8  UNL     1      89.014  98.613 -45.230  1.00  0.00     0.225 C 
HETATM    7  O2  UNL     1      89.525  98.021 -46.241  1.00  0.00    -0.273 OA
ENDROOT
BRANCH   2   8
HETATM    8  C3  UNL     1      91.208  96.946 -43.030  1.00  0.00     0.248 C 
HETATM    9  O1  UNL     1      91.218  96.910 -41.752  1.00  0.00    -0.271 OA
HETATM   10  N1  UNL     1      91.290  95.729 -43.757  1.00  0.00    -0.324 N 
ATOM     11  H1  UNL     1      91.280  95.773 -44.776  1.00  0.00     0.165 HD
BRANCH  10  12
HETATM   12  C4  UNL     1      91.387  94.435 -43.128  1.00  0.00     0.337 C 
HETATM   13  F1  UNL     1      92.299  94.406 -42.096  1.00  0.00    -0.221 F 
BRANCH  12  14
HETATM   14  C5  UNL     1      91.775  93.345 -44.096  1.00  0.00     0.406 C 
HETATM   15  F2  UNL     1      93.141  93.157 -43.981  1.00  0.00    -0.209 F 
HETATM   16  F3  UNL     1      91.555  93.755 -45.410  1.00  0.00    -0.209 F 
ENDBRANCH  12  14
ENDBRANCH  10  12
ENDBRANCH   2   8
BRANCH   6  17
HETATM   17  C9  UNL     1      87.660  99.157 -45.368  1.00  0.00     0.078 C 
HETATM   18  C10 UNL     1      87.322  99.177 -46.852  1.00  0.00     0.014 C 
HETATM   19  C11 UNL     1      85.895  98.791 -47.106  1.00  0.00     0.001 C 
HETATM   20  C12 UNL     1      85.508  97.435 -46.611  1.00  0.00     0.000 C 
HETATM   21  C13 UNL     1      86.366  97.044 -45.460  1.00  0.00     0.001 C 
HETATM   22  C14 UNL     1      86.687  98.262 -44.637  1.00  0.00     0.014 C 
ENDBRANCH   6  17
TORSDOF 4
ENDMDL
MODEL 4
REMARK VINA RESULT: -5.345645938      2.608      5.057
REMARK  4 active torsions:
REMARK  status: ('A' for Active; 'I' for Inactive)
REMARK    1  A    between atoms: C2_2  and  C3_3 
REMARK       I    between atoms: C3_3  and  N1_5 
REMARK    2  A    between atoms: N1_5  and  C4_7 
REMARK    3  A    between atoms: C4_7  and  C5_9 
REMARK       I    between atoms: N2_14  and  C8_15 
REMARK    4  A    between atoms: C8_15  and  C9_17 
ROOT
HETATM    1  C1  UNL     1      92.519  98.822 -45.139  1.00  0.00     0.049 C 
HETATM    2  C2  UNL     1      91.369  99.372 -44.318  1.00  0.00     0.114 C 
HETATM    3  C6  UNL     1      91.312 100.882 -44.266  1.00  0.00     0.061 C 
HETATM    4  C7  UNL     1      89.800 100.642 -44.381  1.00  0.00     0.130 C 
HETATM    5  N2  UNL     1      90.094  99.373 -44.973  1.00  0.00    -0.334 N 
HETATM    6  C8  UNL     1      89.405  98.498 -45.838  1.00  0.00     0.225 C 
HETATM    7  O2  UNL     1      89.994  97.413 -46.169  1.00  0.00    -0.273 OA
ENDROOT
BRANCH   2   8
HETATM    8  C3  UNL     1      91.416  98.821 -42.960  1.00  0.00     0.248 C 
HETATM    9  O1  UNL     1      91.488  99.646 -41.986  1.00  0.00    -0.271 OA
HETATM   10  N1  UNL     1      91.384  97.428 -42.687  1.00  0.00    -0.324 N 
ATOM     11  H1  UNL     1      91.325  96.782 -43.474  1.00  0.00     0.165 HD
BRANCH  10  12
HETATM   12  C4  UNL     1      91.429  96.881 -41.353  1.00  0.00     0.337 C 
HETATM   13  F1  UNL     1      92.481  97.368 -40.608  1.00  0.00    -0.221 F 
BRANCH  12  14
HETATM   14  C5  UNL     1      91.537  95.376 -41.345  1.00  0.00     0.406 C 
HETATM   15  F2  UNL     1      92.843  95.057 -41.018  1.00  0.00    -0.209 F 
HETATM   16  F3  UNL     1      91.328  94.863 -42.624  1.00  0.00    -0.209 F 
ENDBRANCH  12  14
ENDBRANCH  10  12
ENDBRANCH   2   8
BRANCH   6  17
HETATM   17  C9  UNL     1      88.066  98.742 -46.383  1.00  0.00     0.078 C 
HETATM   18  C10 UNL     1      87.616  97.468 -47.084  1.00  0.00     0.014 C 
HETATM   19  C11 UNL     1      86.160  97.189 -46.857  1.00  0.00     0.001 C 
HETATM   20  C12 UNL     1      85.760  97.037 -45.425  1.00  0.00     0.000 C 
HETATM   21  C13 UNL     1      86.689  97.802 -44.549  1.00  0.00     0.001 C 
HETATM   22  C14 UNL     1      87.119  99.061 -45.250  1.00  0.00     0.014 C 
ENDBRANCH   6  17
TORSDOF 4
ENDMDL
MODEL 5
REMARK VINA RESULT: -5.291678123      2.969      4.416
REMARK  4 active torsions:
REMARK  status: ('A' for Active; 'I' for Inactive)
REMARK    1  A    between atoms: C2_2  and  C3_3 
REMARK       I    between atoms: C3_3  and  N1_5 
REMARK    2  A    between atoms: N1_5  and  C4_7 
REMARK    3  A    between atoms: C4_7  and  C5_9 
REMARK       I    between atoms: N2_14  and  C8_15 
REMARK    4  A    between atoms: C8_15  and  C9_17 
ROOT
HETATM    1  C1  UNL     1      92.302  98.740 -45.156  1.00  0.00     0.049 C 
HETATM    2  C2  UNL     1      91.375  98.047 -44.176  1.00  0.00     0.114 C 
HETATM    3  C6  UNL     1      91.672  98.349 -42.724  1.00  0.00     0.061 C 
HETATM    4  C7  UNL     1      90.141  98.373 -42.612  1.00  0.00     0.130 C 
HETATM    5  N2  UNL     1      90.089  98.657 -44.014  1.00  0.00    -0.334 N 
HETATM    6  C8  UNL     1      89.154  99.280 -44.866  1.00  0.00     0.225 C 
HETATM    7  O2  UNL     1      89.451  99.360 -46.107  1.00  0.00    -0.273 OA
ENDROOT
BRANCH   2   8
HETATM    8  C3  UNL     1      91.397  96.599 -44.406  1.00  0.00     0.248 C 
HETATM    9  O1  UNL     1      91.111  96.179 -45.579  1.00  0.00    -0.271 OA
HETATM   10  N1  UNL     1      91.720  95.658 -43.394  1.00  0.00    -0.324 N 
ATOM     11  H1  UNL     1      91.947  96.008 -42.463  1.00  0.00     0.165 HD
BRANCH  10  12
HETATM   12  C4  UNL     1      91.743  94.233 -43.615  1.00  0.00     0.337 C 
HETATM   13  F1  UNL     1      90.484  93.688 -43.742  1.00  0.00    -0.221 F 
BRANCH  12  14
HETATM   14  C5  UNL     1      92.444  93.483 -42.509  1.00  0.00     0.406 C 
HETATM   15  F2  UNL     1      92.580  94.354 -41.442  1.00  0.00    -0.209 F 
HETATM   16  F3  UNL     1      93.740  93.143 -42.892  1.00  0.00    -0.209 F 
ENDBRANCH  12  14
ENDBRANCH  10  12
ENDBRANCH   2   8
BRANCH   6  17
HETATM   17  C9  UNL     1      87.869  99.839 -44.434  1.00  0.00     0.078 C 
HETATM   18  C10 UNL     1      87.218 100.486 -45.648  1.00  0.00     0.014 C 
HETATM   19  C11 UNL     1      85.736 100.251 -45.679  1.00  0.00     0.001 C 
HETATM   20  C12 UNL     1      85.322  98.816 -45.702  1.00  0.00     0.000 C 
HETATM   21  C13 UNL     1      86.366  97.970 -45.060  1.00  0.00     0.001 C 
HETATM   22  C14 UNL     1      86.990  98.724 -43.918  1.00  0.00     0.014 C 
ENDBRANCH   6  17
TORSDOF 4
ENDMDL
