MODEL 1
REMARK VINA RESULT: -8.156142314      0.000      0.000
REMARK  15 active torsions:
REMARK  status: ('A' for Active; 'I' for Inactive)
REMARK    1  A    between atoms: C2_2  and  C4_4 
REMARK    2  A    between atoms: C4_4  and  C5_5 
REMARK    3  A    between atoms: C8_9  and  C9_10 
REMARK    4  A    between atoms: C9_10  and  C10_11 
REMARK    5  A    between atoms: C10_11  and  C11_12 
REMARK    6  A    between atoms: C11_12  and  C12_14 
REMARK    7  A    between atoms: C14_16  and  O2_17 
REMARK    8  A    between atoms: O2_17  and  C15_18 
REMARK    9  A    between atoms: C15_18  and  C16_20 
REMARK   10  A    between atoms: C16_20  and  C17_21 
REMARK   11  A    between atoms: C19_23  and  O4_24 
REMARK   12  A    between atoms: O4_24  and  C20_25 
REMARK   13  A    between atoms: C22_28  and  O6_29 
REMARK   14  A    between atoms: O6_29  and  C23_30 
REMARK   15  A    between atoms: C25_33  and  O8_34 
ROOT
HETATM    1  C12 UNL     1      26.214   4.933  -7.236  1.00  0.00     0.089 C 
HETATM    2  C13 UNL     1      25.285   5.963  -7.808  1.00  0.00     0.050 C 
HETATM    3  C14 UNL     1      25.910   7.119  -8.484  1.00  0.00     0.165 C 
HETATM    4  C19 UNL     1      27.292   7.493  -8.155  1.00  0.00     0.193 C 
HETATM    5  C22 UNL     1      27.970   6.559  -7.140  1.00  0.00     0.193 C 
HETATM    6  C25 UNL     1      27.661   5.186  -7.651  1.00  0.00     0.161 C 
ENDROOT
BRANCH   1   7
HETATM    7  C11 UNL     1      26.155   4.926  -5.759  1.00  0.00     0.133 C 
HETATM    8  O1  UNL     1      26.939   4.268  -5.100  1.00  0.00    -0.297 OA
BRANCH   7   9
HETATM    9  C10 UNL     1      25.122   5.737  -5.004  1.00  0.00     0.079 C 
BRANCH   9  10
HETATM   10  C9  UNL     1      25.843   6.432  -3.895  1.00  0.00     0.018 C 
BRANCH  10  11
HETATM   11  C8  UNL     1      26.810   7.486  -4.206  1.00  0.00     0.033 C 
HETATM   12  C6  UNL     1      26.417   8.870  -3.926  1.00  0.00     0.020 C 
HETATM   13  S1  UNL     1      26.419   9.235  -2.122  1.00  0.00    -0.148 SA
HETATM   14  C7  UNL     1      25.127   9.375  -4.494  1.00  0.00     0.028 C 
HETATM   15  C30 UNL     1      27.510   9.853  -4.359  1.00  0.00     0.034 C 
HETATM   16  C5  UNL     1      27.025  10.935  -2.204  1.00  0.00     0.080 C 
HETATM   17  C31 UNL     1      27.311  11.112  -3.650  1.00  0.00    -0.069 C 
HETATM   18  C32 UNL     1      27.374  12.325  -4.205  1.00  0.00     0.016 C 
HETATM   19  C29 UNL     1      28.880   9.310  -4.400  1.00  0.00     0.015 C 
HETATM   20  C28 UNL     1      29.173   8.154  -3.521  1.00  0.00     0.034 C 
HETATM   21  C26 UNL     1      28.062   7.200  -3.402  1.00  0.00    -0.084 C 
HETATM   22  C27 UNL     1      28.222   6.167  -2.609  1.00  0.00     0.015 C 
BRANCH  16  23
HETATM   23  C4  UNL     1      28.172  11.240  -1.327  1.00  0.00     0.052 C 
BRANCH  23  24
HETATM   24  C2  UNL     1      27.963  12.414  -0.458  1.00  0.00    -0.092 C 
HETATM   25  C1  UNL     1      27.945  13.658  -0.886  1.00  0.00     0.014 C 
HETATM   26  C3  UNL     1      27.733  12.242   1.027  1.00  0.00     0.042 C 
ENDBRANCH  23  24
ENDBRANCH  16  23
ENDBRANCH  10  11
ENDBRANCH   9  10
ENDBRANCH   7   9
ENDBRANCH   1   7
BRANCH   6  27
HETATM   27  O8  UNL     1      27.611   5.165  -9.070  1.00  0.00    -0.392 OA
ATOM     28  H8  UNL     1      27.528   6.082  -9.304  1.00  0.00     0.210 HD
ENDBRANCH   6  27
BRANCH   3  29
HETATM   29  O2  UNL     1      25.077   8.263  -8.217  1.00  0.00    -0.313 OA
BRANCH  29  30
HETATM   30  C15 UNL     1      24.337   8.901  -9.195  1.00  0.00     0.259 C 
HETATM   31  O3  UNL     1      23.932  10.065  -8.903  1.00  0.00    -0.265 OA
BRANCH  30  32
HETATM   32  C16 UNL     1      24.037   8.268 -10.506  1.00  0.00     0.111 C 
BRANCH  32  33
HETATM   33  C17 UNL     1      25.091   8.757 -11.485  1.00  0.00     0.005 C 
HETATM   34  C18 UNL     1      25.542   7.656 -12.413  1.00  0.00     0.005 C 
ENDBRANCH  32  33
ENDBRANCH  30  32
ENDBRANCH  29  30
ENDBRANCH   3  29
BRANCH   5  35
HETATM   35  O6  UNL     1      29.299   6.915  -7.073  1.00  0.00    -0.311 OA
BRANCH  35  36
HETATM   36  C23 UNL     1      30.271   6.731  -8.042  1.00  0.00     0.255 C 
HETATM   37  C24 UNL     1      31.308   7.715  -8.392  1.00  0.00     0.126 C 
HETATM   38  O7  UNL     1      30.229   5.648  -8.633  1.00  0.00    -0.266 OA
ENDBRANCH  35  36
ENDBRANCH   5  35
BRANCH   4  39
HETATM   39  O4  UNL     1      27.493   8.844  -7.819  1.00  0.00    -0.311 OA
BRANCH  39  40
HETATM   40  C20 UNL     1      27.855   9.838  -8.713  1.00  0.00     0.255 C 
HETATM   41  C21 UNL     1      27.213  11.172  -8.752  1.00  0.00     0.126 C 
HETATM   42  O5  UNL     1      28.786   9.532  -9.505  1.00  0.00    -0.266 OA
ENDBRANCH  39  40
ENDBRANCH   4  39
TORSDOF 15
ENDMDL
MODEL 2
REMARK VINA RESULT: -7.589545597      2.229      5.022
REMARK  15 active torsions:
REMARK  status: ('A' for Active; 'I' for Inactive)
REMARK    1  A    between atoms: C2_2  and  C4_4 
REMARK    2  A    between atoms: C4_4  and  C5_5 
REMARK    3  A    between atoms: C8_9  and  C9_10 
REMARK    4  A    between atoms: C9_10  and  C10_11 
REMARK    5  A    between atoms: C10_11  and  C11_12 
REMARK    6  A    between atoms: C11_12  and  C12_14 
REMARK    7  A    between atoms: C14_16  and  O2_17 
REMARK    8  A    between atoms: O2_17  and  C15_18 
REMARK    9  A    between atoms: C15_18  and  C16_20 
REMARK   10  A    between atoms: C16_20  and  C17_21 
REMARK   11  A    between atoms: C19_23  and  O4_24 
REMARK   12  A    between atoms: O4_24  and  C20_25 
REMARK   13  A    between atoms: C22_28  and  O6_29 
REMARK   14  A    between atoms: O6_29  and  C23_30 
REMARK   15  A    between atoms: C25_33  and  O8_34 
ROOT
HETATM    1  C12 UNL     1      26.122   8.881  -9.653  1.00  0.00     0.089 C 
HETATM    2  C13 UNL     1      26.534   7.543 -10.194  1.00  0.00     0.050 C 
HETATM    3  C14 UNL     1      25.836   7.074 -11.409  1.00  0.00     0.165 C 
HETATM    4  C19 UNL     1      24.508   7.610 -11.737  1.00  0.00     0.193 C 
HETATM    5  C22 UNL     1      24.006   8.684 -10.760  1.00  0.00     0.193 C 
HETATM    6  C25 UNL     1      25.176   9.607 -10.606  1.00  0.00     0.161 C 
ENDROOT
BRANCH   1   7
HETATM    7  C11 UNL     1      25.441   8.740  -8.350  1.00  0.00     0.133 C 
HETATM    8  O1  UNL     1      24.662   9.587  -7.950  1.00  0.00    -0.297 OA
BRANCH   7   9
HETATM    9  C10 UNL     1      25.679   7.539  -7.457  1.00  0.00     0.079 C 
BRANCH   9  10
HETATM   10  C9  UNL     1      25.708   8.043  -6.052  1.00  0.00     0.018 C 
BRANCH  10  11
HETATM   11  C8  UNL     1      26.944   8.610  -5.510  1.00  0.00     0.033 C 
HETATM   12  C6  UNL     1      26.836   9.843  -4.725  1.00  0.00     0.020 C 
HETATM   13  S1  UNL     1      26.104   9.542  -3.064  1.00  0.00    -0.148 SA
HETATM   14  C7  UNL     1      26.129  11.016  -5.331  1.00  0.00     0.028 C 
HETATM   15  C30 UNL     1      28.217  10.338  -4.280  1.00  0.00     0.034 C 
HETATM   16  C5  UNL     1      27.094  10.729  -2.128  1.00  0.00     0.080 C 
HETATM   17  C31 UNL     1      28.046  11.238  -3.146  1.00  0.00    -0.069 C 
HETATM   18  C32 UNL     1      28.665  12.412  -2.996  1.00  0.00     0.016 C 
HETATM   19  C29 UNL     1      29.261   9.304  -4.169  1.00  0.00     0.015 C 
HETATM   20  C28 UNL     1      28.811   7.915  -3.919  1.00  0.00     0.034 C 
HETATM   21  C26 UNL     1      27.566   7.558  -4.614  1.00  0.00    -0.084 C 
HETATM   22  C27 UNL     1      27.074   6.359  -4.414  1.00  0.00     0.015 C 
BRANCH  16  23
HETATM   23  C4  UNL     1      27.745  10.193  -0.916  1.00  0.00     0.052 C 
BRANCH  23  24
HETATM   24  C2  UNL     1      27.486  10.984   0.301  1.00  0.00    -0.092 C 
HETATM   25  C1  UNL     1      27.985  12.182   0.526  1.00  0.00     0.014 C 
HETATM   26  C3  UNL     1      26.585  10.448   1.391  1.00  0.00     0.042 C 
ENDBRANCH  23  24
ENDBRANCH  16  23
ENDBRANCH  10  11
ENDBRANCH   9  10
ENDBRANCH   7   9
ENDBRANCH   1   7
BRANCH   6  27
HETATM   27  O8  UNL     1      25.919   9.698 -11.812  1.00  0.00    -0.392 OA
ATOM     28  H8  UNL     1      26.496   8.944 -11.777  1.00  0.00     0.210 HD
ENDBRANCH   6  27
BRANCH   3  29
HETATM   29  O2  UNL     1      25.710   5.644 -11.296  1.00  0.00    -0.313 OA
BRANCH  29  30
HETATM   30  C15 UNL     1      25.928   4.960 -10.114  1.00  0.00     0.259 C 
HETATM   31  O3  UNL     1      24.932   4.884  -9.334  1.00  0.00    -0.265 OA
BRANCH  30  32
HETATM   32  C16 UNL     1      27.242   4.350  -9.778  1.00  0.00     0.111 C 
BRANCH  32  33
HETATM   33  C17 UNL     1      27.387   4.421  -8.267  1.00  0.00     0.005 C 
HETATM   34  C18 UNL     1      28.514   5.339  -7.859  1.00  0.00     0.005 C 
ENDBRANCH  32  33
ENDBRANCH  30  32
ENDBRANCH  29  30
ENDBRANCH   3  29
BRANCH   5  35
HETATM   35  O6  UNL     1      22.854   9.221 -11.289  1.00  0.00    -0.311 OA
BRANCH  35  36
HETATM   36  C23 UNL     1      21.794   9.789 -10.600  1.00  0.00     0.255 C 
HETATM   37  C24 UNL     1      20.470  10.070 -11.176  1.00  0.00     0.126 C 
HETATM   38  O7  UNL     1      22.022  10.065  -9.418  1.00  0.00    -0.266 OA
ENDBRANCH  35  36
ENDBRANCH   5  35
BRANCH   4  39
HETATM   39  O4  UNL     1      23.513   6.650 -11.996  1.00  0.00    -0.311 OA
BRANCH  39  40
HETATM   40  C20 UNL     1      23.084   6.274 -13.258  1.00  0.00     0.255 C 
HETATM   41  C21 UNL     1      22.641   7.240 -14.290  1.00  0.00     0.126 C 
HETATM   42  O5  UNL     1      23.097   5.034 -13.481  1.00  0.00    -0.266 OA
ENDBRANCH  39  40
ENDBRANCH   4  39
TORSDOF 15
ENDMDL
MODEL 3
REMARK VINA RESULT: -7.554234306      1.882      2.892
REMARK  15 active torsions:
REMARK  status: ('A' for Active; 'I' for Inactive)
REMARK    1  A    between atoms: C2_2  and  C4_4 
REMARK    2  A    between atoms: C4_4  and  C5_5 
REMARK    3  A    between atoms: C8_9  and  C9_10 
REMARK    4  A    between atoms: C9_10  and  C10_11 
REMARK    5  A    between atoms: C10_11  and  C11_12 
REMARK    6  A    between atoms: C11_12  and  C12_14 
REMARK    7  A    between atoms: C14_16  and  O2_17 
REMARK    8  A    between atoms: O2_17  and  C15_18 
REMARK    9  A    between atoms: C15_18  and  C16_20 
REMARK   10  A    between atoms: C16_20  and  C17_21 
REMARK   11  A    between atoms: C19_23  and  O4_24 
REMARK   12  A    between atoms: O4_24  and  C20_25 
REMARK   13  A    between atoms: C22_28  and  O6_29 
REMARK   14  A    between atoms: O6_29  and  C23_30 
REMARK   15  A    between atoms: C25_33  and  O8_34 
ROOT
HETATM    1  C12 UNL     1      25.246   5.948  -6.125  1.00  0.00     0.089 C 
HETATM    2  C13 UNL     1      25.480   7.411  -6.362  1.00  0.00     0.050 C 
HETATM    3  C14 UNL     1      26.614   7.768  -7.241  1.00  0.00     0.165 C 
HETATM    4  C19 UNL     1      27.720   6.819  -7.422  1.00  0.00     0.193 C 
HETATM    5  C22 UNL     1      27.529   5.485  -6.685  1.00  0.00     0.193 C 
HETATM    6  C25 UNL     1      26.127   5.083  -7.023  1.00  0.00     0.161 C 
ENDROOT
BRANCH   1   7
HETATM    7  C11 UNL     1      25.529   5.586  -4.721  1.00  0.00     0.133 C 
HETATM    8  O1  UNL     1      26.407   4.790  -4.439  1.00  0.00    -0.297 OA
BRANCH   7   9
HETATM    9  C10 UNL     1      24.744   6.188  -3.573  1.00  0.00     0.079 C 
BRANCH   9  10
HETATM   10  C9  UNL     1      25.737   6.805  -2.645  1.00  0.00     0.018 C 
BRANCH  10  11
HETATM   11  C8  UNL     1      26.709   7.771  -3.161  1.00  0.00     0.033 C 
HETATM   12  C6  UNL     1      26.526   9.179  -2.793  1.00  0.00     0.020 C 
HETATM   13  S1  UNL     1      26.965   9.494  -1.034  1.00  0.00    -0.148 SA
HETATM   14  C7  UNL     1      25.198   9.818  -3.056  1.00  0.00     0.028 C 
HETATM   15  C30 UNL     1      27.585  10.066  -3.456  1.00  0.00     0.034 C 
HETATM   16  C5  UNL     1      27.701  11.131  -1.243  1.00  0.00     0.080 C 
HETATM   17  C31 UNL     1      27.674  11.318  -2.715  1.00  0.00    -0.069 C 
HETATM   18  C32 UNL     1      27.730  12.534  -3.265  1.00  0.00     0.016 C 
HETATM   19  C29 UNL     1      28.852   9.397  -3.805  1.00  0.00     0.015 C 
HETATM   20  C28 UNL     1      29.219   8.196  -3.019  1.00  0.00     0.034 C 
HETATM   21  C26 UNL     1      28.075   7.348  -2.659  1.00  0.00    -0.084 C 
HETATM   22  C27 UNL     1      28.306   6.284  -1.926  1.00  0.00     0.015 C 
BRANCH  16  23
HETATM   23  C4  UNL     1      29.039  11.304  -0.643  1.00  0.00     0.052 C 
BRANCH  23  24
HETATM   24  C2  UNL     1      29.143  12.465   0.260  1.00  0.00    -0.092 C 
HETATM   25  C1  UNL     1      30.132  12.658   1.108  1.00  0.00     0.014 C 
HETATM   26  C3  UNL     1      28.086  13.547   0.249  1.00  0.00     0.042 C 
ENDBRANCH  23  24
ENDBRANCH  16  23
ENDBRANCH  10  11
ENDBRANCH   9  10
ENDBRANCH   7   9
ENDBRANCH   1   7
BRANCH   6  27
HETATM   27  O8  UNL     1      25.777   5.498  -8.336  1.00  0.00    -0.392 OA
ATOM     28  H8  UNL     1      26.380   6.210  -8.514  1.00  0.00     0.210 HD
ENDBRANCH   6  27
BRANCH   3  29
HETATM   29  O2  UNL     1      27.172   8.992  -6.728  1.00  0.00    -0.313 OA
BRANCH  29  30
HETATM   30  C15 UNL     1      26.782  10.243  -7.172  1.00  0.00     0.259 C 
HETATM   31  O3  UNL     1      27.293  10.618  -8.269  1.00  0.00    -0.265 OA
BRANCH  30  32
HETATM   32  C16 UNL     1      25.826  11.094  -6.416  1.00  0.00     0.111 C 
BRANCH  32  33
HETATM   33  C17 UNL     1      26.230  12.538  -6.661  1.00  0.00     0.005 C 
HETATM   34  C18 UNL     1      25.358  13.498  -5.890  1.00  0.00     0.005 C 
ENDBRANCH  32  33
ENDBRANCH  30  32
ENDBRANCH  29  30
ENDBRANCH   3  29
BRANCH   5  35
HETATM   35  O6  UNL     1      28.536   4.638  -7.092  1.00  0.00    -0.311 OA
BRANCH  35  36
HETATM   36  C23 UNL     1      28.481   3.683  -8.094  1.00  0.00     0.255 C 
HETATM   37  C24 UNL     1      28.105   2.275  -7.894  1.00  0.00     0.126 C 
HETATM   38  O7  UNL     1      28.778   4.086  -9.223  1.00  0.00    -0.266 OA
ENDBRANCH  35  36
ENDBRANCH   5  35
BRANCH   4  39
HETATM   39  O4  UNL     1      29.009   7.341  -7.209  1.00  0.00    -0.311 OA
BRANCH  39  40
HETATM   40  C20 UNL     1      29.926   7.620  -8.208  1.00  0.00     0.255 C 
HETATM   41  C21 UNL     1      31.132   6.797  -8.460  1.00  0.00     0.126 C 
HETATM   42  O5  UNL     1      29.666   8.636  -8.906  1.00  0.00    -0.266 OA
ENDBRANCH  39  40
ENDBRANCH   4  39
TORSDOF 15
ENDMDL
MODEL 4
REMARK VINA RESULT: -7.478089403      5.593      9.812
REMARK  15 active torsions:
REMARK  status: ('A' for Active; 'I' for Inactive)
REMARK    1  A    between atoms: C2_2  and  C4_4 
REMARK    2  A    between atoms: C4_4  and  C5_5 
REMARK    3  A    between atoms: C8_9  and  C9_10 
REMARK    4  A    between atoms: C9_10  and  C10_11 
REMARK    5  A    between atoms: C10_11  and  C11_12 
REMARK    6  A    between atoms: C11_12  and  C12_14 
REMARK    7  A    between atoms: C14_16  and  O2_17 
REMARK    8  A    between atoms: O2_17  and  C15_18 
REMARK    9  A    between atoms: C15_18  and  C16_20 
REMARK   10  A    between atoms: C16_20  and  C17_21 
REMARK   11  A    between atoms: C19_23  and  O4_24 
REMARK   12  A    between atoms: O4_24  and  C20_25 
REMARK   13  A    between atoms: C22_28  and  O6_29 
REMARK   14  A    between atoms: O6_29  and  C23_30 
REMARK   15  A    between atoms: C25_33  and  O8_34 
ROOT
HETATM    1  C12 UNL     1      28.814  15.359  -2.753  1.00  0.00     0.089 C 
HETATM    2  C13 UNL     1      29.949  15.876  -3.587  1.00  0.00     0.050 C 
HETATM    3  C14 UNL     1      29.777  17.218  -4.184  1.00  0.00     0.165 C 
HETATM    4  C19 UNL     1      28.425  17.754  -4.388  1.00  0.00     0.193 C 
HETATM    5  C22 UNL     1      27.303  16.836  -3.883  1.00  0.00     0.193 C 
HETATM    6  C25 UNL     1      27.756  16.432  -2.513  1.00  0.00     0.161 C 
ENDROOT
BRANCH   1   7
HETATM    7  C11 UNL     1      28.158  14.207  -3.406  1.00  0.00     0.133 C 
HETATM    8  O1  UNL     1      28.030  14.156  -4.617  1.00  0.00    -0.297 OA
BRANCH   7   9
HETATM    9  C10 UNL     1      27.619  13.042  -2.602  1.00  0.00     0.079 C 
BRANCH   9  10
HETATM   10  C9  UNL     1      28.039  11.795  -3.310  1.00  0.00     0.018 C 
BRANCH  10  11
HETATM   11  C8  UNL     1      27.039  10.781  -3.649  1.00  0.00     0.033 C 
HETATM   12  C6  UNL     1      27.090  10.203  -4.995  1.00  0.00     0.020 C 
HETATM   13  S1  UNL     1      28.507   9.046  -5.195  1.00  0.00    -0.148 SA
HETATM   14  C7  UNL     1      27.087  11.130  -6.171  1.00  0.00     0.028 C 
HETATM   15  C30 UNL     1      25.947   9.205  -5.213  1.00  0.00     0.034 C 
HETATM   16  C5  UNL     1      27.697   7.829  -6.257  1.00  0.00     0.080 C 
HETATM   17  C31 UNL     1      26.301   8.327  -6.321  1.00  0.00    -0.069 C 
HETATM   18  C32 UNL     1      25.480   7.977  -7.316  1.00  0.00     0.016 C 
HETATM   19  C29 UNL     1      25.411   8.572  -3.994  1.00  0.00     0.015 C 
HETATM   20  C28 UNL     1      26.320   8.477  -2.828  1.00  0.00     0.034 C 
HETATM   21  C26 UNL     1      27.200   9.643  -2.662  1.00  0.00    -0.084 C 
HETATM   22  C27 UNL     1      28.066   9.623  -1.677  1.00  0.00     0.015 C 
BRANCH  16  23
HETATM   23  C4  UNL     1      27.811   6.426  -5.812  1.00  0.00     0.052 C 
BRANCH  23  24
HETATM   24  C2  UNL     1      28.182   5.487  -6.888  1.00  0.00    -0.092 C 
HETATM   25  C1  UNL     1      27.885   4.204  -6.886  1.00  0.00     0.014 C 
HETATM   26  C3  UNL     1      28.937   5.970  -8.106  1.00  0.00     0.042 C 
ENDBRANCH  23  24
ENDBRANCH  16  23
ENDBRANCH  10  11
ENDBRANCH   9  10
ENDBRANCH   7   9
ENDBRANCH   1   7
BRANCH   6  27
HETATM   27  O8  UNL     1      28.478  17.480  -1.882  1.00  0.00    -0.392 OA
ATOM     28  H8  UNL     1      29.222  17.616  -2.457  1.00  0.00     0.210 HD
ENDBRANCH   6  27
BRANCH   3  29
HETATM   29  O2  UNL     1      30.432  17.194  -5.466  1.00  0.00    -0.313 OA
BRANCH  29  30
HETATM   30  C15 UNL     1      31.747  17.583  -5.648  1.00  0.00     0.259 C 
HETATM   31  O3  UNL     1      32.600  16.646  -5.645  1.00  0.00    -0.265 OA
BRANCH  30  32
HETATM   32  C16 UNL     1      32.138  19.004  -5.838  1.00  0.00     0.111 C 
BRANCH  32  33
HETATM   33  C17 UNL     1      32.765  19.468  -4.534  1.00  0.00     0.005 C 
HETATM   34  C18 UNL     1      31.785  20.247  -3.691  1.00  0.00     0.005 C 
ENDBRANCH  32  33
ENDBRANCH  30  32
ENDBRANCH  29  30
ENDBRANCH   3  29
BRANCH   5  35
HETATM   35  O6  UNL     1      26.122  17.538  -3.966  1.00  0.00    -0.311 OA
BRANCH  35  36
HETATM   36  C23 UNL     1      24.973  17.179  -4.653  1.00  0.00     0.255 C 
HETATM   37  C24 UNL     1      24.782  15.906  -5.365  1.00  0.00     0.126 C 
HETATM   38  O7  UNL     1      24.068  18.019  -4.641  1.00  0.00    -0.266 OA
ENDBRANCH  35  36
ENDBRANCH   5  35
BRANCH   4  39
HETATM   39  O4  UNL     1      28.150  18.232  -5.683  1.00  0.00    -0.311 OA
BRANCH  39  40
HETATM   40  C20 UNL     1      27.999  19.566  -6.019  1.00  0.00     0.255 C 
HETATM   41  C21 UNL     1      29.014  20.336  -6.776  1.00  0.00     0.126 C 
HETATM   42  O5  UNL     1      26.922  20.097  -5.637  1.00  0.00    -0.266 OA
ENDBRANCH  39  40
ENDBRANCH   4  39
TORSDOF 15
ENDMDL
MODEL 5
REMARK VINA RESULT: -7.468977083      1.333      2.136
REMARK  15 active torsions:
REMARK  status: ('A' for Active; 'I' for Inactive)
REMARK    1  A    between atoms: C2_2  and  C4_4 
REMARK    2  A    between atoms: C4_4  and  C5_5 
REMARK    3  A    between atoms: C8_9  and  C9_10 
REMARK    4  A    between atoms: C9_10  and  C10_11 
REMARK    5  A    between atoms: C10_11  and  C11_12 
REMARK    6  A    between atoms: C11_12  and  C12_14 
REMARK    7  A    between atoms: C14_16  and  O2_17 
REMARK    8  A    between atoms: O2_17  and  C15_18 
REMARK    9  A    between atoms: C15_18  and  C16_20 
REMARK   10  A    between atoms: C16_20  and  C17_21 
REMARK   11  A    between atoms: C19_23  and  O4_24 
REMARK   12  A    between atoms: O4_24  and  C20_25 
REMARK   13  A    between atoms: C22_28  and  O6_29 
REMARK   14  A    between atoms: O6_29  and  C23_30 
REMARK   15  A    between atoms: C25_33  and  O8_34 
ROOT
HETATM    1  C12 UNL     1      27.224   4.581  -7.556  1.00  0.00     0.089 C 
HETATM    2  C13 UNL     1      26.042   5.325  -8.104  1.00  0.00     0.050 C 
HETATM    3  C14 UNL     1      26.328   6.561  -8.861  1.00  0.00     0.165 C 
HETATM    4  C19 UNL     1      27.592   7.275  -8.636  1.00  0.00     0.193 C 
HETATM    5  C22 UNL     1      28.531   6.587  -7.633  1.00  0.00     0.193 C 
HETATM    6  C25 UNL     1      28.541   5.155  -8.072  1.00  0.00     0.161 C 
ENDROOT
BRANCH   1   7
HETATM    7  C11 UNL     1      27.248   4.636  -6.079  1.00  0.00     0.133 C 
HETATM    8  O1  UNL     1      28.091   4.034  -5.439  1.00  0.00    -0.297 OA
BRANCH   7   9
HETATM    9  C10 UNL     1      26.229   5.443  -5.300  1.00  0.00     0.079 C 
BRANCH   9  10
HETATM   10  C9  UNL     1      26.931   6.665  -4.804  1.00  0.00     0.018 C 
BRANCH  10  11
HETATM   11  C8  UNL     1      26.287   7.515  -3.801  1.00  0.00     0.033 C 
HETATM   12  C6  UNL     1      27.097   7.947  -2.658  1.00  0.00     0.020 C 
HETATM   13  S1  UNL     1      28.328   9.230  -3.131  1.00  0.00    -0.148 SA
HETATM   14  C7  UNL     1      27.809   6.904  -1.854  1.00  0.00     0.028 C 
HETATM   15  C30 UNL     1      26.266   8.777  -1.674  1.00  0.00     0.034 C 
HETATM   16  C5  UNL     1      28.254  10.224  -1.624  1.00  0.00     0.080 C 
HETATM   17  C31 UNL     1      27.174   9.566  -0.849  1.00  0.00    -0.069 C 
HETATM   18  C32 UNL     1      27.078   9.710   0.476  1.00  0.00     0.016 C 
HETATM   19  C29 UNL     1      25.101   9.473  -2.250  1.00  0.00     0.015 C 
HETATM   20  C28 UNL     1      25.154   9.796  -3.694  1.00  0.00     0.034 C 
HETATM   21  C26 UNL     1      25.807   8.764  -4.512  1.00  0.00    -0.084 C 
HETATM   22  C27 UNL     1      25.934   8.989  -5.798  1.00  0.00     0.015 C 
BRANCH  16  23
HETATM   23  C4  UNL     1      28.044  11.671  -1.831  1.00  0.00     0.052 C 
BRANCH  23  24
HETATM   24  C2  UNL     1      28.509  12.508  -0.709  1.00  0.00    -0.092 C 
HETATM   25  C1  UNL     1      27.948  13.644  -0.350  1.00  0.00     0.014 C 
HETATM   26  C3  UNL     1      29.691  12.081   0.133  1.00  0.00     0.042 C 
ENDBRANCH  23  24
ENDBRANCH  16  23
ENDBRANCH  10  11
ENDBRANCH   9  10
ENDBRANCH   7   9
ENDBRANCH   1   7
BRANCH   6  27
HETATM   27  O8  UNL     1      28.421   5.050  -9.483  1.00  0.00    -0.392 OA
ATOM     28  H8  UNL     1      27.671   5.597  -9.686  1.00  0.00     0.210 HD
ENDBRANCH   6  27
BRANCH   3  29
HETATM   29  O2  UNL     1      25.255   7.481  -8.583  1.00  0.00    -0.313 OA
BRANCH  29  30
HETATM   30  C15 UNL     1      24.356   7.904  -9.546  1.00  0.00     0.259 C 
HETATM   31  O3  UNL     1      23.969   9.106  -9.442  1.00  0.00    -0.265 OA
BRANCH  30  32
HETATM   32  C16 UNL     1      23.876   7.011 -10.633  1.00  0.00     0.111 C 
BRANCH  32  33
HETATM   33  C17 UNL     1      23.230   7.901 -11.682  1.00  0.00     0.005 C 
HETATM   34  C18 UNL     1      23.118   7.200 -13.013  1.00  0.00     0.005 C 
ENDBRANCH  32  33
ENDBRANCH  30  32
ENDBRANCH  29  30
ENDBRANCH   3  29
BRANCH   5  35
HETATM   35  O6  UNL     1      29.734   7.257  -7.664  1.00  0.00    -0.311 OA
BRANCH  35  36
HETATM   36  C23 UNL     1      30.853   6.946  -8.419  1.00  0.00     0.255 C 
HETATM   37  C24 UNL     1      31.962   7.871  -8.702  1.00  0.00     0.126 C 
HETATM   38  O7  UNL     1      30.881   5.796  -8.871  1.00  0.00    -0.266 OA
ENDBRANCH  35  36
ENDBRANCH   5  35
BRANCH   4  39
HETATM   39  O4  UNL     1      27.473   8.650  -8.363  1.00  0.00    -0.311 OA
BRANCH  39  40
HETATM   40  C20 UNL     1      27.854   9.665  -9.225  1.00  0.00     0.255 C 
HETATM   41  C21 UNL     1      26.915  10.684  -9.749  1.00  0.00     0.126 C 
HETATM   42  O5  UNL     1      29.073   9.670  -9.542  1.00  0.00    -0.266 OA
ENDBRANCH  39  40
ENDBRANCH   4  39
TORSDOF 15
ENDMDL
