MODEL 1
REMARK VINA RESULT: -6.526637062      0.000      0.000
REMARK  15 active torsions:
REMARK  status: ('A' for Active; 'I' for Inactive)
REMARK    1  A    between atoms: C2_2  and  C3_3 
REMARK    2  A    between atoms: C6_6  and  O1_7 
REMARK    3  A    between atoms: O1_7  and  C7_8 
REMARK    4  A    between atoms: C7_8  and  C8_10 
REMARK    5  A    between atoms: C11_13  and  C12_14 
REMARK    6  A    between atoms: C12_14  and  C13_15 
REMARK    7  A    between atoms: C12_14  and  C17_19 
REMARK    8  A    between atoms: C13_15  and  C14_16 
REMARK    9  A    between atoms: C14_16  and  C15_17 
REMARK   10  A    between atoms: C22_24  and  O3_25 
REMARK   11  A    between atoms: O3_25  and  C23_26 
REMARK   12  A    between atoms: C23_26  and  C24_28 
REMARK   13  A    between atoms: C30_35  and  O6_36 
REMARK   14  A    between atoms: C33_40  and  O7_41 
REMARK   15  A    between atoms: O7_41  and  C34_42 
ROOT
HETATM    1  C3  UNL     1      29.526   7.620  -7.919  1.00  0.00     0.003 C 
HETATM    2  C4  UNL     1      29.688   8.697  -9.016  1.00  0.00     0.022 C 
HETATM    3  C5  UNL     1      29.190   8.318  -6.701  1.00  0.00     0.053 C 
HETATM    4  C6  UNL     1      27.712   8.694  -6.481  1.00  0.00     0.163 C 
HETATM    5  C11 UNL     1      26.790   7.550  -6.413  1.00  0.00    -0.033 C 
HETATM    6  C20 UNL     1      26.160   7.200  -7.735  1.00  0.00     0.038 C 
HETATM    7  C21 UNL     1      25.445   5.832  -7.578  1.00  0.00     0.028 C 
HETATM    8  C22 UNL     1      25.111   8.058  -8.353  1.00  0.00     0.078 C 
HETATM    9  C28 UNL     1      24.702   7.568  -9.713  1.00  0.00    -0.008 C 
HETATM   10  C29 UNL     1      23.475   7.500 -10.087  1.00  0.00     0.024 C 
HETATM   11  C30 UNL     1      25.711   7.137 -10.685  1.00  0.00     0.153 C 
HETATM   12  C31 UNL     1      26.786   6.336 -10.041  1.00  0.00     0.045 C 
HETATM   13  C32 UNL     1      27.234   7.069  -8.778  1.00  0.00     0.038 C 
HETATM   14  C33 UNL     1      28.581   6.572  -8.441  1.00  0.00     0.148 C 
ENDROOT
BRANCH   5  15
HETATM   15  C12 UNL     1      26.085   7.182  -5.165  1.00  0.00    -0.070 C 
BRANCH  15  16
HETATM   16  C13 UNL     1      25.269   8.245  -4.483  1.00  0.00     0.035 C 
BRANCH  16  17
HETATM   17  C14 UNL     1      25.198   8.107  -2.972  1.00  0.00     0.004 C 
BRANCH  17  18
HETATM   18  C15 UNL     1      25.470   9.449  -2.303  1.00  0.00    -0.004 C 
HETATM   19  C16 UNL     1      26.566   9.207  -1.283  1.00  0.00     0.005 C 
ENDBRANCH  17  18
ENDBRANCH  16  17
ENDBRANCH  15  16
BRANCH  15  20
HETATM   20  C17 UNL     1      26.779   6.432  -4.089  1.00  0.00     0.007 C 
HETATM   21  C18 UNL     1      28.064   6.807  -3.535  1.00  0.00     0.014 C 
HETATM   22  C19 UNL     1      27.032   4.942  -4.510  1.00  0.00     0.014 C 
ENDBRANCH  15  20
ENDBRANCH   5  15
BRANCH   4  23
HETATM   23  O1  UNL     1      27.748   9.602  -5.405  1.00  0.00    -0.311 OA
BRANCH  23  24
HETATM   24  C7  UNL     1      27.158  10.868  -5.419  1.00  0.00     0.263 C 
HETATM   25  O2  UNL     1      26.696  11.205  -6.562  1.00  0.00    -0.265 OA
BRANCH  24  26
HETATM   26  C8  UNL     1      27.042  11.777  -4.291  1.00  0.00     0.077 C 
HETATM   27  C9  UNL     1      28.200  11.834  -3.353  1.00  0.00     0.020 C 
HETATM   28  C10 UNL     1      26.733  13.161  -4.885  1.00  0.00     0.020 C 
ENDBRANCH  24  26
ENDBRANCH  23  24
ENDBRANCH   4  23
BRANCH   8  29
HETATM   29  O3  UNL     1      25.182   9.431  -8.307  1.00  0.00    -0.279 OA
BRANCH  29  30
HETATM   30  C23 UNL     1      24.300  10.367  -8.756  1.00  0.00     0.296 C 
HETATM   31  O4  UNL     1      23.257  10.414  -8.055  1.00  0.00    -0.262 OA
BRANCH  30  32
HETATM   32  C24 UNL     1      24.468  11.264  -9.924  1.00  0.00     0.256 A 
HETATM   33  O5  UNL     1      25.043  10.744 -11.081  1.00  0.00    -0.359 OA
HETATM   34  C25 UNL     1      25.756  11.792 -10.330  1.00  0.00     0.090 A 
HETATM   35  C26 UNL     1      25.792  13.125 -11.047  1.00  0.00     0.049 C 
HETATM   36  C27 UNL     1      27.051  11.270  -9.806  1.00  0.00     0.049 C 
ENDBRANCH  30  32
ENDBRANCH  29  30
ENDBRANCH   8  29
BRANCH   1  37
HETATM   37  C2  UNL     1      30.857   6.963  -7.797  1.00  0.00    -0.025 C 
HETATM   38  C1  UNL     1      31.858   7.182  -8.654  1.00  0.00     0.008 C 
ENDBRANCH   1  37
BRANCH  14  39
HETATM   39  O7  UNL     1      28.712   5.294  -7.909  1.00  0.00    -0.321 OA
BRANCH  39  40
HETATM   40  C34 UNL     1      28.200   4.116  -8.376  1.00  0.00     0.398 C 
HETATM   41  O8  UNL     1      28.135   3.163  -7.544  1.00  0.00    -0.276 OA
ENDBRANCH  39  40
ENDBRANCH  14  39
BRANCH  11  42
HETATM   42  O6  UNL     1      26.227   8.317 -11.273  1.00  0.00    -0.391 OA
ATOM     43  H6  UNL     1      26.955   8.047 -11.820  1.00  0.00     0.210 HD
ENDBRANCH  11  42
TORSDOF 15
ENDMDL
MODEL 2
REMARK VINA RESULT: -6.517492953      0.912      1.561
REMARK  15 active torsions:
REMARK  status: ('A' for Active; 'I' for Inactive)
REMARK    1  A    between atoms: C2_2  and  C3_3 
REMARK    2  A    between atoms: C6_6  and  O1_7 
REMARK    3  A    between atoms: O1_7  and  C7_8 
REMARK    4  A    between atoms: C7_8  and  C8_10 
REMARK    5  A    between atoms: C11_13  and  C12_14 
REMARK    6  A    between atoms: C12_14  and  C13_15 
REMARK    7  A    between atoms: C12_14  and  C17_19 
REMARK    8  A    between atoms: C13_15  and  C14_16 
REMARK    9  A    between atoms: C14_16  and  C15_17 
REMARK   10  A    between atoms: C22_24  and  O3_25 
REMARK   11  A    between atoms: O3_25  and  C23_26 
REMARK   12  A    between atoms: C23_26  and  C24_28 
REMARK   13  A    between atoms: C30_35  and  O6_36 
REMARK   14  A    between atoms: C33_40  and  O7_41 
REMARK   15  A    between atoms: O7_41  and  C34_42 
ROOT
HETATM    1  C3  UNL     1      29.482   7.618  -7.938  1.00  0.00     0.003 C 
HETATM    2  C4  UNL     1      29.621   8.676  -9.056  1.00  0.00     0.022 C 
HETATM    3  C5  UNL     1      29.112   8.330  -6.738  1.00  0.00     0.053 C 
HETATM    4  C6  UNL     1      27.620   8.663  -6.540  1.00  0.00     0.163 C 
HETATM    5  C11 UNL     1      26.734   7.491  -6.457  1.00  0.00    -0.033 C 
HETATM    6  C20 UNL     1      26.129   7.093  -7.777  1.00  0.00     0.038 C 
HETATM    7  C21 UNL     1      25.457   5.706  -7.598  1.00  0.00     0.028 C 
HETATM    8  C22 UNL     1      25.060   7.904  -8.424  1.00  0.00     0.078 C 
HETATM    9  C28 UNL     1      24.681   7.372  -9.777  1.00  0.00    -0.008 C 
HETATM   10  C29 UNL     1      23.461   7.256 -10.162  1.00  0.00     0.024 C 
HETATM   11  C30 UNL     1      25.714   6.954 -10.730  1.00  0.00     0.153 C 
HETATM   12  C31 UNL     1      26.807   6.202 -10.059  1.00  0.00     0.045 C 
HETATM   13  C32 UNL     1      27.218   6.976  -8.807  1.00  0.00     0.038 C 
HETATM   14  C33 UNL     1      28.577   6.530  -8.446  1.00  0.00     0.148 C 
ENDROOT
BRANCH   5  15
HETATM   15  C12 UNL     1      26.029   7.127  -5.208  1.00  0.00    -0.070 C 
BRANCH  15  16
HETATM   16  C13 UNL     1      25.199   8.186  -4.539  1.00  0.00     0.035 C 
BRANCH  16  17
HETATM   17  C14 UNL     1      25.148   8.079  -3.025  1.00  0.00     0.004 C 
BRANCH  17  18
HETATM   18  C15 UNL     1      25.406   9.439  -2.388  1.00  0.00    -0.004 C 
HETATM   19  C16 UNL     1      26.503   9.232  -1.361  1.00  0.00     0.005 C 
ENDBRANCH  17  18
ENDBRANCH  16  17
ENDBRANCH  15  16
BRANCH  15  20
HETATM   20  C17 UNL     1      26.726   6.394  -4.123  1.00  0.00     0.007 C 
HETATM   21  C18 UNL     1      28.008   6.786  -3.571  1.00  0.00     0.014 C 
HETATM   22  C19 UNL     1      26.993   4.901  -4.528  1.00  0.00     0.014 C 
ENDBRANCH  15  20
ENDBRANCH   5  15
BRANCH   4  23
HETATM   23  O1  UNL     1      27.615   9.593  -5.484  1.00  0.00    -0.311 OA
BRANCH  23  24
HETATM   24  C7  UNL     1      27.078  10.881  -5.566  1.00  0.00     0.263 C 
HETATM   25  O2  UNL     1      26.784  11.237  -6.758  1.00  0.00    -0.265 OA
BRANCH  24  26
HETATM   26  C8  UNL     1      26.846  11.790  -4.456  1.00  0.00     0.077 C 
HETATM   27  C9  UNL     1      27.970  11.978  -3.497  1.00  0.00     0.020 C 
HETATM   28  C10 UNL     1      26.411  13.126  -5.081  1.00  0.00     0.020 C 
ENDBRANCH  24  26
ENDBRANCH  23  24
ENDBRANCH   4  23
BRANCH   8  29
HETATM   29  O3  UNL     1      25.086   9.279  -8.406  1.00  0.00    -0.279 OA
BRANCH  29  30
HETATM   30  C23 UNL     1      24.475  10.175  -9.230  1.00  0.00     0.296 C 
HETATM   31  O4  UNL     1      25.249  10.609 -10.121  1.00  0.00    -0.262 OA
BRANCH  30  32
HETATM   32  C24 UNL     1      23.071  10.642  -9.155  1.00  0.00     0.256 A 
HETATM   33  O5  UNL     1      22.831  12.012  -9.063  1.00  0.00    -0.359 OA
HETATM   34  C25 UNL     1      22.473  11.140  -7.931  1.00  0.00     0.090 A 
HETATM   35  C26 UNL     1      20.978  10.981  -7.746  1.00  0.00     0.049 C 
HETATM   36  C27 UNL     1      23.271  11.496  -6.722  1.00  0.00     0.049 C 
ENDBRANCH  30  32
ENDBRANCH  29  30
ENDBRANCH   8  29
BRANCH   1  37
HETATM   37  C2  UNL     1      30.832   7.008  -7.789  1.00  0.00    -0.025 C 
HETATM   38  C1  UNL     1      31.832   7.234  -8.646  1.00  0.00     0.008 C 
ENDBRANCH   1  37
BRANCH  14  39
HETATM   39  O7  UNL     1      28.743   5.267  -7.886  1.00  0.00    -0.321 OA
BRANCH  39  40
HETATM   40  C34 UNL     1      28.256   4.067  -8.321  1.00  0.00     0.398 C 
HETATM   41  O8  UNL     1      28.200   3.139  -7.460  1.00  0.00    -0.276 OA
ENDBRANCH  39  40
ENDBRANCH  14  39
BRANCH  11  42
HETATM   42  O6  UNL     1      26.198   8.138 -11.338  1.00  0.00    -0.391 OA
ATOM     43  H6  UNL     1      26.475   7.894 -12.213  1.00  0.00     0.210 HD
ENDBRANCH  11  42
TORSDOF 15
ENDMDL
MODEL 3
REMARK VINA RESULT: -6.306525689      2.662      6.969
REMARK  15 active torsions:
REMARK  status: ('A' for Active; 'I' for Inactive)
REMARK    1  A    between atoms: C2_2  and  C3_3 
REMARK    2  A    between atoms: C6_6  and  O1_7 
REMARK    3  A    between atoms: O1_7  and  C7_8 
REMARK    4  A    between atoms: C7_8  and  C8_10 
REMARK    5  A    between atoms: C11_13  and  C12_14 
REMARK    6  A    between atoms: C12_14  and  C13_15 
REMARK    7  A    between atoms: C12_14  and  C17_19 
REMARK    8  A    between atoms: C13_15  and  C14_16 
REMARK    9  A    between atoms: C14_16  and  C15_17 
REMARK   10  A    between atoms: C22_24  and  O3_25 
REMARK   11  A    between atoms: O3_25  and  C23_26 
REMARK   12  A    between atoms: C23_26  and  C24_28 
REMARK   13  A    between atoms: C30_35  and  O6_36 
REMARK   14  A    between atoms: C33_40  and  O7_41 
REMARK   15  A    between atoms: O7_41  and  C34_42 
ROOT
HETATM    1  C3  UNL     1      23.000  10.617 -10.325  1.00  0.00     0.003 C 
HETATM    2  C4  UNL     1      22.585   9.140 -10.141  1.00  0.00     0.022 C 
HETATM    3  C5  UNL     1      22.464  11.342  -9.198  1.00  0.00     0.053 C 
HETATM    4  C6  UNL     1      23.279  11.328  -7.891  1.00  0.00     0.163 C 
HETATM    5  C11 UNL     1      24.621  11.924  -7.996  1.00  0.00    -0.033 C 
HETATM    6  C20 UNL     1      25.706  10.924  -8.294  1.00  0.00     0.038 C 
HETATM    7  C21 UNL     1      26.996  11.709  -8.649  1.00  0.00     0.028 C 
HETATM    8  C22 UNL     1      26.177   9.950  -7.269  1.00  0.00     0.078 C 
HETATM    9  C28 UNL     1      27.191   8.989  -7.820  1.00  0.00    -0.008 C 
HETATM   10  C29 UNL     1      28.264   8.673  -7.188  1.00  0.00     0.024 C 
HETATM   11  C30 UNL     1      26.991   8.363  -9.130  1.00  0.00     0.153 C 
HETATM   12  C31 UNL     1      26.460   9.331 -10.126  1.00  0.00     0.045 C 
HETATM   13  C32 UNL     1      25.303  10.092  -9.479  1.00  0.00     0.038 C 
HETATM   14  C33 UNL     1      24.484  10.650 -10.572  1.00  0.00     0.148 C 
ENDROOT
BRANCH   5  15
HETATM   15  C12 UNL     1      24.977  13.182  -7.304  1.00  0.00    -0.070 C 
BRANCH  15  16
HETATM   16  C13 UNL     1      25.010  13.169  -5.801  1.00  0.00     0.035 C 
BRANCH  16  17
HETATM   17  C14 UNL     1      26.399  13.026  -5.206  1.00  0.00     0.004 C 
BRANCH  17  18
HETATM   18  C15 UNL     1      26.886  14.366  -4.667  1.00  0.00    -0.004 C 
HETATM   19  C16 UNL     1      27.790  14.054  -3.490  1.00  0.00     0.005 C 
ENDBRANCH  17  18
ENDBRANCH  16  17
ENDBRANCH  15  16
BRANCH  15  20
HETATM   20  C17 UNL     1      24.359  14.471  -7.698  1.00  0.00     0.007 C 
HETATM   21  C18 UNL     1      23.190  15.042  -7.059  1.00  0.00     0.014 C 
HETATM   22  C19 UNL     1      23.924  14.454  -9.206  1.00  0.00     0.014 C 
ENDBRANCH  15  20
ENDBRANCH   5  15
BRANCH   4  23
HETATM   23  O1  UNL     1      22.386  11.833  -6.927  1.00  0.00    -0.311 OA
BRANCH  23  24
HETATM   24  C7  UNL     1      20.997  11.866  -7.076  1.00  0.00     0.263 C 
HETATM   25  O2  UNL     1      20.479  10.721  -7.310  1.00  0.00    -0.265 OA
BRANCH  24  26
HETATM   26  C8  UNL     1      20.150  13.045  -6.991  1.00  0.00     0.077 C 
HETATM   27  C9  UNL     1      19.875  13.767  -8.266  1.00  0.00     0.020 C 
HETATM   28  C10 UNL     1      18.847  12.588  -6.313  1.00  0.00     0.020 C 
ENDBRANCH  24  26
ENDBRANCH  23  24
ENDBRANCH   4  23
BRANCH   8  29
HETATM   29  O3  UNL     1      25.301   9.330  -6.408  1.00  0.00    -0.279 OA
BRANCH  29  30
HETATM   30  C23 UNL     1      25.286   9.305  -5.046  1.00  0.00     0.296 C 
HETATM   31  O4  UNL     1      24.463  10.124  -4.564  1.00  0.00    -0.262 OA
BRANCH  30  32
HETATM   32  C24 UNL     1      26.110   8.449  -4.161  1.00  0.00     0.256 A 
HETATM   33  O5  UNL     1      26.217   8.795  -2.816  1.00  0.00    -0.359 OA
HETATM   34  C25 UNL     1      27.415   8.850  -3.671  1.00  0.00     0.090 A 
HETATM   35  C26 UNL     1      28.427   7.769  -3.356  1.00  0.00     0.049 C 
HETATM   36  C27 UNL     1      27.925  10.248  -3.769  1.00  0.00     0.049 C 
ENDBRANCH  30  32
ENDBRANCH  29  30
ENDBRANCH   8  29
BRANCH   1  37
HETATM   37  C2  UNL     1      22.354  11.063 -11.591  1.00  0.00    -0.025 C 
HETATM   38  C1  UNL     1      21.466  12.061 -11.642  1.00  0.00     0.008 C 
ENDBRANCH   1  37
BRANCH  14  39
HETATM   39  O7  UNL     1      24.974  11.734 -11.291  1.00  0.00    -0.321 OA
BRANCH  39  40
HETATM   40  C34 UNL     1      25.591  11.745 -12.510  1.00  0.00     0.398 C 
HETATM   41  O8  UNL     1      26.852  11.859 -12.500  1.00  0.00    -0.276 OA
ENDBRANCH  39  40
ENDBRANCH  14  39
BRANCH  11  42
HETATM   42  O6  UNL     1      26.093   7.287  -8.924  1.00  0.00    -0.391 OA
ATOM     43  H6  UNL     1      25.231   7.674  -8.827  1.00  0.00     0.210 HD
ENDBRANCH  11  42
TORSDOF 15
ENDMDL
MODEL 4
REMARK VINA RESULT: -6.122351641      2.336      6.735
REMARK  15 active torsions:
REMARK  status: ('A' for Active; 'I' for Inactive)
REMARK    1  A    between atoms: C2_2  and  C3_3 
REMARK    2  A    between atoms: C6_6  and  O1_7 
REMARK    3  A    between atoms: O1_7  and  C7_8 
REMARK    4  A    between atoms: C7_8  and  C8_10 
REMARK    5  A    between atoms: C11_13  and  C12_14 
REMARK    6  A    between atoms: C12_14  and  C13_15 
REMARK    7  A    between atoms: C12_14  and  C17_19 
REMARK    8  A    between atoms: C13_15  and  C14_16 
REMARK    9  A    between atoms: C14_16  and  C15_17 
REMARK   10  A    between atoms: C22_24  and  O3_25 
REMARK   11  A    between atoms: O3_25  and  C23_26 
REMARK   12  A    between atoms: C23_26  and  C24_28 
REMARK   13  A    between atoms: C30_35  and  O6_36 
REMARK   14  A    between atoms: C33_40  and  O7_41 
REMARK   15  A    between atoms: O7_41  and  C34_42 
ROOT
HETATM    1  C3  UNL     1      23.625   9.217 -11.256  1.00  0.00     0.003 C 
HETATM    2  C4  UNL     1      23.003   7.974 -10.581  1.00  0.00     0.022 C 
HETATM    3  C5  UNL     1      22.961  10.370 -10.693  1.00  0.00     0.053 C 
HETATM    4  C6  UNL     1      23.483  10.903  -9.345  1.00  0.00     0.163 C 
HETATM    5  C11 UNL     1      24.880  11.364  -9.365  1.00  0.00    -0.033 C 
HETATM    6  C20 UNL     1      25.873  10.309  -8.955  1.00  0.00     0.038 C 
HETATM    7  C21 UNL     1      27.295  10.834  -9.285  1.00  0.00     0.028 C 
HETATM    8  C22 UNL     1      26.000   9.862  -7.539  1.00  0.00     0.078 C 
HETATM    9  C28 UNL     1      26.980   8.734  -7.384  1.00  0.00    -0.008 C 
HETATM   10  C29 UNL     1      27.854   8.698  -6.442  1.00  0.00     0.024 C 
HETATM   11  C30 UNL     1      26.978   7.609  -8.323  1.00  0.00     0.153 C 
HETATM   12  C31 UNL     1      26.785   8.065  -9.725  1.00  0.00     0.045 C 
HETATM   13  C32 UNL     1      25.622   9.056  -9.747  1.00  0.00     0.038 C 
HETATM   14  C33 UNL     1      25.119   9.107 -11.133  1.00  0.00     0.148 C 
ENDROOT
BRANCH   5  15
HETATM   15  C12 UNL     1      25.239  12.789  -9.194  1.00  0.00    -0.070 C 
BRANCH  15  16
HETATM   16  C13 UNL     1      24.879  13.450  -7.893  1.00  0.00     0.035 C 
BRANCH  16  17
HETATM   17  C14 UNL     1      25.943  13.335  -6.815  1.00  0.00     0.004 C 
BRANCH  17  18
HETATM   18  C15 UNL     1      25.548  14.150  -5.590  1.00  0.00    -0.004 C 
HETATM   19  C16 UNL     1      26.831  14.440  -4.835  1.00  0.00     0.005 C 
ENDBRANCH  17  18
ENDBRANCH  16  17
ENDBRANCH  15  16
BRANCH  15  20
HETATM   20  C17 UNL     1      24.955  13.781 -10.259  1.00  0.00     0.007 C 
HETATM   21  C18 UNL     1      25.974  14.539 -10.957  1.00  0.00     0.014 C 
HETATM   22  C19 UNL     1      24.009  14.919  -9.736  1.00  0.00     0.014 C 
ENDBRANCH  15  20
ENDBRANCH   5  15
BRANCH   4  23
HETATM   23  O1  UNL     1      22.480  11.794  -8.920  1.00  0.00    -0.311 OA
BRANCH  23  24
HETATM   24  C7  UNL     1      21.636  11.572  -7.829  1.00  0.00     0.263 C 
HETATM   25  O2  UNL     1      21.158  10.388  -7.784  1.00  0.00    -0.265 OA
BRANCH  24  26
HETATM   26  C8  UNL     1      21.283  12.539  -6.802  1.00  0.00     0.077 C 
HETATM   27  C9  UNL     1      21.411  13.979  -7.164  1.00  0.00     0.020 C 
HETATM   28  C10 UNL     1      19.848  12.196  -6.366  1.00  0.00     0.020 C 
ENDBRANCH  24  26
ENDBRANCH  23  24
ENDBRANCH   4  23
BRANCH   8  29
HETATM   29  O3  UNL     1      24.898   9.694  -6.734  1.00  0.00    -0.279 OA
BRANCH  29  30
HETATM   30  C23 UNL     1      24.714  10.024  -5.425  1.00  0.00     0.296 C 
HETATM   31  O4  UNL     1      24.059  11.090  -5.291  1.00  0.00    -0.262 OA
BRANCH  30  32
HETATM   32  C24 UNL     1      25.195   9.277  -4.240  1.00  0.00     0.256 A 
HETATM   33  O5  UNL     1      24.963   9.815  -2.977  1.00  0.00    -0.359 OA
HETATM   34  C25 UNL     1      26.348   9.693  -3.464  1.00  0.00     0.090 A 
HETATM   35  C26 UNL     1      27.147   8.630  -2.739  1.00  0.00     0.049 C 
HETATM   36  C27 UNL     1      26.976  11.038  -3.599  1.00  0.00     0.049 C 
ENDBRANCH  30  32
ENDBRANCH  29  30
ENDBRANCH   8  29
BRANCH   1  37
HETATM   37  C2  UNL     1      23.311   9.089 -12.706  1.00  0.00    -0.025 C 
HETATM   38  C1  UNL     1      22.728   8.008 -13.232  1.00  0.00     0.008 C 
ENDBRANCH   1  37
BRANCH  14  39
HETATM   39  O7  UNL     1      25.876   9.763 -12.098  1.00  0.00    -0.321 OA
BRANCH  39  40
HETATM   40  C34 UNL     1      25.722  11.027 -12.593  1.00  0.00     0.398 C 
HETATM   41  O8  UNL     1      26.783  11.699 -12.757  1.00  0.00    -0.276 OA
ENDBRANCH  39  40
ENDBRANCH  14  39
BRANCH  11  42
HETATM   42  O6  UNL     1      25.932   6.748  -7.910  1.00  0.00    -0.391 OA
ATOM     43  H6  UNL     1      25.499   7.183  -7.185  1.00  0.00     0.210 HD
ENDBRANCH  11  42
TORSDOF 15
ENDMDL
MODEL 5
REMARK VINA RESULT: -6.006546520      1.923      5.945
REMARK  15 active torsions:
REMARK  status: ('A' for Active; 'I' for Inactive)
REMARK    1  A    between atoms: C2_2  and  C3_3 
REMARK    2  A    between atoms: C6_6  and  O1_7 
REMARK    3  A    between atoms: O1_7  and  C7_8 
REMARK    4  A    between atoms: C7_8  and  C8_10 
REMARK    5  A    between atoms: C11_13  and  C12_14 
REMARK    6  A    between atoms: C12_14  and  C13_15 
REMARK    7  A    between atoms: C12_14  and  C17_19 
REMARK    8  A    between atoms: C13_15  and  C14_16 
REMARK    9  A    between atoms: C14_16  and  C15_17 
REMARK   10  A    between atoms: C22_24  and  O3_25 
REMARK   11  A    between atoms: O3_25  and  C23_26 
REMARK   12  A    between atoms: C23_26  and  C24_28 
REMARK   13  A    between atoms: C30_35  and  O6_36 
REMARK   14  A    between atoms: C33_40  and  O7_41 
REMARK   15  A    between atoms: O7_41  and  C34_42 
ROOT
HETATM    1  C3  UNL     1      25.808   9.704  -3.871  1.00  0.00     0.003 C 
HETATM    2  C4  UNL     1      24.300   9.893  -3.589  1.00  0.00     0.022 C 
HETATM    3  C5  UNL     1      25.944   8.451  -4.574  1.00  0.00     0.053 C 
HETATM    4  C6  UNL     1      25.711   8.461  -6.097  1.00  0.00     0.163 C 
HETATM    5  C11 UNL     1      26.642   9.312  -6.855  1.00  0.00    -0.033 C 
HETATM    6  C20 UNL     1      26.127  10.705  -7.101  1.00  0.00     0.038 C 
HETATM    7  C21 UNL     1      27.299  11.559  -7.653  1.00  0.00     0.028 C 
HETATM    8  C22 UNL     1      25.030  10.974  -8.073  1.00  0.00     0.078 C 
HETATM    9  C28 UNL     1      24.615  12.417  -8.078  1.00  0.00    -0.008 C 
HETATM   10  C29 UNL     1      24.404  13.075  -9.162  1.00  0.00     0.024 C 
HETATM   11  C30 UNL     1      24.433  13.146  -6.820  1.00  0.00     0.153 C 
HETATM   12  C31 UNL     1      25.500  12.818  -5.837  1.00  0.00     0.045 C 
HETATM   13  C32 UNL     1      25.663  11.299  -5.801  1.00  0.00     0.038 C 
HETATM   14  C33 UNL     1      26.315  10.962  -4.522  1.00  0.00     0.148 C 
ENDROOT
BRANCH   5  15
HETATM   15  C12 UNL     1      27.644   8.745  -7.786  1.00  0.00    -0.070 C 
BRANCH  15  16
HETATM   16  C13 UNL     1      27.138   7.988  -8.982  1.00  0.00     0.035 C 
BRANCH  16  17
HETATM   17  C14 UNL     1      27.447   6.501  -8.959  1.00  0.00     0.004 C 
BRANCH  17  18
HETATM   18  C15 UNL     1      26.511   5.751  -9.899  1.00  0.00    -0.004 C 
HETATM   19  C16 UNL     1      26.971   4.306  -9.900  1.00  0.00     0.005 C 
ENDBRANCH  17  18
ENDBRANCH  16  17
ENDBRANCH  15  16
BRANCH  15  20
HETATM   20  C17 UNL     1      28.816   7.990  -7.278  1.00  0.00     0.007 C 
HETATM   21  C18 UNL     1      29.409   8.192  -5.971  1.00  0.00     0.014 C 
HETATM   22  C19 UNL     1      30.055   8.164  -8.224  1.00  0.00     0.014 C 
ENDBRANCH  15  20
ENDBRANCH   5  15
BRANCH   4  23
HETATM   23  O1  UNL     1      25.608   7.098  -6.436  1.00  0.00    -0.311 OA
BRANCH  23  24
HETATM   24  C7  UNL     1      25.910   6.044  -5.570  1.00  0.00     0.263 C 
HETATM   25  O2  UNL     1      24.877   5.444  -5.113  1.00  0.00    -0.265 OA
BRANCH  24  26
HETATM   26  C8  UNL     1      27.239   5.608  -5.174  1.00  0.00     0.077 C 
HETATM   27  C9  UNL     1      27.410   5.178  -3.758  1.00  0.00     0.020 C 
HETATM   28  C10 UNL     1      27.632   4.488  -6.153  1.00  0.00     0.020 C 
ENDBRANCH  24  26
ENDBRANCH  23  24
ENDBRANCH   4  23
BRANCH   8  29
HETATM   29  O3  UNL     1      23.948  10.132  -8.190  1.00  0.00    -0.279 OA
BRANCH  29  30
HETATM   30  C23 UNL     1      22.798  10.282  -8.905  1.00  0.00     0.296 C 
HETATM   31  O4  UNL     1      21.829  10.629  -8.181  1.00  0.00    -0.262 OA
BRANCH  30  32
HETATM   32  C24 UNL     1      22.620  10.078 -10.361  1.00  0.00     0.256 A 
HETATM   33  O5  UNL     1      21.672   9.152 -10.790  1.00  0.00    -0.359 OA
HETATM   34  C25 UNL     1      23.098   8.896 -11.053  1.00  0.00     0.090 A 
HETATM   35  C26 UNL     1      23.471   9.022 -12.516  1.00  0.00     0.049 C 
HETATM   36  C27 UNL     1      23.549   7.664 -10.343  1.00  0.00     0.049 C 
ENDBRANCH  30  32
ENDBRANCH  29  30
ENDBRANCH   8  29
BRANCH   1  37
HETATM   37  C2  UNL     1      26.462   9.629  -2.535  1.00  0.00    -0.025 C 
HETATM   38  C1  UNL     1      27.158   8.564  -2.124  1.00  0.00     0.008 C 
ENDBRANCH   1  37
BRANCH  14  39
HETATM   39  O7  UNL     1      27.666  11.248  -4.360  1.00  0.00    -0.321 OA
BRANCH  39  40
HETATM   40  C34 UNL     1      28.257  12.145  -3.516  1.00  0.00     0.398 C 
HETATM   41  O8  UNL     1      27.489  12.994  -2.973  1.00  0.00    -0.276 OA
ENDBRANCH  39  40
ENDBRANCH  14  39
BRANCH  11  42
HETATM   42  O6  UNL     1      23.153  12.787  -6.333  1.00  0.00    -0.391 OA
ATOM     43  H6  UNL     1      22.772  13.580  -5.974  1.00  0.00     0.210 HD
ENDBRANCH  11  42
TORSDOF 15
ENDMDL
