MODEL 1
REMARK VINA RESULT: -6.528360390      0.000      0.000
REMARK  10 active torsions:
REMARK  status: ('A' for Active; 'I' for Inactive)
REMARK    1  A    between atoms: N1_2  and  C2_3 
REMARK    2  A    between atoms: N1_2  and  C7_13 
REMARK    3  A    between atoms: C2_3  and  O1_4 
REMARK    4  A    between atoms: O1_4  and  C3_5 
REMARK    5  A    between atoms: C3_5  and  C4_6 
REMARK    6  A    between atoms: C4_6  and  C5_7 
REMARK    7  A    between atoms: C5_7  and  C6_8 
REMARK    8  A    between atoms: C6_8  and  N2_9 
REMARK    9  A    between atoms: C7_13  and  C8_14 
REMARK   10  A    between atoms: C11_18  and  N4_19 
REMARK       I    between atoms: N4_19  and  C12_21 
ROOT
HETATM    1  C8  UNL     1      -3.425 -29.323  15.668  1.00  0.00     0.148 A 
HETATM    2  C9  UNL     1      -4.269 -29.633  16.848  1.00  0.00     0.028 A 
HETATM    3  C10 UNL     1      -4.583 -28.817  17.805  1.00  0.00     0.054 A 
HETATM    4  N3  UNL     1      -5.419 -29.343  18.853  1.00  0.00    -0.105 NA
HETATM    5  C11 UNL     1      -4.126 -27.425  17.854  1.00  0.00     0.223 A 
HETATM    6  C13 UNL     1      -3.359 -27.026  16.677  1.00  0.00     0.246 A 
HETATM    7  O2  UNL     1      -3.000 -25.827  16.558  1.00  0.00    -0.271 OA
HETATM    8  N7  UNL     1      -3.006 -27.949  15.660  1.00  0.00    -0.347 N 
ATOM      9  H7  UNL     1      -2.428 -27.622  14.886  1.00  0.00     0.163 HD
ENDROOT
BRANCH   1  10
HETATM   10  C7  UNL     1      -2.253 -30.279  15.632  1.00  0.00     0.094 C 
BRANCH  10  11
HETATM   11  N1  UNL     1      -2.124 -31.021  14.449  1.00  0.00    -0.354 N 
HETATM   12  C1  UNL     1      -2.996 -30.769  13.371  1.00  0.00     0.156 C 
BRANCH  11  13
HETATM   13  C2  UNL     1      -1.000 -31.839  14.242  1.00  0.00     0.227 C 
BRANCH  13  14
HETATM   14  O1  UNL     1      -0.132 -31.251  13.286  1.00  0.00    -0.346 OA
BRANCH  14  15
HETATM   15  C3  UNL     1       0.595 -32.326  12.756  1.00  0.00     0.176 C 
BRANCH  15  16
HETATM   16  C4  UNL     1       1.889 -31.847  12.133  1.00  0.00     0.028 C 
BRANCH  16  17
HETATM   17  C5  UNL     1       2.278 -32.715  10.955  1.00  0.00     0.029 C 
BRANCH  17  18
HETATM   18  C6  UNL     1       2.859 -31.934   9.826  1.00  0.00     0.230 C 
BRANCH  18  19
HETATM   19  N2  UNL     1       3.889 -32.623   9.109  1.00  0.00    -0.079 N 
ATOM     20  H23 UNL     1       3.702 -33.626   9.091  1.00  0.00     0.274 HD
ATOM     21  H22 UNL     1       3.828 -32.419   8.112  1.00  0.00     0.274 HD
ATOM     22  H21 UNL     1       4.831 -32.440   9.455  1.00  0.00     0.274 HD
ENDBRANCH  18  19
ENDBRANCH  17  18
ENDBRANCH  16  17
ENDBRANCH  15  16
ENDBRANCH  14  15
ENDBRANCH  13  14
ENDBRANCH  11  13
ENDBRANCH  10  11
ENDBRANCH   1  10
BRANCH   5  23
HETATM   23  N4  UNL     1      -5.271 -26.528  18.061  1.00  0.00    -0.347 N 
HETATM   24  C12 UNL     1      -5.354 -25.854  19.304  1.00  0.00     0.182 C 
HETATM   25  N5  UNL     1      -5.185 -26.569  20.385  1.00  0.00    -0.374 N 
HETATM   26  N6  UNL     1      -5.609 -24.471  19.414  1.00  0.00    -0.064 NA
ATOM     27  H52 UNL     1      -5.001 -27.568  20.305  1.00  0.00     0.158 HD
ATOM     28  H51 UNL     1      -5.245 -26.083  21.281  1.00  0.00     0.158 HD
ATOM     29  H4  UNL     1      -5.978 -26.397  17.338  1.00  0.00     0.163 HD
ENDBRANCH   5  23
TORSDOF 10
ENDMDL
MODEL 2
REMARK VINA RESULT: -6.515184439      1.645      2.158
REMARK  10 active torsions:
REMARK  status: ('A' for Active; 'I' for Inactive)
REMARK    1  A    between atoms: N1_2  and  C2_3 
REMARK    2  A    between atoms: N1_2  and  C7_13 
REMARK    3  A    between atoms: C2_3  and  O1_4 
REMARK    4  A    between atoms: O1_4  and  C3_5 
REMARK    5  A    between atoms: C3_5  and  C4_6 
REMARK    6  A    between atoms: C4_6  and  C5_7 
REMARK    7  A    between atoms: C5_7  and  C6_8 
REMARK    8  A    between atoms: C6_8  and  N2_9 
REMARK    9  A    between atoms: C7_13  and  C8_14 
REMARK   10  A    between atoms: C11_18  and  N4_19 
REMARK       I    between atoms: N4_19  and  C12_21 
ROOT
HETATM    1  C8  UNL     1      -2.900 -29.883  16.051  1.00  0.00     0.148 A 
HETATM    2  C9  UNL     1      -2.894 -28.400  16.074  1.00  0.00     0.028 A 
HETATM    3  C10 UNL     1      -3.656 -27.640  16.797  1.00  0.00     0.054 A 
HETATM    4  N3  UNL     1      -3.471 -26.219  16.652  1.00  0.00    -0.105 NA
HETATM    5  C11 UNL     1      -4.666 -28.163  17.722  1.00  0.00     0.223 A 
HETATM    6  C13 UNL     1      -4.667 -29.620  17.812  1.00  0.00     0.246 A 
HETATM    7  O2  UNL     1      -5.420 -30.181  18.649  1.00  0.00    -0.271 OA
HETATM    8  N7  UNL     1      -3.843 -30.427  16.987  1.00  0.00    -0.347 N 
ATOM      9  H7  UNL     1      -3.923 -31.441  17.062  1.00  0.00     0.163 HD
ENDROOT
BRANCH   1  10
HETATM   10  C7  UNL     1      -3.160 -30.355  14.636  1.00  0.00     0.094 C 
BRANCH  10  11
HETATM   11  N1  UNL     1      -2.286 -31.346  14.167  1.00  0.00    -0.354 N 
HETATM   12  C1  UNL     1      -2.409 -32.666  14.646  1.00  0.00     0.156 C 
BRANCH  11  13
HETATM   13  C2  UNL     1      -1.450 -31.094  13.065  1.00  0.00     0.227 C 
BRANCH  13  14
HETATM   14  O1  UNL     1      -0.100 -31.368  13.399  1.00  0.00    -0.346 OA
BRANCH  14  15
HETATM   15  C3  UNL     1       0.379 -32.146  12.336  1.00  0.00     0.176 C 
BRANCH  15  16
HETATM   16  C4  UNL     1       1.873 -31.971  12.168  1.00  0.00     0.028 C 
BRANCH  16  17
HETATM   17  C5  UNL     1       2.244 -31.843  10.706  1.00  0.00     0.029 C 
BRANCH  17  18
HETATM   18  C6  UNL     1       3.060 -32.988  10.212  1.00  0.00     0.230 C 
BRANCH  18  19
HETATM   19  N2  UNL     1       3.876 -32.677   9.077  1.00  0.00    -0.079 N 
ATOM     20  H23 UNL     1       3.720 -33.351   8.329  1.00  0.00     0.274 HD
ATOM     21  H22 UNL     1       3.542 -31.829   8.618  1.00  0.00     0.274 HD
ATOM     22  H21 UNL     1       4.871 -32.601   9.290  1.00  0.00     0.274 HD
ENDBRANCH  18  19
ENDBRANCH  17  18
ENDBRANCH  16  17
ENDBRANCH  15  16
ENDBRANCH  14  15
ENDBRANCH  13  14
ENDBRANCH  11  13
ENDBRANCH  10  11
ENDBRANCH   1  10
BRANCH   5  23
HETATM   23  N4  UNL     1      -4.493 -27.556  19.048  1.00  0.00    -0.347 N 
HETATM   24  C12 UNL     1      -5.543 -26.738  19.532  1.00  0.00     0.182 C 
HETATM   25  N5  UNL     1      -6.020 -25.832  18.719  1.00  0.00    -0.374 N 
HETATM   26  N6  UNL     1      -6.080 -26.862  20.830  1.00  0.00    -0.064 NA
ATOM     27  H52 UNL     1      -5.631 -25.742  17.781  1.00  0.00     0.158 HD
ATOM     28  H51 UNL     1      -6.777 -25.243  19.068  1.00  0.00     0.158 HD
ATOM     29  H4  UNL     1      -3.650 -27.717  19.599  1.00  0.00     0.163 HD
ENDBRANCH   5  23
TORSDOF 10
ENDMDL
MODEL 3
REMARK VINA RESULT: -6.411623882      3.138      4.147
REMARK  10 active torsions:
REMARK  status: ('A' for Active; 'I' for Inactive)
REMARK    1  A    between atoms: N1_2  and  C2_3 
REMARK    2  A    between atoms: N1_2  and  C7_13 
REMARK    3  A    between atoms: C2_3  and  O1_4 
REMARK    4  A    between atoms: O1_4  and  C3_5 
REMARK    5  A    between atoms: C3_5  and  C4_6 
REMARK    6  A    between atoms: C4_6  and  C5_7 
REMARK    7  A    between atoms: C5_7  and  C6_8 
REMARK    8  A    between atoms: C6_8  and  N2_9 
REMARK    9  A    between atoms: C7_13  and  C8_14 
REMARK   10  A    between atoms: C11_18  and  N4_19 
REMARK       I    between atoms: N4_19  and  C12_21 
ROOT
HETATM    1  C8  UNL     1      -3.076 -29.855  15.951  1.00  0.00     0.148 A 
HETATM    2  C9  UNL     1      -3.027 -28.375  16.041  1.00  0.00     0.028 A 
HETATM    3  C10 UNL     1      -3.744 -27.629  16.822  1.00  0.00     0.054 A 
HETATM    4  N3  UNL     1      -3.524 -26.208  16.736  1.00  0.00    -0.105 NA
HETATM    5  C11 UNL     1      -4.739 -28.166  17.755  1.00  0.00     0.223 A 
HETATM    6  C13 UNL     1      -4.779 -29.626  17.780  1.00  0.00     0.246 A 
HETATM    7  O2  UNL     1      -5.521 -30.204  18.614  1.00  0.00    -0.271 OA
HETATM    8  N7  UNL     1      -4.004 -30.416  16.893  1.00  0.00    -0.347 N 
ATOM      9  H7  UNL     1      -4.111 -31.429  16.925  1.00  0.00     0.163 HD
ENDROOT
BRANCH   1  10
HETATM   10  C7  UNL     1      -3.394 -30.254  14.526  1.00  0.00     0.094 C 
BRANCH  10  11
HETATM   11  N1  UNL     1      -2.383 -30.968  13.866  1.00  0.00    -0.354 N 
HETATM   12  C1  UNL     1      -1.618 -31.912  14.581  1.00  0.00     0.156 C 
BRANCH  11  13
HETATM   13  C2  UNL     1      -2.279 -30.923  12.465  1.00  0.00     0.227 C 
BRANCH  13  14
HETATM   14  O1  UNL     1      -3.478 -30.418  11.899  1.00  0.00    -0.346 OA
BRANCH  14  15
HETATM   15  C3  UNL     1      -3.971 -31.469  11.113  1.00  0.00     0.176 C 
BRANCH  15  16
HETATM   16  C4  UNL     1      -3.020 -31.787   9.980  1.00  0.00     0.028 C 
BRANCH  16  17
HETATM   17  C5  UNL     1      -3.777 -32.140   8.717  1.00  0.00     0.029 C 
BRANCH  17  18
HETATM   18  C6  UNL     1      -5.198 -32.507   8.977  1.00  0.00     0.230 C 
BRANCH  18  19
HETATM   19  N2  UNL     1      -6.023 -32.512   7.806  1.00  0.00    -0.079 N 
ATOM     20  H23 UNL     1      -5.689 -31.826   7.130  1.00  0.00     0.274 HD
ATOM     21  H22 UNL     1      -5.877 -33.368   7.270  1.00  0.00     0.274 HD
ATOM     22  H21 UNL     1      -7.016 -32.374   7.996  1.00  0.00     0.274 HD
ENDBRANCH  18  19
ENDBRANCH  17  18
ENDBRANCH  16  17
ENDBRANCH  15  16
ENDBRANCH  14  15
ENDBRANCH  13  14
ENDBRANCH  11  13
ENDBRANCH  10  11
ENDBRANCH   1  10
BRANCH   5  23
HETATM   23  N4  UNL     1      -4.508 -27.626  19.101  1.00  0.00    -0.347 N 
HETATM   24  C12 UNL     1      -5.505 -26.779  19.644  1.00  0.00     0.182 C 
HETATM   25  N5  UNL     1      -5.954 -25.817  18.881  1.00  0.00    -0.374 N 
HETATM   26  N6  UNL     1      -6.019 -26.933  20.948  1.00  0.00    -0.064 NA
ATOM     27  H52 UNL     1      -5.582 -25.706  17.938  1.00  0.00     0.158 HD
ATOM     28  H51 UNL     1      -6.673 -25.207  19.272  1.00  0.00     0.158 HD
ATOM     29  H4  UNL     1      -3.662 -27.851  19.624  1.00  0.00     0.163 HD
ENDBRANCH   5  23
TORSDOF 10
ENDMDL
MODEL 4
REMARK VINA RESULT: -6.365705863      3.238      5.954
REMARK  10 active torsions:
REMARK  status: ('A' for Active; 'I' for Inactive)
REMARK    1  A    between atoms: N1_2  and  C2_3 
REMARK    2  A    between atoms: N1_2  and  C7_13 
REMARK    3  A    between atoms: C2_3  and  O1_4 
REMARK    4  A    between atoms: O1_4  and  C3_5 
REMARK    5  A    between atoms: C3_5  and  C4_6 
REMARK    6  A    between atoms: C4_6  and  C5_7 
REMARK    7  A    between atoms: C5_7  and  C6_8 
REMARK    8  A    between atoms: C6_8  and  N2_9 
REMARK    9  A    between atoms: C7_13  and  C8_14 
REMARK   10  A    between atoms: C11_18  and  N4_19 
REMARK       I    between atoms: N4_19  and  C12_21 
ROOT
HETATM    1  C8  UNL     1      -3.058 -29.806  16.212  1.00  0.00     0.148 A 
HETATM    2  C9  UNL     1      -3.010 -28.324  16.232  1.00  0.00     0.028 A 
HETATM    3  C10 UNL     1      -3.745 -27.541  16.958  1.00  0.00     0.054 A 
HETATM    4  N3  UNL     1      -3.520 -26.126  16.809  1.00  0.00    -0.105 NA
HETATM    5  C11 UNL     1      -4.763 -28.033  17.891  1.00  0.00     0.223 A 
HETATM    6  C13 UNL     1      -4.805 -29.489  17.985  1.00  0.00     0.246 A 
HETATM    7  O2  UNL     1      -5.568 -30.026  18.828  1.00  0.00    -0.271 OA
HETATM    8  N7  UNL     1      -4.010 -30.321  17.156  1.00  0.00    -0.347 N 
ATOM      9  H7  UNL     1      -4.119 -31.332  17.234  1.00  0.00     0.163 HD
ENDROOT
BRANCH   1  10
HETATM   10  C7  UNL     1      -3.342 -30.273  14.801  1.00  0.00     0.094 C 
BRANCH  10  11
HETATM   11  N1  UNL     1      -2.696 -31.460  14.423  1.00  0.00    -0.354 N 
HETATM   12  C1  UNL     1      -1.299 -31.461  14.234  1.00  0.00     0.156 C 
BRANCH  11  13
HETATM   13  C2  UNL     1      -3.382 -32.686  14.459  1.00  0.00     0.227 C 
BRANCH  13  14
HETATM   14  O1  UNL     1      -3.520 -33.134  15.798  1.00  0.00    -0.346 OA
BRANCH  14  15
HETATM   15  C3  UNL     1      -4.765 -33.776  15.833  1.00  0.00     0.176 C 
BRANCH  15  16
HETATM   16  C4  UNL     1      -5.476 -33.504  17.141  1.00  0.00     0.028 C 
BRANCH  16  17
HETATM   17  C5  UNL     1      -6.750 -32.719  16.914  1.00  0.00     0.029 C 
BRANCH  17  18
HETATM   18  C6  UNL     1      -7.774 -32.955  17.972  1.00  0.00     0.230 C 
BRANCH  18  19
HETATM   19  N2  UNL     1      -8.028 -31.816  18.802  1.00  0.00    -0.079 N 
ATOM     20  H23 UNL     1      -7.179 -31.264  18.921  1.00  0.00     0.274 HD
ATOM     21  H22 UNL     1      -8.608 -31.137  18.310  1.00  0.00     0.274 HD
ATOM     22  H21 UNL     1      -8.437 -32.046  19.709  1.00  0.00     0.274 HD
ENDBRANCH  18  19
ENDBRANCH  17  18
ENDBRANCH  16  17
ENDBRANCH  15  16
ENDBRANCH  14  15
ENDBRANCH  13  14
ENDBRANCH  11  13
ENDBRANCH  10  11
ENDBRANCH   1  10
BRANCH   5  23
HETATM   23  N4  UNL     1      -4.563 -27.428  19.215  1.00  0.00    -0.347 N 
HETATM   24  C12 UNL     1      -5.578 -26.565  19.697  1.00  0.00     0.182 C 
HETATM   25  N5  UNL     1      -6.018 -25.643  18.881  1.00  0.00    -0.374 N 
HETATM   26  N6  UNL     1      -6.119 -26.662  20.996  1.00  0.00    -0.064 NA
ATOM     27  H52 UNL     1      -5.627 -25.574  17.941  1.00  0.00     0.158 HD
ATOM     28  H51 UNL     1      -6.749 -25.022  19.228  1.00  0.00     0.158 HD
ATOM     29  H4  UNL     1      -3.727 -27.622  19.766  1.00  0.00     0.163 HD
ENDBRANCH   5  23
TORSDOF 10
ENDMDL
MODEL 5
REMARK VINA RESULT: -6.347316954      3.181      4.260
REMARK  10 active torsions:
REMARK  status: ('A' for Active; 'I' for Inactive)
REMARK    1  A    between atoms: N1_2  and  C2_3 
REMARK    2  A    between atoms: N1_2  and  C7_13 
REMARK    3  A    between atoms: C2_3  and  O1_4 
REMARK    4  A    between atoms: O1_4  and  C3_5 
REMARK    5  A    between atoms: C3_5  and  C4_6 
REMARK    6  A    between atoms: C4_6  and  C5_7 
REMARK    7  A    between atoms: C5_7  and  C6_8 
REMARK    8  A    between atoms: C6_8  and  N2_9 
REMARK    9  A    between atoms: C7_13  and  C8_14 
REMARK   10  A    between atoms: C11_18  and  N4_19 
REMARK       I    between atoms: N4_19  and  C12_21 
ROOT
HETATM    1  C8  UNL     1      -3.090 -29.865  16.285  1.00  0.00     0.148 A 
HETATM    2  C9  UNL     1      -3.013 -28.384  16.283  1.00  0.00     0.028 A 
HETATM    3  C10 UNL     1      -3.742 -27.576  16.988  1.00  0.00     0.054 A 
HETATM    4  N3  UNL     1      -3.488 -26.168  16.821  1.00  0.00    -0.105 NA
HETATM    5  C11 UNL     1      -4.782 -28.034  17.914  1.00  0.00     0.223 A 
HETATM    6  C13 UNL     1      -4.853 -29.487  18.029  1.00  0.00     0.246 A 
HETATM    7  O2  UNL     1      -5.638 -29.996  18.870  1.00  0.00    -0.271 OA
HETATM    8  N7  UNL     1      -4.064 -30.347  17.224  1.00  0.00    -0.347 N 
ATOM      9  H7  UNL     1      -4.193 -31.354  17.316  1.00  0.00     0.163 HD
ENDROOT
BRANCH   1  10
HETATM   10  C7  UNL     1      -3.364 -30.348  14.878  1.00  0.00     0.094 C 
BRANCH  10  11
HETATM   11  N1  UNL     1      -2.781 -31.580  14.545  1.00  0.00    -0.354 N 
HETATM   12  C1  UNL     1      -1.393 -31.653  14.312  1.00  0.00     0.156 C 
BRANCH  11  13
HETATM   13  C2  UNL     1      -3.516 -32.772  14.671  1.00  0.00     0.227 C 
BRANCH  13  14
HETATM   14  O1  UNL     1      -4.902 -32.514  14.515  1.00  0.00    -0.346 OA
BRANCH  14  15
HETATM   15  C3  UNL     1      -5.232 -33.077  13.275  1.00  0.00     0.176 C 
BRANCH  15  16
HETATM   16  C4  UNL     1      -6.177 -32.177  12.507  1.00  0.00     0.028 C 
BRANCH  16  17
HETATM   17  C5  UNL     1      -5.414 -31.121  11.735  1.00  0.00     0.029 C 
BRANCH  17  18
HETATM   18  C6  UNL     1      -4.160 -31.643  11.122  1.00  0.00     0.230 C 
BRANCH  18  19
HETATM   19  N2  UNL     1      -3.062 -30.726  11.169  1.00  0.00    -0.079 N 
ATOM     20  H23 UNL     1      -2.180 -31.215  11.012  1.00  0.00     0.274 HD
ATOM     21  H22 UNL     1      -3.069 -30.117  10.350  1.00  0.00     0.274 HD
ATOM     22  H21 UNL     1      -3.018 -30.173  12.025  1.00  0.00     0.274 HD
ENDBRANCH  18  19
ENDBRANCH  17  18
ENDBRANCH  16  17
ENDBRANCH  15  16
ENDBRANCH  14  15
ENDBRANCH  13  14
ENDBRANCH  11  13
ENDBRANCH  10  11
ENDBRANCH   1  10
BRANCH   5  23
HETATM   23  N4  UNL     1      -4.588 -27.412  19.231  1.00  0.00    -0.347 N 
HETATM   24  C12 UNL     1      -5.599 -26.534  19.692  1.00  0.00     0.182 C 
HETATM   25  N5  UNL     1      -6.023 -25.620  18.860  1.00  0.00    -0.374 N 
HETATM   26  N6  UNL     1      -6.152 -26.608  20.988  1.00  0.00    -0.064 NA
ATOM     27  H52 UNL     1      -5.624 -25.566  17.923  1.00  0.00     0.158 HD
ATOM     28  H51 UNL     1      -6.752 -24.987  19.192  1.00  0.00     0.158 HD
ATOM     29  H4  UNL     1      -3.758 -27.606  19.792  1.00  0.00     0.163 HD
ENDBRANCH   5  23
TORSDOF 10
ENDMDL
