MODEL 1
REMARK VINA RESULT: -5.190290873      0.000      0.000
REMARK  10 active torsions:
REMARK  status: ('A' for Active; 'I' for Inactive)
REMARK    1  A    between atoms: N1_2  and  C2_3 
REMARK    2  A    between atoms: N1_2  and  O1_13 
REMARK    3  A    between atoms: C2_3  and  C3_4 
REMARK    4  A    between atoms: C3_4  and  C4_5 
REMARK    5  A    between atoms: C5_10  and  C6_11 
REMARK    6  A    between atoms: O1_13  and  C7_14 
REMARK    7  A    between atoms: C7_14  and  C8_15 
REMARK    8  A    between atoms: C8_15  and  O2_16 
REMARK    9  A    between atoms: O2_16  and  C9_17 
REMARK   10  A    between atoms: C11_21  and  C12_22 
ROOT
HETATM    1  C1  UNL     1      -6.079 -30.877  22.910  1.00  0.00     0.143 C 
HETATM    2  N1  UNL     1      -6.520 -29.592  22.398  1.00  0.00    -0.201 NA
ENDROOT
BRANCH   2   3
HETATM    3  C2  UNL     1      -5.516 -28.619  22.784  1.00  0.00     0.126 C 
BRANCH   3   4
HETATM    4  C3  UNL     1      -6.128 -27.286  23.147  1.00  0.00     0.077 C 
BRANCH   4   5
HETATM    5  C4  UNL     1      -6.116 -26.454  21.896  1.00  0.00     0.051 A 
HETATM    6  N2  UNL     1      -6.212 -26.652  20.568  1.00  0.00    -0.303 N 
HETATM    7  N3  UNL     1      -6.098 -25.375  20.340  1.00  0.00    -0.302 N 
ATOM      8  H2  UNL     1      -6.328 -27.475  19.976  1.00  0.00     0.186 HD
HETATM    9  C5  UNL     1      -5.995 -25.096  21.650  1.00  0.00     0.059 A 
ATOM     10  H3  UNL     1      -6.089 -24.807  19.493  1.00  0.00     0.186 HD
BRANCH   9  11
HETATM   11  C6  UNL     1      -5.825 -23.899  22.523  1.00  0.00     0.146 C 
HETATM   12  S1  UNL     1      -4.070 -23.637  22.840  1.00  0.00    -0.091 SA
ENDBRANCH   9  11
ENDBRANCH   4   5
ENDBRANCH   3   4
ENDBRANCH   2   3
BRANCH   2  13
HETATM   13  O1  UNL     1      -6.740 -29.614  21.079  1.00  0.00    -0.302 OA
BRANCH  13  14
HETATM   14  C7  UNL     1      -6.217 -30.764  20.489  1.00  0.00     0.220 C 
BRANCH  14  15
HETATM   15  C8  UNL     1      -5.838 -30.511  19.056  1.00  0.00     0.197 C 
BRANCH  15  16
HETATM   16  O2  UNL     1      -5.757 -29.194  18.692  1.00  0.00    -0.376 OA
BRANCH  16  17
HETATM   17  C9  UNL     1      -4.470 -28.725  18.456  1.00  0.00     0.190 A 
HETATM   18  C10 UNL     1      -3.586 -29.627  17.725  1.00  0.00     0.090 A 
HETATM   19  N4  UNL     1      -3.523 -28.882  16.705  1.00  0.00    -0.385 N 
HETATM   20  C11 UNL     1      -4.369 -27.878  17.239  1.00  0.00     0.204 A 
ATOM     21  H4  UNL     1      -3.036 -28.972  15.813  1.00  0.00     0.159 HD
BRANCH  20  22
HETATM   22  C12 UNL     1      -3.721 -26.547  17.415  1.00  0.00     0.256 C 
HETATM   23  N5  UNL     1      -2.445 -26.240  16.874  1.00  0.00    -0.060 NA
HETATM   24  O3  UNL     1      -4.314 -25.651  18.065  1.00  0.00    -0.274 OA
ENDBRANCH  20  22
ENDBRANCH  16  17
ENDBRANCH  15  16
ENDBRANCH  14  15
ENDBRANCH  13  14
ENDBRANCH   2  13
TORSDOF 10
ENDMDL
MODEL 2
REMARK VINA RESULT: -5.104324964      2.854      5.249
REMARK  10 active torsions:
REMARK  status: ('A' for Active; 'I' for Inactive)
REMARK    1  A    between atoms: N1_2  and  C2_3 
REMARK    2  A    between atoms: N1_2  and  O1_13 
REMARK    3  A    between atoms: C2_3  and  C3_4 
REMARK    4  A    between atoms: C3_4  and  C4_5 
REMARK    5  A    between atoms: C5_10  and  C6_11 
REMARK    6  A    between atoms: O1_13  and  C7_14 
REMARK    7  A    between atoms: C7_14  and  C8_15 
REMARK    8  A    between atoms: C8_15  and  O2_16 
REMARK    9  A    between atoms: O2_16  and  C9_17 
REMARK   10  A    between atoms: C11_21  and  C12_22 
ROOT
HETATM    1  C1  UNL     1      -3.211 -26.492  17.206  1.00  0.00     0.143 C 
HETATM    2  N1  UNL     1      -3.990 -27.582  17.764  1.00  0.00    -0.201 NA
ENDROOT
BRANCH   2   3
HETATM    3  C2  UNL     1      -5.198 -26.997  18.314  1.00  0.00     0.126 C 
BRANCH   3   4
HETATM    4  C3  UNL     1      -5.964 -27.978  19.170  1.00  0.00     0.077 C 
BRANCH   4   5
HETATM    5  C4  UNL     1      -5.092 -28.287  20.354  1.00  0.00     0.051 A 
HETATM    6  N2  UNL     1      -3.838 -28.720  20.580  1.00  0.00    -0.303 N 
HETATM    7  N3  UNL     1      -4.020 -28.665  21.868  1.00  0.00    -0.302 N 
ATOM      8  H2  UNL     1      -3.056 -28.985  19.981  1.00  0.00     0.186 HD
HETATM    9  C5  UNL     1      -5.283 -28.229  21.725  1.00  0.00     0.059 A 
ATOM     10  H3  UNL     1      -3.431 -28.873  22.674  1.00  0.00     0.186 HD
BRANCH   9  11
HETATM   11  C6  UNL     1      -6.431 -27.839  22.593  1.00  0.00     0.146 C 
HETATM   12  S1  UNL     1      -7.393 -29.308  23.003  1.00  0.00    -0.091 SA
ENDBRANCH   9  11
ENDBRANCH   4   5
ENDBRANCH   3   4
ENDBRANCH   2   3
BRANCH   2  13
HETATM   13  O1  UNL     1      -4.241 -28.543  16.868  1.00  0.00    -0.302 OA
BRANCH  13  14
HETATM   14  C7  UNL     1      -3.451 -29.671  17.088  1.00  0.00     0.220 C 
BRANCH  14  15
HETATM   15  C8  UNL     1      -4.297 -30.868  17.422  1.00  0.00     0.197 C 
BRANCH  15  16
HETATM   16  O2  UNL     1      -4.287 -31.247  18.737  1.00  0.00    -0.376 OA
BRANCH  16  17
HETATM   17  C9  UNL     1      -5.319 -32.100  19.113  1.00  0.00     0.190 A 
HETATM   18  C10 UNL     1      -5.926 -31.832  20.413  1.00  0.00     0.090 A 
HETATM   19  N4  UNL     1      -7.040 -31.488  19.922  1.00  0.00    -0.385 N 
HETATM   20  C11 UNL     1      -6.642 -31.690  18.576  1.00  0.00     0.204 A 
ATOM     21  H4  UNL     1      -7.914 -31.176  20.344  1.00  0.00     0.159 HD
BRANCH  20  22
HETATM   22  C12 UNL     1      -7.412 -32.741  17.851  1.00  0.00     0.256 C 
HETATM   23  N5  UNL     1      -8.075 -33.803  18.521  1.00  0.00    -0.060 NA
HETATM   24  O3  UNL     1      -7.487 -32.702  16.598  1.00  0.00    -0.274 OA
ENDBRANCH  20  22
ENDBRANCH  16  17
ENDBRANCH  15  16
ENDBRANCH  14  15
ENDBRANCH  13  14
ENDBRANCH   2  13
TORSDOF 10
ENDMDL
MODEL 3
REMARK VINA RESULT: -5.077366633      3.125      5.673
REMARK  10 active torsions:
REMARK  status: ('A' for Active; 'I' for Inactive)
REMARK    1  A    between atoms: N1_2  and  C2_3 
REMARK    2  A    between atoms: N1_2  and  O1_13 
REMARK    3  A    between atoms: C2_3  and  C3_4 
REMARK    4  A    between atoms: C3_4  and  C4_5 
REMARK    5  A    between atoms: C5_10  and  C6_11 
REMARK    6  A    between atoms: O1_13  and  C7_14 
REMARK    7  A    between atoms: C7_14  and  C8_15 
REMARK    8  A    between atoms: C8_15  and  O2_16 
REMARK    9  A    between atoms: O2_16  and  C9_17 
REMARK   10  A    between atoms: C11_21  and  C12_22 
ROOT
HETATM    1  C1  UNL     1      -5.638 -30.406  21.296  1.00  0.00     0.143 C 
HETATM    2  N1  UNL     1      -5.823 -29.160  20.573  1.00  0.00    -0.201 NA
ENDROOT
BRANCH   2   3
HETATM    3  C2  UNL     1      -6.103 -29.512  19.195  1.00  0.00     0.126 C 
BRANCH   3   4
HETATM    4  C3  UNL     1      -4.967 -29.136  18.272  1.00  0.00     0.077 C 
BRANCH   4   5
HETATM    5  C4  UNL     1      -4.823 -27.643  18.356  1.00  0.00     0.051 A 
HETATM    6  N2  UNL     1      -5.280 -26.640  19.129  1.00  0.00    -0.303 N 
HETATM    7  N3  UNL     1      -4.617 -25.762  18.434  1.00  0.00    -0.302 N 
ATOM      8  H2  UNL     1      -5.900 -26.589  19.938  1.00  0.00     0.186 HD
HETATM    9  C5  UNL     1      -4.117 -26.706  17.618  1.00  0.00     0.059 A 
ATOM     10  H3  UNL     1      -4.516 -24.749  18.488  1.00  0.00     0.186 HD
BRANCH   9  11
HETATM   11  C6  UNL     1      -3.212 -26.790  16.436  1.00  0.00     0.146 C 
HETATM   12  S1  UNL     1      -1.515 -27.018  17.000  1.00  0.00    -0.091 SA
ENDBRANCH   9  11
ENDBRANCH   4   5
ENDBRANCH   3   4
ENDBRANCH   2   3
BRANCH   2  13
HETATM   13  O1  UNL     1      -6.773 -28.390  21.116  1.00  0.00    -0.302 OA
BRANCH  13  14
HETATM   14  C7  UNL     1      -6.356 -27.833  22.324  1.00  0.00     0.220 C 
BRANCH  14  15
HETATM   15  C8  UNL     1      -6.800 -26.401  22.442  1.00  0.00     0.197 C 
BRANCH  15  16
HETATM   16  O2  UNL     1      -5.864 -25.464  22.096  1.00  0.00    -0.376 OA
BRANCH  16  17
HETATM   17  C9  UNL     1      -5.313 -24.760  23.161  1.00  0.00     0.190 A 
HETATM   18  C10 UNL     1      -3.887 -24.965  23.392  1.00  0.00     0.090 A 
HETATM   19  N4  UNL     1      -3.574 -23.780  23.077  1.00  0.00    -0.385 N 
HETATM   20  C11 UNL     1      -4.905 -23.377  22.799  1.00  0.00     0.204 A 
ATOM     21  H4  UNL     1      -2.682 -23.289  23.036  1.00  0.00     0.159 HD
BRANCH  20  22
HETATM   22  C12 UNL     1      -5.421 -22.288  23.677  1.00  0.00     0.256 C 
HETATM   23  N5  UNL     1      -4.643 -21.707  24.713  1.00  0.00    -0.060 NA
HETATM   24  O3  UNL     1      -6.588 -21.856  23.508  1.00  0.00    -0.274 OA
ENDBRANCH  20  22
ENDBRANCH  16  17
ENDBRANCH  15  16
ENDBRANCH  14  15
ENDBRANCH  13  14
ENDBRANCH   2  13
TORSDOF 10
ENDMDL
MODEL 4
REMARK VINA RESULT: -5.031322952      2.477      5.288
REMARK  10 active torsions:
REMARK  status: ('A' for Active; 'I' for Inactive)
REMARK    1  A    between atoms: N1_2  and  C2_3 
REMARK    2  A    between atoms: N1_2  and  O1_13 
REMARK    3  A    between atoms: C2_3  and  C3_4 
REMARK    4  A    between atoms: C3_4  and  C4_5 
REMARK    5  A    between atoms: C5_10  and  C6_11 
REMARK    6  A    between atoms: O1_13  and  C7_14 
REMARK    7  A    between atoms: C7_14  and  C8_15 
REMARK    8  A    between atoms: C8_15  and  O2_16 
REMARK    9  A    between atoms: O2_16  and  C9_17 
REMARK   10  A    between atoms: C11_21  and  C12_22 
ROOT
HETATM    1  C1  UNL     1      -5.631 -31.120  20.919  1.00  0.00     0.143 C 
HETATM    2  N1  UNL     1      -5.463 -29.752  20.465  1.00  0.00    -0.201 NA
ENDROOT
BRANCH   2   3
HETATM    3  C2  UNL     1      -6.011 -29.682  19.125  1.00  0.00     0.126 C 
BRANCH   3   4
HETATM    4  C3  UNL     1      -4.975 -29.261  18.109  1.00  0.00     0.077 C 
BRANCH   4   5
HETATM    5  C4  UNL     1      -4.805 -27.776  18.262  1.00  0.00     0.051 A 
HETATM    6  N2  UNL     1      -5.255 -26.800  19.073  1.00  0.00    -0.303 N 
HETATM    7  N3  UNL     1      -4.568 -25.904  18.426  1.00  0.00    -0.302 N 
ATOM      8  H2  UNL     1      -5.885 -26.773  19.875  1.00  0.00     0.186 HD
HETATM    9  C5  UNL     1      -4.073 -26.820  17.575  1.00  0.00     0.059 A 
ATOM     10  H3  UNL     1      -4.449 -24.896  18.526  1.00  0.00     0.186 HD
BRANCH   9  11
HETATM   11  C6  UNL     1      -3.154 -26.869  16.402  1.00  0.00     0.146 C 
HETATM   12  S1  UNL     1      -1.454 -27.009  16.983  1.00  0.00    -0.091 SA
ENDBRANCH   9  11
ENDBRANCH   4   5
ENDBRANCH   3   4
ENDBRANCH   2   3
BRANCH   2  13
HETATM   13  O1  UNL     1      -6.016 -28.865  21.300  1.00  0.00    -0.302 OA
BRANCH  13  14
HETATM   14  C7  UNL     1      -5.168 -28.558  22.362  1.00  0.00     0.220 C 
BRANCH  14  15
HETATM   15  C8  UNL     1      -5.760 -27.486  23.235  1.00  0.00     0.197 C 
BRANCH  15  16
HETATM   16  O2  UNL     1      -7.014 -27.065  22.882  1.00  0.00    -0.376 OA
BRANCH  16  17
HETATM   17  C9  UNL     1      -7.111 -25.721  22.539  1.00  0.00     0.190 A 
HETATM   18  C10 UNL     1      -7.850 -24.876  23.471  1.00  0.00     0.090 A 
HETATM   19  N4  UNL     1      -6.831 -24.214  23.820  1.00  0.00    -0.385 N 
HETATM   20  C11 UNL     1      -5.938 -24.919  22.975  1.00  0.00     0.204 A 
ATOM     21  H4  UNL     1      -6.698 -23.446  24.477  1.00  0.00     0.159 HD
BRANCH  20  22
HETATM   22  C12 UNL     1      -5.284 -24.085  21.926  1.00  0.00     0.256 C 
HETATM   23  N5  UNL     1      -4.502 -22.942  22.235  1.00  0.00    -0.060 NA
HETATM   24  O3  UNL     1      -5.423 -24.391  20.716  1.00  0.00    -0.274 OA
ENDBRANCH  20  22
ENDBRANCH  16  17
ENDBRANCH  15  16
ENDBRANCH  14  15
ENDBRANCH  13  14
ENDBRANCH   2  13
TORSDOF 10
ENDMDL
MODEL 5
REMARK VINA RESULT: -5.010919166      3.914      6.986
REMARK  10 active torsions:
REMARK  status: ('A' for Active; 'I' for Inactive)
REMARK    1  A    between atoms: N1_2  and  C2_3 
REMARK    2  A    between atoms: N1_2  and  O1_13 
REMARK    3  A    between atoms: C2_3  and  C3_4 
REMARK    4  A    between atoms: C3_4  and  C4_5 
REMARK    5  A    between atoms: C5_10  and  C6_11 
REMARK    6  A    between atoms: O1_13  and  C7_14 
REMARK    7  A    between atoms: C7_14  and  C8_15 
REMARK    8  A    between atoms: C8_15  and  O2_16 
REMARK    9  A    between atoms: O2_16  and  C9_17 
REMARK   10  A    between atoms: C11_21  and  C12_22 
ROOT
HETATM    1  C1  UNL     1      -4.933 -27.701  22.395  1.00  0.00     0.143 C 
HETATM    2  N1  UNL     1      -5.479 -27.120  21.182  1.00  0.00    -0.201 NA
ENDROOT
BRANCH   2   3
HETATM    3  C2  UNL     1      -6.432 -28.075  20.651  1.00  0.00     0.126 C 
BRANCH   3   4
HETATM    4  C3  UNL     1      -5.990 -28.636  19.319  1.00  0.00     0.077 C 
BRANCH   4   5
HETATM    5  C4  UNL     1      -5.209 -27.550  18.635  1.00  0.00     0.051 A 
HETATM    6  N2  UNL     1      -5.369 -26.248  18.331  1.00  0.00    -0.303 N 
HETATM    7  N3  UNL     1      -4.197 -26.205  17.767  1.00  0.00    -0.302 N 
ATOM      8  H2  UNL     1      -6.114 -25.567  18.482  1.00  0.00     0.186 HD
HETATM    9  C5  UNL     1      -3.961 -27.501  18.035  1.00  0.00     0.059 A 
ATOM     10  H3  UNL     1      -3.664 -25.470  17.302  1.00  0.00     0.186 HD
BRANCH   9  11
HETATM   11  C6  UNL     1      -2.878 -28.503  17.818  1.00  0.00     0.146 C 
HETATM   12  S1  UNL     1      -3.081 -29.256  16.193  1.00  0.00    -0.091 SA
ENDBRANCH   9  11
ENDBRANCH   4   5
ENDBRANCH   3   4
ENDBRANCH   2   3
BRANCH   2  13
HETATM   13  O1  UNL     1      -6.015 -25.912  21.390  1.00  0.00    -0.302 OA
BRANCH  13  14
HETATM   14  C7  UNL     1      -5.384 -25.241  22.436  1.00  0.00     0.220 C 
BRANCH  14  15
HETATM   15  C8  UNL     1      -4.808 -23.933  21.970  1.00  0.00     0.197 C 
BRANCH  15  16
HETATM   16  O2  UNL     1      -4.175 -23.193  22.932  1.00  0.00    -0.376 OA
BRANCH  16  17
HETATM   17  C9  UNL     1      -4.999 -22.709  23.942  1.00  0.00     0.190 A 
HETATM   18  C10 UNL     1      -4.334 -21.969  25.009  1.00  0.00     0.090 A 
HETATM   19  N4  UNL     1      -4.875 -20.867  24.705  1.00  0.00    -0.385 N 
HETATM   20  C11 UNL     1      -5.614 -21.396  23.617  1.00  0.00     0.204 A 
ATOM     21  H4  UNL     1      -4.804 -19.930  25.101  1.00  0.00     0.159 HD
BRANCH  20  22
HETATM   22  C12 UNL     1      -7.095 -21.307  23.770  1.00  0.00     0.256 C 
HETATM   23  N5  UNL     1      -7.825 -20.126  23.473  1.00  0.00    -0.060 NA
HETATM   24  O3  UNL     1      -7.737 -22.306  24.179  1.00  0.00    -0.274 OA
ENDBRANCH  20  22
ENDBRANCH  16  17
ENDBRANCH  15  16
ENDBRANCH  14  15
ENDBRANCH  13  14
ENDBRANCH   2  13
TORSDOF 10
ENDMDL
