MODEL 1
REMARK VINA RESULT: -8.703941708      0.000      0.000
REMARK  8 active torsions:
REMARK  status: ('A' for Active; 'I' for Inactive)
REMARK    1  A    between atoms: C7_7  and  O1_8 
REMARK    2  A    between atoms: O1_8  and  C8_9 
REMARK       I    between atoms: C8_9  and  N1_11 
REMARK    3  A    between atoms: N1_11  and  C9_13 
REMARK    4  A    between atoms: C16_20  and  C17_21 
REMARK    5  A    between atoms: C17_21  and  O3_22 
REMARK    6  A    between atoms: C17_21  and  N2_24 
REMARK    7  A    between atoms: N2_24  and  C18_25 
REMARK    8  A    between atoms: N2_24  and  S1_31 
ROOT
HETATM    1  C9  UNL     1     134.538  95.223  65.362  1.00  0.00     0.095 C 
HETATM    2  C10 UNL     1     133.226  94.515  65.662  1.00  0.00     0.010 C 
HETATM    3  C11 UNL     1     132.706  93.874  64.403  1.00  0.00     0.011 C 
HETATM    4  C12 UNL     1     133.694  92.801  63.977  1.00  0.00    -0.013 C 
HETATM    5  C13 UNL     1     134.990  93.481  63.627  1.00  0.00     0.011 C 
HETATM    6  C14 UNL     1     135.482  94.151  64.892  1.00  0.00     0.010 C 
HETATM    7  C15 UNL     1     135.684  93.074  65.927  1.00  0.00     0.024 C 
HETATM    8  C16 UNL     1     134.422  92.362  66.292  1.00  0.00     0.027 C 
HETATM    9  C25 UNL     1     133.829  91.748  65.044  1.00  0.00     0.022 C 
HETATM   10  C26 UNL     1     133.485  93.532  66.748  1.00  0.00     0.024 C 
ENDROOT
BRANCH   8  11
HETATM   11  C17 UNL     1     134.458  91.467  67.432  1.00  0.00     0.140 C 
BRANCH  11  12
HETATM   12  O3  UNL     1     133.777  91.975  68.465  1.00  0.00    -0.348 OA
ATOM     13  H3  UNL     1     133.423  91.286  69.014  1.00  0.00     0.219 HD
ENDBRANCH  11  12
BRANCH  11  14
HETATM   14  N2  UNL     1     134.992  90.225  67.757  1.00  0.00    -0.230 N 
BRANCH  14  15
HETATM   15  C18 UNL     1     135.472  89.150  66.983  1.00  0.00     0.008 C 
HETATM   16  C19 UNL     1     134.489  88.366  66.210  1.00  0.00     0.054 C 
HETATM   17  C20 UNL     1     135.117  87.069  65.686  1.00  0.00     0.006 C 
HETATM   18  C21 UNL     1     136.358  87.403  64.905  1.00  0.00     0.001 C 
HETATM   19  C22 UNL     1     137.339  88.090  65.803  1.00  0.00     0.006 C 
HETATM   20  C23 UNL     1     136.731  89.479  66.176  1.00  0.00     0.054 C 
ENDBRANCH  14  15
BRANCH  14  21
HETATM   21  S1  UNL     1     135.048  89.804  69.523  1.00  0.00     0.234 S 
HETATM   22  C24 UNL     1     136.023  88.338  69.728  1.00  0.00     0.186 C 
HETATM   23  O4  UNL     1     135.597  90.986  70.260  1.00  0.00    -0.205 OA
HETATM   24  O5  UNL     1     133.688  89.520  70.020  1.00  0.00    -0.205 OA
ENDBRANCH  14  21
ENDBRANCH  11  14
ENDBRANCH   8  11
BRANCH   1  25
HETATM   25  N1  UNL     1     134.437  96.247  64.376  1.00  0.00    -0.332 N 
HETATM   26  C8  UNL     1     134.509  97.645  64.688  1.00  0.00     0.361 C 
HETATM   27  O2  UNL     1     134.672  97.989  65.882  1.00  0.00    -0.238 OA
ATOM     28  H1  UNL     1     134.306  95.972  63.402  1.00  0.00     0.165 HD
BRANCH  26  29
HETATM   29  O1  UNL     1     134.408  98.630  63.751  1.00  0.00    -0.298 OA
BRANCH  29  30
HETATM   30  C7  UNL     1     135.423  99.084  62.885  1.00  0.00     0.141 C 
HETATM   31  C2  UNL     1     135.064  98.574  61.503  1.00  0.00    -0.021 C 
HETATM   32  C1  UNL     1     134.943  97.072  61.445  1.00  0.00     0.017 C 
HETATM   33  C3  UNL     1     135.980  99.096  60.424  1.00  0.00     0.017 C 
HETATM   34  C4  UNL     1     133.700  99.257  61.326  1.00  0.00     0.011 C 
HETATM   35  C5  UNL     1     133.802 100.562  62.130  1.00  0.00     0.003 C 
HETATM   36  C6  UNL     1     135.241 100.593  62.613  1.00  0.00     0.033 C 
ENDBRANCH  29  30
ENDBRANCH  26  29
ENDBRANCH   1  25
TORSDOF 8
ENDMDL
MODEL 2
REMARK VINA RESULT: -8.639839520      3.705      6.421
REMARK  8 active torsions:
REMARK  status: ('A' for Active; 'I' for Inactive)
REMARK    1  A    between atoms: C7_7  and  O1_8 
REMARK    2  A    between atoms: O1_8  and  C8_9 
REMARK       I    between atoms: C8_9  and  N1_11 
REMARK    3  A    between atoms: N1_11  and  C9_13 
REMARK    4  A    between atoms: C16_20  and  C17_21 
REMARK    5  A    between atoms: C17_21  and  O3_22 
REMARK    6  A    between atoms: C17_21  and  N2_24 
REMARK    7  A    between atoms: N2_24  and  C18_25 
REMARK    8  A    between atoms: N2_24  and  S1_31 
ROOT
HETATM    1  C9  UNL     1     135.621  89.383  65.947  1.00  0.00     0.095 C 
HETATM    2  C10 UNL     1     136.892  89.136  66.746  1.00  0.00     0.010 C 
HETATM    3  C11 UNL     1     136.645  89.469  68.193  1.00  0.00     0.011 C 
HETATM    4  C12 UNL     1     135.598  88.505  68.727  1.00  0.00    -0.013 C 
HETATM    5  C13 UNL     1     134.314  88.761  67.986  1.00  0.00     0.011 C 
HETATM    6  C14 UNL     1     134.588  88.457  66.527  1.00  0.00     0.010 C 
HETATM    7  C15 UNL     1     135.001  87.011  66.436  1.00  0.00     0.024 C 
HETATM    8  C16 UNL     1     136.265  86.710  67.173  1.00  0.00     0.027 C 
HETATM    9  C25 UNL     1     136.084  87.084  68.627  1.00  0.00     0.022 C 
HETATM   10  C26 UNL     1     137.284  87.716  66.537  1.00  0.00     0.024 C 
ENDROOT
BRANCH   8  11
HETATM   11  C17 UNL     1     136.872  85.409  66.969  1.00  0.00     0.140 C 
BRANCH  11  12
HETATM   12  O3  UNL     1     136.372  84.505  67.818  1.00  0.00    -0.348 OA
ATOM     13  H3  UNL     1     135.886  83.833  67.355  1.00  0.00     0.219 HD
ENDBRANCH  11  12
BRANCH  11  14
HETATM   14  N2  UNL     1     137.823  84.830  66.135  1.00  0.00    -0.230 N 
BRANCH  14  15
HETATM   15  C18 UNL     1     137.766  84.302  64.830  1.00  0.00     0.008 C 
HETATM   16  C19 UNL     1     137.431  82.873  64.679  1.00  0.00     0.054 C 
HETATM   17  C20 UNL     1     137.714  82.393  63.250  1.00  0.00     0.006 C 
HETATM   18  C21 UNL     1     136.986  83.281  62.279  1.00  0.00     0.001 C 
HETATM   19  C22 UNL     1     137.478  84.687  62.427  1.00  0.00     0.006 C 
HETATM   20  C23 UNL     1     137.019  85.193  63.832  1.00  0.00     0.054 C 
ENDBRANCH  14  15
BRANCH  14  21
HETATM   21  S1  UNL     1     139.486  84.609  66.831  1.00  0.00     0.234 S 
HETATM   22  C24 UNL     1     140.069  82.989  66.412  1.00  0.00     0.186 C 
HETATM   23  O4  UNL     1     140.356  85.705  66.299  1.00  0.00    -0.205 OA
HETATM   24  O5  UNL     1     139.437  84.709  68.303  1.00  0.00    -0.205 OA
ENDBRANCH  14  21
ENDBRANCH  11  14
ENDBRANCH   8  11
BRANCH   1  25
HETATM   25  N1  UNL     1     135.152  90.727  65.997  1.00  0.00    -0.332 N 
HETATM   26  C8  UNL     1     134.357  91.319  64.961  1.00  0.00     0.361 C 
HETATM   27  O2  UNL     1     134.054  90.626  63.963  1.00  0.00    -0.238 OA
ATOM     28  H1  UNL     1     135.394  91.296  66.809  1.00  0.00     0.165 HD
BRANCH  26  29
HETATM   29  O1  UNL     1     133.909  92.606  65.001  1.00  0.00    -0.298 OA
BRANCH  29  30
HETATM   30  C7  UNL     1     134.231  93.587  65.959  1.00  0.00     0.141 C 
HETATM   31  C2  UNL     1     134.907  94.715  65.204  1.00  0.00    -0.021 C 
HETATM   32  C1  UNL     1     136.141  94.266  64.462  1.00  0.00     0.017 C 
HETATM   33  C3  UNL     1     135.190  95.918  66.069  1.00  0.00     0.017 C 
HETATM   34  C4  UNL     1     133.774  95.091  64.238  1.00  0.00     0.011 C 
HETATM   35  C5  UNL     1     132.480  94.771  65.002  1.00  0.00     0.003 C 
HETATM   36  C6  UNL     1     132.953  94.345  66.381  1.00  0.00     0.033 C 
ENDBRANCH  29  30
ENDBRANCH  26  29
ENDBRANCH   1  25
TORSDOF 8
ENDMDL
MODEL 3
REMARK VINA RESULT: -8.595798028      5.379      8.502
REMARK  8 active torsions:
REMARK  status: ('A' for Active; 'I' for Inactive)
REMARK    1  A    between atoms: C7_7  and  O1_8 
REMARK    2  A    between atoms: O1_8  and  C8_9 
REMARK       I    between atoms: C8_9  and  N1_11 
REMARK    3  A    between atoms: N1_11  and  C9_13 
REMARK    4  A    between atoms: C16_20  and  C17_21 
REMARK    5  A    between atoms: C17_21  and  O3_22 
REMARK    6  A    between atoms: C17_21  and  N2_24 
REMARK    7  A    between atoms: N2_24  and  C18_25 
REMARK    8  A    between atoms: N2_24  and  S1_31 
ROOT
HETATM    1  C9  UNL     1     135.891  88.895  65.680  1.00  0.00     0.095 C 
HETATM    2  C10 UNL     1     137.290  88.328  65.863  1.00  0.00     0.010 C 
HETATM    3  C11 UNL     1     137.305  87.412  67.057  1.00  0.00     0.011 C 
HETATM    4  C12 UNL     1     136.391  86.234  66.759  1.00  0.00    -0.013 C 
HETATM    5  C13 UNL     1     134.988  86.762  66.621  1.00  0.00     0.011 C 
HETATM    6  C14 UNL     1     134.998  87.710  65.440  1.00  0.00     0.010 C 
HETATM    7  C15 UNL     1     135.413  86.917  64.227  1.00  0.00     0.024 C 
HETATM    8  C16 UNL     1     136.796  86.361  64.330  1.00  0.00     0.027 C 
HETATM    9  C25 UNL     1     136.876  85.476  65.553  1.00  0.00     0.022 C 
HETATM   10  C26 UNL     1     137.663  87.638  64.598  1.00  0.00     0.024 C 
ENDROOT
BRANCH   8  11
HETATM   11  C17 UNL     1     137.379  85.777  63.138  1.00  0.00     0.140 C 
BRANCH  11  12
HETATM   12  O3  UNL     1     138.116  86.673  62.473  1.00  0.00    -0.348 OA
ATOM     13  H3  UNL     1     138.251  86.405  61.572  1.00  0.00     0.219 HD
ENDBRANCH  11  12
BRANCH  11  14
HETATM   14  N2  UNL     1     137.397  84.546  62.490  1.00  0.00    -0.230 N 
BRANCH  14  15
HETATM   15  C18 UNL     1     136.708  84.035  61.372  1.00  0.00     0.008 C 
HETATM   16  C19 UNL     1     135.316  84.475  61.161  1.00  0.00     0.054 C 
HETATM   17  C20 UNL     1     134.622  83.605  60.107  1.00  0.00     0.006 C 
HETATM   18  C21 UNL     1     135.444  83.608  58.847  1.00  0.00     0.001 C 
HETATM   19  C22 UNL     1     136.797  83.036  59.137  1.00  0.00     0.006 C 
HETATM   20  C23 UNL     1     137.532  84.041  60.080  1.00  0.00     0.054 C 
ENDBRANCH  14  15
BRANCH  14  21
HETATM   21  S1  UNL     1     138.449  83.260  63.223  1.00  0.00     0.234 S 
HETATM   22  C24 UNL     1     139.640  84.033  64.282  1.00  0.00     0.186 C 
HETATM   23  O4  UNL     1     137.560  82.293  63.941  1.00  0.00    -0.205 OA
HETATM   24  O5  UNL     1     139.182  82.539  62.164  1.00  0.00    -0.205 OA
ENDBRANCH  14  21
ENDBRANCH  11  14
ENDBRANCH   8  11
BRANCH   1  25
HETATM   25  N1  UNL     1     135.415  89.645  66.794  1.00  0.00    -0.332 N 
HETATM   26  C8  UNL     1     134.594  90.813  66.660  1.00  0.00     0.361 C 
HETATM   27  O2  UNL     1     134.274  91.196  65.511  1.00  0.00    -0.238 OA
ATOM     28  H1  UNL     1     135.670  89.335  67.732  1.00  0.00     0.165 HD
BRANCH  26  29
HETATM   29  O1  UNL     1     134.139  91.537  67.721  1.00  0.00    -0.298 OA
BRANCH  29  30
HETATM   30  C7  UNL     1     134.871  92.460  68.495  1.00  0.00     0.141 C 
HETATM   31  C2  UNL     1     133.858  93.194  69.353  1.00  0.00    -0.021 C 
HETATM   32  C1  UNL     1     132.800  93.897  68.539  1.00  0.00     0.017 C 
HETATM   33  C3  UNL     1     134.497  94.126  70.352  1.00  0.00     0.017 C 
HETATM   34  C4  UNL     1     133.274  92.006  70.131  1.00  0.00     0.011 C 
HETATM   35  C5  UNL     1     134.429  90.998  70.242  1.00  0.00     0.003 C 
HETATM   36  C6  UNL     1     135.616  91.718  69.626  1.00  0.00     0.033 C 
ENDBRANCH  29  30
ENDBRANCH  26  29
ENDBRANCH   1  25
TORSDOF 8
ENDMDL
MODEL 4
REMARK VINA RESULT: -8.571421210      5.384      8.231
REMARK  8 active torsions:
REMARK  status: ('A' for Active; 'I' for Inactive)
REMARK    1  A    between atoms: C7_7  and  O1_8 
REMARK    2  A    between atoms: O1_8  and  C8_9 
REMARK       I    between atoms: C8_9  and  N1_11 
REMARK    3  A    between atoms: N1_11  and  C9_13 
REMARK    4  A    between atoms: C16_20  and  C17_21 
REMARK    5  A    between atoms: C17_21  and  O3_22 
REMARK    6  A    between atoms: C17_21  and  N2_24 
REMARK    7  A    between atoms: N2_24  and  C18_25 
REMARK    8  A    between atoms: N2_24  and  S1_31 
ROOT
HETATM    1  C9  UNL     1     135.161  88.228  67.134  1.00  0.00     0.095 C 
HETATM    2  C10 UNL     1     136.681  88.265  67.115  1.00  0.00     0.010 C 
HETATM    3  C11 UNL     1     137.198  88.280  68.529  1.00  0.00     0.011 C 
HETATM    4  C12 UNL     1     136.801  86.971  69.191  1.00  0.00    -0.013 C 
HETATM    5  C13 UNL     1     135.298  86.930  69.266  1.00  0.00     0.011 C 
HETATM    6  C14 UNL     1     134.793  86.953  67.838  1.00  0.00     0.010 C 
HETATM    7  C15 UNL     1     135.346  85.735  67.143  1.00  0.00     0.024 C 
HETATM    8  C16 UNL     1     136.837  85.728  67.061  1.00  0.00     0.027 C 
HETATM    9  C25 UNL     1     137.404  85.801  68.461  1.00  0.00     0.022 C 
HETATM   10  C26 UNL     1     137.149  87.084  66.340  1.00  0.00     0.024 C 
ENDROOT
BRANCH   8  11
HETATM   11  C17 UNL     1     137.462  84.725  66.222  1.00  0.00     0.140 C 
BRANCH  11  12
HETATM   12  O3  UNL     1     137.147  83.491  66.630  1.00  0.00    -0.348 OA
ATOM     13  H3  UNL     1     137.918  83.018  66.919  1.00  0.00     0.219 HD
ENDBRANCH  11  12
BRANCH  11  14
HETATM   14  N2  UNL     1     138.292  84.678  65.106  1.00  0.00    -0.230 N 
BRANCH  14  15
HETATM   15  C18 UNL     1     138.094  84.260  63.775  1.00  0.00     0.008 C 
HETATM   16  C19 UNL     1     138.072  82.810  63.505  1.00  0.00     0.054 C 
HETATM   17  C20 UNL     1     138.162  82.534  62.000  1.00  0.00     0.006 C 
HETATM   18  C21 UNL     1     137.068  83.287  61.294  1.00  0.00     0.001 C 
HETATM   19  C22 UNL     1     137.245  84.755  61.531  1.00  0.00     0.006 C 
HETATM   20  C23 UNL     1     136.977  85.015  63.047  1.00  0.00     0.054 C 
ENDBRANCH  14  15
BRANCH  14  21
HETATM   21  S1  UNL     1     140.020  85.175  65.360  1.00  0.00     0.234 S 
HETATM   22  C24 UNL     1     140.247  86.804  64.702  1.00  0.00     0.186 C 
HETATM   23  O4  UNL     1     140.315  85.084  66.825  1.00  0.00    -0.205 OA
HETATM   24  O5  UNL     1     140.923  84.261  64.633  1.00  0.00    -0.205 OA
ENDBRANCH  14  21
ENDBRANCH  11  14
ENDBRANCH   8  11
BRANCH   1  25
HETATM   25  N1  UNL     1     134.559  89.339  67.792  1.00  0.00    -0.332 N 
HETATM   26  C8  UNL     1     134.590  90.673  67.267  1.00  0.00     0.361 C 
HETATM   27  O2  UNL     1     135.170  90.877  66.175  1.00  0.00    -0.238 OA
ATOM     28  H1  UNL     1     134.082  89.177  68.680  1.00  0.00     0.165 HD
BRANCH  26  29
HETATM   29  O1  UNL     1     134.019  91.740  67.893  1.00  0.00    -0.298 OA
BRANCH  29  30
HETATM   30  C7  UNL     1     134.674  92.721  68.663  1.00  0.00     0.141 C 
HETATM   31  C2  UNL     1     133.595  93.426  69.462  1.00  0.00    -0.021 C 
HETATM   32  C1  UNL     1     132.534  94.050  68.591  1.00  0.00     0.017 C 
HETATM   33  C3  UNL     1     134.149  94.419  70.455  1.00  0.00     0.017 C 
HETATM   34  C4  UNL     1     133.043  92.233  70.255  1.00  0.00     0.011 C 
HETATM   35  C5  UNL     1     134.243  91.289  70.438  1.00  0.00     0.003 C 
HETATM   36  C6  UNL     1     135.413  92.052  69.843  1.00  0.00     0.033 C 
ENDBRANCH  29  30
ENDBRANCH  26  29
ENDBRANCH   1  25
TORSDOF 8
ENDMDL
MODEL 5
REMARK VINA RESULT: -8.457029206      3.462      9.606
REMARK  8 active torsions:
REMARK  status: ('A' for Active; 'I' for Inactive)
REMARK    1  A    between atoms: C7_7  and  O1_8 
REMARK    2  A    between atoms: O1_8  and  C8_9 
REMARK       I    between atoms: C8_9  and  N1_11 
REMARK    3  A    between atoms: N1_11  and  C9_13 
REMARK    4  A    between atoms: C16_20  and  C17_21 
REMARK    5  A    between atoms: C17_21  and  O3_22 
REMARK    6  A    between atoms: C17_21  and  N2_24 
REMARK    7  A    between atoms: N2_24  and  C18_25 
REMARK    8  A    between atoms: N2_24  and  S1_31 
ROOT
HETATM    1  C9  UNL     1     137.204  88.308  67.263  1.00  0.00     0.095 C 
HETATM    2  C10 UNL     1     136.115  88.990  66.449  1.00  0.00     0.010 C 
HETATM    3  C11 UNL     1     134.879  88.132  66.452  1.00  0.00     0.011 C 
HETATM    4  C12 UNL     1     134.367  88.045  67.880  1.00  0.00    -0.013 C 
HETATM    5  C13 UNL     1     135.407  87.329  68.700  1.00  0.00     0.011 C 
HETATM    6  C14 UNL     1     136.655  88.186  68.657  1.00  0.00     0.010 C 
HETATM    7  C15 UNL     1     136.306  89.525  69.254  1.00  0.00     0.024 C 
HETATM    8  C16 UNL     1     135.263  90.263  68.479  1.00  0.00     0.027 C 
HETATM    9  C25 UNL     1     134.016  89.412  68.404  1.00  0.00     0.022 C 
HETATM   10  C26 UNL     1     135.888  90.335  67.044  1.00  0.00     0.024 C 
ENDROOT
BRANCH   8  11
HETATM   11  C17 UNL     1     135.015  91.647  68.831  1.00  0.00     0.140 C 
BRANCH  11  12
HETATM   12  O3  UNL     1     135.714  92.002  69.915  1.00  0.00    -0.348 OA
ATOM     13  H3  UNL     1     136.083  92.871  69.814  1.00  0.00     0.219 HD
ENDBRANCH  11  12
BRANCH  11  14
HETATM   14  N2  UNL     1     134.261  92.716  68.359  1.00  0.00    -0.230 N 
BRANCH  14  15
HETATM   15  C18 UNL     1     134.164  93.347  67.103  1.00  0.00     0.008 C 
HETATM   16  C19 UNL     1     135.115  94.436  66.804  1.00  0.00     0.054 C 
HETATM   17  C20 UNL     1     134.683  95.210  65.553  1.00  0.00     0.006 C 
HETATM   18  C21 UNL     1     134.506  94.245  64.413  1.00  0.00     0.001 C 
HETATM   19  C22 UNL     1     133.441  93.254  64.764  1.00  0.00     0.006 C 
HETATM   20  C23 UNL     1     133.993  92.375  65.931  1.00  0.00     0.054 C 
ENDBRANCH  14  15
BRANCH  14  21
HETATM   21  S1  UNL     1     133.215  93.570  69.574  1.00  0.00     0.234 S 
HETATM   22  C24 UNL     1     134.207  94.747  70.452  1.00  0.00     0.186 C 
HETATM   23  O4  UNL     1     132.071  94.196  68.837  1.00  0.00    -0.205 OA
HETATM   24  O5  UNL     1     132.682  92.603  70.553  1.00  0.00    -0.205 OA
ENDBRANCH  14  21
ENDBRANCH  11  14
ENDBRANCH   8  11
BRANCH   1  25
HETATM   25  N1  UNL     1     137.580  87.024  66.774  1.00  0.00    -0.332 N 
HETATM   26  C8  UNL     1     138.344  86.834  65.576  1.00  0.00     0.361 C 
HETATM   27  O2  UNL     1     138.704  87.842  64.925  1.00  0.00    -0.238 OA
ATOM     28  H1  UNL     1     137.291  86.200  67.302  1.00  0.00     0.165 HD
BRANCH  26  29
HETATM   29  O1  UNL     1     138.704  85.608  65.100  1.00  0.00    -0.298 OA
BRANCH  29  30
HETATM   30  C7  UNL     1     137.950  84.420  65.163  1.00  0.00     0.141 C 
HETATM   31  C2  UNL     1     138.253  83.655  63.889  1.00  0.00    -0.021 C 
HETATM   32  C1  UNL     1     137.918  84.436  62.643  1.00  0.00     0.017 C 
HETATM   33  C3  UNL     1     137.631  82.281  63.863  1.00  0.00     0.017 C 
HETATM   34  C4  UNL     1     139.769  83.477  64.053  1.00  0.00     0.011 C 
HETATM   35  C5  UNL     1     139.999  83.410  65.571  1.00  0.00     0.003 C 
HETATM   36  C6  UNL     1     138.601  83.440  66.163  1.00  0.00     0.033 C 
ENDBRANCH  29  30
ENDBRANCH  26  29
ENDBRANCH   1  25
TORSDOF 8
ENDMDL
