MODEL 1
REMARK VINA RESULT: -10.212590365      0.000      0.000
REMARK  6 active torsions:
REMARK  status: ('A' for Active; 'I' for Inactive)
REMARK    1  A    between atoms: C7_7  and  O1_8 
REMARK    2  A    between atoms: O1_8  and  C8_9 
REMARK    3  A    between atoms: C8_9  and  C9_11 
REMARK       I    between atoms: N1_14  and  C12_15 
REMARK    4  A    between atoms: C12_15  and  C13_17 
REMARK    5  A    between atoms: C13_17  and  C14_18 
REMARK    6  A    between atoms: C14_18  and  C15_19 
ROOT
HETATM    1  C1  UNL     1     133.181  92.985  69.526  1.00  0.00     0.013 C 
HETATM    2  C2  UNL     1     133.620  92.022  68.429  1.00  0.00     0.023 C 
HETATM    3  C3  UNL     1     133.584  92.683  67.123  1.00  0.00    -0.003 C 
HETATM    4  C4  UNL     1     134.013  94.161  67.219  1.00  0.00     0.010 C 
HETATM    5  C5  UNL     1     134.063  94.470  65.735  1.00  0.00    -0.007 C 
HETATM    6  C6  UNL     1     134.685  95.817  65.466  1.00  0.00     0.037 C 
HETATM    7  C7  UNL     1     135.569  95.717  64.247  1.00  0.00     0.132 C 
HETATM    8  C16 UNL     1     136.769  94.841  64.488  1.00  0.00     0.033 C 
HETATM    9  C17 UNL     1     136.393  93.654  65.345  1.00  0.00     0.008 C 
HETATM   10  C18 UNL     1     134.916  93.339  65.215  1.00  0.00    -0.006 C 
HETATM   11  C19 UNL     1     134.473  92.167  66.049  1.00  0.00    -0.005 C 
HETATM   12  C20 UNL     1     135.620  91.328  66.504  1.00  0.00     0.018 C 
HETATM   13  C21 UNL     1     135.309  90.446  67.691  1.00  0.00    -0.002 C 
HETATM   14  C22 UNL     1     134.247  89.452  67.350  1.00  0.00     0.013 C 
HETATM   15  C23 UNL     1     134.971  88.160  66.950  1.00  0.00     0.006 C 
HETATM   16  C24 UNL     1     136.276  88.221  67.710  1.00  0.00    -0.009 A 
HETATM   17  C25 UNL     1     136.264  88.611  69.150  1.00  0.00     0.011 A 
HETATM   18  C26 UNL     1     136.523  89.624  68.050  1.00  0.00     0.001 A 
HETATM   19  C27 UNL     1     134.929  91.394  68.808  1.00  0.00     0.094 A 
HETATM   20  C28 UNL     1     135.947  92.001  69.583  1.00  0.00     0.208 A 
HETATM   21  O6  UNL     1     135.119  91.035  70.115  1.00  0.00    -0.374 OA
ENDROOT
BRANCH   7  22
HETATM   22  O1  UNL     1     135.924  96.995  63.779  1.00  0.00    -0.314 OA
BRANCH  22  23
HETATM   23  C8  UNL     1     135.198  97.723  62.882  1.00  0.00     0.282 C 
HETATM   24  O2  UNL     1     134.423  98.608  63.387  1.00  0.00    -0.263 OA
BRANCH  23  25
HETATM   25  C9  UNL     1     135.193  97.621  61.424  1.00  0.00     0.188 C 
HETATM   26  C10 UNL     1     135.303  98.938  60.683  1.00  0.00     0.055 C 
HETATM   27  C11 UNL     1     134.479  98.209  59.643  1.00  0.00     0.129 C 
HETATM   28  N1  UNL     1     133.939  97.411  60.755  1.00  0.00    -0.338 N 
HETATM   29  C12 UNL     1     132.701  96.764  60.955  1.00  0.00     0.221 C 
HETATM   30  O3  UNL     1     132.465  96.117  62.003  1.00  0.00    -0.273 OA
BRANCH  29  31
HETATM   31  C13 UNL     1     131.622  96.831  59.910  1.00  0.00     0.113 C 
BRANCH  31  32
HETATM   32  C14 UNL     1     131.015  95.468  59.690  1.00  0.00     0.122 C 
BRANCH  32  33
HETATM   33  C15 UNL     1     129.670  95.355  60.300  1.00  0.00     0.172 C 
HETATM   34  O4  UNL     1     128.650  95.923  59.841  1.00  0.00    -0.648 OA
HETATM   35  O5  UNL     1     129.512  94.582  61.441  1.00  0.00    -0.648 OA
ENDBRANCH  32  33
ENDBRANCH  31  32
ENDBRANCH  29  31
ENDBRANCH  23  25
ENDBRANCH  22  23
ENDBRANCH   7  22
TORSDOF 6
ENDMDL
MODEL 2
REMARK VINA RESULT: -10.148839645      2.669      4.280
REMARK  6 active torsions:
REMARK  status: ('A' for Active; 'I' for Inactive)
REMARK    1  A    between atoms: C7_7  and  O1_8 
REMARK    2  A    between atoms: O1_8  and  C8_9 
REMARK    3  A    between atoms: C8_9  and  C9_11 
REMARK       I    between atoms: N1_14  and  C12_15 
REMARK    4  A    between atoms: C12_15  and  C13_17 
REMARK    5  A    between atoms: C13_17  and  C14_18 
REMARK    6  A    between atoms: C14_18  and  C15_19 
ROOT
HETATM    1  C1  UNL     1     134.121  87.809  64.221  1.00  0.00     0.013 C 
HETATM    2  C2  UNL     1     135.057  88.308  65.316  1.00  0.00     0.023 C 
HETATM    3  C3  UNL     1     135.327  89.737  65.147  1.00  0.00    -0.003 C 
HETATM    4  C4  UNL     1     134.084  90.497  64.638  1.00  0.00     0.010 C 
HETATM    5  C5  UNL     1     134.623  91.908  64.770  1.00  0.00    -0.007 C 
HETATM    6  C6  UNL     1     133.543  92.939  64.556  1.00  0.00     0.037 C 
HETATM    7  C7  UNL     1     133.735  94.065  65.543  1.00  0.00     0.132 C 
HETATM    8  C16 UNL     1     133.494  93.622  66.961  1.00  0.00     0.033 C 
HETATM    9  C17 UNL     1     134.027  92.225  67.176  1.00  0.00     0.008 C 
HETATM   10  C18 UNL     1     135.134  91.911  66.189  1.00  0.00    -0.006 C 
HETATM   11  C19 UNL     1     135.708  90.528  66.347  1.00  0.00    -0.005 C 
HETATM   12  C20 UNL     1     135.362  89.916  67.664  1.00  0.00     0.018 C 
HETATM   13  C21 UNL     1     135.494  88.411  67.699  1.00  0.00    -0.002 C 
HETATM   14  C22 UNL     1     136.909  87.996  67.469  1.00  0.00     0.013 C 
HETATM   15  C23 UNL     1     137.535  87.791  68.854  1.00  0.00     0.006 C 
HETATM   16  C24 UNL     1     136.364  87.416  69.733  1.00  0.00    -0.009 A 
HETATM   17  C25 UNL     1     135.378  86.410  69.245  1.00  0.00     0.011 A 
HETATM   18  C26 UNL     1     135.148  87.900  69.077  1.00  0.00     0.001 A 
HETATM   19  C27 UNL     1     134.524  87.898  66.657  1.00  0.00     0.094 A 
HETATM   20  C28 UNL     1     133.156  87.742  66.993  1.00  0.00     0.208 A 
HETATM   21  O6  UNL     1     133.972  86.651  66.778  1.00  0.00    -0.374 OA
ENDROOT
BRANCH   7  22
HETATM   22  O1  UNL     1     132.955  95.180  65.189  1.00  0.00    -0.314 OA
BRANCH  22  23
HETATM   23  C8  UNL     1     133.353  96.168  64.336  1.00  0.00     0.282 C 
HETATM   24  O2  UNL     1     132.864  96.108  63.154  1.00  0.00    -0.263 OA
BRANCH  23  25
HETATM   25  C9  UNL     1     134.262  97.282  64.600  1.00  0.00     0.188 C 
HETATM   26  C10 UNL     1     133.622  98.656  64.583  1.00  0.00     0.055 C 
HETATM   27  C11 UNL     1     134.993  99.083  64.102  1.00  0.00     0.129 C 
HETATM   28  N1  UNL     1     135.123  97.729  63.541  1.00  0.00    -0.338 N 
HETATM   29  C12 UNL     1     135.831  97.217  62.433  1.00  0.00     0.221 C 
HETATM   30  O3  UNL     1     135.803  95.997  62.148  1.00  0.00    -0.273 OA
BRANCH  29  31
HETATM   31  C13 UNL     1     136.646  98.127  61.556  1.00  0.00     0.113 C 
BRANCH  31  32
HETATM   32  C14 UNL     1     135.812  98.639  60.407  1.00  0.00     0.122 C 
BRANCH  32  33
HETATM   33  C15 UNL     1     134.872  99.700  60.835  1.00  0.00     0.172 C 
HETATM   34  O4  UNL     1     133.626  99.558  60.851  1.00  0.00    -0.648 OA
HETATM   35  O5  UNL     1     135.381 100.925  61.244  1.00  0.00    -0.648 OA
ENDBRANCH  32  33
ENDBRANCH  31  32
ENDBRANCH  29  31
ENDBRANCH  23  25
ENDBRANCH  22  23
ENDBRANCH   7  22
TORSDOF 6
ENDMDL
MODEL 3
REMARK VINA RESULT: -9.988896003      4.322      8.455
REMARK  6 active torsions:
REMARK  status: ('A' for Active; 'I' for Inactive)
REMARK    1  A    between atoms: C7_7  and  O1_8 
REMARK    2  A    between atoms: O1_8  and  C8_9 
REMARK    3  A    between atoms: C8_9  and  C9_11 
REMARK       I    between atoms: N1_14  and  C12_15 
REMARK    4  A    between atoms: C12_15  and  C13_17 
REMARK    5  A    between atoms: C13_17  and  C14_18 
REMARK    6  A    between atoms: C14_18  and  C15_19 
ROOT
HETATM    1  C1  UNL     1     138.762  88.249  62.934  1.00  0.00     0.013 C 
HETATM    2  C2  UNL     1     138.858  86.948  63.723  1.00  0.00     0.023 C 
HETATM    3  C3  UNL     1     138.867  87.222  65.162  1.00  0.00    -0.003 C 
HETATM    4  C4  UNL     1     137.943  88.403  65.524  1.00  0.00     0.010 C 
HETATM    5  C5  UNL     1     138.020  88.285  67.034  1.00  0.00    -0.007 C 
HETATM    6  C6  UNL     1     137.021  89.185  67.716  1.00  0.00     0.037 C 
HETATM    7  C7  UNL     1     136.426  88.456  68.896  1.00  0.00     0.132 C 
HETATM    8  C16 UNL     1     135.582  87.284  68.471  1.00  0.00     0.033 C 
HETATM    9  C17 UNL     1     136.207  86.584  67.287  1.00  0.00     0.008 C 
HETATM   10  C18 UNL     1     137.703  86.825  67.244  1.00  0.00    -0.006 C 
HETATM   11  C19 UNL     1     138.388  86.157  66.083  1.00  0.00    -0.005 C 
HETATM   12  C20 UNL     1     137.546  85.092  65.461  1.00  0.00     0.018 C 
HETATM   13  C21 UNL     1     137.955  84.723  64.054  1.00  0.00    -0.002 C 
HETATM   14  C22 UNL     1     139.334  84.149  64.036  1.00  0.00     0.013 C 
HETATM   15  C23 UNL     1     139.173  82.624  64.077  1.00  0.00     0.006 C 
HETATM   16  C24 UNL     1     137.826  82.380  63.436  1.00  0.00    -0.009 A 
HETATM   17  C25 UNL     1     137.479  83.096  62.174  1.00  0.00     0.011 A 
HETATM   18  C26 UNL     1     137.060  83.625  63.534  1.00  0.00     0.001 A 
HETATM   19  C27 UNL     1     137.806  85.993  63.245  1.00  0.00     0.094 A 
HETATM   20  C28 UNL     1     136.533  86.348  62.734  1.00  0.00     0.208 A 
HETATM   21  O6  UNL     1     137.551  85.932  61.902  1.00  0.00    -0.374 OA
ENDROOT
BRANCH   7  22
HETATM   22  O1  UNL     1     135.729  89.343  69.734  1.00  0.00    -0.314 OA
BRANCH  22  23
HETATM   23  C8  UNL     1     134.772  90.220  69.314  1.00  0.00     0.282 C 
HETATM   24  O2  UNL     1     133.730  89.690  68.790  1.00  0.00    -0.263 OA
BRANCH  23  25
HETATM   25  C9  UNL     1     134.784  91.680  69.386  1.00  0.00     0.188 C 
HETATM   26  C10 UNL     1     133.568  92.304  70.041  1.00  0.00     0.055 C 
HETATM   27  C11 UNL     1     133.871  93.441  69.088  1.00  0.00     0.129 C 
HETATM   28  N1  UNL     1     134.464  92.427  68.203  1.00  0.00    -0.338 N 
HETATM   29  C12 UNL     1     134.602  92.345  66.800  1.00  0.00     0.221 C 
HETATM   30  O3  UNL     1     135.168  91.368  66.257  1.00  0.00    -0.273 OA
BRANCH  29  31
HETATM   31  C13 UNL     1     134.073  93.437  65.912  1.00  0.00     0.113 C 
BRANCH  31  32
HETATM   32  C14 UNL     1     135.074  93.772  64.834  1.00  0.00     0.122 C 
BRANCH  32  33
HETATM   33  C15 UNL     1     135.801  95.030  65.124  1.00  0.00     0.172 C 
HETATM   34  O4  UNL     1     136.976  95.255  64.746  1.00  0.00    -0.648 OA
HETATM   35  O5  UNL     1     135.163  96.023  65.853  1.00  0.00    -0.648 OA
ENDBRANCH  32  33
ENDBRANCH  31  32
ENDBRANCH  29  31
ENDBRANCH  23  25
ENDBRANCH  22  23
ENDBRANCH   7  22
TORSDOF 6
ENDMDL
MODEL 4
REMARK VINA RESULT: -9.928187787      2.082      3.332
REMARK  6 active torsions:
REMARK  status: ('A' for Active; 'I' for Inactive)
REMARK    1  A    between atoms: C7_7  and  O1_8 
REMARK    2  A    between atoms: O1_8  and  C8_9 
REMARK    3  A    between atoms: C8_9  and  C9_11 
REMARK       I    between atoms: N1_14  and  C12_15 
REMARK    4  A    between atoms: C12_15  and  C13_17 
REMARK    5  A    between atoms: C13_17  and  C14_18 
REMARK    6  A    between atoms: C14_18  and  C15_19 
ROOT
HETATM    1  C1  UNL     1     135.083  89.340  69.805  1.00  0.00     0.013 C 
HETATM    2  C2  UNL     1     135.020  88.996  68.321  1.00  0.00     0.023 C 
HETATM    3  C3  UNL     1     134.300  90.036  67.584  1.00  0.00    -0.003 C 
HETATM    4  C4  UNL     1     134.591  91.441  68.149  1.00  0.00     0.010 C 
HETATM    5  C5  UNL     1     133.891  92.255  67.078  1.00  0.00    -0.007 C 
HETATM    6  C6  UNL     1     134.184  93.728  67.215  1.00  0.00     0.037 C 
HETATM    7  C7  UNL     1     134.376  94.323  65.841  1.00  0.00     0.132 C 
HETATM    8  C16 UNL     1     135.614  93.799  65.164  1.00  0.00     0.033 C 
HETATM    9  C17 UNL     1     135.804  92.332  65.472  1.00  0.00     0.008 C 
HETATM   10  C18 UNL     1     134.482  91.676  65.816  1.00  0.00    -0.006 C 
HETATM   11  C19 UNL     1     134.602  90.211  66.138  1.00  0.00    -0.005 C 
HETATM   12  C20 UNL     1     135.895  89.629  65.672  1.00  0.00     0.018 C 
HETATM   13  C21 UNL     1     136.273  88.335  66.353  1.00  0.00    -0.002 C 
HETATM   14  C22 UNL     1     135.271  87.268  66.060  1.00  0.00     0.013 C 
HETATM   15  C23 UNL     1     135.822  86.465  64.875  1.00  0.00     0.006 C 
HETATM   16  C24 UNL     1     137.321  86.623  64.991  1.00  0.00    -0.009 A 
HETATM   17  C25 UNL     1     137.971  86.458  66.323  1.00  0.00     0.011 A 
HETATM   18  C26 UNL     1     137.577  87.823  65.790  1.00  0.00     0.001 A 
HETATM   19  C27 UNL     1     136.398  88.676  67.823  1.00  0.00     0.094 A 
HETATM   20  C28 UNL     1     137.607  89.234  68.308  1.00  0.00     0.208 A 
HETATM   21  O6  UNL     1     137.226  87.949  68.634  1.00  0.00    -0.374 OA
ENDROOT
BRANCH   7  22
HETATM   22  O1  UNL     1     134.346  95.727  65.894  1.00  0.00    -0.314 OA
BRANCH  22  23
HETATM   23  C8  UNL     1     134.155  96.542  64.816  1.00  0.00     0.282 C 
HETATM   24  O2  UNL     1     133.366  96.089  63.915  1.00  0.00    -0.263 OA
BRANCH  23  25
HETATM   25  C9  UNL     1     134.733  97.860  64.561  1.00  0.00     0.188 C 
HETATM   26  C10 UNL     1     133.740  99.003  64.511  1.00  0.00     0.055 C 
HETATM   27  C11 UNL     1     134.742  99.585  63.537  1.00  0.00     0.129 C 
HETATM   28  N1  UNL     1     135.107  98.196  63.217  1.00  0.00    -0.338 N 
HETATM   29  C12 UNL     1     135.607  97.584  62.047  1.00  0.00     0.221 C 
HETATM   30  O3  UNL     1     135.863  96.358  62.011  1.00  0.00    -0.273 OA
BRANCH  29  31
HETATM   31  C13 UNL     1     135.852  98.392  60.803  1.00  0.00     0.113 C 
BRANCH  31  32
HETATM   32  C14 UNL     1     134.815  98.073  59.754  1.00  0.00     0.122 C 
BRANCH  32  33
HETATM   33  C15 UNL     1     133.437  98.271  60.259  1.00  0.00     0.172 C 
HETATM   34  O4  UNL     1     132.982  99.384  60.617  1.00  0.00    -0.648 OA
HETATM   35  O5  UNL     1     132.589  97.176  60.347  1.00  0.00    -0.648 OA
ENDBRANCH  32  33
ENDBRANCH  31  32
ENDBRANCH  29  31
ENDBRANCH  23  25
ENDBRANCH  22  23
ENDBRANCH   7  22
TORSDOF 6
ENDMDL
MODEL 5
REMARK VINA RESULT: -9.920443652      2.752      4.083
REMARK  6 active torsions:
REMARK  status: ('A' for Active; 'I' for Inactive)
REMARK    1  A    between atoms: C7_7  and  O1_8 
REMARK    2  A    between atoms: O1_8  and  C8_9 
REMARK    3  A    between atoms: C8_9  and  C9_11 
REMARK       I    between atoms: N1_14  and  C12_15 
REMARK    4  A    between atoms: C12_15  and  C13_17 
REMARK    5  A    between atoms: C13_17  and  C14_18 
REMARK    6  A    between atoms: C14_18  and  C15_19 
ROOT
HETATM    1  C1  UNL     1     135.462  88.875  70.096  1.00  0.00     0.013 C 
HETATM    2  C2  UNL     1     135.331  88.467  68.633  1.00  0.00     0.023 C 
HETATM    3  C3  UNL     1     134.459  89.402  67.917  1.00  0.00    -0.003 C 
HETATM    4  C4  UNL     1     134.646  90.850  68.413  1.00  0.00     0.010 C 
HETATM    5  C5  UNL     1     133.795  91.549  67.370  1.00  0.00    -0.007 C 
HETATM    6  C6  UNL     1     133.947  93.047  67.438  1.00  0.00     0.037 C 
HETATM    7  C7  UNL     1     133.981  93.603  66.035  1.00  0.00     0.132 C 
HETATM    8  C16 UNL     1     135.215  93.177  65.286  1.00  0.00     0.033 C 
HETATM    9  C17 UNL     1     135.573  91.749  65.627  1.00  0.00     0.008 C 
HETATM   10  C18 UNL     1     134.351  90.980  66.088  1.00  0.00    -0.006 C 
HETATM   11  C19 UNL     1     134.640  89.548  66.448  1.00  0.00    -0.005 C 
HETATM   12  C20 UNL     1     135.949  89.078  65.907  1.00  0.00     0.018 C 
HETATM   13  C21 UNL     1     136.503  87.855  66.600  1.00  0.00    -0.002 C 
HETATM   14  C22 UNL     1     135.595  86.684  66.417  1.00  0.00     0.013 C 
HETATM   15  C23 UNL     1     136.140  85.893  65.221  1.00  0.00     0.006 C 
HETATM   16  C24 UNL     1     137.620  86.202  65.221  1.00  0.00    -0.009 A 
HETATM   17  C25 UNL     1     138.375  86.154  66.506  1.00  0.00     0.011 A 
HETATM   18  C26 UNL     1     137.809  87.452  65.960  1.00  0.00     0.001 A 
HETATM   19  C27 UNL     1     136.696  88.265  68.044  1.00  0.00     0.094 A 
HETATM   20  C28 UNL     1     137.873  88.958  68.421  1.00  0.00     0.208 A 
HETATM   21  O6  UNL     1     137.648  87.655  68.816  1.00  0.00    -0.374 OA
ENDROOT
BRANCH   7  22
HETATM   22  O1  UNL     1     133.814  94.999  66.044  1.00  0.00    -0.314 OA
BRANCH  22  23
HETATM   23  C8  UNL     1     134.698  95.891  65.511  1.00  0.00     0.282 C 
HETATM   24  O2  UNL     1     135.469  96.473  66.352  1.00  0.00    -0.263 OA
BRANCH  23  25
HETATM   25  C9  UNL     1     134.878  96.263  64.109  1.00  0.00     0.188 C 
HETATM   26  C10 UNL     1     136.293  96.137  63.583  1.00  0.00     0.055 C 
HETATM   27  C11 UNL     1     135.867  97.288  62.697  1.00  0.00     0.129 C 
HETATM   28  N1  UNL     1     134.934  97.658  63.772  1.00  0.00    -0.338 N 
HETATM   29  C12 UNL     1     134.394  98.894  64.188  1.00  0.00     0.221 C 
HETATM   30  O3  UNL     1     133.588  98.965  65.145  1.00  0.00    -0.273 OA
BRANCH  29  31
HETATM   31  C13 UNL     1     134.773 100.171  63.490  1.00  0.00     0.113 C 
BRANCH  31  32
HETATM   32  C14 UNL     1     133.840 100.437  62.334  1.00  0.00     0.122 C 
BRANCH  32  33
HETATM   33  C15 UNL     1     134.323  99.818  61.078  1.00  0.00     0.172 C 
HETATM   34  O4  UNL     1     135.506  99.908  60.670  1.00  0.00    -0.648 OA
HETATM   35  O5  UNL     1     133.431  99.096  60.298  1.00  0.00    -0.648 OA
ENDBRANCH  32  33
ENDBRANCH  31  32
ENDBRANCH  29  31
ENDBRANCH  23  25
ENDBRANCH  22  23
ENDBRANCH   7  22
TORSDOF 6
ENDMDL
