MODEL 1
REMARK VINA RESULT: -8.537894209      0.000      0.000
REMARK  9 active torsions:
REMARK  status: ('A' for Active; 'I' for Inactive)
REMARK    1  A    between atoms: N1_7  and  C6_8 
REMARK    2  A    between atoms: C6_8  and  C7_9 
REMARK    3  A    between atoms: C7_9  and  N2_10 
REMARK    4  A    between atoms: N2_10  and  C8_11 
REMARK    5  A    between atoms: N2_10  and  C23_27 
REMARK    6  A    between atoms: C8_11  and  C9_12 
REMARK    7  A    between atoms: C12_16  and  C13_17 
REMARK    8  A    between atoms: C18_22  and  C19_23 
REMARK    9  A    between atoms: C23_27  and  N4_29 
ROOT
HETATM    1  N2  UNL     1     135.874  88.882  66.168  1.00  0.00    -0.352 N 
ENDROOT
BRANCH   1   2
HETATM    2  C7  UNL     1     136.953  88.293  66.906  1.00  0.00     0.156 C 
BRANCH   2   3
HETATM    3  C6  UNL     1     137.996  87.819  65.919  1.00  0.00     0.293 C 
BRANCH   3   4
HETATM    4  N1  UNL     1     137.730  86.520  65.370  1.00  0.00     0.098 N 
HETATM    5  C2  UNL     1     138.655  86.055  64.393  1.00  0.00     0.242 C 
HETATM    6  C1  UNL     1     138.221  84.687  63.914  1.00  0.00     0.045 C 
HETATM    7  C3  UNL     1     140.044  85.940  64.950  1.00  0.00     0.203 C 
HETATM    8  O1  UNL     1     140.104  85.621  66.280  1.00  0.00    -0.387 OA
HETATM    9  C4  UNL     1     139.013  84.944  66.778  1.00  0.00     0.198 C 
HETATM   10  C5  UNL     1     137.691  85.587  66.494  1.00  0.00     0.299 C 
ENDBRANCH   3   4
ENDBRANCH   2   3
ENDBRANCH   1   2
BRANCH   1  11
HETATM   11  C8  UNL     1     135.927  90.348  65.853  1.00  0.00     0.164 C 
BRANCH  11  12
HETATM   12  C9  UNL     1     135.198  91.115  66.863  1.00  0.00    -0.031 A 
HETATM   13  C10 UNL     1     135.305  90.706  68.201  1.00  0.00     0.036 A 
HETATM   14  C11 UNL     1     134.669  91.373  69.206  1.00  0.00     0.054 A 
HETATM   15  N3  UNL     1     134.823  90.893  70.537  1.00  0.00    -0.102 NA
HETATM   16  C12 UNL     1     133.911  92.467  68.903  1.00  0.00    -0.026 A 
HETATM   17  C17 UNL     1     133.805  92.872  67.588  1.00  0.00     0.018 A 
HETATM   18  C18 UNL     1     134.444  92.211  66.533  1.00  0.00    -0.042 A 
BRANCH  16  19
HETATM   19  C13 UNL     1     133.222  93.186  70.022  1.00  0.00    -0.022 C 
HETATM   20  C14 UNL     1     134.191  94.119  70.731  1.00  0.00     0.019 C 
HETATM   21  C15 UNL     1     132.152  94.078  69.402  1.00  0.00     0.019 C 
HETATM   22  C16 UNL     1     132.634  92.180  70.957  1.00  0.00     0.019 C 
ENDBRANCH  16  19
BRANCH  18  23
HETATM   23  C19 UNL     1     134.338  92.674  65.148  1.00  0.00    -0.024 C 
HETATM   24  C20 UNL     1     135.515  93.446  64.640  1.00  0.00     0.019 C 
HETATM   25  C21 UNL     1     133.901  91.591  64.187  1.00  0.00     0.019 C 
HETATM   26  C22 UNL     1     133.161  93.674  65.108  1.00  0.00     0.019 C 
ENDBRANCH  18  23
ENDBRANCH  11  12
ENDBRANCH   1  11
BRANCH   1  27
HETATM   27  C23 UNL     1     134.758  88.143  65.743  1.00  0.00     0.172 C 
HETATM   28  S1  UNL     1     133.964  87.327  67.003  1.00  0.00    -0.041 SA
BRANCH  27  29
HETATM   29  N4  UNL     1     134.171  87.945  64.510  1.00  0.00    -0.354 N 
HETATM   30  C24 UNL     1     135.039  87.799  63.303  1.00  0.00     0.151 C 
HETATM   31  C25 UNL     1     134.544  86.596  62.534  1.00  0.00     0.187 C 
HETATM   32  O2  UNL     1     133.246  86.788  62.061  1.00  0.00    -0.388 OA
HETATM   33  C26 UNL     1     132.619  87.854  62.673  1.00  0.00     0.187 C 
HETATM   34  C27 UNL     1     132.770  87.855  64.189  1.00  0.00     0.151 C 
ENDBRANCH  27  29
ENDBRANCH   1  27
TORSDOF 9
ENDMDL
MODEL 2
REMARK VINA RESULT: -8.488155408      1.752      4.230
REMARK  9 active torsions:
REMARK  status: ('A' for Active; 'I' for Inactive)
REMARK    1  A    between atoms: N1_7  and  C6_8 
REMARK    2  A    between atoms: C6_8  and  C7_9 
REMARK    3  A    between atoms: C7_9  and  N2_10 
REMARK    4  A    between atoms: N2_10  and  C8_11 
REMARK    5  A    between atoms: N2_10  and  C23_27 
REMARK    6  A    between atoms: C8_11  and  C9_12 
REMARK    7  A    between atoms: C12_16  and  C13_17 
REMARK    8  A    between atoms: C18_22  and  C19_23 
REMARK    9  A    between atoms: C23_27  and  N4_29 
ROOT
HETATM    1  N2  UNL     1     135.316  88.808  65.914  1.00  0.00    -0.352 N 
ENDROOT
BRANCH   1   2
HETATM    2  C7  UNL     1     134.005  88.251  65.740  1.00  0.00     0.156 C 
BRANCH   2   3
HETATM    3  C6  UNL     1     134.020  87.388  64.498  1.00  0.00     0.293 C 
BRANCH   3   4
HETATM    4  N1  UNL     1     133.584  88.068  63.311  1.00  0.00     0.098 N 
HETATM    5  C2  UNL     1     134.612  88.475  62.414  1.00  0.00     0.242 C 
HETATM    6  C1  UNL     1     133.984  89.182  61.232  1.00  0.00     0.045 C 
HETATM    7  C3  UNL     1     135.398  87.305  61.898  1.00  0.00     0.203 C 
HETATM    8  O1  UNL     1     134.683  86.144  61.775  1.00  0.00    -0.387 OA
HETATM    9  C4  UNL     1     133.325  86.298  61.606  1.00  0.00     0.198 C 
HETATM   10  C5  UNL     1     132.659  87.169  62.625  1.00  0.00     0.299 C 
ENDBRANCH   3   4
ENDBRANCH   2   3
ENDBRANCH   1   2
BRANCH   1  11
HETATM   11  C8  UNL     1     135.523  90.269  65.647  1.00  0.00     0.164 C 
BRANCH  11  12
HETATM   12  C9  UNL     1     134.913  91.075  66.705  1.00  0.00    -0.031 A 
HETATM   13  C10 UNL     1     135.020  90.612  68.026  1.00  0.00     0.036 A 
HETATM   14  C11 UNL     1     134.491  91.308  69.072  1.00  0.00     0.054 A 
HETATM   15  N3  UNL     1     134.637  90.770  70.382  1.00  0.00    -0.102 NA
HETATM   16  C12 UNL     1     133.843  92.485  68.830  1.00  0.00    -0.026 A 
HETATM   17  C17 UNL     1     133.738  92.942  67.532  1.00  0.00     0.018 A 
HETATM   18  C18 UNL     1     134.268  92.254  66.436  1.00  0.00    -0.042 A 
BRANCH  16  19
HETATM   19  C13 UNL     1     133.271  93.234  69.994  1.00  0.00    -0.022 C 
HETATM   20  C14 UNL     1     134.338  94.102  70.644  1.00  0.00     0.019 C 
HETATM   21  C15 UNL     1     132.219  94.193  69.448  1.00  0.00     0.019 C 
HETATM   22  C16 UNL     1     132.685  92.256  70.960  1.00  0.00     0.019 C 
ENDBRANCH  16  19
BRANCH  18  23
HETATM   23  C19 UNL     1     134.166  92.771  65.069  1.00  0.00    -0.024 C 
HETATM   24  C20 UNL     1     135.372  93.505  64.572  1.00  0.00     0.019 C 
HETATM   25  C21 UNL     1     133.665  91.745  64.077  1.00  0.00     0.019 C 
HETATM   26  C22 UNL     1     133.038  93.827  65.083  1.00  0.00     0.019 C 
ENDBRANCH  18  23
ENDBRANCH  11  12
ENDBRANCH   1  11
BRANCH   1  27
HETATM   27  C23 UNL     1     136.419  88.033  66.305  1.00  0.00     0.172 C 
HETATM   28  S1  UNL     1     137.585  87.843  65.085  1.00  0.00    -0.041 SA
BRANCH  27  29
HETATM   29  N4  UNL     1     136.753  87.393  67.482  1.00  0.00    -0.354 N 
HETATM   30  C24 UNL     1     136.583  85.913  67.582  1.00  0.00     0.151 C 
HETATM   31  C25 UNL     1     137.856  85.350  68.170  1.00  0.00     0.187 C 
HETATM   32  O2  UNL     1     138.065  85.808  69.471  1.00  0.00    -0.388 OA
HETATM   33  C26 UNL     1     137.269  86.892  69.779  1.00  0.00     0.187 C 
HETATM   34  C27 UNL     1     137.268  87.967  68.699  1.00  0.00     0.151 C 
ENDBRANCH  27  29
ENDBRANCH   1  27
TORSDOF 9
ENDMDL
MODEL 3
REMARK VINA RESULT: -8.316891453      1.835      4.655
REMARK  9 active torsions:
REMARK  status: ('A' for Active; 'I' for Inactive)
REMARK    1  A    between atoms: N1_7  and  C6_8 
REMARK    2  A    between atoms: C6_8  and  C7_9 
REMARK    3  A    between atoms: C7_9  and  N2_10 
REMARK    4  A    between atoms: N2_10  and  C8_11 
REMARK    5  A    between atoms: N2_10  and  C23_27 
REMARK    6  A    between atoms: C8_11  and  C9_12 
REMARK    7  A    between atoms: C12_16  and  C13_17 
REMARK    8  A    between atoms: C18_22  and  C19_23 
REMARK    9  A    between atoms: C23_27  and  N4_29 
ROOT
HETATM    1  N2  UNL     1     135.554  88.968  65.954  1.00  0.00    -0.352 N 
ENDROOT
BRANCH   1   2
HETATM    2  C7  UNL     1     134.282  88.404  65.604  1.00  0.00     0.156 C 
BRANCH   2   3
HETATM    3  C6  UNL     1     134.252  88.204  64.105  1.00  0.00     0.293 C 
BRANCH   3   4
HETATM    4  N1  UNL     1     133.185  87.358  63.652  1.00  0.00     0.098 N 
HETATM    5  C2  UNL     1     131.972  88.017  63.306  1.00  0.00     0.242 C 
HETATM    6  C1  UNL     1     130.957  86.984  62.865  1.00  0.00     0.045 C 
HETATM    7  C3  UNL     1     132.168  88.993  62.183  1.00  0.00     0.203 C 
HETATM    8  O1  UNL     1     133.138  88.643  61.282  1.00  0.00    -0.387 OA
HETATM    9  C4  UNL     1     133.405  87.295  61.191  1.00  0.00     0.198 C 
HETATM   10  C5  UNL     1     133.692  86.621  62.496  1.00  0.00     0.299 C 
ENDBRANCH   3   4
ENDBRANCH   2   3
ENDBRANCH   1   2
BRANCH   1  11
HETATM   11  C8  UNL     1     135.768  90.441  65.768  1.00  0.00     0.164 C 
BRANCH  11  12
HETATM   12  C9  UNL     1     135.069  91.196  66.807  1.00  0.00    -0.031 A 
HETATM   13  C10 UNL     1     135.171  90.740  68.131  1.00  0.00     0.036 A 
HETATM   14  C11 UNL     1     134.562  91.392  69.161  1.00  0.00     0.054 A 
HETATM   15  N3  UNL     1     134.708  90.863  70.474  1.00  0.00    -0.102 NA
HETATM   16  C12 UNL     1     133.835  92.518  68.899  1.00  0.00    -0.026 A 
HETATM   17  C17 UNL     1     133.735  92.969  67.599  1.00  0.00     0.018 A 
HETATM   18  C18 UNL     1     134.347  92.325  66.519  1.00  0.00    -0.042 A 
BRANCH  16  19
HETATM   19  C13 UNL     1     133.175  93.220  70.046  1.00  0.00    -0.022 C 
HETATM   20  C14 UNL     1     134.165  94.135  70.750  1.00  0.00     0.019 C 
HETATM   21  C15 UNL     1     132.097  94.129  69.466  1.00  0.00     0.019 C 
HETATM   22  C16 UNL     1     132.602  92.200  70.975  1.00  0.00     0.019 C 
ENDBRANCH  16  19
BRANCH  18  23
HETATM   23  C19 UNL     1     134.248  92.836  65.150  1.00  0.00    -0.024 C 
HETATM   24  C20 UNL     1     135.456  93.563  64.650  1.00  0.00     0.019 C 
HETATM   25  C21 UNL     1     133.743  91.808  64.162  1.00  0.00     0.019 C 
HETATM   26  C22 UNL     1     133.124  93.896  65.159  1.00  0.00     0.019 C 
ENDBRANCH  18  23
ENDBRANCH  11  12
ENDBRANCH   1  11
BRANCH   1  27
HETATM   27  C23 UNL     1     136.614  88.191  66.447  1.00  0.00     0.172 C 
HETATM   28  S1  UNL     1     137.856  87.940  65.316  1.00  0.00    -0.041 SA
BRANCH  27  29
HETATM   29  N4  UNL     1     136.857  87.589  67.665  1.00  0.00    -0.354 N 
HETATM   30  C24 UNL     1     136.639  86.119  67.810  1.00  0.00     0.151 C 
HETATM   31  C25 UNL     1     137.857  85.546  68.497  1.00  0.00     0.187 C 
HETATM   32  O2  UNL     1     137.998  86.050  69.790  1.00  0.00    -0.388 OA
HETATM   33  C26 UNL     1     137.215  87.165  70.007  1.00  0.00     0.187 C 
HETATM   34  C27 UNL     1     137.311  88.196  68.890  1.00  0.00     0.151 C 
ENDBRANCH  27  29
ENDBRANCH   1  27
TORSDOF 9
ENDMDL
MODEL 4
REMARK VINA RESULT: -8.276118286      2.473      4.548
REMARK  9 active torsions:
REMARK  status: ('A' for Active; 'I' for Inactive)
REMARK    1  A    between atoms: N1_7  and  C6_8 
REMARK    2  A    between atoms: C6_8  and  C7_9 
REMARK    3  A    between atoms: C7_9  and  N2_10 
REMARK    4  A    between atoms: N2_10  and  C8_11 
REMARK    5  A    between atoms: N2_10  and  C23_27 
REMARK    6  A    between atoms: C8_11  and  C9_12 
REMARK    7  A    between atoms: C12_16  and  C13_17 
REMARK    8  A    between atoms: C18_22  and  C19_23 
REMARK    9  A    between atoms: C23_27  and  N4_29 
ROOT
HETATM    1  N2  UNL     1     136.052  87.265  65.129  1.00  0.00    -0.352 N 
ENDROOT
BRANCH   1   2
HETATM    2  C7  UNL     1     136.367  86.729  63.836  1.00  0.00     0.156 C 
BRANCH   2   3
HETATM    3  C6  UNL     1     136.595  85.241  63.986  1.00  0.00     0.293 C 
BRANCH   3   4
HETATM    4  N1  UNL     1     137.978  84.858  63.955  1.00  0.00     0.098 N 
HETATM    5  C2  UNL     1     138.481  84.246  65.137  1.00  0.00     0.242 C 
HETATM    6  C1  UNL     1     139.946  83.921  64.940  1.00  0.00     0.045 C 
HETATM    7  C3  UNL     1     137.755  82.972  65.459  1.00  0.00     0.203 C 
HETATM    8  O1  UNL     1     137.300  82.281  64.368  1.00  0.00    -0.387 OA
HETATM    9  C4  UNL     1     137.984  82.506  63.195  1.00  0.00     0.198 C 
HETATM   10  C5  UNL     1     138.138  83.948  62.823  1.00  0.00     0.299 C 
ENDBRANCH   3   4
ENDBRANCH   2   3
ENDBRANCH   1   2
BRANCH   1  11
HETATM   11  C8  UNL     1     134.627  87.616  65.439  1.00  0.00     0.164 C 
BRANCH  11  12
HETATM   12  C9  UNL     1     134.436  89.066  65.396  1.00  0.00    -0.031 A 
HETATM   13  C10 UNL     1     134.879  89.819  66.495  1.00  0.00     0.036 A 
HETATM   14  C11 UNL     1     134.751  91.176  66.530  1.00  0.00     0.054 A 
HETATM   15  N3  UNL     1     135.220  91.867  67.683  1.00  0.00    -0.102 NA
HETATM   16  C12 UNL     1     134.180  91.819  65.470  1.00  0.00    -0.026 A 
HETATM   17  C17 UNL     1     133.745  91.081  64.388  1.00  0.00     0.018 A 
HETATM   18  C18 UNL     1     133.861  89.688  64.319  1.00  0.00    -0.042 A 
BRANCH  16  19
HETATM   19  C13 UNL     1     134.051  93.310  65.529  1.00  0.00    -0.022 C 
HETATM   20  C14 UNL     1     135.377  93.972  65.190  1.00  0.00     0.019 C 
HETATM   21  C15 UNL     1     133.076  93.727  64.433  1.00  0.00     0.019 C 
HETATM   22  C16 UNL     1     133.564  93.702  66.886  1.00  0.00     0.019 C 
ENDBRANCH  16  19
BRANCH  18  23
HETATM   23  C19 UNL     1     133.415  88.928  63.149  1.00  0.00    -0.024 C 
HETATM   24  C20 UNL     1     134.445  88.736  62.081  1.00  0.00     0.019 C 
HETATM   25  C21 UNL     1     132.709  87.639  63.507  1.00  0.00     0.019 C 
HETATM   26  C22 UNL     1     132.302  89.765  62.481  1.00  0.00     0.019 C 
ENDBRANCH  18  23
ENDBRANCH  11  12
ENDBRANCH   1  11
BRANCH   1  27
HETATM   27  C23 UNL     1     137.029  87.492  66.110  1.00  0.00     0.172 C 
HETATM   28  S1  UNL     1     138.391  88.329  65.535  1.00  0.00    -0.041 SA
BRANCH  27  29
HETATM   29  N4  UNL     1     137.112  87.175  67.451  1.00  0.00    -0.354 N 
HETATM   30  C24 UNL     1     136.945  85.754  67.878  1.00  0.00     0.151 C 
HETATM   31  C25 UNL     1     138.070  85.434  68.835  1.00  0.00     0.187 C 
HETATM   32  O2  UNL     1     137.988  86.203  69.996  1.00  0.00    -0.388 OA
HETATM   33  C26 UNL     1     137.129  87.273  69.856  1.00  0.00     0.187 C 
HETATM   34  C27 UNL     1     137.345  88.056  68.567  1.00  0.00     0.151 C 
ENDBRANCH  27  29
ENDBRANCH   1  27
TORSDOF 9
ENDMDL
MODEL 5
REMARK VINA RESULT: -8.202928216      1.451      3.999
REMARK  9 active torsions:
REMARK  status: ('A' for Active; 'I' for Inactive)
REMARK    1  A    between atoms: N1_7  and  C6_8 
REMARK    2  A    between atoms: C6_8  and  C7_9 
REMARK    3  A    between atoms: C7_9  and  N2_10 
REMARK    4  A    between atoms: N2_10  and  C8_11 
REMARK    5  A    between atoms: N2_10  and  C23_27 
REMARK    6  A    between atoms: C8_11  and  C9_12 
REMARK    7  A    between atoms: C12_16  and  C13_17 
REMARK    8  A    between atoms: C18_22  and  C19_23 
REMARK    9  A    between atoms: C23_27  and  N4_29 
ROOT
HETATM    1  N2  UNL     1     135.315  88.840  66.034  1.00  0.00    -0.352 N 
ENDROOT
BRANCH   1   2
HETATM    2  C7  UNL     1     133.969  88.386  66.231  1.00  0.00     0.156 C 
BRANCH   2   3
HETATM    3  C6  UNL     1     133.556  87.593  65.011  1.00  0.00     0.293 C 
BRANCH   3   4
HETATM    4  N1  UNL     1     133.218  88.405  63.877  1.00  0.00     0.098 N 
HETATM    5  C2  UNL     1     133.956  88.150  62.687  1.00  0.00     0.242 C 
HETATM    6  C1  UNL     1     133.486  89.095  61.602  1.00  0.00     0.045 C 
HETATM    7  C3  UNL     1     133.764  86.743  62.201  1.00  0.00     0.203 C 
HETATM    8  O1  UNL     1     132.535  86.205  62.474  1.00  0.00    -0.387 OA
HETATM    9  C4  UNL     1     131.513  87.112  62.638  1.00  0.00     0.198 C 
HETATM   10  C5  UNL     1     131.792  88.203  63.624  1.00  0.00     0.299 C 
ENDBRANCH   3   4
ENDBRANCH   2   3
ENDBRANCH   1   2
BRANCH   1  11
HETATM   11  C8  UNL     1     135.559  90.300  65.795  1.00  0.00     0.164 C 
BRANCH  11  12
HETATM   12  C9  UNL     1     134.925  91.104  66.840  1.00  0.00    -0.031 A 
HETATM   13  C10 UNL     1     134.997  90.637  68.162  1.00  0.00     0.036 A 
HETATM   14  C11 UNL     1     134.445  91.330  69.196  1.00  0.00     0.054 A 
HETATM   15  N3  UNL     1     134.557  90.788  70.508  1.00  0.00    -0.102 NA
HETATM   16  C12 UNL     1     133.806  92.510  68.942  1.00  0.00    -0.026 A 
HETATM   17  C17 UNL     1     133.734  92.972  67.644  1.00  0.00     0.018 A 
HETATM   18  C18 UNL     1     134.290  92.285  66.558  1.00  0.00    -0.042 A 
BRANCH  16  19
HETATM   19  C13 UNL     1     133.208  93.257  70.094  1.00  0.00    -0.022 C 
HETATM   20  C14 UNL     1     134.255  94.134  70.761  1.00  0.00     0.019 C 
HETATM   21  C15 UNL     1     132.158  94.206  69.527  1.00  0.00     0.019 C 
HETATM   22  C16 UNL     1     132.612  92.276  71.052  1.00  0.00     0.019 C 
ENDBRANCH  16  19
BRANCH  18  23
HETATM   23  C19 UNL     1     134.223  92.808  65.192  1.00  0.00    -0.024 C 
HETATM   24  C20 UNL     1     135.457  93.507  64.714  1.00  0.00     0.019 C 
HETATM   25  C21 UNL     1     133.708  91.799  64.190  1.00  0.00     0.019 C 
HETATM   26  C22 UNL     1     133.126  93.896  65.191  1.00  0.00     0.019 C 
ENDBRANCH  18  23
ENDBRANCH  11  12
ENDBRANCH   1  11
BRANCH   1  27
HETATM   27  C23 UNL     1     136.414  87.967  66.037  1.00  0.00     0.172 C 
HETATM   28  S1  UNL     1     136.497  86.982  67.419  1.00  0.00    -0.041 SA
BRANCH  27  29
HETATM   29  N4  UNL     1     137.443  87.742  65.145  1.00  0.00    -0.354 N 
HETATM   30  C24 UNL     1     137.212  86.844  63.975  1.00  0.00     0.151 C 
HETATM   31  C25 UNL     1     137.741  87.553  62.749  1.00  0.00     0.187 C 
HETATM   32  O2  UNL     1     139.120  87.747  62.826  1.00  0.00    -0.388 OA
HETATM   33  C26 UNL     1     139.605  87.557  64.104  1.00  0.00     0.187 C 
HETATM   34  C27 UNL     1     138.784  88.267  65.173  1.00  0.00     0.151 C 
ENDBRANCH  27  29
ENDBRANCH   1  27
TORSDOF 9
ENDMDL
