MODEL 1
REMARK VINA RESULT: -10.205548748      0.000      0.000
REMARK  7 active torsions:
REMARK  status: ('A' for Active; 'I' for Inactive)
REMARK    1  A    between atoms: C4_5  and  C5_6 
REMARK    2  A    between atoms: C5_6  and  N1_7 
REMARK    3  A    between atoms: N2_10  and  C8_11 
REMARK    4  A    between atoms: C8_11  and  C9_12 
REMARK    5  A    between atoms: N3_15  and  C12_16 
REMARK    6  A    between atoms: C12_16  and  C13_17 
REMARK    7  A    between atoms: C24_28  and  O2_29 
ROOT
HETATM    1  N1  UNL     1     135.791  87.144  65.049  1.00  0.00     0.095 N 
HETATM    2  C6  UNL     1     136.668  88.346  65.014  1.00  0.00     0.293 C 
HETATM    3  C7  UNL     1     135.945  89.396  65.864  1.00  0.00     0.157 C 
HETATM    4  N2  UNL     1     134.948  89.971  65.022  1.00  0.00    -0.370 N 
HETATM    5  C20 UNL     1     134.460  89.037  64.105  1.00  0.00     0.093 C 
HETATM    6  C21 UNL     1     134.564  87.575  64.472  1.00  0.00     0.317 C 
ENDROOT
BRANCH   1   7
HETATM    7  C5  UNL     1     136.493  86.070  64.446  1.00  0.00     0.282 C 
BRANCH   7   8
HETATM    8  C4  UNL     1     137.592  85.389  65.196  1.00  0.00    -0.008 C 
HETATM    9  C3  UNL     1     138.925  85.934  64.764  1.00  0.00     0.019 C 
HETATM   10  C2  UNL     1     140.051  85.503  65.718  1.00  0.00     0.080 C 
HETATM   11  C1  UNL     1     139.604  84.473  66.679  1.00  0.00     0.139 C 
HETATM   12  O1  UNL     1     140.246  83.457  66.876  1.00  0.00    -0.297 OA
HETATM   13  C30 UNL     1     138.348  84.682  67.417  1.00  0.00     0.056 C 
HETATM   14  C24 UNL     1     137.414  83.493  67.368  1.00  0.00     0.073 C 
HETATM   15  C29 UNL     1     138.528  85.060  68.852  1.00  0.00     0.021 C 
HETATM   16  C31 UNL     1     137.522  85.699  66.666  1.00  0.00     0.019 C 
HETATM   17  C23 UNL     1     137.289  82.975  65.971  1.00  0.00     0.040 C 
HETATM   18  C25 UNL     1     136.063  84.094  67.744  1.00  0.00     0.044 C 
HETATM   19  C22 UNL     1     137.623  83.912  64.891  1.00  0.00     0.014 C 
HETATM   20  C26 UNL     1     136.215  85.553  67.336  1.00  0.00    -0.006 C 
HETATM   21  C27 UNL     1     136.329  86.308  68.672  1.00  0.00     0.005 C 
HETATM   22  C28 UNL     1     137.669  86.196  69.301  1.00  0.00     0.002 C 
BRANCH  14  23
HETATM   23  O2  UNL     1     137.730  82.542  68.311  1.00  0.00    -0.389 OA
ATOM     24  H2  UNL     1     138.616  82.594  68.649  1.00  0.00     0.210 HD
ENDBRANCH  14  23
ENDBRANCH   7   8
ENDBRANCH   1   7
BRANCH   4  25
HETATM   25  C8  UNL     1     134.092  90.841  65.707  1.00  0.00     0.069 C 
BRANCH  25  26
HETATM   26  C9  UNL     1     134.786  91.857  66.582  1.00  0.00     0.054 C 
HETATM   27  C10 UNL     1     133.820  92.624  67.440  1.00  0.00     0.042 C 
HETATM   28  C11 UNL     1     133.420  93.781  66.595  1.00  0.00     0.273 C 
HETATM   29  N3  UNL     1     134.386  93.947  65.532  1.00  0.00     0.093 N 
HETATM   30  C19 UNL     1     135.368  92.921  65.649  1.00  0.00     0.282 C 
BRANCH  29  31
HETATM   31  C12 UNL     1     134.930  95.284  65.515  1.00  0.00     0.311 C 
BRANCH  31  32
HETATM   32  C13 UNL     1     135.201  95.817  64.166  1.00  0.00    -0.030 A 
HETATM   33  C14 UNL     1     134.212  96.464  63.428  1.00  0.00     0.009 A 
HETATM   34  C15 UNL     1     134.445  96.988  62.178  1.00  0.00     0.001 A 
HETATM   35  C16 UNL     1     135.675  96.889  61.602  1.00  0.00     0.000 A 
HETATM   36  C17 UNL     1     136.688  96.260  62.289  1.00  0.00     0.001 A 
HETATM   37  C18 UNL     1     136.446  95.735  63.547  1.00  0.00     0.009 A 
ENDBRANCH  31  32
ENDBRANCH  29  31
ENDBRANCH  25  26
ENDBRANCH   4  25
TORSDOF 7
ENDMDL
MODEL 2
REMARK VINA RESULT: -10.170487914      1.268      2.870
REMARK  7 active torsions:
REMARK  status: ('A' for Active; 'I' for Inactive)
REMARK    1  A    between atoms: C4_5  and  C5_6 
REMARK    2  A    between atoms: C5_6  and  N1_7 
REMARK    3  A    between atoms: N2_10  and  C8_11 
REMARK    4  A    between atoms: C8_11  and  C9_12 
REMARK    5  A    between atoms: N3_15  and  C12_16 
REMARK    6  A    between atoms: C12_16  and  C13_17 
REMARK    7  A    between atoms: C24_28  and  O2_29 
ROOT
HETATM    1  N1  UNL     1     135.507  87.831  65.543  1.00  0.00     0.095 N 
HETATM    2  C6  UNL     1     134.198  88.026  64.860  1.00  0.00     0.293 C 
HETATM    3  C7  UNL     1     134.315  89.378  64.149  1.00  0.00     0.157 C 
HETATM    4  N2  UNL     1     134.064  90.372  65.140  1.00  0.00    -0.370 N 
HETATM    5  C20 UNL     1     134.506  89.954  66.398  1.00  0.00     0.093 C 
HETATM    6  C21 UNL     1     135.611  88.925  66.446  1.00  0.00     0.317 C 
ENDROOT
BRANCH   1   7
HETATM    7  C5  UNL     1     135.540  86.510  66.058  1.00  0.00     0.282 C 
BRANCH   7   8
HETATM    8  C4  UNL     1     136.848  85.895  66.437  1.00  0.00    -0.008 C 
HETATM    9  C3  UNL     1     136.739  85.246  67.789  1.00  0.00     0.019 C 
HETATM   10  C2  UNL     1     137.943  84.336  68.082  1.00  0.00     0.080 C 
HETATM   11  C1  UNL     1     139.022  84.501  67.085  1.00  0.00     0.139 C 
HETATM   12  O1  UNL     1     140.183  84.661  67.416  1.00  0.00    -0.297 OA
HETATM   13  C30 UNL     1     138.682  84.471  65.654  1.00  0.00     0.056 C 
HETATM   14  C24 UNL     1     139.261  85.629  64.871  1.00  0.00     0.073 C 
HETATM   15  C29 UNL     1     139.069  83.209  64.951  1.00  0.00     0.021 C 
HETATM   16  C31 UNL     1     137.208  84.765  65.511  1.00  0.00     0.019 C 
HETATM   17  C23 UNL     1     139.026  86.921  65.586  1.00  0.00     0.040 C 
HETATM   18  C25 UNL     1     138.408  85.657  63.605  1.00  0.00     0.044 C 
HETATM   19  C22 UNL     1     137.926  86.942  66.560  1.00  0.00     0.014 C 
HETATM   20  C26 UNL     1     137.106  85.010  64.059  1.00  0.00    -0.006 C 
HETATM   21  C27 UNL     1     137.119  83.626  63.387  1.00  0.00     0.005 C 
HETATM   22  C28 UNL     1     138.007  82.648  64.064  1.00  0.00     0.002 C 
BRANCH  14  23
HETATM   23  O2  UNL     1     140.565  85.405  64.496  1.00  0.00    -0.389 OA
ATOM     24  H2  UNL     1     140.713  85.383  63.558  1.00  0.00     0.210 HD
ENDBRANCH  14  23
ENDBRANCH   7   8
ENDBRANCH   1   7
BRANCH   4  25
HETATM   25  C8  UNL     1     134.293  91.672  64.677  1.00  0.00     0.069 C 
BRANCH  25  26
HETATM   26  C9  UNL     1     134.619  92.681  65.752  1.00  0.00     0.054 C 
HETATM   27  C10 UNL     1     133.398  93.410  66.240  1.00  0.00     0.042 C 
HETATM   28  C11 UNL     1     133.281  94.578  65.326  1.00  0.00     0.273 C 
HETATM   29  N3  UNL     1     134.547  94.787  64.660  1.00  0.00     0.093 N 
HETATM   30  C19 UNL     1     135.457  93.778  65.091  1.00  0.00     0.282 C 
BRANCH  29  31
HETATM   31  C12 UNL     1     135.030  96.134  64.850  1.00  0.00     0.311 C 
BRANCH  31  32
HETATM   32  C13 UNL     1     135.584  96.763  63.635  1.00  0.00    -0.030 A 
HETATM   33  C14 UNL     1     134.993  97.889  63.066  1.00  0.00     0.009 A 
HETATM   34  C15 UNL     1     135.501  98.505  61.946  1.00  0.00     0.001 A 
HETATM   35  C16 UNL     1     136.623  98.027  61.340  1.00  0.00     0.000 A 
HETATM   36  C17 UNL     1     137.246  96.917  61.863  1.00  0.00     0.001 A 
HETATM   37  C18 UNL     1     136.729  96.302  62.990  1.00  0.00     0.009 A 
ENDBRANCH  31  32
ENDBRANCH  29  31
ENDBRANCH  25  26
ENDBRANCH   4  25
TORSDOF 7
ENDMDL
MODEL 3
REMARK VINA RESULT: -10.150122473      1.294      1.888
REMARK  7 active torsions:
REMARK  status: ('A' for Active; 'I' for Inactive)
REMARK    1  A    between atoms: C4_5  and  C5_6 
REMARK    2  A    between atoms: C5_6  and  N1_7 
REMARK    3  A    between atoms: N2_10  and  C8_11 
REMARK    4  A    between atoms: C8_11  and  C9_12 
REMARK    5  A    between atoms: N3_15  and  C12_16 
REMARK    6  A    between atoms: C12_16  and  C13_17 
REMARK    7  A    between atoms: C24_28  and  O2_29 
ROOT
HETATM    1  N1  UNL     1     135.728  88.054  64.024  1.00  0.00     0.095 N 
HETATM    2  C6  UNL     1     134.361  88.128  63.438  1.00  0.00     0.293 C 
HETATM    3  C7  UNL     1     134.137  89.612  63.129  1.00  0.00     0.157 C 
HETATM    4  N2  UNL     1     133.755  90.222  64.360  1.00  0.00    -0.370 N 
HETATM    5  C20 UNL     1     134.367  89.592  65.447  1.00  0.00     0.093 C 
HETATM    6  C21 UNL     1     135.665  88.861  65.194  1.00  0.00     0.317 C 
ENDROOT
BRANCH   1   7
HETATM    7  C5  UNL     1     136.077  86.686  64.151  1.00  0.00     0.282 C 
BRANCH   7   8
HETATM    8  C4  UNL     1     137.507  86.302  64.356  1.00  0.00    -0.008 C 
HETATM    9  C3  UNL     1     138.382  87.523  64.292  1.00  0.00     0.019 C 
HETATM   10  C2  UNL     1     139.802  87.232  64.806  1.00  0.00     0.080 C 
HETATM   11  C1  UNL     1     140.036  85.787  65.011  1.00  0.00     0.139 C 
HETATM   12  O1  UNL     1     141.029  85.230  64.579  1.00  0.00    -0.297 OA
HETATM   13  C30 UNL     1     139.040  85.001  65.756  1.00  0.00     0.056 C 
HETATM   14  C24 UNL     1     138.623  83.730  65.050  1.00  0.00     0.073 C 
HETATM   15  C29 UNL     1     139.453  84.635  67.146  1.00  0.00     0.021 C 
HETATM   16  C31 UNL     1     137.732  85.756  65.739  1.00  0.00     0.019 C 
HETATM   17  C23 UNL     1     138.319  83.999  63.611  1.00  0.00     0.040 C 
HETATM   18  C25 UNL     1     137.302  83.372  65.727  1.00  0.00     0.044 C 
HETATM   19  C22 UNL     1     137.986  85.385  63.258  1.00  0.00     0.014 C 
HETATM   20  C26 UNL     1     136.800  84.720  66.226  1.00  0.00    -0.006 C 
HETATM   21  C27 UNL     1     136.992  84.650  67.751  1.00  0.00     0.005 C 
HETATM   22  C28 UNL     1     138.399  84.855  68.180  1.00  0.00     0.002 C 
BRANCH  14  23
HETATM   23  O2  UNL     1     139.504  82.697  65.272  1.00  0.00    -0.389 OA
ATOM     24  H2  UNL     1     139.809  82.617  66.168  1.00  0.00     0.210 HD
ENDBRANCH  14  23
ENDBRANCH   7   8
ENDBRANCH   1   7
BRANCH   4  25
HETATM   25  C8  UNL     1     133.670  91.616  64.274  1.00  0.00     0.069 C 
BRANCH  25  26
HETATM   26  C9  UNL     1     134.345  92.365  65.398  1.00  0.00     0.054 C 
HETATM   27  C10 UNL     1     133.381  93.218  66.174  1.00  0.00     0.042 C 
HETATM   28  C11 UNL     1     133.380  94.517  65.449  1.00  0.00     0.273 C 
HETATM   29  N3  UNL     1     134.555  94.594  64.611  1.00  0.00     0.093 N 
HETATM   30  C19 UNL     1     135.289  93.380  64.749  1.00  0.00     0.282 C 
BRANCH  29  31
HETATM   31  C12 UNL     1     135.326  95.782  64.887  1.00  0.00     0.311 C 
BRANCH  31  32
HETATM   32  C13 UNL     1     135.726  96.545  63.688  1.00  0.00    -0.030 A 
HETATM   33  C14 UNL     1     134.976  97.626  63.231  1.00  0.00     0.009 A 
HETATM   34  C15 UNL     1     135.337  98.365  62.129  1.00  0.00     0.001 A 
HETATM   35  C16 UNL     1     136.465  98.059  61.428  1.00  0.00     0.000 A 
HETATM   36  C17 UNL     1     137.242  97.000  61.838  1.00  0.00     0.001 A 
HETATM   37  C18 UNL     1     136.871  96.261  62.948  1.00  0.00     0.009 A 
ENDBRANCH  31  32
ENDBRANCH  29  31
ENDBRANCH  25  26
ENDBRANCH   4  25
TORSDOF 7
ENDMDL
MODEL 4
REMARK VINA RESULT: -10.005661508      1.401      3.147
REMARK  7 active torsions:
REMARK  status: ('A' for Active; 'I' for Inactive)
REMARK    1  A    between atoms: C4_5  and  C5_6 
REMARK    2  A    between atoms: C5_6  and  N1_7 
REMARK    3  A    between atoms: N2_10  and  C8_11 
REMARK    4  A    between atoms: C8_11  and  C9_12 
REMARK    5  A    between atoms: N3_15  and  C12_16 
REMARK    6  A    between atoms: C12_16  and  C13_17 
REMARK    7  A    between atoms: C24_28  and  O2_29 
ROOT
HETATM    1  N1  UNL     1     135.676  88.493  65.940  1.00  0.00     0.095 N 
HETATM    2  C6  UNL     1     134.412  88.956  65.305  1.00  0.00     0.293 C 
HETATM    3  C7  UNL     1     134.616  90.453  65.050  1.00  0.00     0.157 C 
HETATM    4  N2  UNL     1     134.355  91.107  66.289  1.00  0.00    -0.370 N 
HETATM    5  C20 UNL     1     134.719  90.302  67.372  1.00  0.00     0.093 C 
HETATM    6  C21 UNL     1     135.778  89.251  67.139  1.00  0.00     0.317 C 
ENDROOT
BRANCH   1   7
HETATM    7  C5  UNL     1     135.633  87.078  66.023  1.00  0.00     0.282 C 
BRANCH   7   8
HETATM    8  C4  UNL     1     136.856  86.321  66.427  1.00  0.00    -0.008 C 
HETATM    9  C3  UNL     1     136.658  85.710  67.786  1.00  0.00     0.019 C 
HETATM   10  C2  UNL     1     137.746  84.672  68.106  1.00  0.00     0.080 C 
HETATM   11  C1  UNL     1     138.847  84.695  67.120  1.00  0.00     0.139 C 
HETATM   12  O1  UNL     1     140.014  84.724  67.463  1.00  0.00    -0.297 OA
HETATM   13  C30 UNL     1     138.520  84.682  65.686  1.00  0.00     0.056 C 
HETATM   14  C24 UNL     1     139.238  85.753  64.894  1.00  0.00     0.073 C 
HETATM   15  C29 UNL     1     138.765  83.373  65.005  1.00  0.00     0.021 C 
HETATM   16  C31 UNL     1     137.091  85.143  65.521  1.00  0.00     0.019 C 
HETATM   17  C23 UNL     1     139.147  87.074  65.588  1.00  0.00     0.040 C 
HETATM   18  C25 UNL     1     138.407  85.860  63.618  1.00  0.00     0.044 C 
HETATM   19  C22 UNL     1     138.047  87.238  66.548  1.00  0.00     0.014 C 
HETATM   20  C26 UNL     1     137.034  85.376  64.065  1.00  0.00    -0.006 C 
HETATM   21  C27 UNL     1     136.893  83.990  63.412  1.00  0.00     0.005 C 
HETATM   22  C28 UNL     1     137.654  82.926  64.114  1.00  0.00     0.002 C 
BRANCH  14  23
HETATM   23  O2  UNL     1     140.511  85.373  64.538  1.00  0.00    -0.389 OA
ATOM     24  H2  UNL     1     140.952  85.965  63.941  1.00  0.00     0.210 HD
ENDBRANCH  14  23
ENDBRANCH   7   8
ENDBRANCH   1   7
BRANCH   4  25
HETATM   25  C8  UNL     1     134.657  92.473  66.258  1.00  0.00     0.069 C 
BRANCH  25  26
HETATM   26  C9  UNL     1     134.831  93.055  64.876  1.00  0.00     0.054 C 
HETATM   27  C10 UNL     1     135.902  94.109  64.831  1.00  0.00     0.042 C 
HETATM   28  C11 UNL     1     135.185  95.371  65.158  1.00  0.00     0.273 C 
HETATM   29  N3  UNL     1     133.766  95.174  64.963  1.00  0.00     0.093 N 
HETATM   30  C19 UNL     1     133.549  93.825  64.555  1.00  0.00     0.282 C 
BRANCH  29  31
HETATM   31  C12 UNL     1     133.214  96.157  64.061  1.00  0.00     0.311 C 
BRANCH  31  32
HETATM   32  C13 UNL     1     134.221  96.972  63.354  1.00  0.00    -0.030 A 
HETATM   33  C14 UNL     1     134.940  96.463  62.275  1.00  0.00     0.009 A 
HETATM   34  C15 UNL     1     135.869  97.208  61.587  1.00  0.00     0.001 A 
HETATM   35  C16 UNL     1     136.126  98.498  61.944  1.00  0.00     0.000 A 
HETATM   36  C17 UNL     1     135.443  99.049  63.003  1.00  0.00     0.001 A 
HETATM   37  C18 UNL     1     134.510  98.292  63.691  1.00  0.00     0.009 A 
ENDBRANCH  31  32
ENDBRANCH  29  31
ENDBRANCH  25  26
ENDBRANCH   4  25
TORSDOF 7
ENDMDL
MODEL 5
REMARK VINA RESULT: -9.531283118      1.363      2.247
REMARK  7 active torsions:
REMARK  status: ('A' for Active; 'I' for Inactive)
REMARK    1  A    between atoms: C4_5  and  C5_6 
REMARK    2  A    between atoms: C5_6  and  N1_7 
REMARK    3  A    between atoms: N2_10  and  C8_11 
REMARK    4  A    between atoms: C8_11  and  C9_12 
REMARK    5  A    between atoms: N3_15  and  C12_16 
REMARK    6  A    between atoms: C12_16  and  C13_17 
REMARK    7  A    between atoms: C24_28  and  O2_29 
ROOT
HETATM    1  N1  UNL     1     135.823  88.841  65.562  1.00  0.00     0.095 N 
HETATM    2  C6  UNL     1     134.430  89.243  65.225  1.00  0.00     0.293 C 
HETATM    3  C7  UNL     1     134.492  90.757  64.998  1.00  0.00     0.157 C 
HETATM    4  N2  UNL     1     134.463  91.354  66.292  1.00  0.00    -0.370 N 
HETATM    5  C20 UNL     1     135.090  90.541  67.239  1.00  0.00     0.093 C 
HETATM    6  C21 UNL     1     136.133  89.566  66.745  1.00  0.00     0.317 C 
ENDROOT
BRANCH   1   7
HETATM    7  C5  UNL     1     135.877  87.424  65.591  1.00  0.00     0.282 C 
BRANCH   7   8
HETATM    8  C4  UNL     1     137.156  86.724  65.268  1.00  0.00    -0.008 C 
HETATM    9  C3  UNL     1     138.198  87.723  64.845  1.00  0.00     0.019 C 
HETATM   10  C2  UNL     1     139.602  87.099  64.811  1.00  0.00     0.080 C 
HETATM   11  C1  UNL     1     139.564  85.629  64.963  1.00  0.00     0.139 C 
HETATM   12  O1  UNL     1     140.178  84.891  64.215  1.00  0.00    -0.297 OA
HETATM   13  C30 UNL     1     138.762  85.045  66.049  1.00  0.00     0.056 C 
HETATM   14  C24 UNL     1     137.841  83.936  65.589  1.00  0.00     0.073 C 
HETATM   15  C29 UNL     1     139.561  84.525  67.200  1.00  0.00     0.021 C 
HETATM   16  C31 UNL     1     137.743  86.070  66.488  1.00  0.00     0.019 C 
HETATM   17  C23 UNL     1     137.101  84.340  64.354  1.00  0.00     0.040 C 
HETATM   18  C25 UNL     1     136.815  83.844  66.716  1.00  0.00     0.044 C 
HETATM   19  C22 UNL     1     136.981  85.782  64.103  1.00  0.00     0.014 C 
HETATM   20  C26 UNL     1     136.847  85.241  67.319  1.00  0.00    -0.006 C 
HETATM   21  C27 UNL     1     137.563  85.052  68.668  1.00  0.00     0.005 C 
HETATM   22  C28 UNL     1     139.037  84.918  68.541  1.00  0.00     0.002 C 
BRANCH  14  23
HETATM   23  O2  UNL     1     138.486  82.724  65.506  1.00  0.00    -0.389 OA
ATOM     24  H2  UNL     1     139.244  82.635  66.072  1.00  0.00     0.210 HD
ENDBRANCH  14  23
ENDBRANCH   7   8
ENDBRANCH   1   7
BRANCH   4  25
HETATM   25  C8  UNL     1     134.675  92.737  66.259  1.00  0.00     0.069 C 
BRANCH  25  26
HETATM   26  C9  UNL     1     134.864  93.318  64.878  1.00  0.00     0.054 C 
HETATM   27  C10 UNL     1     136.002  94.298  64.822  1.00  0.00     0.042 C 
HETATM   28  C11 UNL     1     135.377  95.602  65.172  1.00  0.00     0.273 C 
HETATM   29  N3  UNL     1     133.945  95.503  65.001  1.00  0.00     0.093 N 
HETATM   30  C19 UNL     1     133.630  94.175  64.586  1.00  0.00     0.282 C 
BRANCH  29  31
HETATM   31  C12 UNL     1     133.444  96.529  64.117  1.00  0.00     0.311 C 
BRANCH  31  32
HETATM   32  C13 UNL     1     134.472  97.152  63.260  1.00  0.00    -0.030 A 
HETATM   33  C14 UNL     1     135.111  96.434  62.252  1.00  0.00     0.009 A 
HETATM   34  C15 UNL     1     136.056  96.997  61.428  1.00  0.00     0.001 A 
HETATM   35  C16 UNL     1     136.411  98.304  61.570  1.00  0.00     0.000 A 
HETATM   36  C17 UNL     1     135.809  99.059  62.550  1.00  0.00     0.001 A 
HETATM   37  C18 UNL     1     134.859  98.485  63.377  1.00  0.00     0.009 A 
ENDBRANCH  31  32
ENDBRANCH  29  31
ENDBRANCH  25  26
ENDBRANCH   4  25
TORSDOF 7
ENDMDL
