MODEL 1
REMARK VINA RESULT: -9.367426370      0.000      0.000
REMARK  7 active torsions:
REMARK  status: ('A' for Active; 'I' for Inactive)
REMARK    1  A    between atoms: C4_4  and  O1_6 
REMARK    2  A    between atoms: O1_6  and  C6_7 
REMARK    3  A    between atoms: C22_25  and  C24_27 
REMARK    4  A    between atoms: C24_27  and  C25_28 
REMARK    5  A    between atoms: C26_29  and  C27_30 
REMARK       I    between atoms: C27_30  and  N2_32 
REMARK    6  A    between atoms: N2_32  and  O4_33 
REMARK    7  A    between atoms: N2_32  and  C28_35 
ROOT
HETATM    1  C1  UNL     1     129.238  92.180  61.502  1.00  0.00     0.017 C 
HETATM    2  C2  UNL     1     130.014  91.350  61.890  1.00  0.00    -0.087 C 
HETATM    3  C3  UNL     1     130.925  90.366  62.334  1.00  0.00     0.095 C 
HETATM    4  C4  UNL     1     131.751  89.711  61.534  1.00  0.00     0.051 C 
HETATM    5  C5  UNL     1     131.707  90.037  60.085  1.00  0.00     0.077 C 
ENDROOT
BRANCH   4   6
HETATM    6  O1  UNL     1     132.635  88.754  61.982  1.00  0.00    -0.349 OA
BRANCH   6   7
HETATM    7  C6  UNL     1     133.948  89.010  62.436  1.00  0.00     0.133 C 
HETATM    8  C7  UNL     1     133.863  89.789  63.736  1.00  0.00     0.033 C 
HETATM    9  C8  UNL     1     133.658  88.891  64.919  1.00  0.00     0.008 C 
HETATM   10  C9  UNL     1     134.759  88.090  65.413  1.00  0.00     0.000 C 
HETATM   11  C10 UNL     1     136.026  87.936  64.665  1.00  0.00    -0.004 C 
HETATM   12  C18 UNL     1     135.102  88.572  66.834  1.00  0.00    -0.019 C 
HETATM   13  C11 UNL     1     136.736  86.687  65.225  1.00  0.00     0.007 C 
HETATM   14  C20 UNL     1     136.019  88.027  63.215  1.00  0.00     0.006 A 
HETATM   15  C12 UNL     1     136.596  86.610  66.732  1.00  0.00     0.026 C 
HETATM   16  C13 UNL     1     136.422  87.968  67.263  1.00  0.00     0.095 C 
HETATM   17  N1  UNL     1     136.398  88.036  68.727  1.00  0.00    -0.351 N 
HETATM   18  C14 UNL     1     136.719  86.968  69.608  1.00  0.00     0.153 C 
HETATM   19  C15 UNL     1     136.006  89.349  69.188  1.00  0.00     0.219 C 
HETATM   20  O2  UNL     1     135.650  89.508  70.367  1.00  0.00    -0.273 OA
HETATM   21  C16 UNL     1     136.075  90.411  68.150  1.00  0.00     0.103 C 
HETATM   22  C17 UNL     1     135.282  90.065  66.901  1.00  0.00     0.020 C 
HETATM   23  C21 UNL     1     134.565  87.690  62.790  1.00  0.00     0.029 A 
HETATM   24  C22 UNL     1     135.751  87.117  62.139  1.00  0.00    -0.030 A 
HETATM   25  C23 UNL     1     135.885  87.648  60.699  1.00  0.00     0.016 C 
HETATM   26  C19 UNL     1     133.964  88.213  67.752  1.00  0.00     0.018 C 
BRANCH  24  27
HETATM   27  C24 UNL     1     135.956  85.620  62.140  1.00  0.00     0.037 C 
BRANCH  27  28
HETATM   28  C25 UNL     1     137.354  85.229  61.923  1.00  0.00    -0.020 C 
HETATM   29  C26 UNL     1     138.072  84.322  62.503  1.00  0.00     0.072 C 
BRANCH  29  30
HETATM   30  C27 UNL     1     137.753  83.394  63.549  1.00  0.00     0.267 C 
HETATM   31  O3  UNL     1     136.886  82.506  63.394  1.00  0.00    -0.266 OA
HETATM   32  N2  UNL     1     138.405  83.432  64.831  1.00  0.00    -0.212 N 
BRANCH  32  33
HETATM   33  O4  UNL     1     138.039  82.520  65.749  1.00  0.00    -0.284 OA
ATOM     34  H4  UNL     1     137.452  82.798  66.442  1.00  0.00     0.245 HD
ENDBRANCH  32  33
BRANCH  32  35
HETATM   35  C28 UNL     1     139.430  84.412  65.149  1.00  0.00     0.283 C 
HETATM   36  C29 UNL     1     139.739  84.453  66.574  1.00  0.00     0.081 C 
HETATM   37  N3  UNL     1     139.983  84.485  67.700  1.00  0.00    -0.195 NA
ENDBRANCH  32  35
ENDBRANCH  29  30
ENDBRANCH  27  28
ENDBRANCH  24  27
ENDBRANCH   6   7
ENDBRANCH   4   6
TORSDOF 7
ENDMDL
MODEL 2
REMARK VINA RESULT: -9.308824085      1.459      1.862
REMARK  7 active torsions:
REMARK  status: ('A' for Active; 'I' for Inactive)
REMARK    1  A    between atoms: C4_4  and  O1_6 
REMARK    2  A    between atoms: O1_6  and  C6_7 
REMARK    3  A    between atoms: C22_25  and  C24_27 
REMARK    4  A    between atoms: C24_27  and  C25_28 
REMARK    5  A    between atoms: C26_29  and  C27_30 
REMARK       I    between atoms: C27_30  and  N2_32 
REMARK    6  A    between atoms: N2_32  and  O4_33 
REMARK    7  A    between atoms: N2_32  and  C28_35 
ROOT
HETATM    1  C1  UNL     1     130.452  84.486  61.976  1.00  0.00     0.017 C 
HETATM    2  C2  UNL     1     130.919  85.573  62.183  1.00  0.00    -0.087 C 
HETATM    3  C3  UNL     1     131.479  86.849  62.417  1.00  0.00     0.095 C 
HETATM    4  C4  UNL     1     132.256  87.484  61.554  1.00  0.00     0.051 C 
HETATM    5  C5  UNL     1     132.549  86.803  60.266  1.00  0.00     0.077 C 
ENDROOT
BRANCH   4   6
HETATM    6  O1  UNL     1     132.795  88.728  61.797  1.00  0.00    -0.349 OA
BRANCH   6   7
HETATM    7  C6  UNL     1     134.097  88.966  62.291  1.00  0.00     0.133 C 
HETATM    8  C7  UNL     1     133.983  89.761  63.579  1.00  0.00     0.033 C 
HETATM    9  C8  UNL     1     133.724  88.879  64.765  1.00  0.00     0.008 C 
HETATM   10  C9  UNL     1     134.793  88.064  65.302  1.00  0.00     0.000 C 
HETATM   11  C10 UNL     1     136.082  87.880  64.598  1.00  0.00    -0.004 C 
HETATM   12  C18 UNL     1     135.098  88.556  66.728  1.00  0.00    -0.019 C 
HETATM   13  C11 UNL     1     136.750  86.624  65.194  1.00  0.00     0.007 C 
HETATM   14  C20 UNL     1     136.123  87.955  63.147  1.00  0.00     0.006 A 
HETATM   15  C12 UNL     1     136.560  86.567  66.696  1.00  0.00     0.026 C 
HETATM   16  C13 UNL     1     136.393  87.933  67.207  1.00  0.00     0.095 C 
HETATM   17  N1  UNL     1     136.323  88.018  68.669  1.00  0.00    -0.351 N 
HETATM   18  C14 UNL     1     136.595  86.955  69.570  1.00  0.00     0.153 C 
HETATM   19  C15 UNL     1     135.939  89.343  69.103  1.00  0.00     0.219 C 
HETATM   20  O2  UNL     1     135.548  89.521  70.268  1.00  0.00    -0.273 OA
HETATM   21  C16 UNL     1     136.061  90.392  68.057  1.00  0.00     0.103 C 
HETATM   22  C17 UNL     1     135.303  90.047  66.786  1.00  0.00     0.020 C 
HETATM   23  C21 UNL     1     134.678  87.639  62.679  1.00  0.00     0.029 A 
HETATM   24  C22 UNL     1     135.874  87.038  62.073  1.00  0.00    -0.030 A 
HETATM   25  C23 UNL     1     136.065  87.551  60.633  1.00  0.00     0.016 C 
HETATM   26  C19 UNL     1     133.925  88.227  67.612  1.00  0.00     0.018 C 
BRANCH  24  27
HETATM   27  C24 UNL     1     136.052  85.537  62.096  1.00  0.00     0.037 C 
BRANCH  27  28
HETATM   28  C25 UNL     1     137.446  85.119  61.913  1.00  0.00    -0.020 C 
HETATM   29  C26 UNL     1     138.139  84.214  62.526  1.00  0.00     0.072 C 
BRANCH  29  30
HETATM   30  C27 UNL     1     137.786  83.315  63.586  1.00  0.00     0.267 C 
HETATM   31  O3  UNL     1     136.901  82.444  63.438  1.00  0.00    -0.266 OA
HETATM   32  N2  UNL     1     138.425  83.363  64.875  1.00  0.00    -0.212 N 
BRANCH  32  33
HETATM   33  O4  UNL     1     138.027  82.479  65.807  1.00  0.00    -0.284 OA
ATOM     34  H4  UNL     1     138.694  82.076  66.349  1.00  0.00     0.245 HD
ENDBRANCH  32  33
BRANCH  32  35
HETATM   35  C28 UNL     1     139.469  84.326  65.185  1.00  0.00     0.283 C 
HETATM   36  C29 UNL     1     139.715  84.437  66.618  1.00  0.00     0.081 C 
HETATM   37  N3  UNL     1     139.910  84.526  67.751  1.00  0.00    -0.195 NA
ENDBRANCH  32  35
ENDBRANCH  29  30
ENDBRANCH  27  28
ENDBRANCH  24  27
ENDBRANCH   6   7
ENDBRANCH   4   6
TORSDOF 7
ENDMDL
MODEL 3
REMARK VINA RESULT: -9.212910566      3.332      6.304
REMARK  7 active torsions:
REMARK  status: ('A' for Active; 'I' for Inactive)
REMARK    1  A    between atoms: C4_4  and  O1_6 
REMARK    2  A    between atoms: O1_6  and  C6_7 
REMARK    3  A    between atoms: C22_25  and  C24_27 
REMARK    4  A    between atoms: C24_27  and  C25_28 
REMARK    5  A    between atoms: C26_29  and  C27_30 
REMARK       I    between atoms: C27_30  and  N2_32 
REMARK    6  A    between atoms: N2_32  and  O4_33 
REMARK    7  A    between atoms: N2_32  and  C28_35 
ROOT
HETATM    1  C1  UNL     1     139.801  83.796  65.748  1.00  0.00     0.017 C 
HETATM    2  C2  UNL     1     139.242  84.641  66.392  1.00  0.00    -0.087 C 
HETATM    3  C3  UNL     1     138.571  85.629  67.147  1.00  0.00     0.095 C 
HETATM    4  C4  UNL     1     137.429  85.423  67.783  1.00  0.00     0.051 C 
HETATM    5  C5  UNL     1     136.826  84.067  67.689  1.00  0.00     0.077 C 
ENDROOT
BRANCH   4   6
HETATM    6  O1  UNL     1     136.787  86.396  68.516  1.00  0.00    -0.349 OA
BRANCH   6   7
HETATM    7  C6  UNL     1     135.569  87.014  68.154  1.00  0.00     0.133 C 
HETATM    8  C7  UNL     1     135.114  87.891  69.307  1.00  0.00     0.033 C 
HETATM    9  C8  UNL     1     135.774  89.238  69.284  1.00  0.00     0.008 C 
HETATM   10  C9  UNL     1     135.363  90.224  68.306  1.00  0.00     0.000 C 
HETATM   11  C10 UNL     1     134.477  89.891  67.168  1.00  0.00    -0.004 C 
HETATM   12  C18 UNL     1     134.743  91.414  69.058  1.00  0.00    -0.019 C 
HETATM   13  C11 UNL     1     134.646  91.008  66.118  1.00  0.00     0.007 C 
HETATM   14  C20 UNL     1     134.486  88.544  66.622  1.00  0.00     0.006 A 
HETATM   15  C12 UNL     1     134.744  92.367  66.781  1.00  0.00     0.026 C 
HETATM   16  C13 UNL     1     134.041  92.321  68.069  1.00  0.00     0.095 C 
HETATM   17  N1  UNL     1     133.961  93.616  68.751  1.00  0.00    -0.351 N 
HETATM   18  C14 UNL     1     134.317  94.869  68.185  1.00  0.00     0.153 C 
HETATM   19  C15 UNL     1     133.461  93.473  70.100  1.00  0.00     0.219 C 
HETATM   20  O2  UNL     1     133.601  94.401  70.913  1.00  0.00    -0.273 OA
HETATM   21  C16 UNL     1     132.804  92.167  70.377  1.00  0.00     0.103 C 
HETATM   22  C17 UNL     1     133.694  90.980  70.047  1.00  0.00     0.020 C 
HETATM   23  C21 UNL     1     135.862  87.950  67.019  1.00  0.00     0.029 A 
HETATM   24  C22 UNL     1     135.291  87.837  65.671  1.00  0.00    -0.030 A 
HETATM   25  C23 UNL     1     134.920  86.373  65.362  1.00  0.00     0.016 C 
HETATM   26  C19 UNL     1     135.829  92.115  69.830  1.00  0.00     0.018 C 
BRANCH  24  27
HETATM   27  C24 UNL     1     136.033  88.422  64.491  1.00  0.00     0.037 C 
BRANCH  27  28
HETATM   28  C25 UNL     1     137.375  87.854  64.315  1.00  0.00    -0.020 C 
HETATM   29  C26 UNL     1     137.870  87.152  63.347  1.00  0.00     0.072 C 
BRANCH  29  30
HETATM   30  C27 UNL     1     137.282  86.691  62.123  1.00  0.00     0.267 C 
HETATM   31  O3  UNL     1     137.008  87.479  61.190  1.00  0.00    -0.266 OA
HETATM   32  N2  UNL     1     136.974  85.304  61.897  1.00  0.00    -0.212 N 
BRANCH  32  33
HETATM   33  O4  UNL     1     136.425  84.966  60.717  1.00  0.00    -0.284 OA
ATOM     34  H4  UNL     1     137.009  84.720  60.009  1.00  0.00     0.245 HD
ENDBRANCH  32  33
BRANCH  32  35
HETATM   35  C28 UNL     1     137.238  84.281  62.895  1.00  0.00     0.283 C 
HETATM   36  C29 UNL     1     138.268  83.340  62.469  1.00  0.00     0.081 C 
HETATM   37  N3  UNL     1     139.082  82.595  62.132  1.00  0.00    -0.195 NA
ENDBRANCH  32  35
ENDBRANCH  29  30
ENDBRANCH  27  28
ENDBRANCH  24  27
ENDBRANCH   6   7
ENDBRANCH   4   6
TORSDOF 7
ENDMDL
MODEL 4
REMARK VINA RESULT: -9.191824112      1.907      2.672
REMARK  7 active torsions:
REMARK  status: ('A' for Active; 'I' for Inactive)
REMARK    1  A    between atoms: C4_4  and  O1_6 
REMARK    2  A    between atoms: O1_6  and  C6_7 
REMARK    3  A    between atoms: C22_25  and  C24_27 
REMARK    4  A    between atoms: C24_27  and  C25_28 
REMARK    5  A    between atoms: C26_29  and  C27_30 
REMARK       I    between atoms: C27_30  and  N2_32 
REMARK    6  A    between atoms: N2_32  and  O4_33 
REMARK    7  A    between atoms: N2_32  and  C28_35 
ROOT
HETATM    1  C1  UNL     1     133.075  83.486  59.412  1.00  0.00     0.017 C 
HETATM    2  C2  UNL     1     133.012  84.328  60.266  1.00  0.00    -0.087 C 
HETATM    3  C3  UNL     1     132.947  85.327  61.262  1.00  0.00     0.095 C 
HETATM    4  C4  UNL     1     133.099  86.620  61.023  1.00  0.00     0.051 C 
HETATM    5  C5  UNL     1     133.353  87.032  59.618  1.00  0.00     0.077 C 
ENDROOT
BRANCH   4   6
HETATM    6  O1  UNL     1     133.032  87.583  62.006  1.00  0.00    -0.349 OA
BRANCH   6   7
HETATM    7  C6  UNL     1     134.132  88.327  62.489  1.00  0.00     0.133 C 
HETATM    8  C7  UNL     1     133.701  89.059  63.747  1.00  0.00     0.033 C 
HETATM    9  C8  UNL     1     133.790  88.187  64.965  1.00  0.00     0.008 C 
HETATM   10  C9  UNL     1     135.085  87.873  65.531  1.00  0.00     0.000 C 
HETATM   11  C10 UNL     1     136.353  88.181  64.832  1.00  0.00    -0.004 C 
HETATM   12  C18 UNL     1     135.156  88.494  66.937  1.00  0.00    -0.019 C 
HETATM   13  C11 UNL     1     137.450  87.307  65.473  1.00  0.00     0.007 C 
HETATM   14  C20 UNL     1     136.381  88.216  63.379  1.00  0.00     0.006 A 
HETATM   15  C12 UNL     1     137.277  87.232  66.976  1.00  0.00     0.026 C 
HETATM   16  C13 UNL     1     136.584  88.442  67.437  1.00  0.00     0.095 C 
HETATM   17  N1  UNL     1     136.467  88.543  68.894  1.00  0.00    -0.351 N 
HETATM   18  C14 UNL     1     137.120  87.702  69.834  1.00  0.00     0.153 C 
HETATM   19  C15 UNL     1     135.592  89.627  69.280  1.00  0.00     0.219 C 
HETATM   20  O2  UNL     1     135.147  89.680  70.438  1.00  0.00    -0.273 OA
HETATM   21  C16 UNL     1     135.309  90.605  68.196  1.00  0.00     0.103 C 
HETATM   22  C17 UNL     1     134.762  89.947  66.939  1.00  0.00     0.020 C 
HETATM   23  C21 UNL     1     135.179  87.346  62.925  1.00  0.00     0.029 A 
HETATM   24  C22 UNL     1     136.523  87.239  62.340  1.00  0.00    -0.030 A 
HETATM   25  C23 UNL     1     136.517  87.734  60.881  1.00  0.00     0.016 C 
HETATM   26  C19 UNL     1     134.192  87.764  67.834  1.00  0.00     0.018 C 
BRANCH  24  27
HETATM   27  C24 UNL     1     137.271  85.927  62.419  1.00  0.00     0.037 C 
BRANCH  27  28
HETATM   28  C25 UNL     1     136.442  84.769  62.068  1.00  0.00    -0.020 C 
HETATM   29  C26 UNL     1     136.741  83.511  62.000  1.00  0.00     0.072 C 
BRANCH  29  30
HETATM   30  C27 UNL     1     137.976  82.823  62.240  1.00  0.00     0.267 C 
HETATM   31  O3  UNL     1     138.735  82.493  61.302  1.00  0.00    -0.266 OA
HETATM   32  N2  UNL     1     138.413  82.475  63.566  1.00  0.00    -0.212 N 
BRANCH  32  33
HETATM   33  O4  UNL     1     139.587  81.831  63.692  1.00  0.00    -0.284 OA
ATOM     34  H4  UNL     1     140.346  82.340  63.951  1.00  0.00     0.245 HD
ENDBRANCH  32  33
BRANCH  32  35
HETATM   35  C28 UNL     1     137.629  82.797  64.747  1.00  0.00     0.283 C 
HETATM   36  C29 UNL     1     138.455  83.285  65.846  1.00  0.00     0.081 C 
HETATM   37  N3  UNL     1     139.108  83.671  66.716  1.00  0.00    -0.195 NA
ENDBRANCH  32  35
ENDBRANCH  29  30
ENDBRANCH  27  28
ENDBRANCH  24  27
ENDBRANCH   6   7
ENDBRANCH   4   6
TORSDOF 7
ENDMDL
MODEL 5
REMARK VINA RESULT: -9.168234737      2.639      7.425
REMARK  7 active torsions:
REMARK  status: ('A' for Active; 'I' for Inactive)
REMARK    1  A    between atoms: C4_4  and  O1_6 
REMARK    2  A    between atoms: O1_6  and  C6_7 
REMARK    3  A    between atoms: C22_25  and  C24_27 
REMARK    4  A    between atoms: C24_27  and  C25_28 
REMARK    5  A    between atoms: C26_29  and  C27_30 
REMARK       I    between atoms: C27_30  and  N2_32 
REMARK    6  A    between atoms: N2_32  and  O4_33 
REMARK    7  A    between atoms: N2_32  and  C28_35 
ROOT
HETATM    1  C1  UNL     1     133.218  94.024  66.241  1.00  0.00     0.017 C 
HETATM    2  C2  UNL     1     133.867  93.040  66.009  1.00  0.00    -0.087 C 
HETATM    3  C3  UNL     1     134.618  91.877  65.730  1.00  0.00     0.095 C 
HETATM    4  C4  UNL     1     134.360  91.055  64.726  1.00  0.00     0.051 C 
HETATM    5  C5  UNL     1     133.207  91.385  63.847  1.00  0.00     0.077 C 
ENDROOT
BRANCH   4   6
HETATM    6  O1  UNL     1     135.101  89.923  64.466  1.00  0.00    -0.349 OA
BRANCH   6   7
HETATM    7  C6  UNL     1     134.843  88.643  65.003  1.00  0.00     0.133 C 
HETATM    8  C7  UNL     1     135.344  87.600  64.019  1.00  0.00     0.033 C 
HETATM    9  C8  UNL     1     136.813  87.339  64.174  1.00  0.00     0.008 C 
HETATM   10  C9  UNL     1     137.292  86.574  65.306  1.00  0.00     0.000 C 
HETATM   11  C10 UNL     1     136.424  86.226  66.453  1.00  0.00    -0.004 C 
HETATM   12  C18 UNL     1     137.919  85.273  64.774  1.00  0.00    -0.019 C 
HETATM   13  C11 UNL     1     137.350  85.855  67.629  1.00  0.00     0.007 C 
HETATM   14  C20 UNL     1     135.319  87.100  66.808  1.00  0.00     0.006 A 
HETATM   15  C12 UNL     1     138.536  85.041  67.152  1.00  0.00     0.026 C 
HETATM   16  C13 UNL     1     138.160  84.323  65.928  1.00  0.00     0.095 C 
HETATM   17  N1  UNL     1     139.189  83.402  65.438  1.00  0.00    -0.351 N 
HETATM   18  C14 UNL     1     140.367  83.032  66.139  1.00  0.00     0.153 C 
HETATM   19  C15 UNL     1     138.860  82.895  64.124  1.00  0.00     0.219 C 
HETATM   20  O2  UNL     1     139.737  82.345  63.437  1.00  0.00    -0.273 OA
HETATM   21  C16 UNL     1     137.443  83.097  63.723  1.00  0.00     0.103 C 
HETATM   22  C17 UNL     1     137.007  84.550  63.818  1.00  0.00     0.020 C 
HETATM   23  C21 UNL     1     135.693  88.490  66.228  1.00  0.00     0.029 A 
HETATM   24  C22 UNL     1     135.176  88.294  67.589  1.00  0.00    -0.030 A 
HETATM   25  C23 UNL     1     133.766  88.901  67.722  1.00  0.00     0.016 C 
HETATM   26  C19 UNL     1     139.177  85.618  64.023  1.00  0.00     0.018 C 
BRANCH  24  27
HETATM   27  C24 UNL     1     136.013  88.712  68.776  1.00  0.00     0.037 C 
BRANCH  27  28
HETATM   28  C25 UNL     1     136.155  90.167  68.898  1.00  0.00    -0.020 C 
HETATM   29  C26 UNL     1     135.491  91.019  69.611  1.00  0.00     0.072 C 
BRANCH  29  30
HETATM   30  C27 UNL     1     134.396  90.836  70.519  1.00  0.00     0.267 C 
HETATM   31  O3  UNL     1     134.355  89.866  71.308  1.00  0.00    -0.266 OA
HETATM   32  N2  UNL     1     133.287  91.751  70.575  1.00  0.00    -0.212 N 
BRANCH  32  33
HETATM   33  O4  UNL     1     132.307  91.497  71.461  1.00  0.00    -0.284 OA
ATOM     34  H4  UNL     1     132.059  90.591  71.600  1.00  0.00     0.245 HD
ENDBRANCH  32  33
BRANCH  32  35
HETATM   35  C28 UNL     1     133.205  92.920  69.715  1.00  0.00     0.283 C 
HETATM   36  C29 UNL     1     133.628  94.141  70.393  1.00  0.00     0.081 C 
HETATM   37  N3  UNL     1     133.962  95.106  70.928  1.00  0.00    -0.195 NA
ENDBRANCH  32  35
ENDBRANCH  29  30
ENDBRANCH  27  28
ENDBRANCH  24  27
ENDBRANCH   6   7
ENDBRANCH   4   6
TORSDOF 7
ENDMDL
