MODEL 1
REMARK VINA RESULT: -10.955336429      0.000      0.000
REMARK  6 active torsions:
REMARK  status: ('A' for Active; 'I' for Inactive)
REMARK    1  A    between atoms: C6_6  and  C7_7 
REMARK    2  A    between atoms: C7_7  and  C8_8 
REMARK    3  A    between atoms: C8_8  and  C9_9 
REMARK       I    between atoms: C9_9  and  N1_11 
REMARK    4  A    between atoms: N2_15  and  C13_16 
REMARK    5  A    between atoms: C13_16  and  C14_17 
REMARK    6  A    between atoms: C28_31  and  O2_32 
ROOT
HETATM    1  C7  UNL     1     137.000  86.217  68.521  1.00  0.00     0.015 C 
ENDROOT
BRANCH   1   2
HETATM    2  C6  UNL     1     137.049  85.297  67.391  1.00  0.00     0.001 C 
HETATM    3  C5  UNL     1     137.553  83.887  67.636  1.00  0.00     0.036 A 
HETATM    4  C4  UNL     1     138.018  82.984  66.594  1.00  0.00     0.032 A 
HETATM    5  C29 UNL     1     138.642  84.239  66.751  1.00  0.00     0.109 A 
HETATM    6  C3  UNL     1     137.307  82.675  65.331  1.00  0.00     0.015 C 
HETATM    7  C2  UNL     1     138.101  82.583  64.095  1.00  0.00     0.011 C 
HETATM    8  C1  UNL     1     137.165  82.860  62.913  1.00  0.00     0.012 C 
HETATM    9  C28 UNL     1     139.371  83.326  63.998  1.00  0.00     0.124 C 
HETATM   10  C27 UNL     1     139.298  84.804  63.846  1.00  0.00     0.073 C 
HETATM   11  C25 UNL     1     139.892  85.567  65.005  1.00  0.00     0.095 C 
HETATM   12  C24 UNL     1     138.825  86.381  65.780  1.00  0.00     0.049 C 
HETATM   13  C26 UNL     1     140.904  86.608  64.566  1.00  0.00     0.049 C 
HETATM   14  O3  UNL     1     140.570  84.696  65.838  1.00  0.00    -0.229 OA
HETATM   15  C23 UNL     1     137.842  85.385  66.202  1.00  0.00     0.032 C 
HETATM   16  O4  UNL     1     139.933  84.423  66.954  1.00  0.00    -0.228 OA
BRANCH   9  17
HETATM   17  O2  UNL     1     140.038  82.797  62.866  1.00  0.00    -0.395 OA
ATOM     18  H2  UNL     1     140.966  82.881  63.052  1.00  0.00     0.210 HD
ENDBRANCH   9  17
ENDBRANCH   1   2
BRANCH   1  19
HETATM   19  C8  UNL     1     135.773  86.918  68.917  1.00  0.00     0.103 C 
BRANCH  19  20
HETATM   20  C9  UNL     1     135.353  87.954  67.910  1.00  0.00     0.220 C 
HETATM   21  O1  UNL     1     135.317  87.574  66.710  1.00  0.00    -0.273 OA
HETATM   22  N1  UNL     1     135.018  89.274  68.287  1.00  0.00    -0.342 N 
HETATM   23  C10 UNL     1     135.056  89.715  69.666  1.00  0.00     0.094 C 
HETATM   24  C21 UNL     1     134.630  90.193  67.248  1.00  0.00     0.089 C 
HETATM   25  C11 UNL     1     133.679  89.730  70.260  1.00  0.00     0.070 C 
HETATM   26  C18 UNL     1     135.686  91.095  69.623  1.00  0.00     0.051 C 
HETATM   27  C12 UNL     1     133.226  91.074  70.740  1.00  0.00     0.065 C 
HETATM   28  N2  UNL     1     133.642  92.187  70.018  1.00  0.00    -0.368 N 
HETATM   29  C17 UNL     1     134.637  91.996  69.009  1.00  0.00     0.095 C 
HETATM   30  C19 UNL     1     134.059  91.476  67.746  1.00  0.00     0.027 C 
HETATM   31  C20 UNL     1     134.200  92.513  66.656  1.00  0.00     0.014 C 
HETATM   32  C22 UNL     1     135.823  90.359  66.335  1.00  0.00     0.033 C 
BRANCH  28  33
HETATM   33  C13 UNL     1     132.842  93.339  69.930  1.00  0.00     0.068 C 
BRANCH  33  34
HETATM   34  C14 UNL     1     133.481  94.660  70.148  1.00  0.00     0.024 A 
HETATM   35  C15 UNL     1     134.590  94.910  71.090  1.00  0.00     0.010 A 
HETATM   36  C16 UNL     1     133.220  95.307  71.497  1.00  0.00     0.010 A 
ENDBRANCH  33  34
ENDBRANCH  28  33
ENDBRANCH  19  20
ENDBRANCH   1  19
TORSDOF 6
ENDMDL
MODEL 2
REMARK VINA RESULT: -10.477183750      1.792      2.603
REMARK  6 active torsions:
REMARK  status: ('A' for Active; 'I' for Inactive)
REMARK    1  A    between atoms: C6_6  and  C7_7 
REMARK    2  A    between atoms: C7_7  and  C8_8 
REMARK    3  A    between atoms: C8_8  and  C9_9 
REMARK       I    between atoms: C9_9  and  N1_11 
REMARK    4  A    between atoms: N2_15  and  C13_16 
REMARK    5  A    between atoms: C13_16  and  C14_17 
REMARK    6  A    between atoms: C28_31  and  O2_32 
ROOT
HETATM    1  C7  UNL     1     136.857  86.250  68.901  1.00  0.00     0.015 C 
ENDROOT
BRANCH   1   2
HETATM    2  C6  UNL     1     136.990  85.325  67.782  1.00  0.00     0.001 C 
HETATM    3  C5  UNL     1     137.844  84.085  67.975  1.00  0.00     0.036 A 
HETATM    4  C4  UNL     1     138.385  83.279  66.891  1.00  0.00     0.032 A 
HETATM    5  C29 UNL     1     138.703  84.651  66.957  1.00  0.00     0.109 A 
HETATM    6  C3  UNL     1     137.623  82.761  65.730  1.00  0.00     0.015 C 
HETATM    7  C2  UNL     1     138.262  82.812  64.405  1.00  0.00     0.011 C 
HETATM    8  C1  UNL     1     137.153  82.812  63.347  1.00  0.00     0.012 C 
HETATM    9  C28 UNL     1     139.295  83.831  64.143  1.00  0.00     0.124 C 
HETATM   10  C27 UNL     1     138.852  85.243  63.988  1.00  0.00     0.073 C 
HETATM   11  C25 UNL     1     139.378  86.169  65.057  1.00  0.00     0.095 C 
HETATM   12  C24 UNL     1     138.248  86.736  65.951  1.00  0.00     0.049 C 
HETATM   13  C26 UNL     1     140.051  87.402  64.484  1.00  0.00     0.049 C 
HETATM   14  O3  UNL     1     140.341  85.517  65.805  1.00  0.00    -0.229 OA
HETATM   15  C23 UNL     1     137.591  85.552  66.502  1.00  0.00     0.032 C 
HETATM   16  O4  UNL     1     139.926  85.144  66.995  1.00  0.00    -0.228 OA
BRANCH   9  17
HETATM   17  O2  UNL     1     139.930  83.432  62.941  1.00  0.00    -0.395 OA
ATOM     18  H2  UNL     1     139.878  84.182  62.361  1.00  0.00     0.210 HD
ENDBRANCH   9  17
ENDBRANCH   1   2
BRANCH   1  19
HETATM   19  C8  UNL     1     135.626  87.008  69.158  1.00  0.00     0.103 C 
BRANCH  19  20
HETATM   20  C9  UNL     1     134.892  87.356  67.892  1.00  0.00     0.220 C 
HETATM   21  O1  UNL     1     134.184  86.441  67.395  1.00  0.00    -0.273 OA
HETATM   22  N1  UNL     1     134.989  88.633  67.295  1.00  0.00    -0.342 N 
HETATM   23  C10 UNL     1     135.800  89.689  67.864  1.00  0.00     0.094 C 
HETATM   24  C21 UNL     1     134.249  88.868  66.081  1.00  0.00     0.089 C 
HETATM   25  C11 UNL     1     134.951  90.663  68.627  1.00  0.00     0.070 C 
HETATM   26  C18 UNL     1     136.500  90.333  66.681  1.00  0.00     0.051 C 
HETATM   27  C12 UNL     1     135.006  92.068  68.114  1.00  0.00     0.065 C 
HETATM   28  N2  UNL     1     135.135  92.245  66.741  1.00  0.00    -0.368 N 
HETATM   29  C17 UNL     1     135.422  91.095  65.942  1.00  0.00     0.095 C 
HETATM   30  C19 UNL     1     134.205  90.296  65.656  1.00  0.00     0.027 C 
HETATM   31  C20 UNL     1     133.901  90.341  64.177  1.00  0.00     0.014 C 
HETATM   32  C22 UNL     1     134.802  87.928  65.037  1.00  0.00     0.033 C 
BRANCH  28  33
HETATM   33  C13 UNL     1     134.575  93.360  66.094  1.00  0.00     0.068 C 
BRANCH  33  34
HETATM   34  C14 UNL     1     135.227  93.861  64.859  1.00  0.00     0.024 A 
HETATM   35  C15 UNL     1     136.545  94.524  64.816  1.00  0.00     0.010 A 
HETATM   36  C16 UNL     1     135.330  95.370  64.729  1.00  0.00     0.010 A 
ENDBRANCH  33  34
ENDBRANCH  28  33
ENDBRANCH  19  20
ENDBRANCH   1  19
TORSDOF 6
ENDMDL
MODEL 3
REMARK VINA RESULT: -10.427584165      1.592      2.162
REMARK  6 active torsions:
REMARK  status: ('A' for Active; 'I' for Inactive)
REMARK    1  A    between atoms: C6_6  and  C7_7 
REMARK    2  A    between atoms: C7_7  and  C8_8 
REMARK    3  A    between atoms: C8_8  and  C9_9 
REMARK       I    between atoms: C9_9  and  N1_11 
REMARK    4  A    between atoms: N2_15  and  C13_16 
REMARK    5  A    between atoms: C13_16  and  C14_17 
REMARK    6  A    between atoms: C28_31  and  O2_32 
ROOT
HETATM    1  C7  UNL     1     137.836  88.018  65.829  1.00  0.00     0.015 C 
ENDROOT
BRANCH   1   2
HETATM    2  C6  UNL     1     137.779  86.967  64.820  1.00  0.00     0.001 C 
HETATM    3  C5  UNL     1     136.478  86.202  64.655  1.00  0.00     0.036 A 
HETATM    4  C4  UNL     1     136.358  84.912  63.993  1.00  0.00     0.032 A 
HETATM    5  C29 UNL     1     137.229  85.046  65.094  1.00  0.00     0.109 A 
HETATM    6  C3  UNL     1     136.912  84.563  62.662  1.00  0.00     0.015 C 
HETATM    7  C2  UNL     1     137.536  83.240  62.499  1.00  0.00     0.011 C 
HETATM    8  C1  UNL     1     138.520  83.326  61.327  1.00  0.00     0.012 C 
HETATM    9  C28 UNL     1     138.114  82.566  63.676  1.00  0.00     0.124 C 
HETATM   10  C27 UNL     1     139.388  83.103  64.225  1.00  0.00     0.073 C 
HETATM   11  C25 UNL     1     139.266  83.653  65.626  1.00  0.00     0.095 C 
HETATM   12  C24 UNL     1     139.510  85.182  65.681  1.00  0.00     0.049 C 
HETATM   13  C26 UNL     1     140.302  83.079  66.573  1.00  0.00     0.049 C 
HETATM   14  O3  UNL     1     138.032  83.316  66.153  1.00  0.00    -0.229 OA
HETATM   15  C23 UNL     1     138.518  85.742  64.764  1.00  0.00     0.032 C 
HETATM   16  O4  UNL     1     137.180  84.315  66.192  1.00  0.00    -0.228 OA
BRANCH   9  17
HETATM   17  O2  UNL     1     138.334  81.224  63.279  1.00  0.00    -0.395 OA
ATOM     18  H2  UNL     1     139.025  81.259  62.628  1.00  0.00     0.210 HD
ENDBRANCH   9  17
ENDBRANCH   1   2
BRANCH   1  19
HETATM   19  C8  UNL     1     136.743  88.266  66.777  1.00  0.00     0.103 C 
BRANCH  19  20
HETATM   20  C9  UNL     1     135.873  89.420  66.360  1.00  0.00     0.220 C 
HETATM   21  O1  UNL     1     135.642  89.520  65.127  1.00  0.00    -0.273 OA
HETATM   22  N1  UNL     1     135.346  90.338  67.296  1.00  0.00    -0.342 N 
HETATM   23  C10 UNL     1     135.608  90.226  68.716  1.00  0.00     0.094 C 
HETATM   24  C21 UNL     1     134.525  91.412  66.798  1.00  0.00     0.089 C 
HETATM   25  C11 UNL     1     134.443  89.601  69.426  1.00  0.00     0.070 C 
HETATM   26  C18 UNL     1     135.879  91.644  69.183  1.00  0.00     0.051 C 
HETATM   27  C12 UNL     1     133.824  90.465  70.480  1.00  0.00     0.065 C 
HETATM   28  N2  UNL     1     133.793  91.836  70.249  1.00  0.00    -0.368 N 
HETATM   29  C17 UNL     1     134.538  92.344  69.140  1.00  0.00     0.095 C 
HETATM   30  C19 UNL     1     133.812  92.181  67.857  1.00  0.00     0.027 C 
HETATM   31  C20 UNL     1     133.453  93.537  67.298  1.00  0.00     0.014 C 
HETATM   32  C22 UNL     1     135.399  92.257  65.902  1.00  0.00     0.033 C 
BRANCH  28  33
HETATM   33  C13 UNL     1     132.755  92.637  70.754  1.00  0.00     0.068 C 
BRANCH  33  34
HETATM   34  C14 UNL     1     132.794  94.096  70.485  1.00  0.00     0.024 A 
HETATM   35  C15 UNL     1     133.944  94.973  70.782  1.00  0.00     0.010 A 
HETATM   36  C16 UNL     1     132.786  94.996  71.709  1.00  0.00     0.010 A 
ENDBRANCH  33  34
ENDBRANCH  28  33
ENDBRANCH  19  20
ENDBRANCH   1  19
TORSDOF 6
ENDMDL
MODEL 4
REMARK VINA RESULT: -10.408313309      1.722      2.420
REMARK  6 active torsions:
REMARK  status: ('A' for Active; 'I' for Inactive)
REMARK    1  A    between atoms: C6_6  and  C7_7 
REMARK    2  A    between atoms: C7_7  and  C8_8 
REMARK    3  A    between atoms: C8_8  and  C9_9 
REMARK       I    between atoms: C9_9  and  N1_11 
REMARK    4  A    between atoms: N2_15  and  C13_16 
REMARK    5  A    between atoms: C13_16  and  C14_17 
REMARK    6  A    between atoms: C28_31  and  O2_32 
ROOT
HETATM    1  C7  UNL     1     137.438  87.469  66.741  1.00  0.00     0.015 C 
ENDROOT
BRANCH   1   2
HETATM    2  C6  UNL     1     137.854  86.246  66.066  1.00  0.00     0.001 C 
HETATM    3  C5  UNL     1     139.240  86.204  65.449  1.00  0.00     0.036 A 
HETATM    4  C4  UNL     1     139.665  85.246  64.440  1.00  0.00     0.032 A 
HETATM    5  C29 UNL     1     138.553  86.074  64.182  1.00  0.00     0.109 A 
HETATM    6  C3  UNL     1     139.482  83.776  64.505  1.00  0.00     0.015 C 
HETATM    7  C2  UNL     1     139.076  83.075  63.275  1.00  0.00     0.011 C 
HETATM    8  C1  UNL     1     138.388  81.768  63.685  1.00  0.00     0.012 C 
HETATM    9  C28 UNL     1     138.327  83.810  62.241  1.00  0.00     0.124 C 
HETATM   10  C27 UNL     1     136.905  84.145  62.522  1.00  0.00     0.073 C 
HETATM   11  C25 UNL     1     136.632  85.628  62.606  1.00  0.00     0.095 C 
HETATM   12  C24 UNL     1     136.199  86.066  64.028  1.00  0.00     0.049 C 
HETATM   13  C26 UNL     1     135.481  86.063  61.719  1.00  0.00     0.049 C 
HETATM   14  O3  UNL     1     137.741  86.331  62.173  1.00  0.00    -0.229 OA
HETATM   15  C23 UNL     1     137.301  85.643  64.891  1.00  0.00     0.032 C 
HETATM   16  O4  UNL     1     138.434  86.881  63.145  1.00  0.00    -0.228 OA
BRANCH   9  17
HETATM   17  O2  UNL     1     138.368  82.993  61.084  1.00  0.00    -0.395 OA
ATOM     18  H2  UNL     1     139.177  82.498  61.148  1.00  0.00     0.210 HD
ENDBRANCH   9  17
ENDBRANCH   1   2
BRANCH   1  19
HETATM   19  C8  UNL     1     136.077  87.664  67.257  1.00  0.00     0.103 C 
BRANCH  19  20
HETATM   20  C9  UNL     1     135.420  88.893  66.690  1.00  0.00     0.220 C 
HETATM   21  O1  UNL     1     135.247  88.902  65.444  1.00  0.00    -0.273 OA
HETATM   22  N1  UNL     1     135.018  89.973  67.509  1.00  0.00    -0.342 N 
HETATM   23  C10 UNL     1     135.213  89.966  68.944  1.00  0.00     0.094 C 
HETATM   24  C21 UNL     1     134.399  91.107  66.872  1.00  0.00     0.089 C 
HETATM   25  C11 UNL     1     133.940  89.609  69.653  1.00  0.00     0.070 C 
HETATM   26  C18 UNL     1     135.696  91.364  69.285  1.00  0.00     0.051 C 
HETATM   27  C12 UNL     1     133.436  90.664  70.589  1.00  0.00     0.065 C 
HETATM   28  N2  UNL     1     133.635  91.991  70.227  1.00  0.00    -0.368 N 
HETATM   29  C17 UNL     1     134.488  92.259  69.111  1.00  0.00     0.095 C 
HETATM   30  C19 UNL     1     133.787  92.083  67.817  1.00  0.00     0.027 C 
HETATM   31  C20 UNL     1     133.670  93.415  67.114  1.00  0.00     0.014 C 
HETATM   32  C22 UNL     1     135.427  91.708  65.941  1.00  0.00     0.033 C 
BRANCH  28  33
HETATM   33  C13 UNL     1     132.726  92.994  70.603  1.00  0.00     0.068 C 
BRANCH  33  34
HETATM   34  C14 UNL     1     133.148  94.412  70.485  1.00  0.00     0.024 A 
HETATM   35  C15 UNL     1     134.302  95.004  71.190  1.00  0.00     0.010 A 
HETATM   36  C16 UNL     1     132.943  95.269  71.722  1.00  0.00     0.010 A 
ENDBRANCH  33  34
ENDBRANCH  28  33
ENDBRANCH  19  20
ENDBRANCH   1  19
TORSDOF 6
ENDMDL
MODEL 5
REMARK VINA RESULT: -9.979158054      3.345     10.314
REMARK  6 active torsions:
REMARK  status: ('A' for Active; 'I' for Inactive)
REMARK    1  A    between atoms: C6_6  and  C7_7 
REMARK    2  A    between atoms: C7_7  and  C8_8 
REMARK    3  A    between atoms: C8_8  and  C9_9 
REMARK       I    between atoms: C9_9  and  N1_11 
REMARK    4  A    between atoms: N2_15  and  C13_16 
REMARK    5  A    between atoms: C13_16  and  C14_17 
REMARK    6  A    between atoms: C28_31  and  O2_32 
ROOT
HETATM    1  C7  UNL     1     134.036  88.014  64.663  1.00  0.00     0.015 C 
ENDROOT
BRANCH   1   2
HETATM    2  C6  UNL     1     133.948  89.157  65.563  1.00  0.00     0.001 C 
HETATM    3  C5  UNL     1     134.797  90.378  65.257  1.00  0.00     0.036 A 
HETATM    4  C4  UNL     1     135.118  91.421  66.219  1.00  0.00     0.032 A 
HETATM    5  C29 UNL     1     135.472  90.086  66.503  1.00  0.00     0.109 A 
HETATM    6  C3  UNL     1     134.151  92.123  67.096  1.00  0.00     0.015 C 
HETATM    7  C2  UNL     1     134.545  92.384  68.490  1.00  0.00     0.011 C 
HETATM    8  C1  UNL     1     133.265  92.538  69.319  1.00  0.00     0.012 C 
HETATM    9  C28 UNL     1     135.536  91.504  69.135  1.00  0.00     0.124 C 
HETATM   10  C27 UNL     1     135.102  90.131  69.512  1.00  0.00     0.073 C 
HETATM   11  C25 UNL     1     135.830  89.036  68.771  1.00  0.00     0.095 C 
HETATM   12  C24 UNL     1     134.889  88.231  67.840  1.00  0.00     0.049 C 
HETATM   13  C26 UNL     1     136.415  87.989  69.699  1.00  0.00     0.049 C 
HETATM   14  O3  UNL     1     136.897  89.574  68.074  1.00  0.00    -0.229 OA
HETATM   15  C23 UNL     1     134.316  89.235  66.945  1.00  0.00     0.032 C 
HETATM   16  O4  UNL     1     136.693  89.668  66.779  1.00  0.00    -0.228 OA
BRANCH   9  17
HETATM   17  O2  UNL     1     135.938  92.180  70.314  1.00  0.00    -0.395 OA
ATOM     18  H2  UNL     1     136.884  92.093  70.349  1.00  0.00     0.210 HD
ENDBRANCH   9  17
ENDBRANCH   1   2
BRANCH   1  19
HETATM   19  C8  UNL     1     135.180  87.797  63.768  1.00  0.00     0.103 C 
BRANCH  19  20
HETATM   20  C9  UNL     1     135.899  86.509  64.060  1.00  0.00     0.220 C 
HETATM   21  O1  UNL     1     136.210  86.310  65.264  1.00  0.00    -0.273 OA
HETATM   22  N1  UNL     1     136.208  85.576  63.045  1.00  0.00    -0.342 N 
HETATM   23  C10 UNL     1     135.851  85.799  61.659  1.00  0.00     0.094 C 
HETATM   24  C21 UNL     1     136.902  84.371  63.424  1.00  0.00     0.089 C 
HETATM   25  C11 UNL     1     134.615  85.029  61.296  1.00  0.00     0.070 C 
HETATM   26  C18 UNL     1     137.065  85.359  60.861  1.00  0.00     0.051 C 
HETATM   27  C12 UNL     1     134.807  84.035  60.193  1.00  0.00     0.065 C 
HETATM   28  N2  UNL     1     136.031  83.380  60.126  1.00  0.00    -0.368 N 
HETATM   29  C17 UNL     1     137.088  83.849  60.966  1.00  0.00     0.095 C 
HETATM   30  C19 UNL     1     136.968  83.338  62.353  1.00  0.00     0.027 C 
HETATM   31  C20 UNL     1     138.123  82.413  62.656  1.00  0.00     0.014 C 
HETATM   32  C22 UNL     1     138.248  84.789  63.967  1.00  0.00     0.033 C 
BRANCH  28  33
HETATM   33  C13 UNL     1     136.130  82.068  59.632  1.00  0.00     0.068 C 
BRANCH  33  34
HETATM   34  C14 UNL     1     137.443  81.603  59.120  1.00  0.00     0.024 A 
HETATM   35  C15 UNL     1     137.643  80.910  57.832  1.00  0.00     0.010 A 
HETATM   36  C16 UNL     1     137.640  80.098  59.073  1.00  0.00     0.010 A 
ENDBRANCH  33  34
ENDBRANCH  28  33
ENDBRANCH  19  20
ENDBRANCH   1  19
TORSDOF 6
ENDMDL
