MODEL 1
REMARK VINA RESULT: -9.132205803      0.000      0.000
REMARK  8 active torsions:
REMARK  status: ('A' for Active; 'I' for Inactive)
REMARK    1  A    between atoms: C5_8  and  C6_9 
REMARK    2  A    between atoms: C6_9  and  O2_10 
REMARK    3  A    between atoms: C6_9  and  C7_12 
REMARK    4  A    between atoms: C7_12  and  O3_13 
REMARK    5  A    between atoms: O3_13  and  C8_14 
REMARK    6  A    between atoms: C8_14  and  C9_16 
REMARK    7  A    between atoms: C9_16  and  C10_17 
REMARK    8  A    between atoms: C10_17  and  C11_18 
ROOT
HETATM    1  O3  UNL     1       0.183 -39.300  -6.370  1.00  0.00    -0.315 OA
ENDROOT
BRANCH   1   2
HETATM    2  C7  UNL     1      -0.147 -39.827  -5.074  1.00  0.00     0.243 C 
BRANCH   2   3
HETATM    3  C6  UNL     1       1.085 -40.122  -4.360  1.00  0.00     0.078 C 
BRANCH   3   4
HETATM    4  C5  UNL     1       1.174 -40.621  -3.013  1.00  0.00     0.008 A 
HETATM    5  C4  UNL     1       1.340 -42.030  -2.887  1.00  0.00     0.089 A 
HETATM    6  C3  UNL     1       1.487 -42.604  -1.656  1.00  0.00     0.246 A 
HETATM    7  N1  UNL     1       1.475 -41.828  -0.562  1.00  0.00    -0.327 N 
HETATM    8  O1  UNL     1       1.635 -43.861  -1.549  1.00  0.00    -0.268 OA
HETATM    9  C2  UNL     1       1.324 -40.512  -0.612  1.00  0.00     0.015 A 
ATOM     10  H1  UNL     1       1.587 -42.271   0.350  1.00  0.00     0.169 HD
HETATM   11  C1  UNL     1       1.317 -39.666   0.616  1.00  0.00     0.069 C 
HETATM   12  C17 UNL     1       1.169 -39.896  -1.861  1.00  0.00    -0.027 A 
HETATM   13  C18 UNL     1       0.950 -38.443  -1.889  1.00  0.00     0.051 C 
ENDBRANCH   3   4
BRANCH   3  14
HETATM   14  O2  UNL     1       2.198 -39.904  -5.004  1.00  0.00    -0.362 OA
ATOM     15  H2  UNL     1       2.527 -39.012  -5.033  1.00  0.00     0.217 HD
ENDBRANCH   3  14
ENDBRANCH   2   3
ENDBRANCH   1   2
BRANCH   1  16
HETATM   16  C8  UNL     1      -0.646 -39.410  -7.464  1.00  0.00     0.259 C 
HETATM   17  O4  UNL     1      -1.185 -40.517  -7.705  1.00  0.00    -0.265 OA
BRANCH  16  18
HETATM   18  C9  UNL     1      -0.939 -38.282  -8.385  1.00  0.00     0.116 C 
BRANCH  18  19
HETATM   19  C10 UNL     1       0.293 -37.901  -9.154  1.00  0.00     0.050 C 
BRANCH  19  20
HETATM   20  C11 UNL     1       0.333 -38.442 -10.514  1.00  0.00    -0.033 A 
HETATM   21  C12 UNL     1       0.876 -39.683 -10.782  1.00  0.00     0.034 A 
HETATM   22  C13 UNL     1       0.922 -40.216 -12.052  1.00  0.00     0.058 A 
HETATM   23 CL1  UNL     1       1.624 -41.805 -12.334  1.00  0.00    -0.082 Cl
HETATM   24  C14 UNL     1       0.405 -39.472 -13.090  1.00  0.00     0.079 A 
HETATM   25 CL2  UNL     1       0.431 -40.088 -14.733  1.00  0.00    -0.081 Cl
HETATM   26  C15 UNL     1      -0.142 -38.244 -12.882  1.00  0.00     0.079 A 
HETATM   27 CL3  UNL     1      -0.816 -37.259 -14.173  1.00  0.00    -0.081 Cl
HETATM   28  C16 UNL     1      -0.171 -37.741 -11.587  1.00  0.00     0.063 A 
HETATM   29 CL4  UNL     1      -0.862 -36.173 -11.307  1.00  0.00    -0.082 Cl
ENDBRANCH  19  20
ENDBRANCH  18  19
ENDBRANCH  16  18
ENDBRANCH   1  16
TORSDOF 8
ENDMDL
MODEL 2
REMARK VINA RESULT: -8.933733577      1.594      1.840
REMARK  8 active torsions:
REMARK  status: ('A' for Active; 'I' for Inactive)
REMARK    1  A    between atoms: C5_8  and  C6_9 
REMARK    2  A    between atoms: C6_9  and  O2_10 
REMARK    3  A    between atoms: C6_9  and  C7_12 
REMARK    4  A    between atoms: C7_12  and  O3_13 
REMARK    5  A    between atoms: O3_13  and  C8_14 
REMARK    6  A    between atoms: C8_14  and  C9_16 
REMARK    7  A    between atoms: C9_16  and  C10_17 
REMARK    8  A    between atoms: C10_17  and  C11_18 
ROOT
HETATM    1  O3  UNL     1      -0.069 -40.120  -6.317  1.00  0.00    -0.315 OA
ENDROOT
BRANCH   1   2
HETATM    2  C7  UNL     1      -0.181 -39.735  -4.937  1.00  0.00     0.243 C 
BRANCH   2   3
HETATM    3  C6  UNL     1       1.061 -40.063  -4.256  1.00  0.00     0.078 C 
BRANCH   3   4
HETATM    4  C5  UNL     1       1.172 -40.580  -2.917  1.00  0.00     0.008 A 
HETATM    5  C4  UNL     1       1.340 -41.991  -2.812  1.00  0.00     0.089 A 
HETATM    6  C3  UNL     1       1.506 -42.580  -1.591  1.00  0.00     0.246 A 
HETATM    7  N1  UNL     1       1.512 -41.820  -0.488  1.00  0.00    -0.327 N 
HETATM    8  O1  UNL     1       1.656 -43.839  -1.504  1.00  0.00    -0.268 OA
HETATM    9  C2  UNL     1       1.359 -40.503  -0.518  1.00  0.00     0.015 A 
ATOM     10  H1  UNL     1       1.638 -42.274   0.416  1.00  0.00     0.169 HD
HETATM   11  C1  UNL     1       1.372 -39.673   0.721  1.00  0.00     0.069 C 
HETATM   12  C17 UNL     1       1.185 -39.870  -1.755  1.00  0.00    -0.027 A 
HETATM   13  C18 UNL     1       0.965 -38.418  -1.760  1.00  0.00     0.051 C 
ENDBRANCH   3   4
BRANCH   3  14
HETATM   14  O2  UNL     1       2.163 -39.859  -4.923  1.00  0.00    -0.362 OA
ATOM     15  H2  UNL     1       2.090 -39.523  -5.809  1.00  0.00     0.217 HD
ENDBRANCH   3  14
ENDBRANCH   2   3
ENDBRANCH   1   2
BRANCH   1  16
HETATM   16  C8  UNL     1       0.046 -39.213  -7.348  1.00  0.00     0.259 C 
HETATM   17  O4  UNL     1      -0.954 -38.524  -7.660  1.00  0.00    -0.265 OA
BRANCH  16  18
HETATM   18  C9  UNL     1       1.299 -39.006  -8.118  1.00  0.00     0.116 C 
BRANCH  18  19
HETATM   19  C10 UNL     1       0.985 -38.608  -9.531  1.00  0.00     0.050 C 
BRANCH  19  20
HETATM   20  C11 UNL     1       1.039 -39.717 -10.485  1.00  0.00    -0.033 A 
HETATM   21  C12 UNL     1       2.217 -40.385 -10.751  1.00  0.00     0.034 A 
HETATM   22  C13 UNL     1       2.293 -41.434 -11.641  1.00  0.00     0.058 A 
HETATM   23 CL1  UNL     1       3.824 -42.251 -11.938  1.00  0.00    -0.082 Cl
HETATM   24  C14 UNL     1       1.142 -41.824 -12.289  1.00  0.00     0.079 A 
HETATM   25 CL2  UNL     1       1.165 -43.151 -13.436  1.00  0.00    -0.081 Cl
HETATM   26  C15 UNL     1      -0.046 -41.200 -12.065  1.00  0.00     0.079 A 
HETATM   27 CL3  UNL     1      -1.542 -41.661 -12.865  1.00  0.00    -0.081 Cl
HETATM   28  C16 UNL     1      -0.083 -40.147 -11.159  1.00  0.00     0.063 A 
HETATM   29 CL4  UNL     1      -1.591 -39.339 -10.866  1.00  0.00    -0.082 Cl
ENDBRANCH  19  20
ENDBRANCH  18  19
ENDBRANCH  16  18
ENDBRANCH   1  16
TORSDOF 8
ENDMDL
MODEL 3
REMARK VINA RESULT: -8.801670790      1.372      2.045
REMARK  8 active torsions:
REMARK  status: ('A' for Active; 'I' for Inactive)
REMARK    1  A    between atoms: C5_8  and  C6_9 
REMARK    2  A    between atoms: C6_9  and  O2_10 
REMARK    3  A    between atoms: C6_9  and  C7_12 
REMARK    4  A    between atoms: C7_12  and  O3_13 
REMARK    5  A    between atoms: O3_13  and  C8_14 
REMARK    6  A    between atoms: C8_14  and  C9_16 
REMARK    7  A    between atoms: C9_16  and  C10_17 
REMARK    8  A    between atoms: C10_17  and  C11_18 
ROOT
HETATM    1  O3  UNL     1      -0.012 -38.977  -6.489  1.00  0.00    -0.315 OA
ENDROOT
BRANCH   1   2
HETATM    2  C7  UNL     1       0.803 -39.968  -5.842  1.00  0.00     0.243 C 
BRANCH   2   3
HETATM    3  C6  UNL     1       0.166 -40.360  -4.596  1.00  0.00     0.078 C 
BRANCH   3   4
HETATM    4  C5  UNL     1       0.786 -40.348  -3.297  1.00  0.00     0.008 A 
HETATM    5  C4  UNL     1       0.852 -39.078  -2.656  1.00  0.00     0.089 A 
HETATM    6  C3  UNL     1       1.373 -38.962  -1.399  1.00  0.00     0.246 A 
HETATM    7  N1  UNL     1       1.824 -40.056  -0.769  1.00  0.00    -0.327 N 
HETATM    8  O1  UNL     1       1.430 -37.826  -0.832  1.00  0.00    -0.268 OA
HETATM    9  C2  UNL     1       1.792 -41.266  -1.311  1.00  0.00     0.015 A 
ATOM     10  H1  UNL     1       2.210 -39.953   0.170  1.00  0.00     0.169 HD
HETATM   11  C1  UNL     1       2.295 -42.472  -0.592  1.00  0.00     0.069 C 
HETATM   12  C17 UNL     1       1.264 -41.416  -2.599  1.00  0.00    -0.027 A 
HETATM   13  C18 UNL     1       1.287 -42.756  -3.200  1.00  0.00     0.051 C 
ENDBRANCH   3   4
BRANCH   3  14
HETATM   14  O2  UNL     1      -1.072 -40.764  -4.676  1.00  0.00    -0.362 OA
ATOM     15  H2  UNL     1      -1.318 -41.292  -5.427  1.00  0.00     0.217 HD
ENDBRANCH   3  14
ENDBRANCH   2   3
ENDBRANCH   1   2
BRANCH   1  16
HETATM   16  C8  UNL     1      -0.757 -39.231  -7.619  1.00  0.00     0.259 C 
HETATM   17  O4  UNL     1      -1.137 -40.405  -7.841  1.00  0.00    -0.265 OA
BRANCH  16  18
HETATM   18  C9  UNL     1      -1.136 -38.183  -8.601  1.00  0.00     0.116 C 
BRANCH  18  19
HETATM   19  C10 UNL     1       0.072 -37.715  -9.360  1.00  0.00     0.050 C 
BRANCH  19  20
HETATM   20  C11 UNL     1       0.182 -38.280 -10.706  1.00  0.00    -0.033 A 
HETATM   21  C12 UNL     1       0.765 -39.512 -10.927  1.00  0.00     0.034 A 
HETATM   22  C13 UNL     1       0.877 -40.066 -12.184  1.00  0.00     0.058 A 
HETATM   23 CL1  UNL     1       1.628 -41.643 -12.405  1.00  0.00    -0.082 Cl
HETATM   24  C14 UNL     1       0.385 -39.356 -13.256  1.00  0.00     0.079 A 
HETATM   25 CL2  UNL     1       0.495 -40.001 -14.884  1.00  0.00    -0.081 Cl
HETATM   26  C15 UNL     1      -0.199 -38.138 -13.095  1.00  0.00     0.079 A 
HETATM   27 CL3  UNL     1      -0.843 -37.194 -14.431  1.00  0.00    -0.081 Cl
HETATM   28  C16 UNL     1      -0.294 -37.612 -11.812  1.00  0.00     0.063 A 
HETATM   29 CL4  UNL     1      -1.034 -36.057 -11.591  1.00  0.00    -0.082 Cl
ENDBRANCH  19  20
ENDBRANCH  18  19
ENDBRANCH  16  18
ENDBRANCH   1  16
TORSDOF 8
ENDMDL
MODEL 4
REMARK VINA RESULT: -8.776256460      1.649      2.272
REMARK  8 active torsions:
REMARK  status: ('A' for Active; 'I' for Inactive)
REMARK    1  A    between atoms: C5_8  and  C6_9 
REMARK    2  A    between atoms: C6_9  and  O2_10 
REMARK    3  A    between atoms: C6_9  and  C7_12 
REMARK    4  A    between atoms: C7_12  and  O3_13 
REMARK    5  A    between atoms: O3_13  and  C8_14 
REMARK    6  A    between atoms: C8_14  and  C9_16 
REMARK    7  A    between atoms: C9_16  and  C10_17 
REMARK    8  A    between atoms: C10_17  and  C11_18 
ROOT
HETATM    1  O3  UNL     1      -0.082 -38.919  -6.772  1.00  0.00    -0.315 OA
ENDROOT
BRANCH   1   2
HETATM    2  C7  UNL     1       0.823 -39.717  -5.992  1.00  0.00     0.243 C 
BRANCH   2   3
HETATM    3  C6  UNL     1       0.151 -40.131  -4.770  1.00  0.00     0.078 C 
BRANCH   3   4
HETATM    4  C5  UNL     1       0.766 -40.253  -3.475  1.00  0.00     0.008 A 
HETATM    5  C4  UNL     1       0.879 -39.045  -2.729  1.00  0.00     0.089 A 
HETATM    6  C3  UNL     1       1.401 -39.055  -1.466  1.00  0.00     0.246 A 
HETATM    7  N1  UNL     1       1.806 -40.215  -0.931  1.00  0.00    -0.327 N 
HETATM    8  O1  UNL     1       1.499 -37.974  -0.806  1.00  0.00    -0.268 OA
HETATM    9  C2  UNL     1       1.728 -41.373  -1.573  1.00  0.00     0.015 A 
ATOM     10  H1  UNL     1       2.192 -40.207   0.013  1.00  0.00     0.169 HD
HETATM   11  C1  UNL     1       2.181 -42.654  -0.958  1.00  0.00     0.069 C 
HETATM   12  C17 UNL     1       1.199 -41.393  -2.870  1.00  0.00    -0.027 A 
HETATM   13  C18 UNL     1       1.172 -42.678  -3.581  1.00  0.00     0.051 C 
ENDBRANCH   3   4
BRANCH   3  14
HETATM   14  O2  UNL     1      -1.116 -40.421  -4.873  1.00  0.00    -0.362 OA
ATOM     15  H2  UNL     1      -1.743 -39.712  -4.780  1.00  0.00     0.217 HD
ENDBRANCH   3  14
ENDBRANCH   2   3
ENDBRANCH   1   2
BRANCH   1  16
HETATM   16  C8  UNL     1      -0.610 -39.334  -7.975  1.00  0.00     0.259 C 
HETATM   17  O4  UNL     1      -1.123 -40.476  -8.048  1.00  0.00    -0.265 OA
BRANCH  16  18
HETATM   18  C9  UNL     1      -0.605 -38.496  -9.201  1.00  0.00     0.116 C 
BRANCH  18  19
HETATM   19  C10 UNL     1       0.736 -38.562  -9.874  1.00  0.00     0.050 C 
BRANCH  19  20
HETATM   20  C11 UNL     1       0.748 -39.373 -11.093  1.00  0.00    -0.033 A 
HETATM   21  C12 UNL     1       1.006 -40.729 -11.056  1.00  0.00     0.034 A 
HETATM   22  C13 UNL     1       1.020 -41.515 -12.188  1.00  0.00     0.058 A 
HETATM   23 CL1  UNL     1       1.352 -43.240 -12.080  1.00  0.00    -0.082 Cl
HETATM   24  C14 UNL     1       0.766 -40.914 -13.402  1.00  0.00     0.079 A 
HETATM   25 CL2  UNL     1       0.768 -41.853 -14.884  1.00  0.00    -0.081 Cl
HETATM   26  C15 UNL     1       0.506 -39.582 -13.495  1.00  0.00     0.079 A 
HETATM   27 CL3  UNL     1       0.175 -38.770 -15.019  1.00  0.00    -0.081 Cl
HETATM   28  C16 UNL     1       0.500 -38.823 -12.331  1.00  0.00     0.063 A 
HETATM   29 CL4  UNL     1       0.173 -37.121 -12.436  1.00  0.00    -0.082 Cl
ENDBRANCH  19  20
ENDBRANCH  18  19
ENDBRANCH  16  18
ENDBRANCH   1  16
TORSDOF 8
ENDMDL
MODEL 5
REMARK VINA RESULT: -8.767301519      5.362     10.127
REMARK  8 active torsions:
REMARK  status: ('A' for Active; 'I' for Inactive)
REMARK    1  A    between atoms: C5_8  and  C6_9 
REMARK    2  A    between atoms: C6_9  and  O2_10 
REMARK    3  A    between atoms: C6_9  and  C7_12 
REMARK    4  A    between atoms: C7_12  and  O3_13 
REMARK    5  A    between atoms: O3_13  and  C8_14 
REMARK    6  A    between atoms: C8_14  and  C9_16 
REMARK    7  A    between atoms: C9_16  and  C10_17 
REMARK    8  A    between atoms: C10_17  and  C11_18 
ROOT
HETATM    1  O3  UNL     1       0.831 -38.781  -8.403  1.00  0.00    -0.315 OA
ENDROOT
BRANCH   1   2
HETATM    2  C7  UNL     1       0.333 -37.766  -9.290  1.00  0.00     0.243 C 
BRANCH   2   3
HETATM    3  C6  UNL     1      -0.565 -38.384 -10.253  1.00  0.00     0.078 C 
BRANCH   3   4
HETATM    4  C5  UNL     1      -0.185 -38.899 -11.542  1.00  0.00     0.008 A 
HETATM    5  C4  UNL     1      -0.088 -37.935 -12.587  1.00  0.00     0.089 A 
HETATM    6  C3  UNL     1       0.314 -38.308 -13.838  1.00  0.00     0.246 A 
HETATM    7  N1  UNL     1       0.620 -39.590 -14.078  1.00  0.00    -0.327 N 
HETATM    8  O1  UNL     1       0.399 -37.444 -14.767  1.00  0.00    -0.268 OA
HETATM    9  C2  UNL     1       0.550 -40.535 -13.149  1.00  0.00     0.015 A 
ATOM     10  H1  UNL     1       0.920 -39.853 -15.017  1.00  0.00     0.169 HD
HETATM   11  C1  UNL     1       0.898 -41.957 -13.434  1.00  0.00     0.069 C 
HETATM   12  C17 UNL     1       0.138 -40.183 -11.857  1.00  0.00    -0.027 A 
HETATM   13  C18 UNL     1       0.017 -41.255 -10.859  1.00  0.00     0.051 C 
ENDBRANCH   3   4
BRANCH   3  14
HETATM   14  O2  UNL     1      -1.820 -38.466  -9.910  1.00  0.00    -0.362 OA
ATOM     15  H2  UNL     1      -2.457 -38.637 -10.594  1.00  0.00     0.217 HD
ENDBRANCH   3  14
ENDBRANCH   2   3
ENDBRANCH   1   2
BRANCH   1  16
HETATM   16  C8  UNL     1       0.290 -39.031  -7.161  1.00  0.00     0.259 C 
HETATM   17  O4  UNL     1      -0.944 -38.879  -6.998  1.00  0.00    -0.265 OA
BRANCH  16  18
HETATM   18  C9  UNL     1       1.093 -39.475  -5.994  1.00  0.00     0.116 C 
BRANCH  18  19
HETATM   19  C10 UNL     1       0.255 -40.309  -5.068  1.00  0.00     0.050 C 
BRANCH  19  20
HETATM   20  C11 UNL     1       0.708 -40.287  -3.676  1.00  0.00    -0.033 A 
HETATM   21  C12 UNL     1       0.704 -39.124  -2.933  1.00  0.00     0.034 A 
HETATM   22  C13 UNL     1       1.122 -39.078  -1.620  1.00  0.00     0.058 A 
HETATM   23 CL1  UNL     1       1.091 -37.565  -0.721  1.00  0.00    -0.082 Cl
HETATM   24  C14 UNL     1       1.562 -40.245  -1.035  1.00  0.00     0.079 A 
HETATM   25 CL2  UNL     1       2.110 -40.260   0.631  1.00  0.00    -0.081 Cl
HETATM   26  C15 UNL     1       1.587 -41.419  -1.722  1.00  0.00     0.079 A 
HETATM   27 CL3  UNL     1       2.139 -42.934  -1.019  1.00  0.00    -0.081 Cl
HETATM   28  C16 UNL     1       1.157 -41.425  -3.043  1.00  0.00     0.063 A 
HETATM   29 CL4  UNL     1       1.187 -42.915  -3.933  1.00  0.00    -0.082 Cl
ENDBRANCH  19  20
ENDBRANCH  18  19
ENDBRANCH  16  18
ENDBRANCH   1  16
TORSDOF 8
ENDMDL
