MODEL 1
REMARK VINA RESULT: -7.003767697      0.000      0.000
REMARK  7 active torsions:
REMARK  status: ('A' for Active; 'I' for Inactive)
REMARK    1  A    between atoms: C5_9  and  S1_10 
REMARK    2  A    between atoms: S1_10  and  C6_11 
REMARK    3  A    between atoms: C12_19  and  C13_20 
REMARK    4  A    between atoms: C13_20  and  C14_21 
REMARK    5  A    between atoms: C14_21  and  C15_22 
REMARK    6  A    between atoms: C15_22  and  C16_23 
REMARK    7  A    between atoms: C16_23  and  O3_24 
ROOT
HETATM    1  O1  UNL     1       0.732 -39.507 -13.742  1.00  0.00    -0.286 OA
HETATM    2  C1  UNL     1       0.592 -38.945 -12.626  1.00  0.00     0.198 A 
HETATM    3  C2  UNL     1      -0.250 -37.737 -12.615  1.00  0.00     0.087 A 
HETATM    4 BR1  UNL     1      -1.057 -37.107 -14.221  1.00  0.00    -0.045 Br
HETATM    5  C3  UNL     1      -0.421 -37.119 -11.456  1.00  0.00     0.106 A 
HETATM    6 CL1  UNL     1      -1.424 -35.682 -11.449  1.00  0.00    -0.078 Cl
HETATM    7  C4  UNL     1       0.205 -37.607 -10.211  1.00  0.00     0.212 A 
HETATM    8  O2  UNL     1       0.014 -36.986  -9.138  1.00  0.00    -0.285 OA
HETATM    9  C5  UNL     1       1.033 -38.811 -10.277  1.00  0.00     0.067 A 
HETATM   10  C12 UNL     1       1.219 -39.447 -11.415  1.00  0.00     0.015 A 
ENDROOT
BRANCH   9  11
HETATM   11  S1  UNL     1       1.815 -39.453  -8.810  1.00  0.00    -0.083 SA
BRANCH  11  12
HETATM   12  C6  UNL     1       0.638 -39.755  -7.511  1.00  0.00     0.046 A 
HETATM   13  C7  UNL     1       0.968 -39.571  -6.190  1.00  0.00     0.046 A 
HETATM   14  C8  UNL     1       0.089 -39.792  -5.151  1.00  0.00     0.035 A 
HETATM   15 CL2  UNL     1       0.521 -39.554  -3.476  1.00  0.00    -0.084 Cl
HETATM   16  C9  UNL     1      -1.180 -40.223  -5.504  1.00  0.00     0.027 A 
HETATM   17  C10 UNL     1      -1.530 -40.415  -6.825  1.00  0.00     0.045 A 
HETATM   18  C11 UNL     1      -0.626 -40.183  -7.838  1.00  0.00     0.133 A 
HETATM   19  F1  UNL     1      -1.001 -40.381  -9.144  1.00  0.00    -0.205 F 
ENDBRANCH  11  12
ENDBRANCH   9  11
BRANCH  10  20
HETATM   20  C13 UNL     1       2.048 -40.643 -11.455  1.00  0.00     0.044 C 
BRANCH  20  21
HETATM   21  C14 UNL     1       1.277 -41.934 -11.625  1.00  0.00     0.007 C 
BRANCH  21  22
HETATM   22  C15 UNL     1       1.983 -42.669 -12.773  1.00  0.00     0.026 C 
BRANCH  22  23
HETATM   23  C16 UNL     1       0.984 -43.138 -13.803  1.00  0.00     0.164 C 
BRANCH  23  24
HETATM   24  O3  UNL     1       0.865 -42.118 -14.745  1.00  0.00    -0.401 OA
ATOM     25  H3  UNL     1       0.545 -41.351 -14.283  1.00  0.00     0.209 HD
ENDBRANCH  23  24
ENDBRANCH  22  23
ENDBRANCH  21  22
ENDBRANCH  20  21
ENDBRANCH  10  20
TORSDOF 7
ENDMDL
MODEL 2
REMARK VINA RESULT: -6.882154312      2.947      4.062
REMARK  7 active torsions:
REMARK  status: ('A' for Active; 'I' for Inactive)
REMARK    1  A    between atoms: C5_9  and  S1_10 
REMARK    2  A    between atoms: S1_10  and  C6_11 
REMARK    3  A    between atoms: C12_19  and  C13_20 
REMARK    4  A    between atoms: C13_20  and  C14_21 
REMARK    5  A    between atoms: C14_21  and  C15_22 
REMARK    6  A    between atoms: C15_22  and  C16_23 
REMARK    7  A    between atoms: C16_23  and  O3_24 
ROOT
HETATM    1  O1  UNL     1      -0.307 -40.668 -14.523  1.00  0.00    -0.286 OA
HETATM    2  C1  UNL     1       0.434 -40.678 -13.509  1.00  0.00     0.198 A 
HETATM    3  C2  UNL     1       1.271 -41.878 -13.335  1.00  0.00     0.087 A 
HETATM    4 BR1  UNL     1       1.197 -43.298 -14.602  1.00  0.00    -0.045 Br
HETATM    5  C3  UNL     1       2.065 -41.924 -12.276  1.00  0.00     0.106 A 
HETATM    6 CL1  UNL     1       3.058 -43.354 -12.075  1.00  0.00    -0.078 Cl
HETATM    7  C4  UNL     1       2.122 -40.823 -11.294  1.00  0.00     0.212 A 
HETATM    8  O2  UNL     1       2.890 -40.914 -10.307  1.00  0.00    -0.285 OA
HETATM    9  C5  UNL     1       1.270 -39.655 -11.512  1.00  0.00     0.067 A 
HETATM   10  C12 UNL     1       0.471 -39.581 -12.556  1.00  0.00     0.015 A 
ENDROOT
BRANCH   9  11
HETATM   11  S1  UNL     1       1.292 -38.292 -10.364  1.00  0.00    -0.083 SA
BRANCH  11  12
HETATM   12  C6  UNL     1       0.622 -38.748  -8.781  1.00  0.00     0.046 A 
HETATM   13  C7  UNL     1       1.435 -39.152  -7.750  1.00  0.00     0.046 A 
HETATM   14  C8  UNL     1       0.960 -39.515  -6.507  1.00  0.00     0.035 A 
HETATM   15 CL2  UNL     1       2.005 -40.027  -5.205  1.00  0.00    -0.084 Cl
HETATM   16  C9  UNL     1      -0.414 -39.454  -6.335  1.00  0.00     0.027 A 
HETATM   17  C10 UNL     1      -1.247 -39.051  -7.358  1.00  0.00     0.045 A 
HETATM   18  C11 UNL     1      -0.737 -38.695  -8.588  1.00  0.00     0.133 A 
HETATM   19  F1  UNL     1      -1.589 -38.298  -9.589  1.00  0.00    -0.205 F 
ENDBRANCH  11  12
ENDBRANCH   9  11
BRANCH  10  20
HETATM   20  C13 UNL     1      -0.368 -38.407 -12.751  1.00  0.00     0.044 C 
BRANCH  20  21
HETATM   21  C14 UNL     1       0.068 -37.508 -13.888  1.00  0.00     0.007 C 
BRANCH  21  22
HETATM   22  C15 UNL     1      -1.235 -37.100 -14.592  1.00  0.00     0.026 C 
BRANCH  22  23
HETATM   23  C16 UNL     1      -1.556 -38.052 -15.717  1.00  0.00     0.164 C 
BRANCH  23  24
HETATM   24  O3  UNL     1      -2.622 -38.840 -15.289  1.00  0.00    -0.401 OA
ATOM     25  H3  UNL     1      -3.365 -38.625 -15.842  1.00  0.00     0.209 HD
ENDBRANCH  23  24
ENDBRANCH  22  23
ENDBRANCH  21  22
ENDBRANCH  20  21
ENDBRANCH  10  20
TORSDOF 7
ENDMDL
MODEL 3
REMARK VINA RESULT: -6.662944079      2.957      4.147
REMARK  7 active torsions:
REMARK  status: ('A' for Active; 'I' for Inactive)
REMARK    1  A    between atoms: C5_9  and  S1_10 
REMARK    2  A    between atoms: S1_10  and  C6_11 
REMARK    3  A    between atoms: C12_19  and  C13_20 
REMARK    4  A    between atoms: C13_20  and  C14_21 
REMARK    5  A    between atoms: C14_21  and  C15_22 
REMARK    6  A    between atoms: C15_22  and  C16_23 
REMARK    7  A    between atoms: C16_23  and  O3_24 
ROOT
HETATM    1  O1  UNL     1      -0.589 -40.511 -14.120  1.00  0.00    -0.286 OA
HETATM    2  C1  UNL     1       0.182 -40.521 -13.128  1.00  0.00     0.198 A 
HETATM    3  C2  UNL     1       1.151 -41.629 -13.077  1.00  0.00     0.087 A 
HETATM    4 BR1  UNL     1       1.192 -42.940 -14.459  1.00  0.00    -0.045 Br
HETATM    5  C3  UNL     1       1.980 -41.673 -12.045  1.00  0.00     0.106 A 
HETATM    6 CL1  UNL     1       3.130 -42.995 -11.991  1.00  0.00    -0.078 Cl
HETATM    7  C4  UNL     1       1.947 -40.658 -10.974  1.00  0.00     0.212 A 
HETATM    8  O2  UNL     1       2.753 -40.743 -10.017  1.00  0.00    -0.285 OA
HETATM    9  C5  UNL     1       0.965 -39.578 -11.071  1.00  0.00     0.067 A 
HETATM   10  C12 UNL     1       0.129 -39.509 -12.087  1.00  0.00     0.015 A 
ENDROOT
BRANCH   9  11
HETATM   11  S1  UNL     1       0.875 -38.321  -9.812  1.00  0.00    -0.083 SA
BRANCH  11  12
HETATM   12  C6  UNL     1       0.537 -39.012  -8.208  1.00  0.00     0.046 A 
HETATM   13  C7  UNL     1      -0.593 -39.757  -7.976  1.00  0.00     0.046 A 
HETATM   14  C8  UNL     1      -0.896 -40.313  -6.750  1.00  0.00     0.035 A 
HETATM   15 CL2  UNL     1      -2.337 -41.258  -6.467  1.00  0.00    -0.084 Cl
HETATM   16  C9  UNL     1       0.014 -40.082  -5.731  1.00  0.00     0.027 A 
HETATM   17  C10 UNL     1       1.155 -39.336  -5.946  1.00  0.00     0.045 A 
HETATM   18  C11 UNL     1       1.426 -38.796  -7.184  1.00  0.00     0.133 A 
HETATM   19  F1  UNL     1       2.570 -38.058  -7.369  1.00  0.00    -0.205 F 
ENDBRANCH  11  12
ENDBRANCH   9  11
BRANCH  10  20
HETATM   20  C13 UNL     1      -0.840 -38.425 -12.160  1.00  0.00     0.044 C 
BRANCH  20  21
HETATM   21  C14 UNL     1      -0.397 -37.245 -12.999  1.00  0.00     0.007 C 
BRANCH  21  22
HETATM   22  C15 UNL     1      -1.259 -37.314 -14.267  1.00  0.00     0.026 C 
BRANCH  22  23
HETATM   23  C16 UNL     1      -0.393 -37.369 -15.502  1.00  0.00     0.164 C 
BRANCH  23  24
HETATM   24  O3  UNL     1       0.867 -37.800 -15.094  1.00  0.00    -0.401 OA
ATOM     25  H3  UNL     1       0.919 -38.728 -15.292  1.00  0.00     0.209 HD
ENDBRANCH  23  24
ENDBRANCH  22  23
ENDBRANCH  21  22
ENDBRANCH  20  21
ENDBRANCH  10  20
TORSDOF 7
ENDMDL
MODEL 4
REMARK VINA RESULT: -6.478401671      2.917      4.208
REMARK  7 active torsions:
REMARK  status: ('A' for Active; 'I' for Inactive)
REMARK    1  A    between atoms: C5_9  and  S1_10 
REMARK    2  A    between atoms: S1_10  and  C6_11 
REMARK    3  A    between atoms: C12_19  and  C13_20 
REMARK    4  A    between atoms: C13_20  and  C14_21 
REMARK    5  A    between atoms: C14_21  and  C15_22 
REMARK    6  A    between atoms: C15_22  and  C16_23 
REMARK    7  A    between atoms: C16_23  and  O3_24 
ROOT
HETATM    1  O1  UNL     1      -1.882 -40.113 -12.066  1.00  0.00    -0.286 OA
HETATM    2  C1  UNL     1      -0.741 -40.202 -11.550  1.00  0.00     0.198 A 
HETATM    3  C2  UNL     1       0.174 -41.173 -12.174  1.00  0.00     0.087 A 
HETATM    4 BR1  UNL     1      -0.389 -42.205 -13.673  1.00  0.00    -0.045 Br
HETATM    5  C3  UNL     1       1.387 -41.295 -11.656  1.00  0.00     0.106 A 
HETATM    6 CL1  UNL     1       2.471 -42.452 -12.403  1.00  0.00    -0.078 Cl
HETATM    7  C4  UNL     1       1.823 -40.495 -10.494  1.00  0.00     0.212 A 
HETATM    8  O2  UNL     1       2.982 -40.647 -10.039  1.00  0.00    -0.285 OA
HETATM    9  C5  UNL     1       0.876 -39.546  -9.910  1.00  0.00     0.067 A 
HETATM   10  C12 UNL     1      -0.336 -39.403 -10.405  1.00  0.00     0.015 A 
ENDROOT
BRANCH   9  11
HETATM   11  S1  UNL     1       1.341 -38.550  -8.507  1.00  0.00    -0.083 SA
BRANCH  11  12
HETATM   12  C6  UNL     1       0.985 -39.368  -6.968  1.00  0.00     0.046 A 
HETATM   13  C7  UNL     1      -0.294 -39.749  -6.640  1.00  0.00     0.046 A 
HETATM   14  C8  UNL     1      -0.616 -40.385  -5.460  1.00  0.00     0.035 A 
HETATM   15 CL2  UNL     1      -2.246 -40.864  -5.055  1.00  0.00    -0.084 Cl
HETATM   16  C9  UNL     1       0.435 -40.631  -4.590  1.00  0.00     0.027 A 
HETATM   17  C10 UNL     1       1.725 -40.256  -4.902  1.00  0.00     0.045 A 
HETATM   18  C11 UNL     1       2.011 -39.623  -6.091  1.00  0.00     0.133 A 
HETATM   19  F1  UNL     1       3.305 -39.261  -6.375  1.00  0.00    -0.205 F 
ENDBRANCH  11  12
ENDBRANCH   9  11
BRANCH  10  20
HETATM   20  C13 UNL     1      -1.261 -38.452  -9.806  1.00  0.00     0.044 C 
BRANCH  20  21
HETATM   21  C14 UNL     1      -0.774 -37.018  -9.811  1.00  0.00     0.007 C 
BRANCH  21  22
HETATM   22  C15 UNL     1      -1.318 -36.420 -11.116  1.00  0.00     0.026 C 
BRANCH  22  23
HETATM   23  C16 UNL     1      -0.359 -36.659 -12.256  1.00  0.00     0.164 C 
BRANCH  23  24
HETATM   24  O3  UNL     1      -1.087 -37.263 -13.279  1.00  0.00    -0.401 OA
ATOM     25  H3  UNL     1      -1.998 -37.026 -13.147  1.00  0.00     0.209 HD
ENDBRANCH  23  24
ENDBRANCH  22  23
ENDBRANCH  21  22
ENDBRANCH  20  21
ENDBRANCH  10  20
TORSDOF 7
ENDMDL
MODEL 5
REMARK VINA RESULT: -6.416677323      1.896      2.201
REMARK  7 active torsions:
REMARK  status: ('A' for Active; 'I' for Inactive)
REMARK    1  A    between atoms: C5_9  and  S1_10 
REMARK    2  A    between atoms: S1_10  and  C6_11 
REMARK    3  A    between atoms: C12_19  and  C13_20 
REMARK    4  A    between atoms: C13_20  and  C14_21 
REMARK    5  A    between atoms: C14_21  and  C15_22 
REMARK    6  A    between atoms: C15_22  and  C16_23 
REMARK    7  A    between atoms: C16_23  and  O3_24 
ROOT
HETATM    1  O1  UNL     1      -1.438 -41.225 -13.638  1.00  0.00    -0.286 OA
HETATM    2  C1  UNL     1      -0.823 -40.166 -13.358  1.00  0.00     0.198 A 
HETATM    3  C2  UNL     1      -1.088 -39.016 -14.239  1.00  0.00     0.087 A 
HETATM    4 BR1  UNL     1      -2.299 -39.177 -15.700  1.00  0.00    -0.045 Br
HETATM    5  C3  UNL     1      -0.457 -37.882 -13.975  1.00  0.00     0.106 A 
HETATM    6 CL1  UNL     1      -0.776 -36.517 -15.027  1.00  0.00    -0.078 Cl
HETATM    7  C4  UNL     1       0.482 -37.757 -12.843  1.00  0.00     0.212 A 
HETATM    8  O2  UNL     1       1.056 -36.662 -12.633  1.00  0.00    -0.285 OA
HETATM    9  C5  UNL     1       0.711 -38.929 -11.999  1.00  0.00     0.067 A 
HETATM   10  C12 UNL     1       0.097 -40.070 -12.237  1.00  0.00     0.015 A 
ENDROOT
BRANCH   9  11
HETATM   11  S1  UNL     1       1.832 -38.844 -10.615  1.00  0.00    -0.083 SA
BRANCH  11  12
HETATM   12  C6  UNL     1       0.971 -38.924  -9.060  1.00  0.00     0.046 A 
HETATM   13  C7  UNL     1       1.544 -39.508  -7.956  1.00  0.00     0.046 A 
HETATM   14  C8  UNL     1       0.916 -39.593  -6.732  1.00  0.00     0.035 A 
HETATM   15 CL2  UNL     1       1.656 -40.338  -5.336  1.00  0.00    -0.084 Cl
HETATM   16  C9  UNL     1      -0.357 -39.050  -6.658  1.00  0.00     0.027 A 
HETATM   17  C10 UNL     1      -0.949 -38.460  -7.756  1.00  0.00     0.045 A 
HETATM   18  C11 UNL     1      -0.291 -38.392  -8.964  1.00  0.00     0.133 A 
HETATM   19  F1  UNL     1      -0.904 -37.799 -10.040  1.00  0.00    -0.205 F 
ENDBRANCH  11  12
ENDBRANCH   9  11
BRANCH  10  20
HETATM   20  C13 UNL     1       0.341 -41.222 -11.383  1.00  0.00     0.044 C 
BRANCH  20  21
HETATM   21  C14 UNL     1       1.587 -42.008 -11.732  1.00  0.00     0.007 C 
BRANCH  21  22
HETATM   22  C15 UNL     1       1.089 -43.180 -12.590  1.00  0.00     0.026 C 
BRANCH  22  23
HETATM   23  C16 UNL     1       1.757 -43.175 -13.943  1.00  0.00     0.164 C 
BRANCH  23  24
HETATM   24  O3  UNL     1       0.791 -42.787 -14.870  1.00  0.00    -0.401 OA
ATOM     25  H3  UNL     1       0.770 -43.457 -15.543  1.00  0.00     0.209 HD
ENDBRANCH  23  24
ENDBRANCH  22  23
ENDBRANCH  21  22
ENDBRANCH  20  21
ENDBRANCH  10  20
TORSDOF 7
ENDMDL
