MODEL 1
REMARK VINA RESULT: -8.369525672      0.000      0.000
REMARK  6 active torsions:
REMARK  status: ('A' for Active; 'I' for Inactive)
REMARK    1  A    between atoms: C2_2  and  C3_3 
REMARK    2  A    between atoms: C4_5  and  C5_6 
REMARK    3  A    between atoms: N1_7  and  N2_9 
REMARK       I    between atoms: N2_9  and  C6_11 
REMARK    4  A    between atoms: C6_11  and  C7_13 
REMARK    5  A    between atoms: C7_13  and  O2_14 
REMARK    6  A    between atoms: O2_14  and  C8_15 
ROOT
HETATM    1  N2  UNL     1       1.088 -38.471  -7.954  1.00  0.00    -0.269 N 
ATOM      2  H2  UNL     1       2.104 -38.525  -8.019  1.00  0.00     0.190 HD
HETATM    3  C6  UNL     1       0.414 -39.049  -6.850  1.00  0.00     0.260 C 
HETATM    4  O1  UNL     1      -0.816 -38.997  -6.747  1.00  0.00    -0.269 OA
ENDROOT
BRANCH   1   5
HETATM    5  N1  UNL     1       0.376 -37.845  -8.926  1.00  0.00    -0.308 N 
HETATM    6  C5  UNL     1       0.166 -38.201 -10.089  1.00  0.00     0.126 C 
ATOM      7  H1  UNL     1      -0.043 -36.956  -8.657  1.00  0.00     0.186 HD
BRANCH   6   8
HETATM    8  C4  UNL     1       0.633 -39.406 -10.735  1.00  0.00     0.023 A 
HETATM    9  S1  UNL     1      -0.360 -40.515 -11.632  1.00  0.00    -0.092 SA
HETATM   10  C3  UNL     1       0.830 -41.649 -12.082  1.00  0.00     0.000 A 
HETATM   11  C15 UNL     1       1.968 -41.135 -11.523  1.00  0.00     0.025 A 
HETATM   12  C14 UNL     1       1.853 -39.988 -10.836  1.00  0.00     0.040 A 
HETATM   13 BR1  UNL     1       3.643 -42.101 -11.766  1.00  0.00    -0.050 Br
BRANCH  10  14
HETATM   14  C2  UNL     1       0.680 -42.916 -12.899  1.00  0.00     0.043 C 
HETATM   15  C1  UNL     1       0.781 -42.501 -14.340  1.00  0.00     0.010 C 
ENDBRANCH  10  14
ENDBRANCH   6   8
ENDBRANCH   1   5
BRANCH   3  16
HETATM   16  C7  UNL     1       1.184 -39.735  -5.787  1.00  0.00     0.280 C 
BRANCH  16  17
HETATM   17  O2  UNL     1       0.322 -40.061  -4.740  1.00  0.00    -0.340 OA
BRANCH  17  18
HETATM   18  C8  UNL     1       0.790 -40.082  -3.441  1.00  0.00     0.094 A 
HETATM   19  C9  UNL     1       0.861 -38.954  -2.652  1.00  0.00     0.062 A 
HETATM   20  C10 UNL     1       1.341 -39.063  -1.362  1.00  0.00     0.038 A 
HETATM   21 CL1  UNL     1       1.411 -37.596  -0.392  1.00  0.00    -0.084 Cl
HETATM   22  C11 UNL     1       1.750 -40.274  -0.849  1.00  0.00     0.049 A 
HETATM   23  C12 UNL     1       1.666 -41.376  -1.663  1.00  0.00     0.060 A 
HETATM   24 CL2  UNL     1       2.195 -42.925  -0.988  1.00  0.00    -0.082 Cl
HETATM   25  C13 UNL     1       1.197 -41.328  -2.951  1.00  0.00     0.089 A 
HETATM   26 CL3  UNL     1       1.110 -42.766  -3.952  1.00  0.00    -0.080 Cl
ENDBRANCH  17  18
ENDBRANCH  16  17
ENDBRANCH   3  16
TORSDOF 6
ENDMDL
MODEL 2
REMARK VINA RESULT: -8.258699492      5.217      9.458
REMARK  6 active torsions:
REMARK  status: ('A' for Active; 'I' for Inactive)
REMARK    1  A    between atoms: C2_2  and  C3_3 
REMARK    2  A    between atoms: C4_5  and  C5_6 
REMARK    3  A    between atoms: N1_7  and  N2_9 
REMARK       I    between atoms: N2_9  and  C6_11 
REMARK    4  A    between atoms: C6_11  and  C7_13 
REMARK    5  A    between atoms: C7_13  and  O2_14 
REMARK    6  A    between atoms: O2_14  and  C8_15 
ROOT
HETATM    1  N2  UNL     1       0.341 -40.846  -4.588  1.00  0.00    -0.269 N 
ATOM      2  H2  UNL     1      -0.645 -40.655  -4.412  1.00  0.00     0.190 HD
HETATM    3  C6  UNL     1       1.034 -40.132  -5.596  1.00  0.00     0.260 C 
HETATM    4  O1  UNL     1       2.229 -40.344  -5.829  1.00  0.00    -0.269 OA
ENDROOT
BRANCH   1   5
HETATM    5  N1  UNL     1       0.992 -41.786  -3.858  1.00  0.00    -0.308 N 
HETATM    6  C5  UNL     1       1.372 -41.736  -2.684  1.00  0.00     0.126 C 
ATOM      7  H1  UNL     1       1.198 -42.656  -4.348  1.00  0.00     0.186 HD
BRANCH   6   8
HETATM    8  C4  UNL     1       1.216 -40.637  -1.759  1.00  0.00     0.023 A 
HETATM    9  S1  UNL     1       1.134 -38.958  -2.198  1.00  0.00    -0.092 SA
HETATM   10  C3  UNL     1       0.954 -38.275  -0.647  1.00  0.00     0.000 A 
HETATM   11  C15 UNL     1       0.962 -39.371   0.171  1.00  0.00     0.025 A 
HETATM   12  C14 UNL     1       1.097 -40.574  -0.410  1.00  0.00     0.040 A 
HETATM   13 BR1  UNL     1       0.780 -39.100   2.092  1.00  0.00    -0.050 Br
BRANCH  10  14
HETATM   14  C2  UNL     1       0.817 -36.818  -0.256  1.00  0.00     0.043 C 
HETATM   15  C1  UNL     1       2.218 -36.288  -0.120  1.00  0.00     0.010 C 
ENDBRANCH  10  14
ENDBRANCH   6   8
ENDBRANCH   1   5
BRANCH   3  16
HETATM   16  C7  UNL     1       0.329 -39.105  -6.398  1.00  0.00     0.280 C 
BRANCH  16  17
HETATM   17  O2  UNL     1      -0.213 -39.708  -7.533  1.00  0.00    -0.340 OA
BRANCH  17  18
HETATM   18  C8  UNL     1       0.237 -39.348  -8.788  1.00  0.00     0.094 A 
HETATM   19  C9  UNL     1       1.251 -40.016  -9.441  1.00  0.00     0.062 A 
HETATM   20  C10 UNL     1       1.639 -39.591 -10.695  1.00  0.00     0.038 A 
HETATM   21 CL1  UNL     1       2.937 -40.476 -11.490  1.00  0.00    -0.084 Cl
HETATM   22  C11 UNL     1       1.036 -38.514 -11.306  1.00  0.00     0.049 A 
HETATM   23  C12 UNL     1       0.030 -37.873 -10.628  1.00  0.00     0.060 A 
HETATM   24 CL2  UNL     1      -0.735 -36.491 -11.427  1.00  0.00    -0.082 Cl
HETATM   25  C13 UNL     1      -0.398 -38.251  -9.380  1.00  0.00     0.089 A 
HETATM   26 CL3  UNL     1      -1.688 -37.396  -8.553  1.00  0.00    -0.080 Cl
ENDBRANCH  17  18
ENDBRANCH  16  17
ENDBRANCH   3  16
TORSDOF 6
ENDMDL
MODEL 3
REMARK VINA RESULT: -8.211817048      4.866      9.096
REMARK  6 active torsions:
REMARK  status: ('A' for Active; 'I' for Inactive)
REMARK    1  A    between atoms: C2_2  and  C3_3 
REMARK    2  A    between atoms: C4_5  and  C5_6 
REMARK    3  A    between atoms: N1_7  and  N2_9 
REMARK       I    between atoms: N2_9  and  C6_11 
REMARK    4  A    between atoms: C6_11  and  C7_13 
REMARK    5  A    between atoms: C7_13  and  O2_14 
REMARK    6  A    between atoms: O2_14  and  C8_15 
ROOT
HETATM    1  N2  UNL     1      -0.394 -40.205  -7.745  1.00  0.00    -0.269 N 
ATOM      2  H2  UNL     1       0.334 -40.912  -7.838  1.00  0.00     0.190 HD
HETATM    3  C6  UNL     1      -0.193 -38.905  -8.270  1.00  0.00     0.260 C 
HETATM    4  O1  UNL     1      -1.060 -38.029  -8.172  1.00  0.00    -0.269 OA
ENDROOT
BRANCH   1   5
HETATM    5  N1  UNL     1      -1.559 -40.506  -7.118  1.00  0.00    -0.308 N 
HETATM    6  C5  UNL     1      -1.756 -40.778  -5.929  1.00  0.00     0.126 C 
ATOM      7  H1  UNL     1      -2.388 -40.508  -7.711  1.00  0.00     0.186 HD
BRANCH   6   8
HETATM    8  C4  UNL     1      -0.774 -40.847  -4.871  1.00  0.00     0.023 A 
HETATM    9  S1  UNL     1       0.103 -39.495  -4.224  1.00  0.00    -0.092 SA
HETATM   10  C3  UNL     1       1.040 -40.307  -3.054  1.00  0.00     0.000 A 
HETATM   11  C15 UNL     1       0.646 -41.609  -3.199  1.00  0.00     0.025 A 
HETATM   12  C14 UNL     1      -0.283 -41.872  -4.132  1.00  0.00     0.040 A 
HETATM   13 BR1  UNL     1       1.455 -42.960  -2.051  1.00  0.00    -0.050 Br
BRANCH  10  14
HETATM   14  C2  UNL     1       2.060 -39.741  -2.089  1.00  0.00     0.043 C 
HETATM   15  C1  UNL     1       1.349 -38.672  -1.307  1.00  0.00     0.010 C 
ENDBRANCH  10  14
ENDBRANCH   6   8
ENDBRANCH   1   5
BRANCH   3  16
HETATM   16  C7  UNL     1       1.076 -38.568  -8.955  1.00  0.00     0.280 C 
BRANCH  16  17
HETATM   17  O2  UNL     1       0.790 -38.090 -10.233  1.00  0.00    -0.340 OA
BRANCH  17  18
HETATM   18  C8  UNL     1       0.707 -38.967 -11.297  1.00  0.00     0.094 A 
HETATM   19  C9  UNL     1       1.254 -40.233 -11.268  1.00  0.00     0.062 A 
HETATM   20  C10 UNL     1       1.125 -41.047 -12.375  1.00  0.00     0.038 A 
HETATM   21 CL1  UNL     1       1.838 -42.655 -12.291  1.00  0.00    -0.084 Cl
HETATM   22  C11 UNL     1       0.463 -40.622 -13.505  1.00  0.00     0.049 A 
HETATM   23  C12 UNL     1      -0.069 -39.357 -13.499  1.00  0.00     0.060 A 
HETATM   24 CL2  UNL     1      -0.917 -38.826 -14.959  1.00  0.00    -0.082 Cl
HETATM   25  C13 UNL     1       0.028 -38.504 -12.428  1.00  0.00     0.089 A 
HETATM   26 CL3  UNL     1      -0.669 -36.894 -12.470  1.00  0.00    -0.080 Cl
ENDBRANCH  17  18
ENDBRANCH  16  17
ENDBRANCH   3  16
TORSDOF 6
ENDMDL
MODEL 4
REMARK VINA RESULT: -8.169843201      4.871      9.176
REMARK  6 active torsions:
REMARK  status: ('A' for Active; 'I' for Inactive)
REMARK    1  A    between atoms: C2_2  and  C3_3 
REMARK    2  A    between atoms: C4_5  and  C5_6 
REMARK    3  A    between atoms: N1_7  and  N2_9 
REMARK       I    between atoms: N2_9  and  C6_11 
REMARK    4  A    between atoms: C6_11  and  C7_13 
REMARK    5  A    between atoms: C7_13  and  O2_14 
REMARK    6  A    between atoms: O2_14  and  C8_15 
ROOT
HETATM    1  N2  UNL     1      -0.344 -39.931  -7.801  1.00  0.00    -0.269 N 
ATOM      2  H2  UNL     1       0.556 -40.106  -7.354  1.00  0.00     0.190 HD
HETATM    3  C6  UNL     1      -0.406 -39.188  -9.006  1.00  0.00     0.260 C 
HETATM    4  O1  UNL     1      -1.483 -38.964  -9.568  1.00  0.00    -0.269 OA
ENDROOT
BRANCH   1   5
HETATM    5  N1  UNL     1      -1.484 -40.410  -7.244  1.00  0.00    -0.308 N 
HETATM    6  C5  UNL     1      -1.686 -40.791  -6.087  1.00  0.00     0.126 C 
ATOM      7  H1  UNL     1      -2.288 -40.462  -7.869  1.00  0.00     0.186 HD
BRANCH   6   8
HETATM    8  C4  UNL     1      -0.737 -40.828  -4.998  1.00  0.00     0.023 A 
HETATM    9  S1  UNL     1       0.090 -39.449  -4.339  1.00  0.00    -0.092 SA
HETATM   10  C3  UNL     1       1.007 -40.228  -3.132  1.00  0.00     0.000 A 
HETATM   11  C15 UNL     1       0.646 -41.539  -3.273  1.00  0.00     0.025 A 
HETATM   12  C14 UNL     1      -0.247 -41.833  -4.232  1.00  0.00     0.040 A 
HETATM   13 BR1  UNL     1       1.448 -42.860  -2.085  1.00  0.00    -0.050 Br
BRANCH  10  14
HETATM   14  C2  UNL     1       1.984 -39.629  -2.141  1.00  0.00     0.043 C 
HETATM   15  C1  UNL     1       1.212 -38.603  -1.359  1.00  0.00     0.010 C 
ENDBRANCH  10  14
ENDBRANCH   6   8
ENDBRANCH   1   5
BRANCH   3  16
HETATM   16  C7  UNL     1       0.835 -38.662  -9.619  1.00  0.00     0.280 C 
BRANCH  16  17
HETATM   17  O2  UNL     1       1.343 -39.612 -10.505  1.00  0.00    -0.340 OA
BRANCH  17  18
HETATM   18  C8  UNL     1       0.916 -39.629 -11.818  1.00  0.00     0.094 A 
HETATM   19  C9  UNL     1       0.345 -38.536 -12.434  1.00  0.00     0.062 A 
HETATM   20  C10 UNL     1      -0.054 -38.638 -13.752  1.00  0.00     0.038 A 
HETATM   21 CL1  UNL     1      -0.777 -37.217 -14.497  1.00  0.00    -0.084 Cl
HETATM   22  C11 UNL     1       0.106 -39.808 -14.461  1.00  0.00     0.049 A 
HETATM   23  C12 UNL     1       0.678 -40.875 -13.816  1.00  0.00     0.060 A 
HETATM   24 CL2  UNL     1       0.878 -42.371 -14.742  1.00  0.00    -0.082 Cl
HETATM   25  C13 UNL     1       1.094 -40.832 -12.509  1.00  0.00     0.089 A 
HETATM   26 CL3  UNL     1       1.820 -42.226 -11.729  1.00  0.00    -0.080 Cl
ENDBRANCH  17  18
ENDBRANCH  16  17
ENDBRANCH   3  16
TORSDOF 6
ENDMDL
MODEL 5
REMARK VINA RESULT: -8.001693337      1.509      1.744
REMARK  6 active torsions:
REMARK  status: ('A' for Active; 'I' for Inactive)
REMARK    1  A    between atoms: C2_2  and  C3_3 
REMARK    2  A    between atoms: C4_5  and  C5_6 
REMARK    3  A    between atoms: N1_7  and  N2_9 
REMARK       I    between atoms: N2_9  and  C6_11 
REMARK    4  A    between atoms: C6_11  and  C7_13 
REMARK    5  A    between atoms: C7_13  and  O2_14 
REMARK    6  A    between atoms: O2_14  and  C8_15 
ROOT
HETATM    1  N2  UNL     1      -0.366 -39.069  -7.407  1.00  0.00    -0.269 N 
ATOM      2  H2  UNL     1      -1.046 -39.781  -7.138  1.00  0.00     0.190 HD
HETATM    3  C6  UNL     1       0.926 -39.065  -6.825  1.00  0.00     0.260 C 
HETATM    4  O1  UNL     1       1.768 -38.214  -7.134  1.00  0.00    -0.269 OA
ENDROOT
BRANCH   1   5
HETATM    5  N1  UNL     1      -0.697 -38.125  -8.322  1.00  0.00    -0.308 N 
HETATM    6  C5  UNL     1      -0.624 -38.174  -9.554  1.00  0.00     0.126 C 
ATOM      7  H1  UNL     1      -1.056 -37.251  -7.940  1.00  0.00     0.186 HD
BRANCH   6   8
HETATM    8  C4  UNL     1      -0.156 -39.278 -10.361  1.00  0.00     0.023 A 
HETATM    9  S1  UNL     1       1.482 -39.854 -10.422  1.00  0.00    -0.092 SA
HETATM   10  C3  UNL     1       1.285 -41.127 -11.539  1.00  0.00     0.000 A 
HETATM   11  C15 UNL     1      -0.049 -41.069 -11.835  1.00  0.00     0.025 A 
HETATM   12  C14 UNL     1      -0.775 -40.119 -11.226  1.00  0.00     0.040 A 
HETATM   13 BR1  UNL     1      -0.778 -42.357 -13.103  1.00  0.00    -0.050 Br
BRANCH  10  14
HETATM   14  C2  UNL     1       2.322 -42.090 -12.080  1.00  0.00     0.043 C 
HETATM   15  C1  UNL     1       3.659 -41.542 -11.666  1.00  0.00     0.010 C 
ENDBRANCH  10  14
ENDBRANCH   6   8
ENDBRANCH   1   5
BRANCH   3  16
HETATM   16  C7  UNL     1       1.293 -40.092  -5.823  1.00  0.00     0.280 C 
BRANCH  16  17
HETATM   17  O2  UNL     1       0.374 -40.056  -4.776  1.00  0.00    -0.340 OA
BRANCH  17  18
HETATM   18  C8  UNL     1       0.816 -40.068  -3.468  1.00  0.00     0.094 A 
HETATM   19  C9  UNL     1       0.871 -38.934  -2.685  1.00  0.00     0.062 A 
HETATM   20  C10 UNL     1       1.326 -39.034  -1.386  1.00  0.00     0.038 A 
HETATM   21 CL1  UNL     1       1.378 -37.560  -0.424  1.00  0.00    -0.084 Cl
HETATM   22  C11 UNL     1       1.725 -40.241  -0.856  1.00  0.00     0.049 A 
HETATM   23  C12 UNL     1       1.656 -41.349  -1.663  1.00  0.00     0.060 A 
HETATM   24 CL2  UNL     1       2.173 -42.893  -0.968  1.00  0.00    -0.082 Cl
HETATM   25  C13 UNL     1       1.213 -41.310  -2.962  1.00  0.00     0.089 A 
HETATM   26 CL3  UNL     1       1.145 -42.755  -3.953  1.00  0.00    -0.080 Cl
ENDBRANCH  17  18
ENDBRANCH  16  17
ENDBRANCH   3  16
TORSDOF 6
ENDMDL
