MODEL 1
REMARK VINA RESULT: -8.341991490      0.000      0.000
REMARK  12 active torsions:
REMARK  status: ('A' for Active; 'I' for Inactive)
REMARK    1  A    between atoms: C1_4  and  C2_5 
REMARK    2  A    between atoms: C1_4  and  C13_36 
REMARK    3  A    between atoms: C4_13  and  O1_14 
REMARK    4  A    between atoms: O1_14  and  C5_15 
REMARK    5  A    between atoms: C5_15  and  C6_16 
REMARK    6  A    between atoms: C7_18  and  N4_19 
REMARK    7  A    between atoms: C11_29  and  O5_30 
REMARK    8  A    between atoms: C12_32  and  O6_33 
REMARK    9  A    between atoms: C13_36  and  O8_37 
REMARK   10  A    between atoms: C13_36  and  C14_39 
REMARK   11  A    between atoms: C14_39  and  N7_40 
REMARK   12  A    between atoms: C14_39  and  C16_45 
REMARK       I    between atoms: N7_40  and  C15_42 
ROOT
HETATM    1  C2  UNL     1     -16.298 -65.334 -51.808  1.00  0.00     0.375 C 
HETATM    2  N2  UNL     1     -14.999 -65.969 -51.771  1.00  0.00    -0.019 N 
ATOM      3  H21 UNL     1     -14.382 -65.518 -51.095  1.00  0.00     0.282 HD
ATOM      4  H22 UNL     1     -14.466 -65.780 -52.620  1.00  0.00     0.282 HD
HETATM    5  C3  UNL     1     -15.111 -67.383 -51.522  1.00  0.00     0.472 C 
HETATM    6  N3  UNL     1     -16.146 -67.905 -52.367  1.00  0.00    -0.001 N 
ATOM      7  H31 UNL     1     -16.981 -68.168 -51.844  1.00  0.00     0.285 HD
ATOM      8  H32 UNL     1     -15.918 -68.827 -52.739  1.00  0.00     0.285 HD
HETATM    9  C4  UNL     1     -16.426 -66.937 -53.411  1.00  0.00     0.473 C 
HETATM   10  O7  UNL     1     -17.085 -65.871 -52.793  1.00  0.00    -0.300 OA
ENDROOT
BRANCH   9  11
HETATM   11  O1  UNL     1     -17.147 -67.482 -54.440  1.00  0.00    -0.336 OA
BRANCH  11  12
HETATM   12  C5  UNL     1     -17.195 -68.841 -54.342  1.00  0.00     0.207 C 
BRANCH  12  13
HETATM   13  C6  UNL     1     -18.532 -69.444 -54.071  1.00  0.00     0.179 C 
HETATM   14  O2  UNL     1     -19.303 -68.652 -53.192  1.00  0.00    -0.353 OA
HETATM   15  C7  UNL     1     -20.299 -69.554 -52.851  1.00  0.00     0.265 C 
HETATM   16  C11 UNL     1     -19.468 -70.703 -52.288  1.00  0.00     0.198 C 
HETATM   17  C12 UNL     1     -18.357 -70.770 -53.316  1.00  0.00     0.182 C 
BRANCH  15  18
HETATM   18  N4  UNL     1     -21.232 -69.040 -51.886  1.00  0.00    -0.266 N 
HETATM   19  C8  UNL     1     -20.972 -68.946 -50.573  1.00  0.00     0.194 A 
HETATM   20  N5  UNL     1     -21.926 -68.448 -49.771  1.00  0.00    -0.304 N 
HETATM   21  C9  UNL     1     -23.120 -68.041 -50.220  1.00  0.00     0.329 A 
ATOM     22  H5  UNL     1     -21.733 -68.375 -48.771  1.00  0.00     0.171 HD
HETATM   23  O3  UNL     1     -24.030 -67.570 -49.491  1.00  0.00    -0.247 OA
HETATM   24  N6  UNL     1     -23.383 -68.133 -51.541  1.00  0.00    -0.260 N 
HETATM   25  C10 UNL     1     -22.430 -68.631 -52.345  1.00  0.00     0.333 A 
ATOM     26  H6  UNL     1     -24.281 -67.832 -51.918  1.00  0.00     0.175 HD
HETATM   27  O4  UNL     1     -22.727 -68.700 -53.584  1.00  0.00    -0.246 OA
ENDBRANCH  15  18
BRANCH  16  28
HETATM   28  O5  UNL     1     -20.182 -71.869 -52.178  1.00  0.00    -0.388 OA
ATOM     29  H5  UNL     1     -21.110 -71.747 -52.345  1.00  0.00     0.210 HD
ENDBRANCH  16  28
BRANCH  17  30
HETATM   30  O6  UNL     1     -17.113 -70.871 -52.734  1.00  0.00    -0.390 OA
ATOM     31  H6  UNL     1     -17.159 -70.826 -51.786  1.00  0.00     0.210 HD
ENDBRANCH  17  30
ENDBRANCH  12  13
ENDBRANCH  11  12
ENDBRANCH   9  11
BRANCH   1  32
HETATM   32  C1  UNL     1     -16.955 -65.292 -50.481  1.00  0.00     0.068 C 
HETATM   33  N1  UNL     1     -16.323 -64.810 -49.486  1.00  0.00    -0.400 N 
ATOM     34  H12 UNL     1     -15.374 -64.460 -49.617  1.00  0.00     0.155 HD
ATOM     35  H11 UNL     1     -16.775 -64.781 -48.572  1.00  0.00     0.155 HD
BRANCH  32  36
HETATM   36  C13 UNL     1     -18.330 -65.798 -50.292  1.00  0.00     0.199 C 
BRANCH  36  37
HETATM   37  O8  UNL     1     -18.250 -67.198 -50.484  1.00  0.00    -0.387 OA
ATOM     38  H8  UNL     1     -19.120 -67.469 -50.756  1.00  0.00     0.210 HD
ENDBRANCH  36  37
BRANCH  36  39
HETATM   39  C14 UNL     1     -18.948 -65.504 -48.972  1.00  0.00     0.211 C 
BRANCH  39  40
HETATM   40  N7  UNL     1     -20.376 -65.348 -49.131  1.00  0.00    -0.319 N 
HETATM   41  C15 UNL     1     -21.013 -64.127 -49.425  1.00  0.00     0.284 C 
HETATM   42  O9  UNL     1     -20.325 -63.079 -49.563  1.00  0.00    -0.630 OA
HETATM   43  O10 UNL     1     -22.402 -64.044 -49.571  1.00  0.00    -0.630 OA
ATOM     44  H7  UNL     1     -20.960 -66.177 -49.023  1.00  0.00     0.166 HD
ENDBRANCH  39  40
BRANCH  39  45
HETATM   45  C16 UNL     1     -18.665 -66.694 -48.091  1.00  0.00     0.257 C 
HETATM   46  N8  UNL     1     -17.418 -66.852 -47.459  1.00  0.00    -0.060 NA
HETATM   47  O11 UNL     1     -19.556 -67.552 -47.926  1.00  0.00    -0.274 OA
ENDBRANCH  39  45
ENDBRANCH  36  39
ENDBRANCH  32  36
ENDBRANCH   1  32
TORSDOF 12
ENDMDL
MODEL 2
REMARK VINA RESULT: -8.098564853      4.083      5.204
REMARK  12 active torsions:
REMARK  status: ('A' for Active; 'I' for Inactive)
REMARK    1  A    between atoms: C1_4  and  C2_5 
REMARK    2  A    between atoms: C1_4  and  C13_36 
REMARK    3  A    between atoms: C4_13  and  O1_14 
REMARK    4  A    between atoms: O1_14  and  C5_15 
REMARK    5  A    between atoms: C5_15  and  C6_16 
REMARK    6  A    between atoms: C7_18  and  N4_19 
REMARK    7  A    between atoms: C11_29  and  O5_30 
REMARK    8  A    between atoms: C12_32  and  O6_33 
REMARK    9  A    between atoms: C13_36  and  O8_37 
REMARK   10  A    between atoms: C13_36  and  C14_39 
REMARK   11  A    between atoms: C14_39  and  N7_40 
REMARK   12  A    between atoms: C14_39  and  C16_45 
REMARK       I    between atoms: N7_40  and  C15_42 
ROOT
HETATM    1  C2  UNL     1     -14.584 -65.873 -48.796  1.00  0.00     0.375 C 
HETATM    2  N2  UNL     1     -14.633 -64.845 -49.814  1.00  0.00    -0.019 N 
ATOM      3  H21 UNL     1     -14.356 -63.937 -49.442  1.00  0.00     0.282 HD
ATOM      4  H22 UNL     1     -15.594 -64.622 -50.074  1.00  0.00     0.282 HD
HETATM    5  C3  UNL     1     -13.846 -65.206 -50.964  1.00  0.00     0.472 C 
HETATM    6  N3  UNL     1     -14.141 -66.569 -51.300  1.00  0.00    -0.001 N 
ATOM      7  H31 UNL     1     -13.367 -67.199 -51.090  1.00  0.00     0.285 HD
ATOM      8  H32 UNL     1     -14.179 -66.724 -52.307  1.00  0.00     0.285 HD
HETATM    9  C4  UNL     1     -15.370 -66.956 -50.631  1.00  0.00     0.473 C 
HETATM   10  O7  UNL     1     -15.060 -67.065 -49.272  1.00  0.00    -0.300 OA
ENDROOT
BRANCH   9  11
HETATM   11  O1  UNL     1     -15.899 -68.107 -51.149  1.00  0.00    -0.336 OA
BRANCH  11  12
HETATM   12  C5  UNL     1     -16.209 -67.957 -52.469  1.00  0.00     0.207 C 
BRANCH  12  13
HETATM   13  C6  UNL     1     -17.608 -68.288 -52.867  1.00  0.00     0.179 C 
HETATM   14  O2  UNL     1     -18.554 -67.802 -51.937  1.00  0.00    -0.353 OA
HETATM   15  C7  UNL     1     -19.681 -68.504 -52.336  1.00  0.00     0.265 C 
HETATM   16  C11 UNL     1     -19.184 -69.942 -52.216  1.00  0.00     0.198 C 
HETATM   17  C12 UNL     1     -17.807 -69.811 -52.833  1.00  0.00     0.182 C 
BRANCH  15  18
HETATM   18  N4  UNL     1     -20.831 -68.260 -51.510  1.00  0.00    -0.266 N 
HETATM   19  C8  UNL     1     -20.759 -67.848 -50.235  1.00  0.00     0.194 A 
HETATM   20  N5  UNL     1     -21.907 -67.653 -49.565  1.00  0.00    -0.304 N 
HETATM   21  C9  UNL     1     -23.114 -67.850 -50.110  1.00  0.00     0.329 A 
ATOM     22  H5  UNL     1     -21.857 -67.341 -48.595  1.00  0.00     0.171 HD
HETATM   23  O3  UNL     1     -24.203 -67.675 -49.507  1.00  0.00    -0.247 OA
HETATM   24  N6  UNL     1     -23.188 -68.262 -51.393  1.00  0.00    -0.260 N 
HETATM   25  C10 UNL     1     -22.042 -68.458 -52.065  1.00  0.00     0.333 A 
ATOM     26  H6  UNL     1     -24.090 -68.422 -51.841  1.00  0.00     0.175 HD
HETATM   27  O4  UNL     1     -22.163 -68.849 -53.273  1.00  0.00    -0.246 OA
ENDBRANCH  15  18
BRANCH  16  28
HETATM   28  O5  UNL     1     -19.993 -70.838 -52.866  1.00  0.00    -0.388 OA
ATOM     29  H5  UNL     1     -19.527 -71.619 -53.143  1.00  0.00     0.210 HD
ENDBRANCH  16  28
BRANCH  17  30
HETATM   30  O6  UNL     1     -16.837 -70.441 -52.085  1.00  0.00    -0.390 OA
ATOM     31  H6  UNL     1     -16.957 -71.384 -52.070  1.00  0.00     0.210 HD
ENDBRANCH  17  30
ENDBRANCH  12  13
ENDBRANCH  11  12
ENDBRANCH   9  11
BRANCH   1  32
HETATM   32  C1  UNL     1     -13.254 -65.979 -48.152  1.00  0.00     0.068 C 
HETATM   33  N1  UNL     1     -12.667 -64.922 -47.752  1.00  0.00    -0.400 N 
ATOM     34  H12 UNL     1     -13.120 -64.018 -47.880  1.00  0.00     0.155 HD
ATOM     35  H11 UNL     1     -11.751 -64.996 -47.308  1.00  0.00     0.155 HD
BRANCH  32  36
HETATM   36  C13 UNL     1     -12.597 -67.290 -47.967  1.00  0.00     0.199 C 
BRANCH  36  37
HETATM   37  O8  UNL     1     -12.178 -67.692 -49.258  1.00  0.00    -0.387 OA
ATOM     38  H8  UNL     1     -11.505 -68.348 -49.116  1.00  0.00     0.210 HD
ENDBRANCH  36  37
BRANCH  36  39
HETATM   39  C14 UNL     1     -11.439 -67.303 -47.033  1.00  0.00     0.211 C 
BRANCH  39  40
HETATM   40  N7  UNL     1     -11.896 -67.631 -45.702  1.00  0.00    -0.319 N 
HETATM   41  C15 UNL     1     -11.887 -66.736 -44.616  1.00  0.00     0.284 C 
HETATM   42  O9  UNL     1     -11.455 -65.562 -44.777  1.00  0.00    -0.630 OA
HETATM   43  O10 UNL     1     -12.348 -67.116 -43.351  1.00  0.00    -0.630 OA
ATOM     44  H7  UNL     1     -12.249 -68.574 -45.540  1.00  0.00     0.166 HD
ENDBRANCH  39  40
BRANCH  39  45
HETATM   45  C16 UNL     1     -10.504 -68.378 -47.525  1.00  0.00     0.257 C 
HETATM   46  N8  UNL     1      -9.184 -68.074 -47.908  1.00  0.00    -0.060 NA
HETATM   47  O11 UNL     1     -10.914 -69.554 -47.594  1.00  0.00    -0.274 OA
ENDBRANCH  39  45
ENDBRANCH  36  39
ENDBRANCH  32  36
ENDBRANCH   1  32
TORSDOF 12
ENDMDL
MODEL 3
REMARK VINA RESULT: -7.774773230      2.419      6.087
REMARK  12 active torsions:
REMARK  status: ('A' for Active; 'I' for Inactive)
REMARK    1  A    between atoms: C1_4  and  C2_5 
REMARK    2  A    between atoms: C1_4  and  C13_36 
REMARK    3  A    between atoms: C4_13  and  O1_14 
REMARK    4  A    between atoms: O1_14  and  C5_15 
REMARK    5  A    between atoms: C5_15  and  C6_16 
REMARK    6  A    between atoms: C7_18  and  N4_19 
REMARK    7  A    between atoms: C11_29  and  O5_30 
REMARK    8  A    between atoms: C12_32  and  O6_33 
REMARK    9  A    between atoms: C13_36  and  O8_37 
REMARK   10  A    between atoms: C13_36  and  C14_39 
REMARK   11  A    between atoms: C14_39  and  N7_40 
REMARK   12  A    between atoms: C14_39  and  C16_45 
REMARK       I    between atoms: N7_40  and  C15_42 
ROOT
HETATM    1  C2  UNL     1     -19.621 -68.632 -53.403  1.00  0.00     0.375 C 
HETATM    2  N2  UNL     1     -20.120 -69.972 -53.628  1.00  0.00    -0.019 N 
ATOM      3  H21 UNL     1     -19.775 -70.356 -54.507  1.00  0.00     0.282 HD
ATOM      4  H22 UNL     1     -21.118 -69.969 -53.837  1.00  0.00     0.282 HD
HETATM    5  C3  UNL     1     -19.816 -70.838 -52.519  1.00  0.00     0.472 C 
HETATM    6  N3  UNL     1     -20.136 -70.144 -51.306  1.00  0.00    -0.001 N 
ATOM      7  H31 UNL     1     -19.305 -69.869 -50.782  1.00  0.00     0.285 HD
ATOM      8  H32 UNL     1     -20.549 -70.756 -50.602  1.00  0.00     0.285 HD
HETATM    9  C4  UNL     1     -20.987 -69.013 -51.629  1.00  0.00     0.473 C 
HETATM   10  O7  UNL     1     -20.172 -68.080 -52.277  1.00  0.00    -0.300 OA
ENDROOT
BRANCH   9  11
HETATM   11  O1  UNL     1     -21.605 -68.499 -50.521  1.00  0.00    -0.336 OA
BRANCH  11  12
HETATM   12  C5  UNL     1     -21.501 -67.139 -50.486  1.00  0.00     0.207 C 
BRANCH  12  13
HETATM   13  C6  UNL     1     -21.402 -66.512 -49.136  1.00  0.00     0.179 C 
HETATM   14  O2  UNL     1     -21.431 -65.102 -49.203  1.00  0.00    -0.353 OA
HETATM   15  C7  UNL     1     -20.999 -64.782 -47.925  1.00  0.00     0.265 C 
HETATM   16  C11 UNL     1     -19.654 -65.502 -47.887  1.00  0.00     0.198 C 
HETATM   17  C12 UNL     1     -20.029 -66.824 -48.523  1.00  0.00     0.182 C 
BRANCH  15  18
HETATM   18  N4  UNL     1     -20.861 -63.369 -47.703  1.00  0.00    -0.266 N 
HETATM   19  C8  UNL     1     -19.787 -62.656 -48.078  1.00  0.00     0.194 A 
HETATM   20  N5  UNL     1     -19.776 -61.339 -47.815  1.00  0.00    -0.304 N 
HETATM   21  C9  UNL     1     -20.784 -60.708 -47.200  1.00  0.00     0.329 A 
ATOM     22  H5  UNL     1     -18.961 -60.793 -48.097  1.00  0.00     0.171 HD
HETATM   23  O3  UNL     1     -20.800 -59.478 -46.942  1.00  0.00    -0.247 OA
HETATM   24  N6  UNL     1     -21.866 -61.423 -46.824  1.00  0.00    -0.260 N 
HETATM   25  C10 UNL     1     -21.879 -62.740 -47.086  1.00  0.00     0.333 A 
ATOM     26  H6  UNL     1     -22.652 -60.975 -46.354  1.00  0.00     0.175 HD
HETATM   27  O4  UNL     1     -22.921 -63.373 -46.710  1.00  0.00    -0.246 OA
ENDBRANCH  15  18
BRANCH  16  28
HETATM   28  O5  UNL     1     -19.156 -65.626 -46.615  1.00  0.00    -0.388 OA
ATOM     29  H5  UNL     1     -18.881 -66.514 -46.414  1.00  0.00     0.210 HD
ENDBRANCH  16  28
BRANCH  17  30
HETATM   30  O6  UNL     1     -19.118 -67.225 -49.474  1.00  0.00    -0.390 OA
ATOM     31  H6  UNL     1     -18.274 -66.805 -49.356  1.00  0.00     0.210 HD
ENDBRANCH  17  30
ENDBRANCH  12  13
ENDBRANCH  11  12
ENDBRANCH   9  11
BRANCH   1  32
HETATM   32  C1  UNL     1     -18.142 -68.556 -53.439  1.00  0.00     0.068 C 
HETATM   33  N1  UNL     1     -17.528 -68.838 -54.518  1.00  0.00    -0.400 N 
ATOM     34  H12 UNL     1     -18.062 -69.112 -55.342  1.00  0.00     0.155 HD
ATOM     35  H11 UNL     1     -16.509 -68.785 -54.542  1.00  0.00     0.155 HD
BRANCH  32  36
HETATM   36  C13 UNL     1     -17.368 -68.159 -52.244  1.00  0.00     0.199 C 
BRANCH  36  37
HETATM   37  O8  UNL     1     -16.251 -69.027 -52.208  1.00  0.00    -0.387 OA
ATOM     38  H8  UNL     1     -15.490 -68.470 -52.324  1.00  0.00     0.210 HD
ENDBRANCH  36  37
BRANCH  36  39
HETATM   39  C14 UNL     1     -16.911 -66.744 -52.215  1.00  0.00     0.211 C 
BRANCH  39  40
HETATM   40  N7  UNL     1     -17.953 -65.911 -51.660  1.00  0.00    -0.319 N 
HETATM   41  C15 UNL     1     -18.052 -64.522 -51.864  1.00  0.00     0.284 C 
HETATM   42  O9  UNL     1     -17.190 -63.931 -52.571  1.00  0.00    -0.630 OA
HETATM   43  O10 UNL     1     -19.090 -63.772 -51.301  1.00  0.00    -0.630 OA
ATOM     44  H7  UNL     1     -18.663 -66.360 -51.082  1.00  0.00     0.166 HD
ENDBRANCH  39  40
BRANCH  39  45
HETATM   45  C16 UNL     1     -15.700 -66.704 -51.317  1.00  0.00     0.257 C 
HETATM   46  N8  UNL     1     -15.809 -66.964 -49.938  1.00  0.00    -0.060 NA
HETATM   47  O11 UNL     1     -14.587 -66.435 -51.811  1.00  0.00    -0.274 OA
ENDBRANCH  39  45
ENDBRANCH  36  39
ENDBRANCH  32  36
ENDBRANCH   1  32
TORSDOF 12
ENDMDL
MODEL 4
REMARK VINA RESULT: -7.759241295      4.091      8.083
REMARK  12 active torsions:
REMARK  status: ('A' for Active; 'I' for Inactive)
REMARK    1  A    between atoms: C1_4  and  C2_5 
REMARK    2  A    between atoms: C1_4  and  C13_36 
REMARK    3  A    between atoms: C4_13  and  O1_14 
REMARK    4  A    between atoms: O1_14  and  C5_15 
REMARK    5  A    between atoms: C5_15  and  C6_16 
REMARK    6  A    between atoms: C7_18  and  N4_19 
REMARK    7  A    between atoms: C11_29  and  O5_30 
REMARK    8  A    between atoms: C12_32  and  O6_33 
REMARK    9  A    between atoms: C13_36  and  O8_37 
REMARK   10  A    between atoms: C13_36  and  C14_39 
REMARK   11  A    between atoms: C14_39  and  N7_40 
REMARK   12  A    between atoms: C14_39  and  C16_45 
REMARK       I    between atoms: N7_40  and  C15_42 
ROOT
HETATM    1  C2  UNL     1     -17.632 -69.621 -53.112  1.00  0.00     0.375 C 
HETATM    2  N2  UNL     1     -17.123 -68.891 -54.254  1.00  0.00    -0.019 N 
ATOM      3  H21 UNL     1     -17.526 -69.234 -55.126  1.00  0.00     0.282 HD
ATOM      4  H22 UNL     1     -16.144 -69.114 -54.434  1.00  0.00     0.282 HD
HETATM    5  C3  UNL     1     -17.323 -67.473 -54.103  1.00  0.00     0.472 C 
HETATM    6  N3  UNL     1     -16.926 -67.103 -52.776  1.00  0.00    -0.001 N 
ATOM      7  H31 UNL     1     -17.720 -66.858 -52.185  1.00  0.00     0.285 HD
ATOM      8  H32 UNL     1     -16.447 -66.203 -52.747  1.00  0.00     0.285 HD
HETATM    9  C4  UNL     1     -16.126 -68.177 -52.214  1.00  0.00     0.473 C 
HETATM   10  O7  UNL     1     -17.008 -69.231 -51.957  1.00  0.00    -0.300 OA
ENDROOT
BRANCH   9  11
HETATM   11  O1  UNL     1     -15.437 -67.779 -51.101  1.00  0.00    -0.336 OA
BRANCH  11  12
HETATM   12  C5  UNL     1     -14.635 -66.709 -51.374  1.00  0.00     0.207 C 
BRANCH  12  13
HETATM   13  C6  UNL     1     -13.405 -66.568 -50.542  1.00  0.00     0.179 C 
HETATM   14  O2  UNL     1     -13.613 -66.992 -49.211  1.00  0.00    -0.353 OA
HETATM   15  C7  UNL     1     -12.487 -66.462 -48.601  1.00  0.00     0.265 C 
HETATM   16  C11 UNL     1     -12.639 -64.984 -48.947  1.00  0.00     0.198 C 
HETATM   17  C12 UNL     1     -13.045 -65.081 -50.403  1.00  0.00     0.182 C 
BRANCH  15  18
HETATM   18  N4  UNL     1     -12.446 -66.682 -47.181  1.00  0.00    -0.266 N 
HETATM   19  C8  UNL     1     -13.536 -66.695 -46.397  1.00  0.00     0.194 A 
HETATM   20  N5  UNL     1     -13.369 -66.912 -45.082  1.00  0.00    -0.304 N 
HETATM   21  C9  UNL     1     -12.170 -67.116 -44.521  1.00  0.00     0.329 A 
ATOM     22  H5  UNL     1     -14.194 -66.922 -44.482  1.00  0.00     0.171 HD
HETATM   23  O3  UNL     1     -11.986 -67.321 -43.295  1.00  0.00    -0.247 OA
HETATM   24  N6  UNL     1     -11.074 -67.104 -45.308  1.00  0.00    -0.260 N 
HETATM   25  C10 UNL     1     -11.238 -66.887 -46.623  1.00  0.00     0.333 A 
ATOM     26  H6  UNL     1     -10.146 -67.256 -44.915  1.00  0.00     0.175 HD
HETATM   27  O4  UNL     1     -10.173 -66.884 -47.325  1.00  0.00    -0.246 OA
ENDBRANCH  15  18
BRANCH  16  28
HETATM   28  O5  UNL     1     -11.484 -64.271 -48.746  1.00  0.00    -0.388 OA
ATOM     29  H5  UNL     1     -11.590 -63.343 -48.924  1.00  0.00     0.210 HD
ENDBRANCH  16  28
BRANCH  17  30
HETATM   30  O6  UNL     1     -14.109 -64.263 -50.705  1.00  0.00    -0.390 OA
ATOM     31  H6  UNL     1     -13.839 -63.360 -50.832  1.00  0.00     0.210 HD
ENDBRANCH  17  30
ENDBRANCH  12  13
ENDBRANCH  11  12
ENDBRANCH   9  11
BRANCH   1  32
HETATM   32  C1  UNL     1     -19.111 -69.595 -53.027  1.00  0.00     0.068 C 
HETATM   33  N1  UNL     1     -19.801 -70.014 -54.011  1.00  0.00    -0.400 N 
ATOM     34  H12 UNL     1     -19.327 -70.361 -54.844  1.00  0.00     0.155 HD
ATOM     35  H11 UNL     1     -20.819 -69.996 -53.952  1.00  0.00     0.155 HD
BRANCH  32  36
HETATM   36  C13 UNL     1     -19.798 -69.091 -51.819  1.00  0.00     0.199 C 
BRANCH  36  37
HETATM   37  O8  UNL     1     -19.936 -67.696 -52.013  1.00  0.00    -0.387 OA
ATOM     38  H8  UNL     1     -20.519 -67.598 -52.758  1.00  0.00     0.210 HD
ENDBRANCH  36  37
BRANCH  36  39
HETATM   39  C14 UNL     1     -21.126 -69.697 -51.535  1.00  0.00     0.211 C 
BRANCH  39  40
HETATM   40  N7  UNL     1     -21.230 -69.995 -50.125  1.00  0.00    -0.319 N 
HETATM   41  C15 UNL     1     -20.790 -71.194 -49.533  1.00  0.00     0.284 C 
HETATM   42  O9  UNL     1     -20.268 -72.091 -50.250  1.00  0.00    -0.630 OA
HETATM   43  O10 UNL     1     -20.915 -71.419 -48.158  1.00  0.00    -0.630 OA
ATOM     44  H7  UNL     1     -21.649 -69.290 -49.520  1.00  0.00     0.166 HD
ENDBRANCH  39  40
BRANCH  39  45
HETATM   45  C16 UNL     1     -22.157 -68.662 -51.910  1.00  0.00     0.257 C 
HETATM   46  N8  UNL     1     -22.650 -68.570 -53.225  1.00  0.00    -0.060 NA
HETATM   47  O11 UNL     1     -22.575 -67.878 -51.035  1.00  0.00    -0.274 OA
ENDBRANCH  39  45
ENDBRANCH  36  39
ENDBRANCH  32  36
ENDBRANCH   1  32
TORSDOF 12
ENDMDL
MODEL 5
REMARK VINA RESULT: -7.722230730      2.045      5.946
REMARK  12 active torsions:
REMARK  status: ('A' for Active; 'I' for Inactive)
REMARK    1  A    between atoms: C1_4  and  C2_5 
REMARK    2  A    between atoms: C1_4  and  C13_36 
REMARK    3  A    between atoms: C4_13  and  O1_14 
REMARK    4  A    between atoms: O1_14  and  C5_15 
REMARK    5  A    between atoms: C5_15  and  C6_16 
REMARK    6  A    between atoms: C7_18  and  N4_19 
REMARK    7  A    between atoms: C11_29  and  O5_30 
REMARK    8  A    between atoms: C12_32  and  O6_33 
REMARK    9  A    between atoms: C13_36  and  O8_37 
REMARK   10  A    between atoms: C13_36  and  C14_39 
REMARK   11  A    between atoms: C14_39  and  N7_40 
REMARK   12  A    between atoms: C14_39  and  C16_45 
REMARK       I    between atoms: N7_40  and  C15_42 
ROOT
HETATM    1  C2  UNL     1     -17.564 -69.625 -53.026  1.00  0.00     0.375 C 
HETATM    2  N2  UNL     1     -17.187 -69.139 -54.336  1.00  0.00    -0.019 N 
ATOM      3  H21 UNL     1     -17.587 -69.715 -55.077  1.00  0.00     0.282 HD
ATOM      4  H22 UNL     1     -16.198 -69.302 -54.525  1.00  0.00     0.282 HD
HETATM    5  C3  UNL     1     -17.534 -67.751 -54.502  1.00  0.00     0.472 C 
HETATM    6  N3  UNL     1     -17.124 -67.043 -53.325  1.00  0.00    -0.001 N 
ATOM      7  H31 UNL     1     -17.915 -66.743 -52.754  1.00  0.00     0.285 HD
ATOM      8  H32 UNL     1     -16.746 -66.120 -53.536  1.00  0.00     0.285 HD
HETATM    9  C4  UNL     1     -16.189 -67.871 -52.587  1.00  0.00     0.473 C 
HETATM   10  O7  UNL     1     -16.938 -68.916 -52.035  1.00  0.00    -0.300 OA
ENDROOT
BRANCH   9  11
HETATM   11  O1  UNL     1     -15.500 -67.158 -51.643  1.00  0.00    -0.336 OA
BRANCH  11  12
HETATM   12  C5  UNL     1     -15.171 -65.918 -52.106  1.00  0.00     0.207 C 
BRANCH  12  13
HETATM   13  C6  UNL     1     -15.790 -64.757 -51.404  1.00  0.00     0.179 C 
HETATM   14  O2  UNL     1     -17.022 -65.096 -50.803  1.00  0.00    -0.353 OA
HETATM   15  C7  UNL     1     -17.525 -63.833 -50.533  1.00  0.00     0.265 C 
HETATM   16  C11 UNL     1     -17.518 -63.215 -51.928  1.00  0.00     0.198 C 
HETATM   17  C12 UNL     1     -16.164 -63.675 -52.428  1.00  0.00     0.182 C 
BRANCH  15  18
HETATM   18  N4  UNL     1     -18.842 -63.850 -49.957  1.00  0.00    -0.266 N 
HETATM   19  C8  UNL     1     -19.770 -64.776 -50.246  1.00  0.00     0.194 A 
HETATM   20  N5  UNL     1     -20.966 -64.686 -49.642  1.00  0.00    -0.304 N 
HETATM   21  C9  UNL     1     -21.273 -63.720 -48.768  1.00  0.00     0.329 A 
ATOM     22  H5  UNL     1     -21.674 -65.387 -49.859  1.00  0.00     0.171 HD
HETATM   23  O3  UNL     1     -22.382 -63.612 -48.188  1.00  0.00    -0.247 OA
HETATM   24  N6  UNL     1     -20.340 -62.788 -48.475  1.00  0.00    -0.260 N 
HETATM   25  C10 UNL     1     -19.143 -62.876 -49.078  1.00  0.00     0.333 A 
ATOM     26  H6  UNL     1     -20.538 -62.038 -47.814  1.00  0.00     0.175 HD
HETATM   27  O4  UNL     1     -18.296 -61.973 -48.771  1.00  0.00    -0.246 OA
ENDBRANCH  15  18
BRANCH  16  28
HETATM   28  O5  UNL     1     -17.658 -61.850 -51.904  1.00  0.00    -0.388 OA
ATOM     29  H5  UNL     1     -16.879 -61.407 -51.588  1.00  0.00     0.210 HD
ENDBRANCH  16  28
BRANCH  17  30
HETATM   30  O6  UNL     1     -16.223 -64.176 -53.709  1.00  0.00    -0.390 OA
ATOM     31  H6  UNL     1     -16.424 -63.500 -54.346  1.00  0.00     0.210 HD
ENDBRANCH  17  30
ENDBRANCH  12  13
ENDBRANCH  11  12
ENDBRANCH   9  11
BRANCH   1  32
HETATM   32  C1  UNL     1     -19.032 -69.722 -52.850  1.00  0.00     0.068 C 
HETATM   33  N1  UNL     1     -19.719 -70.390 -53.689  1.00  0.00    -0.400 N 
ATOM     34  H12 UNL     1     -19.250 -70.847 -54.470  1.00  0.00     0.155 HD
ATOM     35  H11 UNL     1     -20.729 -70.457 -53.567  1.00  0.00     0.155 HD
BRANCH  32  36
HETATM   36  C13 UNL     1     -19.712 -69.059 -51.718  1.00  0.00     0.199 C 
BRANCH  36  37
HETATM   37  O8  UNL     1     -19.858 -67.704 -52.102  1.00  0.00    -0.387 OA
ATOM     38  H8  UNL     1     -20.646 -67.672 -52.633  1.00  0.00     0.210 HD
ENDBRANCH  36  37
BRANCH  36  39
HETATM   39  C14 UNL     1     -21.035 -69.623 -51.342  1.00  0.00     0.211 C 
BRANCH  39  40
HETATM   40  N7  UNL     1     -20.919 -70.332 -50.089  1.00  0.00    -0.319 N 
HETATM   41  C15 UNL     1     -20.368 -71.620 -49.953  1.00  0.00     0.284 C 
HETATM   42  O9  UNL     1     -19.939 -72.227 -50.972  1.00  0.00    -0.630 OA
HETATM   43  O10 UNL     1     -20.281 -72.251 -48.707  1.00  0.00    -0.630 OA
ATOM     44  H7  UNL     1     -21.259 -69.868 -49.247  1.00  0.00     0.166 HD
ENDBRANCH  39  40
BRANCH  39  45
HETATM   45  C16 UNL     1     -21.969 -68.451 -51.175  1.00  0.00     0.257 C 
HETATM   46  N8  UNL     1     -21.963 -67.679 -49.999  1.00  0.00    -0.060 NA
HETATM   47  O11 UNL     1     -22.758 -68.168 -52.099  1.00  0.00    -0.274 OA
ENDBRANCH  39  45
ENDBRANCH  36  39
ENDBRANCH  32  36
ENDBRANCH   1  32
TORSDOF 12
ENDMDL
