MODEL 1
REMARK VINA RESULT: -6.918677347      0.000      0.000
REMARK  20 active torsions:
REMARK  status: ('A' for Active; 'I' for Inactive)
REMARK    1  A    between atoms: N1_1  and  C1_4 
REMARK    2  A    between atoms: N4_13  and  C5_14 
REMARK    3  A    between atoms: C5_14  and  C6_15 
REMARK    4  A    between atoms: C6_15  and  N5_16 
REMARK    5  A    between atoms: C6_15  and  C15_45 
REMARK    6  A    between atoms: N5_16  and  C7_18 
REMARK    7  A    between atoms: C7_18  and  C8_19 
REMARK    8  A    between atoms: C7_18  and  C12_36 
REMARK    9  A    between atoms: C8_19  and  O2_20 
REMARK   10  A    between atoms: C8_19  and  N6_22 
REMARK   11  A    between atoms: N6_22  and  C9_23 
REMARK   12  A    between atoms: N10_30  and  C10_31 
REMARK   13  A    between atoms: C11_33  and  O4_34 
REMARK   14  A    between atoms: C12_36  and  O5_37 
REMARK   15  A    between atoms: C12_36  and  C13_39 
REMARK   16  A    between atoms: C13_39  and  O6_40 
REMARK   17  A    between atoms: C13_39  and  C14_42 
REMARK   18  A    between atoms: C14_42  and  O7_43 
REMARK   19  A    between atoms: C15_45  and  O8_46 
REMARK   20  A    between atoms: C15_45  and  O9_48 
ROOT
HETATM    1  C7  UNL     1     -16.868 -66.182 -50.561  1.00  0.00     0.199 C 
ENDROOT
BRANCH   1   2
HETATM    2  N5  UNL     1     -16.870 -66.606 -49.282  1.00  0.00    -0.394 N 
ATOM      3  H5  UNL     1     -16.625 -67.591 -49.185  1.00  0.00     0.155 HD
BRANCH   2   4
HETATM    4  C6  UNL     1     -17.132 -65.990 -48.079  1.00  0.00     0.172 C 
BRANCH   4   5
HETATM    5  C5  UNL     1     -18.369 -66.736 -47.513  1.00  0.00     0.102 C 
BRANCH   5   6
HETATM    6  N4  UNL     1     -19.573 -66.488 -48.195  1.00  0.00    -0.304 N 
HETATM    7  C4  UNL     1     -20.120 -65.306 -48.502  1.00  0.00     0.190 A 
HETATM    8  N3  UNL     1     -21.285 -65.462 -49.133  1.00  0.00    -0.344 N 
HETATM    9  C3  UNL     1     -21.540 -66.760 -49.260  1.00  0.00     0.148 A 
ATOM     10  H3  UNL     1     -21.885 -64.706 -49.465  1.00  0.00     0.167 HD
HETATM   11  C2  UNL     1     -22.566 -67.509 -49.810  1.00  0.00     0.290 A 
HETATM   12  C16 UNL     1     -20.462 -67.413 -48.671  1.00  0.00     0.160 A 
HETATM   13  N2  UNL     1     -22.441 -68.839 -49.730  1.00  0.00    -0.154 N 
HETATM   14  O1  UNL     1     -23.529 -66.914 -50.338  1.00  0.00    -0.265 OA
HETATM   15  C1  UNL     1     -21.414 -69.476 -49.169  1.00  0.00     0.680 A 
ATOM     16  H2  UNL     1     -23.188 -69.409 -50.129  1.00  0.00     0.187 HD
HETATM   17  N11 UNL     1     -20.410 -68.757 -48.632  1.00  0.00    -0.174 N 
ATOM     18  H11 UNL     1     -19.616 -69.227 -48.198  1.00  0.00     0.186 HD
BRANCH  15  19
HETATM   19  N1  UNL     1     -21.325 -70.785 -49.110  1.00  0.00    -0.234 N 
ATOM     20  H12 UNL     1     -21.919 -71.329 -49.736  1.00  0.00     0.174 HD
ATOM     21  H11 UNL     1     -20.696 -71.274 -48.472  1.00  0.00     0.174 HD
ENDBRANCH  15  19
ENDBRANCH   5   6
ENDBRANCH   4   5
BRANCH   4  22
HETATM   22  C15 UNL     1     -16.029 -65.904 -47.056  1.00  0.00     0.281 C 
BRANCH  22  23
HETATM   23  O8  UNL     1     -15.494 -67.095 -46.665  1.00  0.00    -0.369 OA
ATOM     24  H8  UNL     1     -14.555 -67.095 -46.520  1.00  0.00     0.212 HD
ENDBRANCH  22  23
BRANCH  22  25
HETATM   25  O9  UNL     1     -15.125 -64.958 -47.503  1.00  0.00    -0.369 OA
ATOM     26  H9  UNL     1     -14.268 -65.208 -47.177  1.00  0.00     0.212 HD
ENDBRANCH  22  25
ENDBRANCH   4  22
ENDBRANCH   2   4
ENDBRANCH   1   2
BRANCH   1  27
HETATM   27  C8  UNL     1     -17.957 -66.787 -51.414  1.00  0.00     0.219 C 
BRANCH  27  28
HETATM   28  O2  UNL     1     -19.018 -65.990 -51.553  1.00  0.00    -0.337 OA
ATOM     29  H2  UNL     1     -19.548 -65.935 -50.767  1.00  0.00     0.220 HD
ENDBRANCH  27  28
BRANCH  27  30
HETATM   30  N6  UNL     1     -18.036 -67.939 -52.029  1.00  0.00    -0.345 NA
BRANCH  30  31
HETATM   31  C9  UNL     1     -18.104 -68.988 -52.585  1.00  0.00     0.298 A 
HETATM   32  N7  UNL     1     -17.200 -70.031 -52.662  1.00  0.00    -0.242 N 
HETATM   33  N8  UNL     1     -17.691 -71.005 -53.363  1.00  0.00    -0.224 N 
ATOM     34  H7  UNL     1     -16.277 -70.034 -52.227  1.00  0.00     0.192 HD
HETATM   35  N9  UNL     1     -18.887 -70.674 -53.768  1.00  0.00    -0.220 N 
ATOM     36  H8  UNL     1     -17.220 -71.886 -53.566  1.00  0.00     0.210 HD
HETATM   37  N10 UNL     1     -19.162 -69.468 -53.318  1.00  0.00    -0.198 N 
ATOM     38  H9  UNL     1     -19.504 -71.252 -54.338  1.00  0.00     0.210 HD
BRANCH  37  39
HETATM   39  C10 UNL     1     -20.415 -68.809 -53.593  1.00  0.00     0.308 A 
HETATM   40  O3  UNL     1     -21.252 -68.466 -52.524  1.00  0.00    -0.326 OA
HETATM   41  C11 UNL     1     -21.680 -69.484 -53.375  1.00  0.00     0.310 A 
BRANCH  41  42
HETATM   42  O4  UNL     1     -22.716 -69.187 -54.228  1.00  0.00    -0.367 OA
ATOM     43  H4  UNL     1     -22.972 -68.275 -54.309  1.00  0.00     0.212 HD
ENDBRANCH  41  42
ENDBRANCH  37  39
ENDBRANCH  30  31
ENDBRANCH  27  30
ENDBRANCH   1  27
BRANCH   1  44
HETATM   44  C12 UNL     1     -15.583 -66.634 -51.257  1.00  0.00     0.180 C 
BRANCH  44  45
HETATM   45  O5  UNL     1     -15.309 -67.974 -51.074  1.00  0.00    -0.390 OA
ATOM     46  H5  UNL     1     -14.553 -68.273 -51.568  1.00  0.00     0.210 HD
ENDBRANCH  44  45
BRANCH  44  47
HETATM   47  C13 UNL     1     -14.393 -65.828 -50.812  1.00  0.00     0.172 C 
BRANCH  47  48
HETATM   48  O6  UNL     1     -14.762 -64.620 -50.229  1.00  0.00    -0.391 OA
ATOM     49  H6  UNL     1     -14.860 -63.925 -50.870  1.00  0.00     0.210 HD
ENDBRANCH  47  48
BRANCH  47  50
HETATM   50  C14 UNL     1     -13.341 -66.583 -50.076  1.00  0.00     0.198 C 
BRANCH  50  51
HETATM   51  O7  UNL     1     -13.774 -67.270 -48.968  1.00  0.00    -0.398 OA
ATOM     52  H7  UNL     1     -13.310 -68.077 -48.781  1.00  0.00     0.209 HD
ENDBRANCH  50  51
ENDBRANCH  47  50
ENDBRANCH  44  47
ENDBRANCH   1  44
TORSDOF 20
ENDMDL
MODEL 2
REMARK VINA RESULT: -6.872808686      3.136      6.622
REMARK  20 active torsions:
REMARK  status: ('A' for Active; 'I' for Inactive)
REMARK    1  A    between atoms: N1_1  and  C1_4 
REMARK    2  A    between atoms: N4_13  and  C5_14 
REMARK    3  A    between atoms: C5_14  and  C6_15 
REMARK    4  A    between atoms: C6_15  and  N5_16 
REMARK    5  A    between atoms: C6_15  and  C15_45 
REMARK    6  A    between atoms: N5_16  and  C7_18 
REMARK    7  A    between atoms: C7_18  and  C8_19 
REMARK    8  A    between atoms: C7_18  and  C12_36 
REMARK    9  A    between atoms: C8_19  and  O2_20 
REMARK   10  A    between atoms: C8_19  and  N6_22 
REMARK   11  A    between atoms: N6_22  and  C9_23 
REMARK   12  A    between atoms: N10_30  and  C10_31 
REMARK   13  A    between atoms: C11_33  and  O4_34 
REMARK   14  A    between atoms: C12_36  and  O5_37 
REMARK   15  A    between atoms: C12_36  and  C13_39 
REMARK   16  A    between atoms: C13_39  and  O6_40 
REMARK   17  A    between atoms: C13_39  and  C14_42 
REMARK   18  A    between atoms: C14_42  and  O7_43 
REMARK   19  A    between atoms: C15_45  and  O8_46 
REMARK   20  A    between atoms: C15_45  and  O9_48 
ROOT
HETATM    1  C7  UNL     1     -21.123 -69.963 -50.323  1.00  0.00     0.199 C 
ENDROOT
BRANCH   1   2
HETATM    2  N5  UNL     1     -20.593 -68.725 -50.309  1.00  0.00    -0.394 N 
ATOM      3  H5  UNL     1     -19.620 -68.700 -50.615  1.00  0.00     0.155 HD
BRANCH   2   4
HETATM    4  C6  UNL     1     -21.088 -67.485 -49.970  1.00  0.00     0.172 C 
BRANCH   4   5
HETATM    5  C5  UNL     1     -20.334 -66.491 -50.893  1.00  0.00     0.102 C 
BRANCH   5   6
HETATM    6  N4  UNL     1     -18.939 -66.465 -50.720  1.00  0.00    -0.304 N 
HETATM    7  C4  UNL     1     -18.243 -65.947 -49.700  1.00  0.00     0.190 A 
HETATM    8  N3  UNL     1     -16.929 -66.085 -49.894  1.00  0.00    -0.344 N 
HETATM    9  C3  UNL     1     -16.723 -66.701 -51.053  1.00  0.00     0.148 A 
ATOM     10  H3  UNL     1     -16.201 -65.769 -49.253  1.00  0.00     0.167 HD
HETATM   11  C2  UNL     1     -15.606 -67.104 -51.764  1.00  0.00     0.290 A 
HETATM   12  C16 UNL     1     -17.988 -66.944 -51.579  1.00  0.00     0.160 A 
HETATM   13  N2  UNL     1     -15.833 -67.713 -52.934  1.00  0.00    -0.154 N 
HETATM   14  O1  UNL     1     -14.475 -66.883 -51.283  1.00  0.00    -0.265 OA
HETATM   15  C1  UNL     1     -17.039 -67.952 -53.448  1.00  0.00     0.680 A 
ATOM     16  H2  UNL     1     -15.022 -68.018 -53.473  1.00  0.00     0.187 HD
HETATM   17  N11 UNL     1     -18.132 -67.564 -52.764  1.00  0.00    -0.174 N 
ATOM     18  H11 UNL     1     -19.063 -67.739 -53.142  1.00  0.00     0.186 HD
BRANCH  15  19
HETATM   19  N1  UNL     1     -17.223 -68.554 -54.601  1.00  0.00    -0.234 N 
ATOM     20  H12 UNL     1     -17.042 -69.557 -54.645  1.00  0.00     0.174 HD
ATOM     21  H11 UNL     1     -17.535 -68.067 -55.442  1.00  0.00     0.174 HD
ENDBRANCH  15  19
ENDBRANCH   5   6
ENDBRANCH   4   5
BRANCH   4  22
HETATM   22  C15 UNL     1     -22.577 -67.262 -50.025  1.00  0.00     0.281 C 
BRANCH  22  23
HETATM   23  O8  UNL     1     -23.207 -67.762 -51.125  1.00  0.00    -0.369 OA
ATOM     24  H8  UNL     1     -24.135 -67.568 -51.191  1.00  0.00     0.212 HD
ENDBRANCH  22  23
BRANCH  22  25
HETATM   25  O9  UNL     1     -23.098 -67.654 -48.805  1.00  0.00    -0.369 OA
ATOM     26  H9  UNL     1     -23.887 -68.153 -48.981  1.00  0.00     0.212 HD
ENDBRANCH  22  25
ENDBRANCH   4  22
ENDBRANCH   2   4
ENDBRANCH   1   2
BRANCH   1  27
HETATM   27  C8  UNL     1     -21.061 -70.676 -48.993  1.00  0.00     0.219 C 
BRANCH  27  28
HETATM   28  O2  UNL     1     -21.269 -69.864 -47.954  1.00  0.00    -0.337 OA
ATOM     29  H2  UNL     1     -21.430 -70.331 -47.143  1.00  0.00     0.220 HD
ENDBRANCH  27  28
BRANCH  27  30
HETATM   30  N6  UNL     1     -20.843 -71.930 -48.692  1.00  0.00    -0.345 NA
BRANCH  30  31
HETATM   31  C9  UNL     1     -20.646 -73.069 -48.414  1.00  0.00     0.298 A 
HETATM   32  N7  UNL     1     -19.607 -73.665 -47.725  1.00  0.00    -0.242 N 
HETATM   33  N8  UNL     1     -19.800 -74.943 -47.630  1.00  0.00    -0.224 N 
ATOM     34  H7  UNL     1     -18.801 -73.168 -47.345  1.00  0.00     0.192 HD
HETATM   35  N9  UNL     1     -20.923 -75.247 -48.223  1.00  0.00    -0.220 N 
ATOM     36  H8  UNL     1     -19.176 -75.605 -47.168  1.00  0.00     0.210 HD
HETATM   37  N10 UNL     1     -21.454 -74.143 -48.704  1.00  0.00    -0.198 N 
ATOM     38  H9  UNL     1     -21.322 -76.182 -48.300  1.00  0.00     0.210 HD
BRANCH  37  39
HETATM   39  C10 UNL     1     -22.705 -74.136 -49.420  1.00  0.00     0.308 A 
HETATM   40  O3  UNL     1     -23.827 -74.735 -48.834  1.00  0.00    -0.326 OA
HETATM   41  C11 UNL     1     -23.271 -75.362 -49.949  1.00  0.00     0.310 A 
BRANCH  41  42
HETATM   42  O4  UNL     1     -23.979 -75.282 -51.125  1.00  0.00    -0.367 OA
ATOM     43  H4  UNL     1     -24.548 -76.010 -51.347  1.00  0.00     0.212 HD
ENDBRANCH  41  42
ENDBRANCH  37  39
ENDBRANCH  30  31
ENDBRANCH  27  30
ENDBRANCH   1  27
BRANCH   1  44
HETATM   44  C12 UNL     1     -20.303 -70.869 -51.245  1.00  0.00     0.180 C 
BRANCH  44  45
HETATM   45  O5  UNL     1     -19.082 -71.227 -50.711  1.00  0.00    -0.390 OA
ATOM     46  H5  UNL     1     -18.377 -71.215 -51.348  1.00  0.00     0.210 HD
ENDBRANCH  44  45
BRANCH  44  47
HETATM   47  C13 UNL     1     -20.079 -70.238 -52.593  1.00  0.00     0.172 C 
BRANCH  47  48
HETATM   48  O6  UNL     1     -19.030 -70.833 -53.286  1.00  0.00    -0.391 OA
ATOM     49  H6  UNL     1     -18.183 -70.498 -53.017  1.00  0.00     0.210 HD
ENDBRANCH  47  48
BRANCH  47  50
HETATM   50  C14 UNL     1     -21.305 -69.992 -53.402  1.00  0.00     0.198 C 
BRANCH  50  51
HETATM   51  O7  UNL     1     -21.730 -68.686 -53.446  1.00  0.00    -0.398 OA
ATOM     52  H7  UNL     1     -21.324 -68.146 -54.113  1.00  0.00     0.209 HD
ENDBRANCH  50  51
ENDBRANCH  47  50
ENDBRANCH  44  47
ENDBRANCH   1  44
TORSDOF 20
ENDMDL
MODEL 3
REMARK VINA RESULT: -6.808509304      3.308      6.554
REMARK  20 active torsions:
REMARK  status: ('A' for Active; 'I' for Inactive)
REMARK    1  A    between atoms: N1_1  and  C1_4 
REMARK    2  A    between atoms: N4_13  and  C5_14 
REMARK    3  A    between atoms: C5_14  and  C6_15 
REMARK    4  A    between atoms: C6_15  and  N5_16 
REMARK    5  A    between atoms: C6_15  and  C15_45 
REMARK    6  A    between atoms: N5_16  and  C7_18 
REMARK    7  A    between atoms: C7_18  and  C8_19 
REMARK    8  A    between atoms: C7_18  and  C12_36 
REMARK    9  A    between atoms: C8_19  and  O2_20 
REMARK   10  A    between atoms: C8_19  and  N6_22 
REMARK   11  A    between atoms: N6_22  and  C9_23 
REMARK   12  A    between atoms: N10_30  and  C10_31 
REMARK   13  A    between atoms: C11_33  and  O4_34 
REMARK   14  A    between atoms: C12_36  and  O5_37 
REMARK   15  A    between atoms: C12_36  and  C13_39 
REMARK   16  A    between atoms: C13_39  and  O6_40 
REMARK   17  A    between atoms: C13_39  and  C14_42 
REMARK   18  A    between atoms: C14_42  and  O7_43 
REMARK   19  A    between atoms: C15_45  and  O8_46 
REMARK   20  A    between atoms: C15_45  and  O9_48 
ROOT
HETATM    1  C7  UNL     1     -20.158 -69.922 -51.088  1.00  0.00     0.199 C 
ENDROOT
BRANCH   1   2
HETATM    2  N5  UNL     1     -19.985 -69.438 -52.333  1.00  0.00    -0.394 N 
ATOM      3  H5  UNL     1     -20.812 -69.535 -52.921  1.00  0.00     0.155 HD
BRANCH   2   4
HETATM    4  C6  UNL     1     -18.925 -68.840 -52.979  1.00  0.00     0.172 C 
BRANCH   4   5
HETATM    5  C5  UNL     1     -18.111 -68.153 -51.851  1.00  0.00     0.102 C 
BRANCH   5   6
HETATM    6  N4  UNL     1     -17.791 -66.805 -52.088  1.00  0.00    -0.304 N 
HETATM    7  C4  UNL     1     -16.824 -66.311 -52.870  1.00  0.00     0.190 A 
HETATM    8  N3  UNL     1     -16.804 -64.977 -52.829  1.00  0.00    -0.344 N 
HETATM    9  C3  UNL     1     -17.764 -64.554 -52.012  1.00  0.00     0.148 A 
ATOM     10  H3  UNL     1     -16.156 -64.378 -53.342  1.00  0.00     0.167 HD
HETATM   11  C2  UNL     1     -18.212 -63.316 -51.586  1.00  0.00     0.290 A 
HETATM   12  C16 UNL     1     -18.391 -65.703 -51.543  1.00  0.00     0.160 A 
HETATM   13  N2  UNL     1     -19.241 -63.319 -50.730  1.00  0.00    -0.154 N 
HETATM   14  O1  UNL     1     -17.644 -62.289 -52.014  1.00  0.00    -0.265 OA
HETATM   15  C1  UNL     1     -19.850 -64.412 -50.273  1.00  0.00     0.680 A 
ATOM     16  H2  UNL     1     -19.585 -62.415 -50.402  1.00  0.00     0.187 HD
HETATM   17  N11 UNL     1     -19.422 -65.621 -50.683  1.00  0.00    -0.174 N 
ATOM     18  H11 UNL     1     -19.876 -66.469 -50.343  1.00  0.00     0.186 HD
BRANCH  15  19
HETATM   19  N1  UNL     1     -20.859 -64.375 -49.433  1.00  0.00    -0.234 N 
ATOM     20  H12 UNL     1     -21.772 -64.676 -49.776  1.00  0.00     0.174 HD
ATOM     21  H11 UNL     1     -20.770 -64.063 -48.466  1.00  0.00     0.174 HD
ENDBRANCH  15  19
ENDBRANCH   5   6
ENDBRANCH   4   5
BRANCH   4  22
HETATM   22  C15 UNL     1     -18.042 -69.688 -53.856  1.00  0.00     0.281 C 
BRANCH  22  23
HETATM   23  O8  UNL     1     -17.268 -69.007 -54.748  1.00  0.00    -0.369 OA
ATOM     24  H8  UNL     1     -17.614 -68.951 -55.632  1.00  0.00     0.212 HD
ENDBRANCH  22  23
BRANCH  22  25
HETATM   25  O9  UNL     1     -17.369 -70.572 -53.032  1.00  0.00    -0.369 OA
ATOM     26  H9  UNL     1     -17.972 -71.274 -52.816  1.00  0.00     0.212 HD
ENDBRANCH  22  25
ENDBRANCH   4  22
ENDBRANCH   2   4
ENDBRANCH   1   2
BRANCH   1  27
HETATM   27  C8  UNL     1     -20.194 -71.430 -51.011  1.00  0.00     0.219 C 
BRANCH  27  28
HETATM   28  O2  UNL     1     -20.138 -72.017 -52.208  1.00  0.00    -0.337 OA
ATOM     29  H2  UNL     1     -19.566 -72.775 -52.225  1.00  0.00     0.220 HD
ENDBRANCH  27  28
BRANCH  27  30
HETATM   30  N6  UNL     1     -20.270 -72.243 -49.989  1.00  0.00    -0.345 NA
BRANCH  30  31
HETATM   31  C9  UNL     1     -20.339 -72.980 -49.058  1.00  0.00     0.298 A 
HETATM   32  N7  UNL     1     -19.450 -73.220 -48.028  1.00  0.00    -0.242 N 
HETATM   33  N8  UNL     1     -19.937 -74.095 -47.204  1.00  0.00    -0.224 N 
ATOM     34  H7  UNL     1     -18.539 -72.772 -47.929  1.00  0.00     0.192 HD
HETATM   35  N9  UNL     1     -21.117 -74.462 -47.625  1.00  0.00    -0.220 N 
ATOM     36  H8  UNL     1     -19.474 -74.441 -46.364  1.00  0.00     0.210 HD
HETATM   37  N10 UNL     1     -21.385 -73.811 -48.737  1.00  0.00    -0.198 N 
ATOM     38  H9  UNL     1     -21.727 -75.140 -47.170  1.00  0.00     0.210 HD
BRANCH  37  39
HETATM   39  C10 UNL     1     -22.620 -73.992 -49.459  1.00  0.00     0.308 A 
HETATM   40  O3  UNL     1     -23.692 -74.629 -48.823  1.00  0.00    -0.326 OA
HETATM   41  C11 UNL     1     -23.064 -75.313 -49.863  1.00  0.00     0.310 A 
BRANCH  41  42
HETATM   42  O4  UNL     1     -23.757 -75.417 -51.046  1.00  0.00    -0.367 OA
ATOM     43  H4  UNL     1     -23.258 -75.607 -51.833  1.00  0.00     0.212 HD
ENDBRANCH  41  42
ENDBRANCH  37  39
ENDBRANCH  30  31
ENDBRANCH  27  30
ENDBRANCH   1  27
BRANCH   1  44
HETATM   44  C12 UNL     1     -21.533 -69.510 -50.557  1.00  0.00     0.180 C 
BRANCH  44  45
HETATM   45  O5  UNL     1     -22.311 -68.870 -51.500  1.00  0.00    -0.390 OA
ATOM     46  H5  UNL     1     -23.009 -69.416 -51.844  1.00  0.00     0.210 HD
ENDBRANCH  44  45
BRANCH  44  47
HETATM   47  C13 UNL     1     -21.422 -68.632 -49.340  1.00  0.00     0.172 C 
BRANCH  47  48
HETATM   48  O6  UNL     1     -20.156 -68.070 -49.209  1.00  0.00    -0.391 OA
ATOM     49  H6  UNL     1     -19.624 -68.196 -49.986  1.00  0.00     0.210 HD
ENDBRANCH  47  48
BRANCH  47  50
HETATM   50  C14 UNL     1     -22.553 -67.689 -49.119  1.00  0.00     0.198 C 
BRANCH  50  51
HETATM   51  O7  UNL     1     -22.545 -66.564 -49.907  1.00  0.00    -0.398 OA
ATOM     52  H7  UNL     1     -21.724 -66.085 -49.927  1.00  0.00     0.209 HD
ENDBRANCH  50  51
ENDBRANCH  47  50
ENDBRANCH  44  47
ENDBRANCH   1  44
TORSDOF 20
ENDMDL
MODEL 4
REMARK VINA RESULT: -6.776539926      2.617      5.154
REMARK  20 active torsions:
REMARK  status: ('A' for Active; 'I' for Inactive)
REMARK    1  A    between atoms: N1_1  and  C1_4 
REMARK    2  A    between atoms: N4_13  and  C5_14 
REMARK    3  A    between atoms: C5_14  and  C6_15 
REMARK    4  A    between atoms: C6_15  and  N5_16 
REMARK    5  A    between atoms: C6_15  and  C15_45 
REMARK    6  A    between atoms: N5_16  and  C7_18 
REMARK    7  A    between atoms: C7_18  and  C8_19 
REMARK    8  A    between atoms: C7_18  and  C12_36 
REMARK    9  A    between atoms: C8_19  and  O2_20 
REMARK   10  A    between atoms: C8_19  and  N6_22 
REMARK   11  A    between atoms: N6_22  and  C9_23 
REMARK   12  A    between atoms: N10_30  and  C10_31 
REMARK   13  A    between atoms: C11_33  and  O4_34 
REMARK   14  A    between atoms: C12_36  and  O5_37 
REMARK   15  A    between atoms: C12_36  and  C13_39 
REMARK   16  A    between atoms: C13_39  and  O6_40 
REMARK   17  A    between atoms: C13_39  and  C14_42 
REMARK   18  A    between atoms: C14_42  and  O7_43 
REMARK   19  A    between atoms: C15_45  and  O8_46 
REMARK   20  A    between atoms: C15_45  and  O9_48 
ROOT
HETATM    1  C7  UNL     1     -20.174 -65.938 -49.637  1.00  0.00     0.199 C 
ENDROOT
BRANCH   1   2
HETATM    2  N5  UNL     1     -20.407 -67.258 -49.509  1.00  0.00    -0.394 N 
ATOM      3  H5  UNL     1     -19.864 -67.692 -48.763  1.00  0.00     0.155 HD
BRANCH   2   4
HETATM    4  C6  UNL     1     -21.224 -68.146 -50.173  1.00  0.00     0.172 C 
BRANCH   4   5
HETATM    5  C5  UNL     1     -21.426 -69.319 -49.178  1.00  0.00     0.102 C 
BRANCH   5   6
HETATM    6  N4  UNL     1     -20.972 -70.569 -49.637  1.00  0.00    -0.304 N 
HETATM    7  C4  UNL     1     -20.513 -70.885 -50.853  1.00  0.00     0.190 A 
HETATM    8  N3  UNL     1     -20.195 -72.179 -50.927  1.00  0.00    -0.344 N 
HETATM    9  C3  UNL     1     -20.438 -72.754 -49.753  1.00  0.00     0.148 A 
ATOM     10  H3  UNL     1     -19.825 -72.652 -51.753  1.00  0.00     0.167 HD
HETATM   11  C2  UNL     1     -20.309 -74.035 -49.244  1.00  0.00     0.290 A 
HETATM   12  C16 UNL     1     -20.927 -71.742 -48.934  1.00  0.00     0.160 A 
HETATM   13  N2  UNL     1     -20.676 -74.206 -47.968  1.00  0.00    -0.154 N 
HETATM   14  O1  UNL     1     -19.868 -74.936 -49.986  1.00  0.00    -0.265 OA
HETATM   15  C1  UNL     1     -21.146 -73.246 -47.174  1.00  0.00     0.680 A 
ATOM     16  H2  UNL     1     -20.590 -75.144 -47.574  1.00  0.00     0.187 HD
HETATM   17  N11 UNL     1     -21.274 -71.997 -47.660  1.00  0.00    -0.174 N 
ATOM     18  H11 UNL     1     -21.631 -71.248 -47.065  1.00  0.00     0.186 HD
BRANCH  15  19
HETATM   19  N1  UNL     1     -21.495 -73.452 -45.924  1.00  0.00    -0.234 N 
ATOM     20  H12 UNL     1     -22.343 -73.995 -45.754  1.00  0.00     0.174 HD
ATOM     21  H11 UNL     1     -20.963 -73.098 -45.129  1.00  0.00     0.174 HD
ENDBRANCH  15  19
ENDBRANCH   5   6
ENDBRANCH   4   5
BRANCH   4  22
HETATM   22  C15 UNL     1     -22.541 -67.651 -50.712  1.00  0.00     0.281 C 
BRANCH  22  23
HETATM   23  O8  UNL     1     -23.079 -68.388 -51.725  1.00  0.00    -0.369 OA
ATOM     24  H8  UNL     1     -22.966 -68.031 -52.598  1.00  0.00     0.212 HD
ENDBRANCH  22  23
BRANCH  22  25
HETATM   25  O9  UNL     1     -23.371 -67.424 -49.629  1.00  0.00    -0.369 OA
ATOM     26  H9  UNL     1     -23.306 -66.502 -49.409  1.00  0.00     0.212 HD
ENDBRANCH  22  25
ENDBRANCH   4  22
ENDBRANCH   2   4
ENDBRANCH   1   2
BRANCH   1  27
HETATM   27  C8  UNL     1     -19.143 -65.591 -50.685  1.00  0.00     0.219 C 
BRANCH  27  28
HETATM   28  O2  UNL     1     -19.284 -64.357 -51.170  1.00  0.00    -0.337 OA
ATOM     29  H2  UNL     1     -19.287 -64.328 -52.120  1.00  0.00     0.220 HD
ENDBRANCH  27  28
BRANCH  27  30
HETATM   30  N6  UNL     1     -18.154 -66.283 -51.188  1.00  0.00    -0.345 NA
BRANCH  30  31
HETATM   31  C9  UNL     1     -17.252 -66.913 -51.642  1.00  0.00     0.298 A 
HETATM   32  N7  UNL     1     -15.891 -66.670 -51.644  1.00  0.00    -0.242 N 
HETATM   33  N8  UNL     1     -15.261 -67.635 -52.237  1.00  0.00    -0.224 N 
ATOM     34  H7  UNL     1     -15.446 -65.848 -51.236  1.00  0.00     0.192 HD
HETATM   35  N9  UNL     1     -16.128 -68.524 -52.640  1.00  0.00    -0.220 N 
ATOM     36  H8  UNL     1     -14.251 -67.691 -52.369  1.00  0.00     0.210 HD
HETATM   37  N10 UNL     1     -17.332 -68.117 -52.298  1.00  0.00    -0.198 N 
ATOM     38  H9  UNL     1     -15.909 -69.387 -53.136  1.00  0.00     0.210 HD
BRANCH  37  39
HETATM   39  C10 UNL     1     -18.519 -68.879 -52.599  1.00  0.00     0.308 A 
HETATM   40  O3  UNL     1     -18.528 -69.703 -53.731  1.00  0.00    -0.326 OA
HETATM   41  C11 UNL     1     -19.335 -68.566 -53.757  1.00  0.00     0.310 A 
BRANCH  41  42
HETATM   42  O4  UNL     1     -20.692 -68.765 -53.652  1.00  0.00    -0.367 OA
ATOM     43  H4  UNL     1     -21.239 -68.449 -54.362  1.00  0.00     0.212 HD
ENDBRANCH  41  42
ENDBRANCH  37  39
ENDBRANCH  30  31
ENDBRANCH  27  30
ENDBRANCH   1  27
BRANCH   1  44
HETATM   44  C12 UNL     1     -19.561 -65.390 -48.346  1.00  0.00     0.180 C 
BRANCH  44  45
HETATM   45  O5  UNL     1     -18.567 -64.459 -48.568  1.00  0.00    -0.390 OA
ATOM     46  H5  UNL     1     -17.976 -64.359 -47.831  1.00  0.00     0.210 HD
ENDBRANCH  44  45
BRANCH  44  47
HETATM   47  C13 UNL     1     -19.012 -66.490 -47.478  1.00  0.00     0.172 C 
BRANCH  47  48
HETATM   48  O6  UNL     1     -17.818 -67.006 -47.972  1.00  0.00    -0.391 OA
ATOM     49  H6  UNL     1     -17.092 -66.404 -47.860  1.00  0.00     0.210 HD
ENDBRANCH  47  48
BRANCH  47  50
HETATM   50  C14 UNL     1     -19.021 -66.222 -46.014  1.00  0.00     0.198 C 
BRANCH  50  51
HETATM   51  O7  UNL     1     -19.023 -67.337 -45.210  1.00  0.00    -0.398 OA
ATOM     52  H7  UNL     1     -18.609 -67.230 -44.362  1.00  0.00     0.209 HD
ENDBRANCH  50  51
ENDBRANCH  47  50
ENDBRANCH  44  47
ENDBRANCH   1  44
TORSDOF 20
ENDMDL
MODEL 5
REMARK VINA RESULT: -6.743052405      3.562      6.514
REMARK  20 active torsions:
REMARK  status: ('A' for Active; 'I' for Inactive)
REMARK    1  A    between atoms: N1_1  and  C1_4 
REMARK    2  A    between atoms: N4_13  and  C5_14 
REMARK    3  A    between atoms: C5_14  and  C6_15 
REMARK    4  A    between atoms: C6_15  and  N5_16 
REMARK    5  A    between atoms: C6_15  and  C15_45 
REMARK    6  A    between atoms: N5_16  and  C7_18 
REMARK    7  A    between atoms: C7_18  and  C8_19 
REMARK    8  A    between atoms: C7_18  and  C12_36 
REMARK    9  A    between atoms: C8_19  and  O2_20 
REMARK   10  A    between atoms: C8_19  and  N6_22 
REMARK   11  A    between atoms: N6_22  and  C9_23 
REMARK   12  A    between atoms: N10_30  and  C10_31 
REMARK   13  A    between atoms: C11_33  and  O4_34 
REMARK   14  A    between atoms: C12_36  and  O5_37 
REMARK   15  A    between atoms: C12_36  and  C13_39 
REMARK   16  A    between atoms: C13_39  and  O6_40 
REMARK   17  A    between atoms: C13_39  and  C14_42 
REMARK   18  A    between atoms: C14_42  and  O7_43 
REMARK   19  A    between atoms: C15_45  and  O8_46 
REMARK   20  A    between atoms: C15_45  and  O9_48 
ROOT
HETATM    1  C7  UNL     1     -21.196 -70.176 -50.548  1.00  0.00     0.199 C 
ENDROOT
BRANCH   1   2
HETATM    2  N5  UNL     1     -20.958 -68.852 -50.622  1.00  0.00    -0.394 N 
ATOM      3  H5  UNL     1     -20.076 -68.627 -51.081  1.00  0.00     0.155 HD
BRANCH   2   4
HETATM    4  C6  UNL     1     -21.655 -67.739 -50.208  1.00  0.00     0.172 C 
BRANCH   4   5
HETATM    5  C5  UNL     1     -20.646 -66.568 -50.339  1.00  0.00     0.102 C 
BRANCH   5   6
HETATM    6  N4  UNL     1     -20.301 -65.946 -49.126  1.00  0.00    -0.304 N 
HETATM    7  C4  UNL     1     -19.464 -66.389 -48.180  1.00  0.00     0.190 A 
HETATM    8  N3  UNL     1     -19.404 -65.538 -47.153  1.00  0.00    -0.344 N 
HETATM    9  C3  UNL     1     -20.205 -64.506 -47.396  1.00  0.00     0.148 A 
ATOM     10  H3  UNL     1     -18.835 -65.661 -46.315  1.00  0.00     0.167 HD
HETATM   11  C2  UNL     1     -20.546 -63.349 -46.718  1.00  0.00     0.290 A 
HETATM   12  C16 UNL     1     -20.773 -64.757 -48.641  1.00  0.00     0.160 A 
HETATM   13  N2  UNL     1     -21.420 -62.538 -47.327  1.00  0.00    -0.154 N 
HETATM   14  O1  UNL     1     -20.030 -63.131 -45.602  1.00  0.00    -0.265 OA
HETATM   15  C1  UNL     1     -21.971 -62.767 -48.518  1.00  0.00     0.680 A 
ATOM     16  H2  UNL     1     -21.685 -61.680 -46.842  1.00  0.00     0.187 HD
HETATM   17  N11 UNL     1     -21.645 -63.890 -49.186  1.00  0.00    -0.174 N 
ATOM     18  H11 UNL     1     -22.056 -64.082 -50.100  1.00  0.00     0.186 HD
BRANCH  15  19
HETATM   19  N1  UNL     1     -22.825 -61.947 -49.085  1.00  0.00    -0.234 N 
ATOM     20  H12 UNL     1     -22.894 -61.965 -50.103  1.00  0.00     0.174 HD
ATOM     21  H11 UNL     1     -23.414 -61.302 -48.559  1.00  0.00     0.174 HD
ENDBRANCH  15  19
ENDBRANCH   5   6
ENDBRANCH   4   5
BRANCH   4  22
HETATM   22  C15 UNL     1     -22.963 -67.414 -50.882  1.00  0.00     0.281 C 
BRANCH  22  23
HETATM   23  O8  UNL     1     -23.236 -68.126 -52.013  1.00  0.00    -0.369 OA
ATOM     24  H8  UNL     1     -24.090 -67.971 -52.399  1.00  0.00     0.212 HD
ENDBRANCH  22  23
BRANCH  22  25
HETATM   25  O9  UNL     1     -23.945 -67.433 -49.910  1.00  0.00    -0.369 OA
ATOM     26  H9  UNL     1     -24.764 -67.660 -50.336  1.00  0.00     0.212 HD
ENDBRANCH  22  25
ENDBRANCH   4  22
ENDBRANCH   2   4
ENDBRANCH   1   2
BRANCH   1  27
HETATM   27  C8  UNL     1     -20.937 -70.776 -49.186  1.00  0.00     0.219 C 
BRANCH  27  28
HETATM   28  O2  UNL     1     -20.885 -69.863 -48.215  1.00  0.00    -0.337 OA
ATOM     29  H2  UNL     1     -21.485 -70.044 -47.501  1.00  0.00     0.220 HD
ENDBRANCH  27  28
BRANCH  27  30
HETATM   30  N6  UNL     1     -20.759 -72.014 -48.805  1.00  0.00    -0.345 NA
BRANCH  30  31
HETATM   31  C9  UNL     1     -20.600 -73.141 -48.460  1.00  0.00     0.298 A 
HETATM   32  N7  UNL     1     -19.582 -73.727 -47.731  1.00  0.00    -0.242 N 
HETATM   33  N8  UNL     1     -19.818 -74.991 -47.561  1.00  0.00    -0.224 N 
ATOM     34  H7  UNL     1     -18.762 -73.235 -47.377  1.00  0.00     0.192 HD
HETATM   35  N9  UNL     1     -20.948 -75.293 -48.139  1.00  0.00    -0.220 N 
ATOM     36  H8  UNL     1     -19.217 -75.644 -47.057  1.00  0.00     0.210 HD
HETATM   37  N10 UNL     1     -21.441 -74.202 -48.688  1.00  0.00    -0.198 N 
ATOM     38  H9  UNL     1     -21.377 -76.217 -48.162  1.00  0.00     0.210 HD
BRANCH  37  39
HETATM   39  C10 UNL     1     -22.689 -74.198 -49.410  1.00  0.00     0.308 A 
HETATM   40  O3  UNL     1     -23.807 -74.817 -48.837  1.00  0.00    -0.326 OA
HETATM   41  C11 UNL     1     -23.241 -75.423 -49.958  1.00  0.00     0.310 A 
BRANCH  41  42
HETATM   42  O4  UNL     1     -23.945 -75.332 -51.136  1.00  0.00    -0.367 OA
ATOM     43  H4  UNL     1     -24.605 -75.994 -51.306  1.00  0.00     0.212 HD
ENDBRANCH  41  42
ENDBRANCH  37  39
ENDBRANCH  30  31
ENDBRANCH  27  30
ENDBRANCH   1  27
BRANCH   1  44
HETATM   44  C12 UNL     1     -20.222 -70.931 -51.456  1.00  0.00     0.180 C 
BRANCH  44  45
HETATM   45  O5  UNL     1     -18.898 -70.673 -51.164  1.00  0.00    -0.390 OA
ATOM     46  H5  UNL     1     -18.293 -71.203 -51.671  1.00  0.00     0.210 HD
ENDBRANCH  44  45
BRANCH  44  47
HETATM   47  C13 UNL     1     -20.467 -70.632 -52.910  1.00  0.00     0.172 C 
BRANCH  47  48
HETATM   48  O6  UNL     1     -21.801 -70.333 -53.169  1.00  0.00    -0.391 OA
ATOM     49  H6  UNL     1     -22.148 -70.833 -53.899  1.00  0.00     0.210 HD
ENDBRANCH  47  48
BRANCH  47  50
HETATM   50  C14 UNL     1     -19.484 -69.720 -53.557  1.00  0.00     0.198 C 
BRANCH  50  51
HETATM   51  O7  UNL     1     -19.609 -68.391 -53.231  1.00  0.00    -0.398 OA
ATOM     52  H7  UNL     1     -19.445 -68.177 -52.320  1.00  0.00     0.209 HD
ENDBRANCH  50  51
ENDBRANCH  47  50
ENDBRANCH  44  47
ENDBRANCH   1  44
TORSDOF 20
ENDMDL
