MODEL 1
REMARK VINA RESULT: -7.791562814      0.000      0.000
REMARK  16 active torsions:
REMARK  status: ('A' for Active; 'I' for Inactive)
REMARK    1  A    between atoms: C2_2  and  O1_3 
REMARK    2  A    between atoms: C2_2  and  C3_5 
REMARK    3  A    between atoms: C3_5  and  N1_6 
REMARK    4  A    between atoms: C3_5  and  C16_50 
REMARK    5  A    between atoms: N1_6  and  C4_8 
REMARK    6  A    between atoms: C4_8  and  O2_9 
REMARK    7  A    between atoms: C4_8  and  C5_11 
REMARK    8  A    between atoms: C5_11  and  O3_12 
REMARK    9  A    between atoms: C5_11  and  C6_14 
REMARK   10  A    between atoms: N3_18  and  C8_19 
REMARK   11  A    between atoms: C10_22  and  N4_23 
REMARK       I    between atoms: C11_25  and  N6_27 
REMARK   12  A    between atoms: N6_27  and  N7_29 
REMARK   13  A    between atoms: N7_29  and  O5_33 
REMARK   14  A    between atoms: C12_35  and  N9_36 
REMARK   15  A    between atoms: C13_40  and  O6_41 
REMARK   16  A    between atoms: C14_43  and  O7_44 
ROOT
HETATM    1  C8  UNL     1     -16.468 -65.602 -51.630  1.00  0.00     0.264 C 
HETATM    2  O4  UNL     1     -15.686 -65.891 -50.514  1.00  0.00    -0.361 OA
HETATM    3  C9  UNL     1     -14.369 -65.733 -50.849  1.00  0.00     0.198 C 
HETATM    4  C10 UNL     1     -13.930 -64.371 -51.227  1.00  0.00     0.141 C 
HETATM    5  C12 UNL     1     -14.874 -63.259 -50.931  1.00  0.00     0.239 C 
HETATM    6  C13 UNL     1     -16.089 -63.207 -51.814  1.00  0.00     0.183 C 
HETATM    7  C14 UNL     1     -17.097 -64.245 -51.367  1.00  0.00     0.198 C 
ENDROOT
BRANCH   1   8
HETATM    8  N3  UNL     1     -17.473 -66.609 -51.892  1.00  0.00    -0.266 N 
HETATM    9  C7  UNL     1     -18.522 -66.838 -51.083  1.00  0.00     0.191 A 
HETATM   10  N2  UNL     1     -19.444 -67.800 -51.358  1.00  0.00    -0.339 N 
HETATM   11  C6  UNL     1     -19.290 -68.532 -52.468  1.00  0.00     0.119 A 
ATOM     12  H2  UNL     1     -20.234 -67.959 -50.733  1.00  0.00     0.168 HD
HETATM   13  N10 UNL     1     -18.253 -68.307 -53.269  1.00  0.00    -0.295 N 
HETATM   14  C15 UNL     1     -17.324 -67.347 -53.007  1.00  0.00     0.331 A 
ATOM     15  H10 UNL     1     -18.151 -68.872 -54.111  1.00  0.00     0.172 HD
HETATM   16  O8  UNL     1     -16.345 -67.140 -53.768  1.00  0.00    -0.246 OA
BRANCH  11  17
HETATM   17  C5  UNL     1     -20.278 -69.595 -52.781  1.00  0.00     0.233 C 
BRANCH  17  18
HETATM   18  C4  UNL     1     -19.851 -70.927 -52.180  1.00  0.00     0.250 C 
BRANCH  18  19
HETATM   19  N1  UNL     1     -20.679 -71.403 -51.180  1.00  0.00    -0.379 N 
ATOM     20  H1  UNL     1     -21.664 -71.502 -51.423  1.00  0.00     0.156 HD
BRANCH  19  21
HETATM   21  C3  UNL     1     -20.334 -71.759 -49.896  1.00  0.00     0.209 C 
BRANCH  21  22
HETATM   22  C2  UNL     1     -20.826 -73.014 -49.271  1.00  0.00     0.147 C 
HETATM   23  C1  UNL     1     -20.169 -74.293 -49.627  1.00  0.00     0.042 C 
BRANCH  22  24
HETATM   24  O1  UNL     1     -22.226 -73.125 -49.370  1.00  0.00    -0.393 OA
ATOM     25  H1  UNL     1     -22.479 -73.475 -50.215  1.00  0.00     0.210 HD
ENDBRANCH  22  24
ENDBRANCH  21  22
BRANCH  21  26
HETATM   26  C16 UNL     1     -20.741 -70.610 -48.975  1.00  0.00     0.199 C 
HETATM   27  O9  UNL     1     -20.577 -69.416 -49.302  1.00  0.00    -0.646 OA
HETATM   28  O10 UNL     1     -21.302 -70.973 -47.757  1.00  0.00    -0.646 OA
ENDBRANCH  21  26
ENDBRANCH  19  21
ENDBRANCH  18  19
BRANCH  18  29
HETATM   29  O2  UNL     1     -18.514 -70.835 -51.843  1.00  0.00    -0.374 OA
ATOM     30  H2  UNL     1     -18.327 -70.329 -51.061  1.00  0.00     0.212 HD
ENDBRANCH  18  29
ENDBRANCH  17  18
BRANCH  17  31
HETATM   31  O3  UNL     1     -21.530 -69.261 -52.234  1.00  0.00    -0.384 OA
ATOM     32  H3  UNL     1     -22.140 -69.153 -52.955  1.00  0.00     0.210 HD
ENDBRANCH  17  31
ENDBRANCH  11  17
ENDBRANCH   1   8
BRANCH   7  33
HETATM   33  O7  UNL     1     -18.312 -64.111 -52.027  1.00  0.00    -0.389 OA
ATOM     34  H7  UNL     1     -18.636 -63.219 -51.983  1.00  0.00     0.210 HD
ENDBRANCH   7  33
BRANCH   6  35
HETATM   35  O6  UNL     1     -15.803 -63.403 -53.159  1.00  0.00    -0.391 OA
ATOM     36  H6  UNL     1     -16.506 -63.829 -53.637  1.00  0.00     0.210 HD
ENDBRANCH   6  35
BRANCH   4  37
HETATM   37  N4  UNL     1     -13.555 -64.319 -52.628  1.00  0.00    -0.354 N 
HETATM   38  C11 UNL     1     -12.411 -63.927 -53.051  1.00  0.00     0.206 C 
HETATM   39  N5  UNL     1     -11.413 -63.510 -52.156  1.00  0.00    -0.062 NA
HETATM   40  N6  UNL     1     -12.221 -63.945 -54.470  1.00  0.00    -0.232 N 
ATOM     41  H6  UNL     1     -12.235 -64.828 -54.981  1.00  0.00     0.194 HD
ATOM     42  H4  UNL     1     -14.245 -64.612 -53.320  1.00  0.00     0.162 HD
BRANCH  40  43
HETATM   43  N7  UNL     1     -12.017 -62.741 -55.146  1.00  0.00    -0.099 N 
HETATM   44  N8  UNL     1     -11.345 -61.812 -54.608  1.00  0.00    -0.303 N 
ATOM     45  H82 UNL     1     -10.940 -61.922 -53.678  1.00  0.00     0.181 HD
ATOM     46  H81 UNL     1     -11.195 -60.932 -55.102  1.00  0.00     0.181 HD
BRANCH  43  47
HETATM   47  O5  UNL     1     -12.558 -62.593 -56.393  1.00  0.00    -0.254 OA
ATOM     48  H5  UNL     1     -12.021 -62.807 -57.148  1.00  0.00     0.248 HD
ENDBRANCH  43  47
ENDBRANCH  40  43
ENDBRANCH   4  37
BRANCH   5  49
HETATM   49  N9  UNL     1     -14.142 -62.001 -51.162  1.00  0.00    -0.070 N 
ATOM     50  H93 UNL     1     -13.651 -61.665 -50.334  1.00  0.00     0.274 HD
ATOM     51  H92 UNL     1     -13.323 -62.118 -51.759  1.00  0.00     0.274 HD
ATOM     52  H91 UNL     1     -14.815 -61.330 -51.531  1.00  0.00     0.274 HD
ENDBRANCH   5  49
TORSDOF 16
ENDMDL
MODEL 2
REMARK VINA RESULT: -7.636431865      4.735      6.674
REMARK  16 active torsions:
REMARK  status: ('A' for Active; 'I' for Inactive)
REMARK    1  A    between atoms: C2_2  and  O1_3 
REMARK    2  A    between atoms: C2_2  and  C3_5 
REMARK    3  A    between atoms: C3_5  and  N1_6 
REMARK    4  A    between atoms: C3_5  and  C16_50 
REMARK    5  A    between atoms: N1_6  and  C4_8 
REMARK    6  A    between atoms: C4_8  and  O2_9 
REMARK    7  A    between atoms: C4_8  and  C5_11 
REMARK    8  A    between atoms: C5_11  and  O3_12 
REMARK    9  A    between atoms: C5_11  and  C6_14 
REMARK   10  A    between atoms: N3_18  and  C8_19 
REMARK   11  A    between atoms: C10_22  and  N4_23 
REMARK       I    between atoms: C11_25  and  N6_27 
REMARK   12  A    between atoms: N6_27  and  N7_29 
REMARK   13  A    between atoms: N7_29  and  O5_33 
REMARK   14  A    between atoms: C12_35  and  N9_36 
REMARK   15  A    between atoms: C13_40  and  O6_41 
REMARK   16  A    between atoms: C14_43  and  O7_44 
ROOT
HETATM    1  C8  UNL     1     -13.382 -66.480 -48.919  1.00  0.00     0.264 C 
HETATM    2  O4  UNL     1     -12.621 -65.316 -49.002  1.00  0.00    -0.361 OA
HETATM    3  C9  UNL     1     -12.393 -64.849 -47.737  1.00  0.00     0.198 C 
HETATM    4  C10 UNL     1     -11.596 -65.713 -46.835  1.00  0.00     0.141 C 
HETATM    5  C12 UNL     1     -10.878 -66.854 -47.466  1.00  0.00     0.239 C 
HETATM    6  C13 UNL     1     -11.759 -67.986 -47.914  1.00  0.00     0.183 C 
HETATM    7  C14 UNL     1     -12.435 -67.629 -49.221  1.00  0.00     0.198 C 
ENDROOT
BRANCH   1   8
HETATM    8  N3  UNL     1     -14.516 -66.478 -49.817  1.00  0.00    -0.266 N 
HETATM    9  C7  UNL     1     -14.406 -66.350 -51.151  1.00  0.00     0.191 A 
HETATM   10  N2  UNL     1     -15.496 -66.346 -51.965  1.00  0.00    -0.339 N 
HETATM   11  C6  UNL     1     -16.707 -66.473 -51.408  1.00  0.00     0.119 A 
ATOM     12  H2  UNL     1     -15.393 -66.249 -52.974  1.00  0.00     0.168 HD
HETATM   13  N10 UNL     1     -16.818 -66.600 -50.089  1.00  0.00    -0.295 N 
HETATM   14  C15 UNL     1     -15.736 -66.607 -49.263  1.00  0.00     0.331 A 
ATOM     15  H10 UNL     1     -17.748 -66.697 -49.681  1.00  0.00     0.172 HD
HETATM   16  O8  UNL     1     -15.848 -66.727 -48.017  1.00  0.00    -0.246 OA
BRANCH  11  17
HETATM   17  C5  UNL     1     -17.911 -66.459 -52.276  1.00  0.00     0.233 C 
BRANCH  17  18
HETATM   18  C4  UNL     1     -18.218 -67.855 -52.800  1.00  0.00     0.250 C 
BRANCH  18  19
HETATM   19  N1  UNL     1     -19.525 -68.268 -52.617  1.00  0.00    -0.379 N 
ATOM     20  H1  UNL     1     -20.237 -67.737 -53.119  1.00  0.00     0.156 HD
BRANCH  19  21
HETATM   21  C3  UNL     1     -19.981 -69.307 -51.839  1.00  0.00     0.209 C 
BRANCH  21  22
HETATM   22  C2  UNL     1     -20.342 -70.625 -52.423  1.00  0.00     0.147 C 
HETATM   23  C1  UNL     1     -19.263 -71.480 -52.972  1.00  0.00     0.042 C 
BRANCH  22  24
HETATM   24  O1  UNL     1     -21.405 -70.510 -53.338  1.00  0.00    -0.393 OA
ATOM     25  H1  UNL     1     -21.134 -70.778 -54.208  1.00  0.00     0.210 HD
ENDBRANCH  22  24
ENDBRANCH  21  22
BRANCH  21  26
HETATM   26  C16 UNL     1     -21.205 -68.806 -51.074  1.00  0.00     0.199 C 
HETATM   27  O9  UNL     1     -22.068 -68.083 -51.616  1.00  0.00    -0.646 OA
HETATM   28  O10 UNL     1     -21.300 -69.202 -49.746  1.00  0.00    -0.646 OA
ENDBRANCH  21  26
ENDBRANCH  19  21
ENDBRANCH  18  19
BRANCH  18  29
HETATM   29  O2  UNL     1     -17.255 -68.717 -52.312  1.00  0.00    -0.374 OA
ATOM     30  H2  UNL     1     -17.040 -69.447 -52.880  1.00  0.00     0.212 HD
ENDBRANCH  18  29
ENDBRANCH  17  18
BRANCH  17  31
HETATM   31  O3  UNL     1     -19.027 -66.023 -51.541  1.00  0.00    -0.384 OA
ATOM     32  H3  UNL     1     -19.628 -66.755 -51.468  1.00  0.00     0.210 HD
ENDBRANCH  17  31
ENDBRANCH  11  17
ENDBRANCH   1   8
BRANCH   7  33
HETATM   33  O7  UNL     1     -13.109 -68.711 -49.774  1.00  0.00    -0.389 OA
ATOM     34  H7  UNL     1     -14.037 -68.532 -49.865  1.00  0.00     0.210 HD
ENDBRANCH   7  33
BRANCH   6  35
HETATM   35  O6  UNL     1     -12.729 -68.334 -46.982  1.00  0.00    -0.391 OA
ATOM     36  H6  UNL     1     -13.330 -69.002 -47.293  1.00  0.00     0.210 HD
ENDBRANCH   6  35
BRANCH   4  37
HETATM   37  N4  UNL     1     -12.410 -66.206 -45.740  1.00  0.00    -0.354 N 
HETATM   38  C11 UNL     1     -12.316 -65.790 -44.532  1.00  0.00     0.206 C 
HETATM   39  N5  UNL     1     -11.389 -64.797 -44.179  1.00  0.00    -0.062 NA
HETATM   40  N6  UNL     1     -13.204 -66.394 -43.584  1.00  0.00    -0.232 N 
ATOM     41  H6  UNL     1     -14.212 -66.268 -43.669  1.00  0.00     0.194 HD
ATOM     42  H4  UNL     1     -13.100 -66.929 -45.944  1.00  0.00     0.162 HD
BRANCH  40  43
HETATM   43  N7  UNL     1     -12.672 -67.157 -42.542  1.00  0.00    -0.099 N 
HETATM   44  N8  UNL     1     -13.290 -67.255 -41.442  1.00  0.00    -0.303 N 
ATOM     45  H82 UNL     1     -14.183 -66.784 -41.293  1.00  0.00     0.181 HD
ATOM     46  H81 UNL     1     -12.902 -67.813 -40.681  1.00  0.00     0.181 HD
BRANCH  43  47
HETATM   47  O5  UNL     1     -11.475 -67.789 -42.742  1.00  0.00    -0.254 OA
ATOM     48  H5  UNL     1     -10.961 -68.034 -41.982  1.00  0.00     0.248 HD
ENDBRANCH  43  47
ENDBRANCH  40  43
ENDBRANCH   4  37
BRANCH   5  49
HETATM   49  N9  UNL     1      -9.978 -67.412 -46.442  1.00  0.00    -0.070 N 
ATOM     50  H93 UNL     1      -9.320 -66.727 -46.071  1.00  0.00     0.274 HD
ATOM     51  H92 UNL     1     -10.451 -67.626 -45.565  1.00  0.00     0.274 HD
ATOM     52  H91 UNL     1      -9.520 -68.223 -46.860  1.00  0.00     0.274 HD
ENDBRANCH   5  49
TORSDOF 16
ENDMDL
MODEL 3
REMARK VINA RESULT: -7.609286040      4.712      6.982
REMARK  16 active torsions:
REMARK  status: ('A' for Active; 'I' for Inactive)
REMARK    1  A    between atoms: C2_2  and  O1_3 
REMARK    2  A    between atoms: C2_2  and  C3_5 
REMARK    3  A    between atoms: C3_5  and  N1_6 
REMARK    4  A    between atoms: C3_5  and  C16_50 
REMARK    5  A    between atoms: N1_6  and  C4_8 
REMARK    6  A    between atoms: C4_8  and  O2_9 
REMARK    7  A    between atoms: C4_8  and  C5_11 
REMARK    8  A    between atoms: C5_11  and  O3_12 
REMARK    9  A    between atoms: C5_11  and  C6_14 
REMARK   10  A    between atoms: N3_18  and  C8_19 
REMARK   11  A    between atoms: C10_22  and  N4_23 
REMARK       I    between atoms: C11_25  and  N6_27 
REMARK   12  A    between atoms: N6_27  and  N7_29 
REMARK   13  A    between atoms: N7_29  and  O5_33 
REMARK   14  A    between atoms: C12_35  and  N9_36 
REMARK   15  A    between atoms: C13_40  and  O6_41 
REMARK   16  A    between atoms: C14_43  and  O7_44 
ROOT
HETATM    1  C8  UNL     1     -19.719 -65.621 -49.551  1.00  0.00     0.264 C 
HETATM    2  O4  UNL     1     -19.679 -64.430 -50.273  1.00  0.00    -0.361 OA
HETATM    3  C9  UNL     1     -20.569 -63.551 -49.718  1.00  0.00     0.198 C 
HETATM    4  C10 UNL     1     -20.306 -63.116 -48.328  1.00  0.00     0.141 C 
HETATM    5  C12 UNL     1     -18.963 -63.434 -47.771  1.00  0.00     0.239 C 
HETATM    6  C13 UNL     1     -18.739 -64.885 -47.450  1.00  0.00     0.183 C 
HETATM    7  C14 UNL     1     -18.447 -65.656 -48.721  1.00  0.00     0.198 C 
ENDROOT
BRANCH   1   8
HETATM    8  N3  UNL     1     -19.832 -66.790 -50.396  1.00  0.00    -0.266 N 
HETATM    9  C7  UNL     1     -19.041 -67.015 -51.460  1.00  0.00     0.191 A 
HETATM   10  N2  UNL     1     -19.182 -68.123 -52.237  1.00  0.00    -0.339 N 
HETATM   11  C6  UNL     1     -20.138 -69.005 -51.922  1.00  0.00     0.119 A 
ATOM     12  H2  UNL     1     -18.572 -68.278 -53.039  1.00  0.00     0.168 HD
HETATM   13  N10 UNL     1     -20.921 -68.784 -50.870  1.00  0.00    -0.295 N 
HETATM   14  C15 UNL     1     -20.791 -67.680 -50.084  1.00  0.00     0.331 A 
ATOM     15  H10 UNL     1     -21.644 -69.466 -50.643  1.00  0.00     0.172 HD
HETATM   16  O8  UNL     1     -21.534 -67.477 -49.091  1.00  0.00    -0.246 OA
BRANCH  11  17
HETATM   17  C5  UNL     1     -20.316 -70.215 -52.763  1.00  0.00     0.233 C 
BRANCH  17  18
HETATM   18  C4  UNL     1     -19.721 -71.441 -52.084  1.00  0.00     0.250 C 
BRANCH  18  19
HETATM   19  N1  UNL     1     -20.560 -72.067 -51.181  1.00  0.00    -0.379 N 
ATOM     20  H1  UNL     1     -21.559 -71.915 -51.318  1.00  0.00     0.156 HD
BRANCH  19  21
HETATM   21  C3  UNL     1     -20.211 -72.869 -50.119  1.00  0.00     0.209 C 
BRANCH  21  22
HETATM   22  C2  UNL     1     -20.679 -74.276 -50.011  1.00  0.00     0.147 C 
HETATM   23  C1  UNL     1     -22.084 -74.530 -49.616  1.00  0.00     0.042 C 
BRANCH  22  24
HETATM   24  O1  UNL     1     -19.793 -75.056 -49.244  1.00  0.00    -0.393 OA
ATOM     25  H1  UNL     1     -19.874 -74.850 -48.320  1.00  0.00     0.210 HD
ENDBRANCH  22  24
ENDBRANCH  21  22
BRANCH  21  26
HETATM   26  C16 UNL     1     -20.642 -72.154 -48.840  1.00  0.00     0.199 C 
HETATM   27  O9  UNL     1     -20.409 -72.631 -47.710  1.00  0.00    -0.646 OA
HETATM   28  O10 UNL     1     -21.306 -70.945 -49.010  1.00  0.00    -0.646 OA
ENDBRANCH  21  26
ENDBRANCH  19  21
ENDBRANCH  18  19
BRANCH  18  29
HETATM   29  O2  UNL     1     -18.478 -71.094 -51.590  1.00  0.00    -0.374 OA
ATOM     30  H2  UNL     1     -17.739 -71.424 -52.086  1.00  0.00     0.212 HD
ENDBRANCH  18  29
ENDBRANCH  17  18
BRANCH  17  31
HETATM   31  O3  UNL     1     -21.685 -70.461 -52.966  1.00  0.00    -0.384 OA
ATOM     32  H3  UNL     1     -22.064 -70.692 -52.126  1.00  0.00     0.210 HD
ENDBRANCH  17  31
ENDBRANCH  11  17
ENDBRANCH   1   8
BRANCH   7  33
HETATM   33  O7  UNL     1     -18.046 -66.961 -48.460  1.00  0.00    -0.389 OA
ATOM     34  H7  UNL     1     -18.765 -67.573 -48.566  1.00  0.00     0.210 HD
ENDBRANCH   7  33
BRANCH   6  35
HETATM   35  O6  UNL     1     -19.812 -65.479 -46.796  1.00  0.00    -0.391 OA
ATOM     36  H6  UNL     1     -20.030 -65.063 -45.970  1.00  0.00     0.210 HD
ENDBRANCH   6  35
BRANCH   4  37
HETATM   37  N4  UNL     1     -21.328 -63.615 -47.427  1.00  0.00    -0.354 N 
HETATM   38  C11 UNL     1     -21.998 -62.877 -46.621  1.00  0.00     0.206 C 
HETATM   39  N5  UNL     1     -21.779 -61.492 -46.557  1.00  0.00    -0.062 NA
HETATM   40  N6  UNL     1     -22.968 -63.547 -45.808  1.00  0.00    -0.232 N 
ATOM     41  H6  UNL     1     -23.771 -64.006 -46.236  1.00  0.00     0.194 HD
ATOM     42  H4  UNL     1     -21.526 -64.615 -47.435  1.00  0.00     0.162 HD
BRANCH  40  43
HETATM   43  N7  UNL     1     -22.800 -63.563 -44.422  1.00  0.00    -0.099 N 
HETATM   44  N8  UNL     1     -23.714 -64.016 -43.673  1.00  0.00    -0.303 N 
ATOM     45  H82 UNL     1     -24.587 -64.376 -44.061  1.00  0.00     0.181 HD
ATOM     46  H81 UNL     1     -23.591 -64.028 -42.660  1.00  0.00     0.181 HD
BRANCH  43  47
HETATM   47  O5  UNL     1     -21.630 -63.081 -43.902  1.00  0.00    -0.254 OA
ATOM     48  H5  UNL     1     -20.829 -63.211 -44.395  1.00  0.00     0.248 HD
ENDBRANCH  43  47
ENDBRANCH  40  43
ENDBRANCH   4  37
BRANCH   5  49
HETATM   49  N9  UNL     1     -18.844 -62.707 -46.495  1.00  0.00    -0.070 N 
ATOM     50  H93 UNL     1     -19.073 -61.716 -46.576  1.00  0.00     0.274 HD
ATOM     51  H92 UNL     1     -19.570 -62.954 -45.823  1.00  0.00     0.274 HD
ATOM     52  H91 UNL     1     -17.900 -62.874 -46.146  1.00  0.00     0.274 HD
ENDBRANCH   5  49
TORSDOF 16
ENDMDL
MODEL 4
REMARK VINA RESULT: -7.554753999      3.127      4.135
REMARK  16 active torsions:
REMARK  status: ('A' for Active; 'I' for Inactive)
REMARK    1  A    between atoms: C2_2  and  O1_3 
REMARK    2  A    between atoms: C2_2  and  C3_5 
REMARK    3  A    between atoms: C3_5  and  N1_6 
REMARK    4  A    between atoms: C3_5  and  C16_50 
REMARK    5  A    between atoms: N1_6  and  C4_8 
REMARK    6  A    between atoms: C4_8  and  O2_9 
REMARK    7  A    between atoms: C4_8  and  C5_11 
REMARK    8  A    between atoms: C5_11  and  O3_12 
REMARK    9  A    between atoms: C5_11  and  C6_14 
REMARK   10  A    between atoms: N3_18  and  C8_19 
REMARK   11  A    between atoms: C10_22  and  N4_23 
REMARK       I    between atoms: C11_25  and  N6_27 
REMARK   12  A    between atoms: N6_27  and  N7_29 
REMARK   13  A    between atoms: N7_29  and  O5_33 
REMARK   14  A    between atoms: C12_35  and  N9_36 
REMARK   15  A    between atoms: C13_40  and  O6_41 
REMARK   16  A    between atoms: C14_43  and  O7_44 
ROOT
HETATM    1  C8  UNL     1     -15.876 -66.289 -50.462  1.00  0.00     0.264 C 
HETATM    2  O4  UNL     1     -16.502 -65.780 -49.326  1.00  0.00    -0.361 OA
HETATM    3  C9  UNL     1     -15.723 -66.055 -48.236  1.00  0.00     0.198 C 
HETATM    4  C10 UNL     1     -14.381 -65.430 -48.194  1.00  0.00     0.141 C 
HETATM    5  C12 UNL     1     -14.119 -64.345 -49.177  1.00  0.00     0.239 C 
HETATM    6  C13 UNL     1     -13.955 -64.804 -50.598  1.00  0.00     0.183 C 
HETATM    7  C14 UNL     1     -15.312 -65.092 -51.208  1.00  0.00     0.198 C 
ENDROOT
BRANCH   1   8
HETATM    8  N3  UNL     1     -16.768 -67.062 -51.299  1.00  0.00    -0.266 N 
HETATM    9  C7  UNL     1     -18.066 -66.760 -51.478  1.00  0.00     0.191 A 
HETATM   10  N2  UNL     1     -18.877 -67.515 -52.267  1.00  0.00    -0.339 N 
HETATM   11  C6  UNL     1     -18.355 -68.586 -52.878  1.00  0.00     0.119 A 
ATOM     12  H2  UNL     1     -19.859 -67.270 -52.391  1.00  0.00     0.168 HD
HETATM   13  N10 UNL     1     -17.071 -68.885 -52.703  1.00  0.00    -0.295 N 
HETATM   14  C15 UNL     1     -16.248 -68.139 -51.916  1.00  0.00     0.331 A 
ATOM     15  H10 UNL     1     -16.689 -69.704 -53.176  1.00  0.00     0.172 HD
HETATM   16  O8  UNL     1     -15.036 -68.428 -51.755  1.00  0.00    -0.246 OA
BRANCH  11  17
HETATM   17  C5  UNL     1     -19.225 -69.429 -53.735  1.00  0.00     0.233 C 
BRANCH  17  18
HETATM   18  C4  UNL     1     -19.426 -70.805 -53.115  1.00  0.00     0.250 C 
BRANCH  18  19
HETATM   19  N1  UNL     1     -20.333 -70.844 -52.073  1.00  0.00    -0.379 N 
ATOM     20  H1  UNL     1     -21.304 -71.021 -52.330  1.00  0.00     0.156 HD
BRANCH  19  21
HETATM   21  C3  UNL     1     -20.086 -70.673 -50.730  1.00  0.00     0.209 C 
BRANCH  21  22
HETATM   22  C2  UNL     1     -20.425 -71.718 -49.730  1.00  0.00     0.147 C 
HETATM   23  C1  UNL     1     -20.369 -73.141 -50.139  1.00  0.00     0.042 C 
BRANCH  22  24
HETATM   24  O1  UNL     1     -21.638 -71.431 -49.076  1.00  0.00    -0.393 OA
ATOM     25  H1  UNL     1     -21.647 -71.800 -48.201  1.00  0.00     0.210 HD
ENDBRANCH  22  24
ENDBRANCH  21  22
BRANCH  21  26
HETATM   26  C16 UNL     1     -20.789 -69.389 -50.292  1.00  0.00     0.199 C 
HETATM   27  O9  UNL     1     -21.642 -68.829 -51.012  1.00  0.00    -0.646 OA
HETATM   28  O10 UNL     1     -20.423 -68.885 -49.051  1.00  0.00    -0.646 OA
ENDBRANCH  21  26
ENDBRANCH  19  21
ENDBRANCH  18  19
BRANCH  18  29
HETATM   29  O2  UNL     1     -18.180 -71.333 -52.831  1.00  0.00    -0.374 OA
ATOM     30  H2  UNL     1     -17.997 -71.463 -51.909  1.00  0.00     0.212 HD
ENDBRANCH  18  29
ENDBRANCH  17  18
BRANCH  17  31
HETATM   31  O3  UNL     1     -20.491 -68.832 -53.869  1.00  0.00    -0.384 OA
ATOM     32  H3  UNL     1     -20.865 -69.131 -54.689  1.00  0.00     0.210 HD
ENDBRANCH  17  31
ENDBRANCH  11  17
ENDBRANCH   1   8
BRANCH   7  33
HETATM   33  O7  UNL     1     -15.230 -65.336 -52.573  1.00  0.00    -0.389 OA
ATOM     34  H7  UNL     1     -15.843 -66.010 -52.843  1.00  0.00     0.210 HD
ENDBRANCH   7  33
BRANCH   6  35
HETATM   35  O6  UNL     1     -13.153 -65.932 -50.727  1.00  0.00    -0.391 OA
ATOM     36  H6  UNL     1     -13.646 -66.742 -50.787  1.00  0.00     0.210 HD
ENDBRANCH   6  35
BRANCH   4  37
HETATM   37  N4  UNL     1     -13.340 -66.435 -48.301  1.00  0.00    -0.354 N 
HETATM   38  C11 UNL     1     -12.750 -66.968 -47.296  1.00  0.00     0.206 C 
HETATM   39  N5  UNL     1     -13.085 -66.602 -45.983  1.00  0.00    -0.062 NA
HETATM   40  N6  UNL     1     -11.746 -67.944 -47.597  1.00  0.00    -0.232 N 
ATOM     41  H6  UNL     1     -11.999 -68.818 -48.056  1.00  0.00     0.194 HD
ATOM     42  H4  UNL     1     -13.060 -66.736 -49.234  1.00  0.00     0.162 HD
BRANCH  40  43
HETATM   43  N7  UNL     1     -10.418 -67.685 -47.252  1.00  0.00    -0.099 N 
HETATM   44  N8  UNL     1      -9.500 -68.482 -47.602  1.00  0.00    -0.303 N 
ATOM     45  H82 UNL     1      -9.706 -69.324 -48.140  1.00  0.00     0.181 HD
ATOM     46  H81 UNL     1      -8.529 -68.292 -47.350  1.00  0.00     0.181 HD
BRANCH  43  47
HETATM   47  O5  UNL     1     -10.141 -66.555 -46.532  1.00  0.00    -0.254 OA
ATOM     48  H5  UNL     1     -10.572 -65.745 -46.777  1.00  0.00     0.248 HD
ENDBRANCH  43  47
ENDBRANCH  40  43
ENDBRANCH   4  37
BRANCH   5  49
HETATM   49  N9  UNL     1     -12.840 -63.721 -48.796  1.00  0.00    -0.070 N 
ATOM     50  H93 UNL     1     -12.644 -62.862 -49.310  1.00  0.00     0.274 HD
ATOM     51  H92 UNL     1     -12.856 -63.312 -47.862  1.00  0.00     0.274 HD
ATOM     52  H91 UNL     1     -12.117 -64.431 -48.911  1.00  0.00     0.274 HD
ENDBRANCH   5  49
TORSDOF 16
ENDMDL
MODEL 5
REMARK VINA RESULT: -7.505717368      5.374      7.225
REMARK  16 active torsions:
REMARK  status: ('A' for Active; 'I' for Inactive)
REMARK    1  A    between atoms: C2_2  and  O1_3 
REMARK    2  A    between atoms: C2_2  and  C3_5 
REMARK    3  A    between atoms: C3_5  and  N1_6 
REMARK    4  A    between atoms: C3_5  and  C16_50 
REMARK    5  A    between atoms: N1_6  and  C4_8 
REMARK    6  A    between atoms: C4_8  and  O2_9 
REMARK    7  A    between atoms: C4_8  and  C5_11 
REMARK    8  A    between atoms: C5_11  and  O3_12 
REMARK    9  A    between atoms: C5_11  and  C6_14 
REMARK   10  A    between atoms: N3_18  and  C8_19 
REMARK   11  A    between atoms: C10_22  and  N4_23 
REMARK       I    between atoms: C11_25  and  N6_27 
REMARK   12  A    between atoms: N6_27  and  N7_29 
REMARK   13  A    between atoms: N7_29  and  O5_33 
REMARK   14  A    between atoms: C12_35  and  N9_36 
REMARK   15  A    between atoms: C13_40  and  O6_41 
REMARK   16  A    between atoms: C14_43  and  O7_44 
ROOT
HETATM    1  C8  UNL     1     -14.945 -65.462 -47.170  1.00  0.00     0.264 C 
HETATM    2  O4  UNL     1     -14.484 -64.148 -47.138  1.00  0.00    -0.361 OA
HETATM    3  C9  UNL     1     -14.144 -63.834 -45.850  1.00  0.00     0.198 C 
HETATM    4  C10 UNL     1     -13.033 -64.600 -45.242  1.00  0.00     0.141 C 
HETATM    5  C12 UNL     1     -12.204 -65.422 -46.166  1.00  0.00     0.239 C 
HETATM    6  C13 UNL     1     -12.880 -66.656 -46.694  1.00  0.00     0.183 C 
HETATM    7  C14 UNL     1     -13.838 -66.284 -47.807  1.00  0.00     0.198 C 
ENDROOT
BRANCH   1   8
HETATM    8  N3  UNL     1     -16.192 -65.605 -47.891  1.00  0.00    -0.266 N 
HETATM    9  C7  UNL     1     -16.528 -64.848 -48.950  1.00  0.00     0.191 A 
HETATM   10  N2  UNL     1     -17.713 -65.006 -49.598  1.00  0.00    -0.339 N 
HETATM   11  C6  UNL     1     -18.559 -65.945 -49.159  1.00  0.00     0.119 A 
ATOM     12  H2  UNL     1     -17.950 -64.423 -50.400  1.00  0.00     0.168 HD
HETATM   13  N10 UNL     1     -18.228 -66.696 -48.112  1.00  0.00    -0.295 N 
HETATM   14  C15 UNL     1     -17.046 -66.548 -47.454  1.00  0.00     0.331 A 
ATOM     15  H10 UNL     1     -18.884 -67.407 -47.790  1.00  0.00     0.172 HD
HETATM   16  O8  UNL     1     -16.739 -67.260 -46.465  1.00  0.00    -0.246 OA
BRANCH  11  17
HETATM   17  C5  UNL     1     -19.863 -66.127 -49.845  1.00  0.00     0.233 C 
BRANCH  17  18
HETATM   18  C4  UNL     1     -19.809 -67.303 -50.810  1.00  0.00     0.250 C 
BRANCH  18  19
HETATM   19  N1  UNL     1     -20.439 -68.449 -50.363  1.00  0.00    -0.379 N 
ATOM     20  H1  UNL     1     -20.564 -68.527 -49.353  1.00  0.00     0.156 HD
BRANCH  19  21
HETATM   21  C3  UNL     1     -20.918 -69.498 -51.114  1.00  0.00     0.209 C 
BRANCH  21  22
HETATM   22  C2  UNL     1     -20.105 -70.716 -51.369  1.00  0.00     0.147 C 
HETATM   23  C1  UNL     1     -20.168 -71.831 -50.397  1.00  0.00     0.042 C 
BRANCH  22  24
HETATM   24  O1  UNL     1     -18.770 -70.389 -51.673  1.00  0.00    -0.393 OA
ATOM     25  H1  UNL     1     -18.264 -71.171 -51.861  1.00  0.00     0.210 HD
ENDBRANCH  22  24
ENDBRANCH  21  22
BRANCH  21  26
HETATM   26  C16 UNL     1     -21.329 -68.939 -52.475  1.00  0.00     0.199 C 
HETATM   27  O9  UNL     1     -22.498 -68.567 -52.707  1.00  0.00    -0.646 OA
HETATM   28  O10 UNL     1     -20.327 -68.872 -53.435  1.00  0.00    -0.646 OA
ENDBRANCH  21  26
ENDBRANCH  19  21
ENDBRANCH  18  19
BRANCH  18  29
HETATM   29  O2  UNL     1     -18.496 -67.470 -51.208  1.00  0.00    -0.374 OA
ATOM     30  H2  UNL     1     -18.346 -68.180 -51.820  1.00  0.00     0.212 HD
ENDBRANCH  18  29
ENDBRANCH  17  18
BRANCH  17  31
HETATM   31  O3  UNL     1     -20.869 -66.396 -48.900  1.00  0.00    -0.384 OA
ATOM     32  H3  UNL     1     -21.523 -66.941 -49.322  1.00  0.00     0.210 HD
ENDBRANCH  17  31
ENDBRANCH  11  17
ENDBRANCH   1   8
BRANCH   7  33
HETATM   33  O7  UNL     1     -14.344 -67.403 -48.456  1.00  0.00    -0.389 OA
ATOM     34  H7  UNL     1     -13.730 -68.127 -48.432  1.00  0.00     0.210 HD
ENDBRANCH   7  33
BRANCH   6  35
HETATM   35  O6  UNL     1     -13.572 -67.367 -45.721  1.00  0.00    -0.391 OA
ATOM     36  H6  UNL     1     -13.008 -67.883 -45.157  1.00  0.00     0.210 HD
ENDBRANCH   6  35
BRANCH   4  37
HETATM   37  N4  UNL     1     -13.513 -65.437 -44.158  1.00  0.00    -0.354 N 
HETATM   38  C11 UNL     1     -13.086 -65.364 -42.952  1.00  0.00     0.206 C 
HETATM   39  N5  UNL     1     -12.093 -64.440 -42.591  1.00  0.00    -0.062 NA
HETATM   40  N6  UNL     1     -13.679 -66.271 -42.016  1.00  0.00    -0.232 N 
ATOM     41  H6  UNL     1     -14.671 -66.202 -41.789  1.00  0.00     0.194 HD
ATOM     42  H4  UNL     1     -14.235 -66.125 -44.368  1.00  0.00     0.162 HD
BRANCH  40  43
HETATM   43  N7  UNL     1     -12.883 -67.249 -41.417  1.00  0.00    -0.099 N 
HETATM   44  N8  UNL     1     -13.397 -68.099 -40.633  1.00  0.00    -0.303 N 
ATOM     45  H82 UNL     1     -14.395 -68.090 -40.422  1.00  0.00     0.181 HD
ATOM     46  H81 UNL     1     -12.815 -68.814 -40.195  1.00  0.00     0.181 HD
BRANCH  43  47
HETATM   47  O5  UNL     1     -11.545 -67.263 -41.699  1.00  0.00    -0.254 OA
ATOM     48  H5  UNL     1     -11.128 -68.098 -41.876  1.00  0.00     0.248 HD
ENDBRANCH  43  47
ENDBRANCH  40  43
ENDBRANCH   4  37
BRANCH   5  49
HETATM   49  N9  UNL     1     -11.038 -65.888 -45.396  1.00  0.00    -0.070 N 
ATOM     50  H93 UNL     1     -10.800 -65.275 -44.617  1.00  0.00     0.274 HD
ATOM     51  H92 UNL     1     -11.228 -66.727 -44.848  1.00  0.00     0.274 HD
ATOM     52  H91 UNL     1     -10.273 -66.009 -46.061  1.00  0.00     0.274 HD
ENDBRANCH   5  49
TORSDOF 16
ENDMDL
