MODEL 1
REMARK VINA RESULT: -8.483833232      0.000      0.000
REMARK  16 active torsions:
REMARK  status: ('A' for Active; 'I' for Inactive)
REMARK    1  A    between atoms: N3_9  and  C4_10 
REMARK    2  A    between atoms: C5_12  and  C6_13 
REMARK    3  A    between atoms: C6_13  and  O4_14 
REMARK    4  A    between atoms: C7_16  and  C8_17 
REMARK    5  A    between atoms: C8_17  and  O5_18 
REMARK    6  A    between atoms: C8_17  and  C9_20 
REMARK    7  A    between atoms: C9_20  and  O6_21 
REMARK    8  A    between atoms: C9_20  and  C10_23 
REMARK    9  A    between atoms: C10_23  and  O7_24 
REMARK   10  A    between atoms: C10_23  and  C11_26 
REMARK   11  A    between atoms: C11_26  and  N4_27 
REMARK       I    between atoms: N4_27  and  C12_29 
REMARK   12  A    between atoms: C12_29  and  C13_31 
REMARK   13  A    between atoms: C13_31  and  N5_32 
REMARK   14  A    between atoms: C13_31  and  C14_36 
REMARK   15  A    between atoms: C15_39  and  N7_40 
REMARK   16  A    between atoms: C16_48  and  O10_49 
ROOT
HETATM    1  C9  UNL     1     -21.086 -69.102 -52.008  1.00  0.00     0.179 C 
ENDROOT
BRANCH   1   2
HETATM    2  C8  UNL     1     -19.940 -68.221 -51.538  1.00  0.00     0.181 C 
BRANCH   2   3
HETATM    3  C7  UNL     1     -20.443 -67.063 -50.717  1.00  0.00     0.187 C 
HETATM    4  C5  UNL     1     -21.250 -67.448 -49.544  1.00  0.00     0.179 C 
HETATM    5  O3  UNL     1     -21.611 -66.299 -48.849  1.00  0.00    -0.350 OA
HETATM    6  C4  UNL     1     -20.589 -65.422 -48.582  1.00  0.00     0.304 C 
HETATM    7  C16 UNL     1     -19.724 -65.092 -49.764  1.00  0.00     0.308 C 
HETATM    8  O9  UNL     1     -19.338 -66.304 -50.357  1.00  0.00    -0.346 OA
BRANCH   4   9
HETATM    9  C6  UNL     1     -20.682 -68.462 -48.615  1.00  0.00     0.198 C 
BRANCH   9  10
HETATM   10  O4  UNL     1     -21.680 -69.468 -48.485  1.00  0.00    -0.398 OA
ATOM     11  H4  UNL     1     -21.769 -69.623 -47.553  1.00  0.00     0.209 HD
ENDBRANCH   9  10
ENDBRANCH   4   9
BRANCH   6  12
HETATM   12  N3  UNL     1     -21.144 -64.263 -47.938  1.00  0.00    -0.202 N 
HETATM   13  N1  UNL     1     -20.790 -63.882 -46.721  1.00  0.00    -0.238 N 
HETATM   14  C1  UNL     1     -19.811 -64.538 -45.840  1.00  0.00     0.183 C 
HETATM   15  C2  UNL     1     -21.475 -62.764 -46.388  1.00  0.00     0.345 A 
HETATM   16  O1  UNL     1     -21.371 -62.148 -45.298  1.00  0.00    -0.245 OA
HETATM   17  N2  UNL     1     -22.278 -62.424 -47.402  1.00  0.00    -0.258 N 
HETATM   18  C3  UNL     1     -22.053 -63.369 -48.349  1.00  0.00     0.347 A 
ATOM     19  H2  UNL     1     -22.918 -61.631 -47.452  1.00  0.00     0.175 HD
HETATM   20  O2  UNL     1     -22.625 -63.380 -49.442  1.00  0.00    -0.245 OA
ENDBRANCH   6  12
BRANCH   7  21
HETATM   21  O10 UNL     1     -18.545 -64.528 -49.283  1.00  0.00    -0.367 OA
ATOM     22  H10 UNL     1     -18.669 -63.587 -49.243  1.00  0.00     0.212 HD
ENDBRANCH   7  21
ENDBRANCH   2   3
BRANCH   2  23
HETATM   23  O5  UNL     1     -19.235 -67.850 -52.673  1.00  0.00    -0.390 OA
ATOM     24  H5  UNL     1     -18.478 -68.393 -52.857  1.00  0.00     0.210 HD
ENDBRANCH   2  23
ENDBRANCH   1   2
BRANCH   1  25
HETATM   25  O6  UNL     1     -21.714 -68.500 -53.122  1.00  0.00    -0.390 OA
ATOM     26  H6  UNL     1     -22.480 -68.020 -52.831  1.00  0.00     0.210 HD
ENDBRANCH   1  25
BRANCH   1  27
HETATM   27  C10 UNL     1     -20.616 -70.449 -52.466  1.00  0.00     0.167 C 
BRANCH  27  28
HETATM   28  O7  UNL     1     -19.753 -70.369 -53.560  1.00  0.00    -0.391 OA
ATOM     29  H7  UNL     1     -20.050 -70.891 -54.296  1.00  0.00     0.210 HD
ENDBRANCH  27  28
BRANCH  27  30
HETATM   30  C11 UNL     1     -19.975 -71.258 -51.390  1.00  0.00     0.157 C 
BRANCH  30  31
HETATM   31  N4  UNL     1     -20.839 -71.627 -50.309  1.00  0.00    -0.356 N 
HETATM   32  C12 UNL     1     -20.842 -72.887 -49.646  1.00  0.00     0.256 C 
HETATM   33  O8  UNL     1     -20.046 -73.761 -50.012  1.00  0.00    -0.271 OA
ATOM     34  H4  UNL     1     -21.510 -70.928 -49.988  1.00  0.00     0.162 HD
BRANCH  32  35
HETATM   35  C13 UNL     1     -21.773 -73.180 -48.530  1.00  0.00     0.343 C 
BRANCH  35  36
HETATM   36  N5  UNL     1     -21.037 -73.299 -47.305  1.00  0.00    -0.059 N 
ATOM     37  H53 UNL     1     -20.080 -73.619 -47.460  1.00  0.00     0.275 HD
ATOM     38  H52 UNL     1     -20.823 -72.390 -46.896  1.00  0.00     0.275 HD
ATOM     39  H51 UNL     1     -21.543 -73.902 -46.656  1.00  0.00     0.275 HD
ENDBRANCH  35  36
BRANCH  35  40
HETATM   40  C14 UNL     1     -22.570 -74.406 -48.847  1.00  0.00     0.152 A 
HETATM   41  N6  UNL     1     -23.084 -75.286 -47.958  1.00  0.00    -0.176 N 
HETATM   42  C15 UNL     1     -23.724 -76.231 -48.673  1.00  0.00     0.692 A 
ATOM     43  H6  UNL     1     -23.001 -75.242 -46.943  1.00  0.00     0.185 HD
HETATM   44  N8  UNL     1     -23.614 -75.950 -49.979  1.00  0.00    -0.131 N 
HETATM   45  N9  UNL     1     -22.900 -74.823 -50.068  1.00  0.00    -0.272 N 
ATOM     46  H8  UNL     1     -23.999 -76.491 -50.753  1.00  0.00     0.205 HD
ATOM     47  H9  UNL     1     -22.647 -74.355 -50.939  1.00  0.00     0.189 HD
BRANCH  42  48
HETATM   48  N7  UNL     1     -24.332 -77.232 -48.126  1.00  0.00    -0.233 N 
ATOM     49  H72 UNL     1     -25.260 -77.246 -47.703  1.00  0.00     0.174 HD
ATOM     50  H71 UNL     1     -23.919 -78.163 -48.062  1.00  0.00     0.174 HD
ENDBRANCH  42  48
ENDBRANCH  35  40
ENDBRANCH  32  35
ENDBRANCH  30  31
ENDBRANCH  27  30
ENDBRANCH   1  27
TORSDOF 16
ENDMDL
MODEL 2
REMARK VINA RESULT: -8.106255479      2.560      3.520
REMARK  16 active torsions:
REMARK  status: ('A' for Active; 'I' for Inactive)
REMARK    1  A    between atoms: N3_9  and  C4_10 
REMARK    2  A    between atoms: C5_12  and  C6_13 
REMARK    3  A    between atoms: C6_13  and  O4_14 
REMARK    4  A    between atoms: C7_16  and  C8_17 
REMARK    5  A    between atoms: C8_17  and  O5_18 
REMARK    6  A    between atoms: C8_17  and  C9_20 
REMARK    7  A    between atoms: C9_20  and  O6_21 
REMARK    8  A    between atoms: C9_20  and  C10_23 
REMARK    9  A    between atoms: C10_23  and  O7_24 
REMARK   10  A    between atoms: C10_23  and  C11_26 
REMARK   11  A    between atoms: C11_26  and  N4_27 
REMARK       I    between atoms: N4_27  and  C12_29 
REMARK   12  A    between atoms: C12_29  and  C13_31 
REMARK   13  A    between atoms: C13_31  and  N5_32 
REMARK   14  A    between atoms: C13_31  and  C14_36 
REMARK   15  A    between atoms: C15_39  and  N7_40 
REMARK   16  A    between atoms: C16_48  and  O10_49 
ROOT
HETATM    1  C9  UNL     1     -18.732 -70.258 -53.053  1.00  0.00     0.179 C 
ENDROOT
BRANCH   1   2
HETATM    2  C8  UNL     1     -18.626 -68.762 -53.300  1.00  0.00     0.181 C 
BRANCH   2   3
HETATM    3  C7  UNL     1     -18.341 -68.016 -52.023  1.00  0.00     0.187 C 
HETATM    4  C5  UNL     1     -16.967 -67.494 -51.911  1.00  0.00     0.179 C 
HETATM    5  O3  UNL     1     -16.848 -66.790 -50.718  1.00  0.00    -0.350 OA
HETATM    6  C4  UNL     1     -17.835 -65.870 -50.471  1.00  0.00     0.304 C 
HETATM    7  C16 UNL     1     -19.233 -66.387 -50.659  1.00  0.00     0.308 C 
HETATM    8  O9  UNL     1     -19.288 -67.006 -51.917  1.00  0.00    -0.346 OA
BRANCH   4   9
HETATM    9  C6  UNL     1     -16.438 -66.688 -53.045  1.00  0.00     0.198 C 
BRANCH   9  10
HETATM   10  O4  UNL     1     -15.271 -67.370 -53.491  1.00  0.00    -0.398 OA
ATOM     11  H4  UNL     1     -15.030 -66.957 -54.312  1.00  0.00     0.209 HD
ENDBRANCH   9  10
ENDBRANCH   4   9
BRANCH   6  12
HETATM   12  N3  UNL     1     -17.608 -65.298 -49.171  1.00  0.00    -0.202 N 
HETATM   13  N1  UNL     1     -17.323 -64.018 -48.992  1.00  0.00    -0.238 N 
HETATM   14  C1  UNL     1     -17.193 -62.988 -50.035  1.00  0.00     0.183 C 
HETATM   15  C2  UNL     1     -17.165 -63.778 -47.670  1.00  0.00     0.345 A 
HETATM   16  O1  UNL     1     -16.889 -62.663 -47.164  1.00  0.00    -0.245 OA
HETATM   17  N2  UNL     1     -17.350 -64.917 -46.993  1.00  0.00    -0.258 N 
HETATM   18  C3  UNL     1     -17.623 -65.842 -47.947  1.00  0.00     0.347 A 
ATOM     19  H2  UNL     1     -17.298 -65.059 -45.984  1.00  0.00     0.175 HD
HETATM   20  O2  UNL     1     -17.853 -67.028 -47.693  1.00  0.00    -0.245 OA
ENDBRANCH   6  12
BRANCH   7  21
HETATM   21  O10 UNL     1     -20.082 -65.287 -50.756  1.00  0.00    -0.367 OA
ATOM     22  H10 UNL     1     -20.976 -65.607 -50.709  1.00  0.00     0.212 HD
ENDBRANCH   7  21
ENDBRANCH   2   3
BRANCH   2  23
HETATM   23  O5  UNL     1     -19.800 -68.381 -53.932  1.00  0.00    -0.390 OA
ATOM     24  H5  UNL     1     -19.801 -68.523 -54.871  1.00  0.00     0.210 HD
ENDBRANCH   2  23
ENDBRANCH   1   2
BRANCH   1  25
HETATM   25  O6  UNL     1     -17.626 -70.685 -52.283  1.00  0.00    -0.390 OA
ATOM     26  H6  UNL     1     -16.842 -70.664 -52.820  1.00  0.00     0.210 HD
ENDBRANCH   1  25
BRANCH   1  27
HETATM   27  C10 UNL     1     -19.956 -70.619 -52.267  1.00  0.00     0.167 C 
BRANCH  27  28
HETATM   28  O7  UNL     1     -21.083 -70.770 -53.076  1.00  0.00    -0.391 OA
ATOM     29  H7  UNL     1     -21.802 -70.211 -52.805  1.00  0.00     0.210 HD
ENDBRANCH  27  28
BRANCH  27  30
HETATM   30  C11 UNL     1     -19.787 -71.836 -51.422  1.00  0.00     0.157 C 
BRANCH  30  31
HETATM   31  N4  UNL     1     -20.788 -72.022 -50.415  1.00  0.00    -0.356 N 
HETATM   32  C12 UNL     1     -20.942 -73.185 -49.607  1.00  0.00     0.256 C 
HETATM   33  O8  UNL     1     -20.165 -74.135 -49.766  1.00  0.00    -0.271 OA
ATOM     34  H4  UNL     1     -21.446 -71.257 -50.264  1.00  0.00     0.162 HD
BRANCH  32  35
HETATM   35  C13 UNL     1     -22.009 -73.287 -48.583  1.00  0.00     0.343 C 
BRANCH  35  36
HETATM   36  N5  UNL     1     -21.446 -73.092 -47.278  1.00  0.00    -0.059 N 
ATOM     37  H53 UNL     1     -20.482 -73.421 -47.222  1.00  0.00     0.275 HD
ATOM     38  H52 UNL     1     -21.276 -72.107 -47.076  1.00  0.00     0.275 HD
ATOM     39  H51 UNL     1     -22.043 -73.530 -46.577  1.00  0.00     0.275 HD
ENDBRANCH  35  36
BRANCH  35  40
HETATM   40  C14 UNL     1     -22.714 -74.600 -48.719  1.00  0.00     0.152 A 
HETATM   41  N6  UNL     1     -22.868 -75.535 -47.755  1.00  0.00    -0.176 N 
HETATM   42  C15 UNL     1     -23.561 -76.550 -48.306  1.00  0.00     0.692 A 
ATOM     43  H6  UNL     1     -22.526 -75.482 -46.796  1.00  0.00     0.185 HD
HETATM   44  N8  UNL     1     -23.833 -76.258 -49.585  1.00  0.00    -0.131 N 
HETATM   45  N9  UNL     1     -23.305 -75.053 -49.823  1.00  0.00    -0.272 N 
ATOM     46  H8  UNL     1     -24.344 -76.841 -50.248  1.00  0.00     0.205 HD
ATOM     47  H9  UNL     1     -23.347 -74.558 -50.714  1.00  0.00     0.189 HD
BRANCH  42  48
HETATM   48  N7  UNL     1     -23.882 -77.618 -47.651  1.00  0.00    -0.233 N 
ATOM     49  H72 UNL     1     -24.712 -77.775 -47.079  1.00  0.00     0.174 HD
ATOM     50  H71 UNL     1     -23.303 -78.458 -47.642  1.00  0.00     0.174 HD
ENDBRANCH  42  48
ENDBRANCH  35  40
ENDBRANCH  32  35
ENDBRANCH  30  31
ENDBRANCH  27  30
ENDBRANCH   1  27
TORSDOF 16
ENDMDL
MODEL 3
REMARK VINA RESULT: -8.085669475      1.280      1.320
REMARK  16 active torsions:
REMARK  status: ('A' for Active; 'I' for Inactive)
REMARK    1  A    between atoms: N3_9  and  C4_10 
REMARK    2  A    between atoms: C5_12  and  C6_13 
REMARK    3  A    between atoms: C6_13  and  O4_14 
REMARK    4  A    between atoms: C7_16  and  C8_17 
REMARK    5  A    between atoms: C8_17  and  O5_18 
REMARK    6  A    between atoms: C8_17  and  C9_20 
REMARK    7  A    between atoms: C9_20  and  O6_21 
REMARK    8  A    between atoms: C9_20  and  C10_23 
REMARK    9  A    between atoms: C10_23  and  O7_24 
REMARK   10  A    between atoms: C10_23  and  C11_26 
REMARK   11  A    between atoms: C11_26  and  N4_27 
REMARK       I    between atoms: N4_27  and  C12_29 
REMARK   12  A    between atoms: C12_29  and  C13_31 
REMARK   13  A    between atoms: C13_31  and  N5_32 
REMARK   14  A    between atoms: C13_31  and  C14_36 
REMARK   15  A    between atoms: C15_39  and  N7_40 
REMARK   16  A    between atoms: C16_48  and  O10_49 
ROOT
HETATM    1  C9  UNL     1     -20.536 -68.259 -52.186  1.00  0.00     0.179 C 
ENDROOT
BRANCH   1   2
HETATM    2  C8  UNL     1     -19.726 -67.677 -51.039  1.00  0.00     0.181 C 
BRANCH   2   3
HETATM    3  C7  UNL     1     -20.363 -66.422 -50.502  1.00  0.00     0.187 C 
HETATM    4  C5  UNL     1     -20.867 -66.532 -49.121  1.00  0.00     0.179 C 
HETATM    5  O3  UNL     1     -21.384 -65.302 -48.731  1.00  0.00    -0.350 OA
HETATM    6  C4  UNL     1     -20.576 -64.218 -48.964  1.00  0.00     0.304 C 
HETATM    7  C16 UNL     1     -20.004 -64.151 -50.351  1.00  0.00     0.308 C 
HETATM    8  O9  UNL     1     -19.432 -65.401 -50.633  1.00  0.00    -0.346 OA
BRANCH   4   9
HETATM    9  C6  UNL     1     -19.937 -67.058 -48.085  1.00  0.00     0.198 C 
BRANCH   9  10
HETATM   10  O4  UNL     1     -20.155 -68.464 -48.050  1.00  0.00    -0.398 OA
ATOM     11  H4  UNL     1     -20.439 -68.702 -48.925  1.00  0.00     0.209 HD
ENDBRANCH   9  10
ENDBRANCH   4   9
BRANCH   6  12
HETATM   12  N3  UNL     1     -21.289 -63.029 -48.581  1.00  0.00    -0.202 N 
HETATM   13  N1  UNL     1     -20.797 -62.140 -47.733  1.00  0.00    -0.238 N 
HETATM   14  C1  UNL     1     -19.492 -62.195 -47.055  1.00  0.00     0.183 C 
HETATM   15  C2  UNL     1     -21.691 -61.137 -47.572  1.00  0.00     0.345 A 
HETATM   16  O1  UNL     1     -21.530 -60.136 -46.832  1.00  0.00    -0.245 OA
HETATM   17  N2  UNL     1     -22.768 -61.386 -48.325  1.00  0.00    -0.258 N 
HETATM   18  C3  UNL     1     -22.493 -62.563 -48.939  1.00  0.00     0.347 A 
ATOM     19  H2  UNL     1     -23.609 -60.816 -48.417  1.00  0.00     0.175 HD
HETATM   20  O2  UNL     1     -23.269 -63.113 -49.725  1.00  0.00    -0.245 OA
ENDBRANCH   6  12
BRANCH   7  21
HETATM   21  O10 UNL     1     -18.937 -63.257 -50.328  1.00  0.00    -0.367 OA
ATOM     22  H10 UNL     1     -18.959 -62.801 -49.495  1.00  0.00     0.212 HD
ENDBRANCH   7  21
ENDBRANCH   2   3
BRANCH   2  23
HETATM   23  O5  UNL     1     -18.436 -67.502 -51.514  1.00  0.00    -0.390 OA
ATOM     24  H5  UNL     1     -17.806 -68.126 -51.173  1.00  0.00     0.210 HD
ENDBRANCH   2  23
ENDBRANCH   1   2
BRANCH   1  25
HETATM   25  O6  UNL     1     -19.682 -68.502 -53.286  1.00  0.00    -0.390 OA
ATOM     26  H6  UNL     1     -18.790 -68.276 -53.048  1.00  0.00     0.210 HD
ENDBRANCH   1  25
BRANCH   1  27
HETATM   27  C10 UNL     1     -21.154 -69.578 -51.833  1.00  0.00     0.167 C 
BRANCH  27  28
HETATM   28  O7  UNL     1     -21.701 -70.224 -52.943  1.00  0.00    -0.391 OA
ATOM     29  H7  UNL     1     -21.326 -71.086 -53.083  1.00  0.00     0.210 HD
ENDBRANCH  27  28
BRANCH  27  30
HETATM   30  C11 UNL     1     -20.222 -70.506 -51.130  1.00  0.00     0.157 C 
BRANCH  30  31
HETATM   31  N4  UNL     1     -20.762 -71.145 -49.968  1.00  0.00    -0.356 N 
HETATM   32  C12 UNL     1     -20.582 -72.514 -49.619  1.00  0.00     0.256 C 
HETATM   33  O8  UNL     1     -19.913 -73.242 -50.364  1.00  0.00    -0.271 OA
ATOM     34  H4  UNL     1     -21.322 -70.571 -49.337  1.00  0.00     0.162 HD
BRANCH  32  35
HETATM   35  C13 UNL     1     -21.177 -73.090 -48.390  1.00  0.00     0.343 C 
BRANCH  35  36
HETATM   36  N5  UNL     1     -20.133 -73.506 -47.497  1.00  0.00    -0.059 N 
ATOM     37  H53 UNL     1     -20.318 -74.424 -47.091  1.00  0.00     0.275 HD
ATOM     38  H52 UNL     1     -19.273 -73.735 -47.993  1.00  0.00     0.275 HD
ATOM     39  H51 UNL     1     -19.987 -72.792 -46.783  1.00  0.00     0.275 HD
ENDBRANCH  35  36
BRANCH  35  40
HETATM   40  C14 UNL     1     -22.106 -74.206 -48.753  1.00  0.00     0.152 A 
HETATM   41  N6  UNL     1     -22.698 -75.073 -47.901  1.00  0.00    -0.176 N 
HETATM   42  C15 UNL     1     -23.446 -75.904 -48.650  1.00  0.00     0.692 A 
ATOM     43  H6  UNL     1     -22.596 -75.093 -46.886  1.00  0.00     0.185 HD
HETATM   44  N8  UNL     1     -23.326 -75.567 -49.942  1.00  0.00    -0.131 N 
HETATM   45  N9  UNL     1     -22.497 -74.519 -49.987  1.00  0.00    -0.272 N 
ATOM     46  H8  UNL     1     -23.779 -76.021 -50.735  1.00  0.00     0.205 HD
ATOM     47  H9  UNL     1     -22.209 -74.033 -50.837  1.00  0.00     0.189 HD
BRANCH  42  48
HETATM   48  N7  UNL     1     -24.150 -76.863 -48.143  1.00  0.00    -0.233 N 
ATOM     49  H72 UNL     1     -24.001 -77.349 -47.259  1.00  0.00     0.174 HD
ATOM     50  H71 UNL     1     -24.974 -77.250 -48.606  1.00  0.00     0.174 HD
ENDBRANCH  42  48
ENDBRANCH  35  40
ENDBRANCH  32  35
ENDBRANCH  30  31
ENDBRANCH  27  30
ENDBRANCH   1  27
TORSDOF 16
ENDMDL
MODEL 4
REMARK VINA RESULT: -8.032914704      5.007      6.783
REMARK  16 active torsions:
REMARK  status: ('A' for Active; 'I' for Inactive)
REMARK    1  A    between atoms: N3_9  and  C4_10 
REMARK    2  A    between atoms: C5_12  and  C6_13 
REMARK    3  A    between atoms: C6_13  and  O4_14 
REMARK    4  A    between atoms: C7_16  and  C8_17 
REMARK    5  A    between atoms: C8_17  and  O5_18 
REMARK    6  A    between atoms: C8_17  and  C9_20 
REMARK    7  A    between atoms: C9_20  and  O6_21 
REMARK    8  A    between atoms: C9_20  and  C10_23 
REMARK    9  A    between atoms: C10_23  and  O7_24 
REMARK   10  A    between atoms: C10_23  and  C11_26 
REMARK   11  A    between atoms: C11_26  and  N4_27 
REMARK       I    between atoms: N4_27  and  C12_29 
REMARK   12  A    between atoms: C12_29  and  C13_31 
REMARK   13  A    between atoms: C13_31  and  N5_32 
REMARK   14  A    between atoms: C13_31  and  C14_36 
REMARK   15  A    between atoms: C15_39  and  N7_40 
REMARK   16  A    between atoms: C16_48  and  O10_49 
ROOT
HETATM    1  C9  UNL     1     -15.879 -67.649 -52.553  1.00  0.00     0.179 C 
ENDROOT
BRANCH   1   2
HETATM    2  C8  UNL     1     -16.214 -66.518 -51.595  1.00  0.00     0.181 C 
BRANCH   2   3
HETATM    3  C7  UNL     1     -16.176 -65.183 -52.291  1.00  0.00     0.187 C 
HETATM    4  C5  UNL     1     -17.426 -64.407 -52.196  1.00  0.00     0.179 C 
HETATM    5  O3  UNL     1     -17.246 -63.184 -52.833  1.00  0.00    -0.350 OA
HETATM    6  C4  UNL     1     -16.112 -62.495 -52.485  1.00  0.00     0.304 C 
HETATM    7  C16 UNL     1     -14.852 -63.311 -52.511  1.00  0.00     0.308 C 
HETATM    8  O9  UNL     1     -15.093 -64.483 -51.778  1.00  0.00    -0.346 OA
BRANCH   4   9
HETATM    9  C6  UNL     1     -18.016 -64.207 -50.844  1.00  0.00     0.198 C 
BRANCH   9  10
HETATM   10  O4  UNL     1     -19.165 -63.391 -51.042  1.00  0.00    -0.398 OA
ATOM     11  H4  UNL     1     -19.897 -63.891 -50.703  1.00  0.00     0.209 HD
ENDBRANCH   9  10
ENDBRANCH   4   9
BRANCH   6  12
HETATM   12  N3  UNL     1     -16.040 -61.305 -53.289  1.00  0.00    -0.202 N 
HETATM   13  N1  UNL     1     -16.167 -60.089 -52.782  1.00  0.00    -0.238 N 
HETATM   14  C1  UNL     1     -16.395 -59.740 -51.371  1.00  0.00     0.183 C 
HETATM   15  C2  UNL     1     -16.053 -59.179 -53.776  1.00  0.00     0.345 A 
HETATM   16  O1  UNL     1     -16.126 -57.934 -53.630  1.00  0.00    -0.245 OA
HETATM   17  N2  UNL     1     -15.849 -59.817 -54.934  1.00  0.00    -0.258 N 
HETATM   18  C3  UNL     1     -15.846 -61.133 -54.603  1.00  0.00     0.347 A 
ATOM     19  H2  UNL     1     -15.725 -59.407 -55.859  1.00  0.00     0.175 HD
HETATM   20  O2  UNL     1     -15.681 -62.036 -55.427  1.00  0.00    -0.245 OA
ENDBRANCH   6  12
BRANCH   7  21
HETATM   21  O10 UNL     1     -13.883 -62.620 -51.786  1.00  0.00    -0.367 OA
ATOM     22  H10 UNL     1     -13.492 -61.977 -52.366  1.00  0.00     0.212 HD
ENDBRANCH   7  21
ENDBRANCH   2   3
BRANCH   2  23
HETATM   23  O5  UNL     1     -15.334 -66.629 -50.529  1.00  0.00    -0.390 OA
ATOM     24  H5  UNL     1     -14.823 -67.430 -50.527  1.00  0.00     0.210 HD
ENDBRANCH   2  23
ENDBRANCH   1   2
BRANCH   1  25
HETATM   25  O6  UNL     1     -15.865 -68.873 -51.846  1.00  0.00    -0.390 OA
ATOM     26  H6  UNL     1     -15.090 -68.911 -51.297  1.00  0.00     0.210 HD
ENDBRANCH   1  25
BRANCH   1  27
HETATM   27  C10 UNL     1     -16.905 -67.800 -53.635  1.00  0.00     0.167 C 
BRANCH  27  28
HETATM   28  O7  UNL     1     -16.367 -67.617 -54.909  1.00  0.00    -0.391 OA
ATOM     29  H7  UNL     1     -16.737 -66.863 -55.355  1.00  0.00     0.210 HD
ENDBRANCH  27  28
BRANCH  27  30
HETATM   30  C11 UNL     1     -17.636 -69.099 -53.589  1.00  0.00     0.157 C 
BRANCH  30  31
HETATM   31  N4  UNL     1     -18.690 -69.171 -52.623  1.00  0.00    -0.356 N 
HETATM   32  C12 UNL     1     -19.260 -70.371 -52.109  1.00  0.00     0.256 C 
HETATM   33  O8  UNL     1     -18.833 -71.461 -52.513  1.00  0.00    -0.271 OA
ATOM     34  H4  UNL     1     -19.064 -68.289 -52.274  1.00  0.00     0.162 HD
BRANCH  32  35
HETATM   35  C13 UNL     1     -20.349 -70.349 -51.104  1.00  0.00     0.343 C 
BRANCH  35  36
HETATM   36  N5  UNL     1     -20.696 -71.692 -50.738  1.00  0.00    -0.059 N 
ATOM     37  H53 UNL     1     -20.938 -71.771 -49.750  1.00  0.00     0.275 HD
ATOM     38  H52 UNL     1     -21.591 -71.979 -51.132  1.00  0.00     0.275 HD
ATOM     39  H51 UNL     1     -19.940 -72.326 -51.000  1.00  0.00     0.275 HD
ENDBRANCH  35  36
BRANCH  35  40
HETATM   40  C14 UNL     1     -21.514 -69.577 -51.640  1.00  0.00     0.152 A 
HETATM   41  N6  UNL     1     -22.037 -69.666 -52.883  1.00  0.00    -0.176 N 
HETATM   42  C15 UNL     1     -23.067 -68.801 -52.934  1.00  0.00     0.692 A 
ATOM     43  H6  UNL     1     -21.713 -70.272 -53.637  1.00  0.00     0.185 HD
HETATM   44  N8  UNL     1     -23.186 -68.183 -51.750  1.00  0.00    -0.131 N 
HETATM   45  N9  UNL     1     -22.221 -68.673 -50.965  1.00  0.00    -0.272 N 
ATOM     46  H8  UNL     1     -23.877 -67.476 -51.499  1.00  0.00     0.205 HD
ATOM     47  H9  UNL     1     -22.053 -68.396 -49.997  1.00  0.00     0.189 HD
BRANCH  42  48
HETATM   48  N7  UNL     1     -23.792 -68.634 -53.991  1.00  0.00    -0.233 N 
ATOM     49  H72 UNL     1     -24.437 -67.871 -54.194  1.00  0.00     0.174 HD
ATOM     50  H71 UNL     1     -23.788 -69.289 -54.774  1.00  0.00     0.174 HD
ENDBRANCH  42  48
ENDBRANCH  35  40
ENDBRANCH  32  35
ENDBRANCH  30  31
ENDBRANCH  27  30
ENDBRANCH   1  27
TORSDOF 16
ENDMDL
MODEL 5
REMARK VINA RESULT: -8.030065858      4.506      7.179
REMARK  16 active torsions:
REMARK  status: ('A' for Active; 'I' for Inactive)
REMARK    1  A    between atoms: N3_9  and  C4_10 
REMARK    2  A    between atoms: C5_12  and  C6_13 
REMARK    3  A    between atoms: C6_13  and  O4_14 
REMARK    4  A    between atoms: C7_16  and  C8_17 
REMARK    5  A    between atoms: C8_17  and  O5_18 
REMARK    6  A    between atoms: C8_17  and  C9_20 
REMARK    7  A    between atoms: C9_20  and  O6_21 
REMARK    8  A    between atoms: C9_20  and  C10_23 
REMARK    9  A    between atoms: C10_23  and  O7_24 
REMARK   10  A    between atoms: C10_23  and  C11_26 
REMARK   11  A    between atoms: C11_26  and  N4_27 
REMARK       I    between atoms: N4_27  and  C12_29 
REMARK   12  A    between atoms: C12_29  and  C13_31 
REMARK   13  A    between atoms: C13_31  and  N5_32 
REMARK   14  A    between atoms: C13_31  and  C14_36 
REMARK   15  A    between atoms: C15_39  and  N7_40 
REMARK   16  A    between atoms: C16_48  and  O10_49 
ROOT
HETATM    1  C9  UNL     1     -21.005 -69.613 -51.738  1.00  0.00     0.179 C 
ENDROOT
BRANCH   1   2
HETATM    2  C8  UNL     1     -20.047 -69.212 -52.848  1.00  0.00     0.181 C 
BRANCH   2   3
HETATM    3  C7  UNL     1     -18.869 -68.448 -52.303  1.00  0.00     0.187 C 
HETATM    4  C5  UNL     1     -17.640 -68.555 -53.111  1.00  0.00     0.179 C 
HETATM    5  O3  UNL     1     -16.649 -67.772 -52.530  1.00  0.00    -0.350 OA
HETATM    6  C4  UNL     1     -17.018 -66.489 -52.211  1.00  0.00     0.304 C 
HETATM    7  C16 UNL     1     -18.309 -66.381 -51.452  1.00  0.00     0.308 C 
HETATM    8  O9  UNL     1     -19.272 -67.129 -52.148  1.00  0.00    -0.346 OA
BRANCH   4   9
HETATM    9  C6  UNL     1     -17.743 -68.269 -54.567  1.00  0.00     0.198 C 
BRANCH   9  10
HETATM   10  O4  UNL     1     -16.409 -68.049 -55.012  1.00  0.00    -0.398 OA
ATOM     11  H4  UNL     1     -16.035 -68.912 -55.141  1.00  0.00     0.209 HD
ENDBRANCH   9  10
ENDBRANCH   4   9
BRANCH   6  12
HETATM   12  N3  UNL     1     -15.911 -65.851 -51.551  1.00  0.00    -0.202 N 
HETATM   13  N1  UNL     1     -15.394 -64.706 -51.966  1.00  0.00    -0.238 N 
HETATM   14  C1  UNL     1     -15.829 -63.908 -53.123  1.00  0.00     0.183 C 
HETATM   15  C2  UNL     1     -14.373 -64.357 -51.149  1.00  0.00     0.345 A 
HETATM   16  O1  UNL     1     -13.671 -63.323 -51.268  1.00  0.00    -0.245 OA
HETATM   17  N2  UNL     1     -14.235 -65.288 -50.200  1.00  0.00    -0.258 N 
HETATM   18  C3  UNL     1     -15.199 -66.202 -50.472  1.00  0.00     0.347 A 
ATOM     19  H2  UNL     1     -13.554 -65.307 -49.439  1.00  0.00     0.175 HD
HETATM   20  O2  UNL     1     -15.379 -67.218 -49.794  1.00  0.00    -0.245 OA
ENDBRANCH   6  12
BRANCH   7  21
HETATM   21  O10 UNL     1     -18.741 -65.059 -51.537  1.00  0.00    -0.367 OA
ATOM     22  H10 UNL     1     -18.402 -64.595 -50.781  1.00  0.00     0.212 HD
ENDBRANCH   7  21
ENDBRANCH   2   3
BRANCH   2  23
HETATM   23  O5  UNL     1     -20.794 -68.513 -53.783  1.00  0.00    -0.390 OA
ATOM     24  H5  UNL     1     -21.478 -67.970 -53.409  1.00  0.00     0.210 HD
ENDBRANCH   2  23
ENDBRANCH   1   2
BRANCH   1  25
HETATM   25  O6  UNL     1     -20.266 -69.961 -50.585  1.00  0.00    -0.390 OA
ATOM     26  H6  UNL     1     -20.788 -70.538 -50.039  1.00  0.00     0.210 HD
ENDBRANCH   1  25
BRANCH   1  27
HETATM   27  C10 UNL     1     -21.911 -68.490 -51.336  1.00  0.00     0.167 C 
BRANCH  27  28
HETATM   28  O7  UNL     1     -23.135 -68.526 -52.006  1.00  0.00    -0.391 OA
ATOM     29  H7  UNL     1     -23.523 -67.664 -52.099  1.00  0.00     0.210 HD
ENDBRANCH  27  28
BRANCH  27  30
HETATM   30  C11 UNL     1     -22.154 -68.414 -49.866  1.00  0.00     0.157 C 
BRANCH  30  31
HETATM   31  N4  UNL     1     -21.516 -67.319 -49.199  1.00  0.00    -0.356 N 
HETATM   32  C12 UNL     1     -20.351 -67.412 -48.385  1.00  0.00     0.256 C 
HETATM   33  O8  UNL     1     -19.822 -68.518 -48.216  1.00  0.00    -0.271 OA
ATOM     34  H4  UNL     1     -21.932 -66.395 -49.318  1.00  0.00     0.162 HD
BRANCH  32  35
HETATM   35  C13 UNL     1     -19.757 -66.220 -47.736  1.00  0.00     0.343 C 
BRANCH  35  36
HETATM   36  N5  UNL     1     -19.539 -65.194 -48.715  1.00  0.00    -0.059 N 
ATOM     37  H53 UNL     1     -18.812 -65.450 -49.384  1.00  0.00     0.275 HD
ATOM     38  H52 UNL     1     -20.318 -65.114 -49.367  1.00  0.00     0.275 HD
ATOM     39  H51 UNL     1     -19.337 -64.310 -48.248  1.00  0.00     0.275 HD
ENDBRANCH  35  36
BRANCH  35  40
HETATM   40  C14 UNL     1     -18.503 -66.609 -47.017  1.00  0.00     0.152 A 
HETATM   41  N6  UNL     1     -17.247 -66.588 -47.517  1.00  0.00    -0.176 N 
HETATM   42  C15 UNL     1     -16.430 -67.014 -46.535  1.00  0.00     0.692 A 
ATOM     43  H6  UNL     1     -16.972 -66.304 -48.457  1.00  0.00     0.185 HD
HETATM   44  N8  UNL     1     -17.158 -67.296 -45.445  1.00  0.00    -0.131 N 
HETATM   45  N9  UNL     1     -18.432 -67.042 -45.759  1.00  0.00    -0.272 N 
ATOM     46  H8  UNL     1     -16.807 -67.639 -44.551  1.00  0.00     0.205 HD
ATOM     47  H9  UNL     1     -19.228 -67.160 -45.132  1.00  0.00     0.189 HD
BRANCH  42  48
HETATM   48  N7  UNL     1     -15.150 -67.115 -46.682  1.00  0.00    -0.233 N 
ATOM     49  H72 UNL     1     -14.638 -67.450 -47.497  1.00  0.00     0.174 HD
ATOM     50  H71 UNL     1     -14.487 -66.851 -45.952  1.00  0.00     0.174 HD
ENDBRANCH  42  48
ENDBRANCH  35  40
ENDBRANCH  32  35
ENDBRANCH  30  31
ENDBRANCH  27  30
ENDBRANCH   1  27
TORSDOF 16
ENDMDL
