MODEL 1
REMARK VINA RESULT: -5.720394130      0.000      0.000
REMARK  6 active torsions:
REMARK  status: ('A' for Active; 'I' for Inactive)
REMARK    1  A    between atoms: S1_2  and  C2_3 
REMARK    2  A    between atoms: C3_6  and  N2_7 
REMARK    3  A    between atoms: C5_13  and  N4_14 
REMARK    4  A    between atoms: N6_22  and  C10_23 
REMARK    5  A    between atoms: C10_23  and  C11_24 
REMARK    6  A    between atoms: C11_24  and  C12_25 
ROOT
HETATM    1  C2  UNL     1     -41.813  12.006  -1.097  1.00  0.00     0.147 A 
HETATM    2  N1  UNL     1     -42.419  12.680  -0.082  1.00  0.00    -0.321 N 
ATOM      3  H1  UNL     1     -43.201  13.306  -0.278  1.00  0.00     0.169 HD
HETATM    4  C3  UNL     1     -41.984  12.519   1.178  1.00  0.00     0.132 A 
HETATM    5  C4  UNL     1     -40.926  11.664   1.393  1.00  0.00     0.137 A 
HETATM    6  N3  UNL     1     -40.305  11.325   2.513  1.00  0.00    -0.184 N 
ATOM      7  H3  UNL     1     -40.541  11.674   3.441  1.00  0.00     0.184 HD
HETATM    8  C5  UNL     1     -39.294  10.430   2.238  1.00  0.00     0.684 A 
HETATM    9  N6  UNL     1     -39.335  10.250   0.919  1.00  0.00    -0.165 N 
HETATM   10  C13 UNL     1     -40.334  10.998   0.353  1.00  0.00     0.157 A 
HETATM   11  N8  UNL     1     -40.784  11.172  -0.900  1.00  0.00    -0.320 N 
ATOM     12  H8  UNL     1     -40.352  10.681  -1.684  1.00  0.00     0.169 HD
ENDROOT
BRANCH   8  13
HETATM   13  N4  UNL     1     -38.496   9.930   3.281  1.00  0.00    -0.214 N 
HETATM   14  C6  UNL     1     -38.880   9.569   4.616  1.00  0.00     0.168 C 
HETATM   15  C7  UNL     1     -37.627   9.256   5.466  1.00  0.00     0.252 C 
HETATM   16  N5  UNL     1     -36.637  10.278   5.361  1.00  0.00    -0.072 N 
HETATM   17  C8  UNL     1     -36.256  10.575   4.000  1.00  0.00     0.252 C 
ATOM     18  H52 UNL     1     -36.939  11.124   5.844  1.00  0.00     0.277 HD
ATOM     19  H51 UNL     1     -35.818  10.045   5.922  1.00  0.00     0.277 HD
HETATM   20  C9  UNL     1     -37.046   9.710   3.075  1.00  0.00     0.168 C 
ENDBRANCH   8  13
BRANCH   9  21
HETATM   21  C10 UNL     1     -38.497   9.410   0.147  1.00  0.00     0.158 C 
BRANCH  21  22
HETATM   22  C11 UNL     1     -37.353  10.138  -0.533  1.00  0.00     0.120 C 
BRANCH  22  23
HETATM   23  C12 UNL     1     -37.419   9.981  -2.007  1.00  0.00     0.232 C 
HETATM   24  N7  UNL     1     -38.588   9.572  -2.695  1.00  0.00    -0.062 NA
HETATM   25  O1  UNL     1     -36.394  10.223  -2.689  1.00  0.00    -0.277 OA
ENDBRANCH  22  23
ENDBRANCH  21  22
ENDBRANCH   9  21
BRANCH   4  26
HETATM   26  N2  UNL     1     -42.560  13.159   2.135  1.00  0.00    -0.383 N 
ATOM     27  H22 UNL     1     -42.727  14.165   2.097  1.00  0.00     0.157 HD
ATOM     28  H21 UNL     1     -42.864  12.652   2.967  1.00  0.00     0.157 HD
ENDBRANCH   4  26
BRANCH   1  29
HETATM   29  S1  UNL     1     -42.420  12.248  -2.751  1.00  0.00    -0.098 SA
HETATM   30  C1  UNL     1     -43.371  13.783  -2.877  1.00  0.00     0.099 C 
ENDBRANCH   1  29
TORSDOF 6
ENDMDL
MODEL 2
REMARK VINA RESULT: -5.684058726      3.510      6.857
REMARK  6 active torsions:
REMARK  status: ('A' for Active; 'I' for Inactive)
REMARK    1  A    between atoms: S1_2  and  C2_3 
REMARK    2  A    between atoms: C3_6  and  N2_7 
REMARK    3  A    between atoms: C5_13  and  N4_14 
REMARK    4  A    between atoms: N6_22  and  C10_23 
REMARK    5  A    between atoms: C10_23  and  C11_24 
REMARK    6  A    between atoms: C11_24  and  C12_25 
ROOT
HETATM    1  C2  UNL     1     -39.290   9.326   6.706  1.00  0.00     0.147 A 
HETATM    2  N1  UNL     1     -38.000   9.080   6.346  1.00  0.00    -0.321 N 
ATOM      3  H1  UNL     1     -37.317   8.798   7.050  1.00  0.00     0.169 HD
HETATM    4  C3  UNL     1     -37.631   9.210   5.062  1.00  0.00     0.132 A 
HETATM    5  C4  UNL     1     -38.588   9.592   4.149  1.00  0.00     0.137 A 
HETATM    6  N3  UNL     1     -38.503   9.794   2.843  1.00  0.00    -0.184 N 
ATOM      7  H3  UNL     1     -37.654   9.686   2.289  1.00  0.00     0.184 HD
HETATM    8  C5  UNL     1     -39.731  10.171   2.343  1.00  0.00     0.684 A 
HETATM    9  N6  UNL     1     -40.546  10.186   3.395  1.00  0.00    -0.165 N 
HETATM   10  C13 UNL     1     -39.879   9.834   4.539  1.00  0.00     0.157 A 
HETATM   11  N8  UNL     1     -40.229   9.698   5.828  1.00  0.00    -0.320 N 
ATOM     12  H8  UNL     1     -41.187   9.875   6.131  1.00  0.00     0.169 HD
ENDROOT
BRANCH   8  13
HETATM   13  N4  UNL     1     -39.878  10.440   0.971  1.00  0.00    -0.214 N 
HETATM   14  C6  UNL     1     -40.891   9.978   0.066  1.00  0.00     0.168 C 
HETATM   15  C7  UNL     1     -40.533  10.374  -1.384  1.00  0.00     0.252 C 
HETATM   16  N5  UNL     1     -39.191  10.021  -1.722  1.00  0.00    -0.072 N 
HETATM   17  C8  UNL     1     -38.208  10.544  -0.804  1.00  0.00     0.252 C 
ATOM     18  H52 UNL     1     -39.097   9.009  -1.814  1.00  0.00     0.277 HD
ATOM     19  H51 UNL     1     -38.976  10.299  -2.679  1.00  0.00     0.277 HD
HETATM   20  C9  UNL     1     -38.906  11.310   0.271  1.00  0.00     0.168 C 
ENDBRANCH   8  13
BRANCH   9  21
HETATM   21  C10 UNL     1     -41.926  10.507   3.399  1.00  0.00     0.158 C 
BRANCH  21  22
HETATM   22  C11 UNL     1     -42.214  11.985   3.573  1.00  0.00     0.120 C 
BRANCH  22  23
HETATM   23  C12 UNL     1     -42.403  12.653   2.262  1.00  0.00     0.232 C 
HETATM   24  N7  UNL     1     -41.629  13.759   1.833  1.00  0.00    -0.062 NA
HETATM   25  O1  UNL     1     -43.290  12.224   1.484  1.00  0.00    -0.277 OA
ENDBRANCH  22  23
ENDBRANCH  21  22
ENDBRANCH   9  21
BRANCH   4  26
HETATM   26  N2  UNL     1     -36.411   8.977   4.725  1.00  0.00    -0.383 N 
ATOM     27  H22 UNL     1     -35.620   9.267   5.301  1.00  0.00     0.157 HD
ATOM     28  H21 UNL     1     -36.215   8.485   3.853  1.00  0.00     0.157 HD
ENDBRANCH   4  26
BRANCH   1  29
HETATM   29  S1  UNL     1     -39.737   9.142   8.418  1.00  0.00    -0.098 SA
HETATM   30  C1  UNL     1     -41.307   8.259   8.589  1.00  0.00     0.099 C 
ENDBRANCH   1  29
TORSDOF 6
ENDMDL
MODEL 3
REMARK VINA RESULT: -5.644657948      3.236      6.877
REMARK  6 active torsions:
REMARK  status: ('A' for Active; 'I' for Inactive)
REMARK    1  A    between atoms: S1_2  and  C2_3 
REMARK    2  A    between atoms: C3_6  and  N2_7 
REMARK    3  A    between atoms: C5_13  and  N4_14 
REMARK    4  A    between atoms: N6_22  and  C10_23 
REMARK    5  A    between atoms: C10_23  and  C11_24 
REMARK    6  A    between atoms: C11_24  and  C12_25 
ROOT
HETATM    1  C2  UNL     1     -37.419  10.449   3.124  1.00  0.00     0.147 A 
HETATM    2  N1  UNL     1     -36.558  10.753   2.115  1.00  0.00    -0.321 N 
ATOM      3  H1  UNL     1     -35.556  10.815   2.297  1.00  0.00     0.169 HD
HETATM    4  C3  UNL     1     -37.033  10.972   0.878  1.00  0.00     0.132 A 
HETATM    5  C4  UNL     1     -38.392  10.877   0.681  1.00  0.00     0.137 A 
HETATM    6  N3  UNL     1     -39.118  11.041  -0.415  1.00  0.00    -0.184 N 
ATOM      7  H3  UNL     1     -38.745  11.277  -1.334  1.00  0.00     0.184 HD
HETATM    8  C5  UNL     1     -40.452  10.845  -0.130  1.00  0.00     0.684 A 
HETATM    9  N6  UNL     1     -40.493  10.560   1.170  1.00  0.00    -0.165 N 
HETATM   10  C13 UNL     1     -39.236  10.569   1.714  1.00  0.00     0.157 A 
HETATM   11  N8  UNL     1     -38.742  10.354   2.944  1.00  0.00    -0.320 N 
ATOM     12  H8  UNL     1     -39.360  10.124   3.723  1.00  0.00     0.169 HD
ENDROOT
BRANCH   8  13
HETATM   13  N4  UNL     1     -41.413  10.969  -1.148  1.00  0.00    -0.214 N 
HETATM   14  C6  UNL     1     -42.034  12.157  -1.660  1.00  0.00     0.168 C 
HETATM   15  C7  UNL     1     -43.171  11.786  -2.639  1.00  0.00     0.252 C 
HETATM   16  N5  UNL     1     -44.058  10.812  -2.089  1.00  0.00    -0.072 N 
HETATM   17  C8  UNL     1     -43.389   9.620  -1.625  1.00  0.00     0.252 C 
ATOM     18  H52 UNL     1     -44.625  11.220  -1.346  1.00  0.00     0.277 HD
ATOM     19  H51 UNL     1     -44.793  10.577  -2.755  1.00  0.00     0.277 HD
HETATM   20  C9  UNL     1     -41.920   9.768  -1.850  1.00  0.00     0.168 C 
ENDBRANCH   8  13
BRANCH   9  21
HETATM   21  C10 UNL     1     -41.644  10.270   1.942  1.00  0.00     0.158 C 
BRANCH  21  22
HETATM   22  C11 UNL     1     -42.662  11.394   1.976  1.00  0.00     0.120 C 
BRANCH  22  23
HETATM   23  C12 UNL     1     -42.134  12.573   2.707  1.00  0.00     0.232 C 
HETATM   24  N7  UNL     1     -41.693  13.754   2.062  1.00  0.00    -0.062 NA
HETATM   25  O1  UNL     1     -42.074  12.533   3.959  1.00  0.00    -0.277 OA
ENDBRANCH  22  23
ENDBRANCH  21  22
ENDBRANCH   9  21
BRANCH   4  26
HETATM   26  N2  UNL     1     -36.216  11.260  -0.074  1.00  0.00    -0.383 N 
ATOM     27  H22 UNL     1     -36.507  11.766  -0.911  1.00  0.00     0.157 HD
ATOM     28  H21 UNL     1     -35.238  10.978  -0.000  1.00  0.00     0.157 HD
ENDBRANCH   4  26
BRANCH   1  29
HETATM   29  S1  UNL     1     -36.748  10.166   4.747  1.00  0.00    -0.098 SA
HETATM   30  C1  UNL     1     -37.946   9.319   5.807  1.00  0.00     0.099 C 
ENDBRANCH   1  29
TORSDOF 6
ENDMDL
MODEL 4
REMARK VINA RESULT: -5.581781031      3.257      6.945
REMARK  6 active torsions:
REMARK  status: ('A' for Active; 'I' for Inactive)
REMARK    1  A    between atoms: S1_2  and  C2_3 
REMARK    2  A    between atoms: C3_6  and  N2_7 
REMARK    3  A    between atoms: C5_13  and  N4_14 
REMARK    4  A    between atoms: N6_22  and  C10_23 
REMARK    5  A    between atoms: C10_23  and  C11_24 
REMARK    6  A    between atoms: C11_24  and  C12_25 
ROOT
HETATM    1  C2  UNL     1     -37.386  10.452   3.088  1.00  0.00     0.147 A 
HETATM    2  N1  UNL     1     -36.547  10.805   2.076  1.00  0.00    -0.321 N 
ATOM      3  H1  UNL     1     -35.557  10.963   2.263  1.00  0.00     0.169 HD
HETATM    4  C3  UNL     1     -37.028  10.944   0.830  1.00  0.00     0.132 A 
HETATM    5  C4  UNL     1     -38.372  10.720   0.626  1.00  0.00     0.137 A 
HETATM    6  N3  UNL     1     -39.099  10.785  -0.479  1.00  0.00    -0.184 N 
ATOM      7  H3  UNL     1     -38.740  11.028  -1.402  1.00  0.00     0.184 HD
HETATM    8  C5  UNL     1     -40.412  10.475  -0.197  1.00  0.00     0.684 A 
HETATM    9  N6  UNL     1     -40.439  10.225   1.110  1.00  0.00    -0.165 N 
HETATM   10  C13 UNL     1     -39.193  10.365   1.663  1.00  0.00     0.157 A 
HETATM   11  N8  UNL     1     -38.694  10.231   2.902  1.00  0.00    -0.320 N 
ATOM     12  H8  UNL     1     -39.295   9.966   3.682  1.00  0.00     0.169 HD
ENDROOT
BRANCH   8  13
HETATM   13  N4  UNL     1     -41.371  10.482  -1.224  1.00  0.00    -0.214 N 
HETATM   14  C6  UNL     1     -41.517   9.575  -2.327  1.00  0.00     0.168 C 
HETATM   15  C7  UNL     1     -42.594  10.094  -3.307  1.00  0.00     0.252 C 
HETATM   16  N5  UNL     1     -42.390  11.463  -3.654  1.00  0.00    -0.072 N 
HETATM   17  C8  UNL     1     -42.291  12.340  -2.511  1.00  0.00     0.252 C 
ATOM     18  H52 UNL     1     -41.575  11.564  -4.258  1.00  0.00     0.277 HD
ATOM     19  H51 UNL     1     -43.117  11.785  -4.293  1.00  0.00     0.277 HD
HETATM   20  C9  UNL     1     -42.418  11.528  -1.264  1.00  0.00     0.168 C 
ENDBRANCH   8  13
BRANCH   9  21
HETATM   21  C10 UNL     1     -41.566   9.853   1.883  1.00  0.00     0.158 C 
BRANCH  21  22
HETATM   22  C11 UNL     1     -42.435  11.021   2.308  1.00  0.00     0.120 C 
BRANCH  22  23
HETATM   23  C12 UNL     1     -42.017  11.547   3.631  1.00  0.00     0.232 C 
HETATM   24  N7  UNL     1     -42.323  12.854   4.081  1.00  0.00    -0.062 NA
HETATM   25  O1  UNL     1     -41.360  10.803   4.399  1.00  0.00    -0.277 OA
ENDBRANCH  22  23
ENDBRANCH  21  22
ENDBRANCH   9  21
BRANCH   4  26
HETATM   26  N2  UNL     1     -36.232  11.278  -0.124  1.00  0.00    -0.383 N 
ATOM     27  H22 UNL     1     -35.862  12.225  -0.222  1.00  0.00     0.157 HD
ATOM     28  H21 UNL     1     -35.954  10.581  -0.815  1.00  0.00     0.157 HD
ENDBRANCH   4  26
BRANCH   1  29
HETATM   29  S1  UNL     1     -36.708  10.277   4.723  1.00  0.00    -0.098 SA
HETATM   30  C1  UNL     1     -37.854   9.398   5.812  1.00  0.00     0.099 C 
ENDBRANCH   1  29
TORSDOF 6
ENDMDL
MODEL 5
REMARK VINA RESULT: -5.542341698      3.323      4.411
REMARK  6 active torsions:
REMARK  status: ('A' for Active; 'I' for Inactive)
REMARK    1  A    between atoms: S1_2  and  C2_3 
REMARK    2  A    between atoms: C3_6  and  N2_7 
REMARK    3  A    between atoms: C5_13  and  N4_14 
REMARK    4  A    between atoms: N6_22  and  C10_23 
REMARK    5  A    between atoms: C10_23  and  C11_24 
REMARK    6  A    between atoms: C11_24  and  C12_25 
ROOT
HETATM    1  C2  UNL     1     -42.042  13.030   3.031  1.00  0.00     0.147 A 
HETATM    2  N1  UNL     1     -42.750  11.990   3.549  1.00  0.00    -0.321 N 
ATOM      3  H1  UNL     1     -43.457  12.157   4.266  1.00  0.00     0.169 HD
HETATM    4  C3  UNL     1     -42.514  10.742   3.114  1.00  0.00     0.132 A 
HETATM    5  C4  UNL     1     -41.551  10.566   2.146  1.00  0.00     0.137 A 
HETATM    6  N3  UNL     1     -41.121   9.465   1.547  1.00  0.00    -0.184 N 
ATOM      7  H3  UNL     1     -41.469   8.525   1.732  1.00  0.00     0.184 HD
HETATM    8  C5  UNL     1     -40.135   9.778   0.637  1.00  0.00     0.684 A 
HETATM    9  N6  UNL     1     -39.993  11.100   0.716  1.00  0.00    -0.165 N 
HETATM   10  C13 UNL     1     -40.853  11.631   1.642  1.00  0.00     0.157 A 
HETATM   11  N8  UNL     1     -41.103  12.872   2.090  1.00  0.00    -0.320 N 
ATOM     12  H8  UNL     1     -40.591  13.673   1.722  1.00  0.00     0.169 HD
ENDROOT
BRANCH   8  13
HETATM   13  N4  UNL     1     -39.528   8.761  -0.119  1.00  0.00    -0.214 N 
HETATM   14  C6  UNL     1     -39.573   8.544  -1.537  1.00  0.00     0.168 C 
HETATM   15  C7  UNL     1     -38.918   7.189  -1.891  1.00  0.00     0.252 C 
HETATM   16  N5  UNL     1     -39.420   6.123  -1.085  1.00  0.00    -0.072 N 
HETATM   17  C8  UNL     1     -39.316   6.373   0.333  1.00  0.00     0.252 C 
ATOM     18  H52 UNL     1     -40.381   5.898  -1.343  1.00  0.00     0.277 HD
ATOM     19  H51 UNL     1     -38.968   5.242  -1.331  1.00  0.00     0.277 HD
HETATM   20  C9  UNL     1     -38.710   7.721   0.545  1.00  0.00     0.168 C 
ENDBRANCH   8  13
BRANCH   9  21
HETATM   21  C10 UNL     1     -39.101  11.907  -0.030  1.00  0.00     0.158 C 
BRANCH  21  22
HETATM   22  C11 UNL     1     -37.772  12.155   0.657  1.00  0.00     0.120 C 
BRANCH  22  23
HETATM   23  C12 UNL     1     -36.803  11.071   0.357  1.00  0.00     0.232 C 
HETATM   24  N7  UNL     1     -36.467  10.670  -0.959  1.00  0.00    -0.062 NA
HETATM   25  O1  UNL     1     -36.246  10.475   1.311  1.00  0.00    -0.277 OA
ENDBRANCH  22  23
ENDBRANCH  21  22
ENDBRANCH   9  21
BRANCH   4  26
HETATM   26  N2  UNL     1     -43.185   9.760   3.607  1.00  0.00    -0.383 N 
ATOM     27  H22 UNL     1     -43.712   9.110   3.023  1.00  0.00     0.157 HD
ATOM     28  H21 UNL     1     -43.197   9.616   4.617  1.00  0.00     0.157 HD
ENDBRANCH   4  26
BRANCH   1  29
HETATM   29  S1  UNL     1     -42.386  14.668   3.636  1.00  0.00    -0.098 SA
HETATM   30  C1  UNL     1     -44.154  15.038   3.540  1.00  0.00     0.099 C 
ENDBRANCH   1  29
TORSDOF 6
ENDMDL
