MODEL 1
REMARK VINA RESULT: -6.620495106      0.000      0.000
REMARK  8 active torsions:
REMARK  status: ('A' for Active; 'I' for Inactive)
REMARK    1  A    between atoms: C4_5  and  C5_6 
REMARK    2  A    between atoms: C5_6  and  C6_7 
REMARK    3  A    between atoms: C5_6  and  N2_10 
REMARK    4  A    between atoms: C6_7  and  O1_8 
REMARK    5  A    between atoms: N2_10  and  C7_12 
REMARK    6  A    between atoms: C9_14  and  N3_15 
REMARK    7  A    between atoms: C12_20  and  N5_21 
REMARK    8  A    between atoms: C15_28  and  N8_29 
ROOT
HETATM    1  N1  UNL     1     -36.469  10.148  -2.185  1.00  0.00    -0.190 NA
HETATM    2  C1  UNL     1     -37.118  10.348  -1.236  1.00  0.00     0.118 C 
HETATM    3  C2  UNL     1     -37.935  10.603  -0.083  1.00  0.00     0.131 A 
HETATM    4  C3  UNL     1     -37.607  10.071   1.148  1.00  0.00     0.069 A 
HETATM    5  C4  UNL     1     -38.402  10.319   2.270  1.00  0.00     0.054 A 
HETATM    6  N7  UNL     1     -39.482  11.092   2.070  1.00  0.00    -0.194 N 
ATOM      7  H7  UNL     1     -40.081  11.290   2.872  1.00  0.00     0.184 HD
HETATM    8  C15 UNL     1     -39.824  11.621   0.889  1.00  0.00     0.677 A 
HETATM    9  N9  UNL     1     -39.036  11.367  -0.192  1.00  0.00    -0.182 N 
ATOM     10  H9  UNL     1     -39.283  11.765  -1.098  1.00  0.00     0.185 HD
ENDROOT
BRANCH   5  11
HETATM   11  C5  UNL     1     -38.041   9.741   3.590  1.00  0.00     0.157 C 
BRANCH  11  12
HETATM   12  C6  UNL     1     -36.535   9.657   3.643  1.00  0.00     0.195 C 
BRANCH  12  13
HETATM   13  O1  UNL     1     -36.078   8.755   4.585  1.00  0.00    -0.398 OA
ATOM     14  H1  UNL     1     -35.165   8.523   4.464  1.00  0.00     0.209 HD
ENDBRANCH  12  13
ENDBRANCH  11  12
BRANCH  11  15
HETATM   15  N2  UNL     1     -38.607  10.464   4.682  1.00  0.00    -0.364 N 
ATOM     16  H2  UNL     1     -38.417  11.458   4.813  1.00  0.00     0.162 HD
BRANCH  15  17
HETATM   17  C7  UNL     1     -39.381   9.808   5.510  1.00  0.00     0.121 A 
HETATM   18  C8  UNL     1     -40.561   9.249   5.070  1.00  0.00     0.097 A 
HETATM   19  C9  UNL     1     -41.361   8.563   5.956  1.00  0.00     0.122 A 
HETATM   20  N4  UNL     1     -40.949   8.463   7.241  1.00  0.00    -0.177 N 
HETATM   21  C12 UNL     1     -39.805   8.998   7.691  1.00  0.00     0.683 A 
ATOM     22  H4  UNL     1     -41.539   7.955   7.900  1.00  0.00     0.186 HD
HETATM   23  N6  UNL     1     -39.051   9.660   6.803  1.00  0.00    -0.177 N 
ATOM     24  H6  UNL     1     -38.177  10.074   7.128  1.00  0.00     0.185 HD
BRANCH  19  25
HETATM   25  N3  UNL     1     -42.590   7.969   5.549  1.00  0.00    -0.364 N 
HETATM   26  C10 UNL     1     -43.994   7.925   5.249  1.00  0.00     0.144 A 
HETATM   27  C11 UNL     1     -43.236   6.730   5.095  1.00  0.00     0.144 A 
ENDBRANCH  19  25
BRANCH  21  28
HETATM   28  N5  UNL     1     -39.395   8.878   9.048  1.00  0.00    -0.214 N 
HETATM   29  C13 UNL     1     -39.258   9.632  10.318  1.00  0.00     0.161 A 
HETATM   30  C14 UNL     1     -38.884   8.231  10.224  1.00  0.00     0.161 A 
ENDBRANCH  21  28
ENDBRANCH  15  17
ENDBRANCH  11  15
ENDBRANCH   5  11
BRANCH   8  31
HETATM   31  N8  UNL     1     -40.889  12.367   0.758  1.00  0.00    -0.234 N 
ATOM     32  H82 UNL     1     -41.098  13.082   1.454  1.00  0.00     0.174 HD
ATOM     33  H81 UNL     1     -41.525  12.252  -0.031  1.00  0.00     0.174 HD
ENDBRANCH   8  31
TORSDOF 8
ENDMDL
MODEL 2
REMARK VINA RESULT: -6.530349368      0.541      3.308
REMARK  8 active torsions:
REMARK  status: ('A' for Active; 'I' for Inactive)
REMARK    1  A    between atoms: C4_5  and  C5_6 
REMARK    2  A    between atoms: C5_6  and  C6_7 
REMARK    3  A    between atoms: C5_6  and  N2_10 
REMARK    4  A    between atoms: C6_7  and  O1_8 
REMARK    5  A    between atoms: N2_10  and  C7_12 
REMARK    6  A    between atoms: C9_14  and  N3_15 
REMARK    7  A    between atoms: C12_20  and  N5_21 
REMARK    8  A    between atoms: C15_28  and  N8_29 
ROOT
HETATM    1  N1  UNL     1     -36.436  10.206  -2.219  1.00  0.00    -0.190 NA
HETATM    2  C1  UNL     1     -37.084  10.385  -1.265  1.00  0.00     0.118 C 
HETATM    3  C2  UNL     1     -37.900  10.614  -0.107  1.00  0.00     0.131 A 
HETATM    4  C3  UNL     1     -37.559  10.073   1.117  1.00  0.00     0.069 A 
HETATM    5  C4  UNL     1     -38.353  10.296   2.245  1.00  0.00     0.054 A 
HETATM    6  N7  UNL     1     -39.446  11.054   2.058  1.00  0.00    -0.194 N 
ATOM      7  H7  UNL     1     -40.045  11.233   2.864  1.00  0.00     0.184 HD
HETATM    8  C15 UNL     1     -39.802  11.589   0.884  1.00  0.00     0.677 A 
HETATM    9  N9  UNL     1     -39.014  11.361  -0.202  1.00  0.00    -0.182 N 
ATOM     10  H9  UNL     1     -39.272  11.764  -1.103  1.00  0.00     0.185 HD
ENDROOT
BRANCH   5  11
HETATM   11  C5  UNL     1     -37.978   9.710   3.558  1.00  0.00     0.157 C 
BRANCH  11  12
HETATM   12  C6  UNL     1     -36.473   9.596   3.580  1.00  0.00     0.195 C 
BRANCH  12  13
HETATM   13  O1  UNL     1     -36.012   8.723   4.548  1.00  0.00    -0.398 OA
ATOM     14  H1  UNL     1     -35.080   8.555   4.482  1.00  0.00     0.209 HD
ENDBRANCH  12  13
ENDBRANCH  11  12
BRANCH  11  15
HETATM   15  N2  UNL     1     -38.507  10.443   4.661  1.00  0.00    -0.364 N 
ATOM     16  H2  UNL     1     -38.284  11.429   4.796  1.00  0.00     0.162 HD
BRANCH  15  17
HETATM   17  C7  UNL     1     -39.290   9.806   5.495  1.00  0.00     0.121 A 
HETATM   18  C8  UNL     1     -38.950   9.695   6.826  1.00  0.00     0.097 A 
HETATM   19  C9  UNL     1     -39.787   9.021   7.688  1.00  0.00     0.122 A 
HETATM   20  N4  UNL     1     -40.925   8.488   7.185  1.00  0.00    -0.177 N 
HETATM   21  C12 UNL     1     -41.276   8.584   5.894  1.00  0.00     0.683 A 
ATOM     22  H4  UNL     1     -41.547   7.989   7.820  1.00  0.00     0.186 HD
HETATM   23  N6  UNL     1     -40.439   9.246   5.083  1.00  0.00    -0.177 N 
ATOM     24  H6  UNL     1     -40.689   9.329   4.098  1.00  0.00     0.185 HD
BRANCH  19  25
HETATM   25  N3  UNL     1     -39.479   8.879   9.071  1.00  0.00    -0.364 N 
HETATM   26  C10 UNL     1     -39.057   8.194  10.261  1.00  0.00     0.144 A 
HETATM   27  C11 UNL     1     -39.422   9.566  10.368  1.00  0.00     0.144 A 
ENDBRANCH  19  25
BRANCH  21  28
HETATM   28  N5  UNL     1     -42.478   8.015   5.392  1.00  0.00    -0.214 N 
HETATM   29  C13 UNL     1     -43.053   6.780   4.806  1.00  0.00     0.161 A 
HETATM   30  C14 UNL     1     -43.866   7.963   5.027  1.00  0.00     0.161 A 
ENDBRANCH  21  28
ENDBRANCH  15  17
ENDBRANCH  11  15
ENDBRANCH   5  11
BRANCH   8  31
HETATM   31  N8  UNL     1     -40.879  12.320   0.765  1.00  0.00    -0.234 N 
ATOM     32  H82 UNL     1     -40.799  13.319   0.578  1.00  0.00     0.174 HD
ATOM     33  H81 UNL     1     -41.810  11.913   0.857  1.00  0.00     0.174 HD
ENDBRANCH   8  31
TORSDOF 8
ENDMDL
MODEL 3
REMARK VINA RESULT: -6.300333979      1.106      2.083
REMARK  8 active torsions:
REMARK  status: ('A' for Active; 'I' for Inactive)
REMARK    1  A    between atoms: C4_5  and  C5_6 
REMARK    2  A    between atoms: C5_6  and  C6_7 
REMARK    3  A    between atoms: C5_6  and  N2_10 
REMARK    4  A    between atoms: C6_7  and  O1_8 
REMARK    5  A    between atoms: N2_10  and  C7_12 
REMARK    6  A    between atoms: C9_14  and  N3_15 
REMARK    7  A    between atoms: C12_20  and  N5_21 
REMARK    8  A    between atoms: C15_28  and  N8_29 
ROOT
HETATM    1  N1  UNL     1     -42.060  10.791  -0.326  1.00  0.00    -0.190 NA
HETATM    2  C1  UNL     1     -41.016  10.719   0.192  1.00  0.00     0.118 C 
HETATM    3  C2  UNL     1     -39.723  10.642   0.810  1.00  0.00     0.131 A 
HETATM    4  C3  UNL     1     -39.590  10.263   2.130  1.00  0.00     0.069 A 
HETATM    5  C4  UNL     1     -38.332  10.188   2.732  1.00  0.00     0.054 A 
HETATM    6  N7  UNL     1     -37.284  10.506   1.952  1.00  0.00    -0.194 N 
ATOM      7  H7  UNL     1     -36.352  10.461   2.365  1.00  0.00     0.184 HD
HETATM    8  C15 UNL     1     -37.383  10.879   0.670  1.00  0.00     0.677 A 
HETATM    9  N9  UNL     1     -38.619  10.943   0.104  1.00  0.00    -0.182 N 
ATOM     10  H9  UNL     1     -38.709  11.224  -0.873  1.00  0.00     0.185 HD
ENDROOT
BRANCH   5  11
HETATM   11  C5  UNL     1     -38.199   9.778   4.154  1.00  0.00     0.157 C 
BRANCH  11  12
HETATM   12  C6  UNL     1     -36.765  10.021   4.555  1.00  0.00     0.195 C 
BRANCH  12  13
HETATM   13  O1  UNL     1     -35.950   8.926   4.333  1.00  0.00    -0.398 OA
ATOM     14  H1  UNL     1     -35.026   9.127   4.423  1.00  0.00     0.209 HD
ENDBRANCH  12  13
ENDBRANCH  11  12
BRANCH  11  15
HETATM   15  N2  UNL     1     -39.143  10.425   5.005  1.00  0.00    -0.364 N 
ATOM     16  H2  UNL     1     -39.339  11.422   4.916  1.00  0.00     0.162 HD
BRANCH  15  17
HETATM   17  C7  UNL     1     -39.751   9.694   5.906  1.00  0.00     0.121 A 
HETATM   18  C8  UNL     1     -40.853   8.939   5.565  1.00  0.00     0.097 A 
HETATM   19  C9  UNL     1     -41.478   8.177   6.526  1.00  0.00     0.122 A 
HETATM   20  N4  UNL     1     -40.978   8.200   7.784  1.00  0.00    -0.177 N 
HETATM   21  C12 UNL     1     -39.907   8.926   8.137  1.00  0.00     0.683 A 
ATOM     22  H4  UNL     1     -41.438   7.636   8.498  1.00  0.00     0.186 HD
HETATM   23  N6  UNL     1     -39.323   9.657   7.178  1.00  0.00    -0.177 N 
ATOM     24  H6  UNL     1     -38.508  10.216   7.428  1.00  0.00     0.185 HD
BRANCH  19  25
HETATM   25  N3  UNL     1     -42.620   7.381   6.224  1.00  0.00    -0.364 N 
HETATM   26  C10 UNL     1     -44.005   7.119   5.945  1.00  0.00     0.144 A 
HETATM   27  C11 UNL     1     -43.104   6.017   5.968  1.00  0.00     0.144 A 
ENDBRANCH  19  25
BRANCH  21  28
HETATM   28  N5  UNL     1     -39.401   8.932   9.466  1.00  0.00    -0.214 N 
HETATM   29  C13 UNL     1     -38.948   8.047  10.567  1.00  0.00     0.161 A 
HETATM   30  C14 UNL     1     -38.951   9.493  10.708  1.00  0.00     0.161 A 
ENDBRANCH  21  28
ENDBRANCH  15  17
ENDBRANCH  11  15
ENDBRANCH   5  11
BRANCH   8  31
HETATM   31  N8  UNL     1     -36.325  11.176  -0.037  1.00  0.00    -0.234 N 
ATOM     32  H82 UNL     1     -35.395  11.051   0.362  1.00  0.00     0.174 HD
ATOM     33  H81 UNL     1     -36.405  11.535  -0.989  1.00  0.00     0.174 HD
ENDBRANCH   8  31
TORSDOF 8
ENDMDL
MODEL 4
REMARK VINA RESULT: -6.237925596      3.155      5.660
REMARK  8 active torsions:
REMARK  status: ('A' for Active; 'I' for Inactive)
REMARK    1  A    between atoms: C4_5  and  C5_6 
REMARK    2  A    between atoms: C5_6  and  C6_7 
REMARK    3  A    between atoms: C5_6  and  N2_10 
REMARK    4  A    between atoms: C6_7  and  O1_8 
REMARK    5  A    between atoms: N2_10  and  C7_12 
REMARK    6  A    between atoms: C9_14  and  N3_15 
REMARK    7  A    between atoms: C12_20  and  N5_21 
REMARK    8  A    between atoms: C15_28  and  N8_29 
ROOT
HETATM    1  N1  UNL     1     -36.330  11.155  -0.191  1.00  0.00    -0.190 NA
HETATM    2  C1  UNL     1     -36.840  10.771   0.786  1.00  0.00     0.118 C 
HETATM    3  C2  UNL     1     -37.449  10.308   2.000  1.00  0.00     0.131 A 
HETATM    4  C3  UNL     1     -38.743   9.826   2.005  1.00  0.00     0.069 A 
HETATM    5  C4  UNL     1     -39.336   9.375   3.187  1.00  0.00     0.054 A 
HETATM    6  N7  UNL     1     -38.576   9.445   4.293  1.00  0.00    -0.194 N 
ATOM      7  H7  UNL     1     -38.983   9.123   5.172  1.00  0.00     0.184 HD
HETATM    8  C15 UNL     1     -37.320   9.908   4.319  1.00  0.00     0.677 A 
HETATM    9  N9  UNL     1     -36.761  10.341   3.156  1.00  0.00    -0.182 N 
ATOM     10  H9  UNL     1     -35.805  10.696   3.160  1.00  0.00     0.185 HD
ENDROOT
BRANCH   5  11
HETATM   11  C5  UNL     1     -40.728   8.858   3.181  1.00  0.00     0.157 C 
BRANCH  11  12
HETATM   12  C6  UNL     1     -40.712   7.529   3.897  1.00  0.00     0.195 C 
BRANCH  12  13
HETATM   13  O1  UNL     1     -40.747   7.657   5.273  1.00  0.00    -0.398 OA
ATOM     14  H1  UNL     1     -40.978   6.849   5.715  1.00  0.00     0.209 HD
ENDBRANCH  12  13
ENDBRANCH  11  12
BRANCH  11  15
HETATM   15  N2  UNL     1     -41.664   9.785   3.729  1.00  0.00    -0.364 N 
ATOM     16  H2  UNL     1     -42.112   9.615   4.629  1.00  0.00     0.162 HD
BRANCH  15  17
HETATM   17  C7  UNL     1     -41.928  10.864   3.035  1.00  0.00     0.121 A 
HETATM   18  C8  UNL     1     -42.285  10.770   1.706  1.00  0.00     0.097 A 
HETATM   19  C9  UNL     1     -42.559  11.916   0.993  1.00  0.00     0.122 A 
HETATM   20  N4  UNL     1     -42.466  13.104   1.635  1.00  0.00    -0.177 N 
HETATM   21  C12 UNL     1     -42.122  13.218   2.926  1.00  0.00     0.683 A 
ATOM     22  H4  UNL     1     -42.669  13.954   1.111  1.00  0.00     0.186 HD
HETATM   23  N6  UNL     1     -41.861  12.084   3.590  1.00  0.00    -0.177 N 
ATOM     24  H6  UNL     1     -41.597  12.152   4.573  1.00  0.00     0.185 HD
BRANCH  19  25
HETATM   25  N3  UNL     1     -42.931  11.871  -0.381  1.00  0.00    -0.364 N 
HETATM   26  C10 UNL     1     -43.800  11.641  -1.501  1.00  0.00     0.144 A 
HETATM   27  C11 UNL     1     -42.479  12.105  -1.759  1.00  0.00     0.144 A 
ENDBRANCH  19  25
BRANCH  21  28
HETATM   28  N5  UNL     1     -42.032  14.480   3.577  1.00  0.00    -0.214 N 
HETATM   29  C13 UNL     1     -41.679  15.130   4.862  1.00  0.00     0.161 A 
HETATM   30  C14 UNL     1     -42.124  15.906   3.718  1.00  0.00     0.161 A 
ENDBRANCH  21  28
ENDBRANCH  15  17
ENDBRANCH  11  15
ENDBRANCH   5  11
BRANCH   8  31
HETATM   31  N8  UNL     1     -36.631   9.950   5.429  1.00  0.00    -0.234 N 
ATOM     32  H82 UNL     1     -35.835   9.327   5.557  1.00  0.00     0.174 HD
ATOM     33  H81 UNL     1     -36.872  10.597   6.180  1.00  0.00     0.174 HD
ENDBRANCH   8  31
TORSDOF 8
ENDMDL
MODEL 5
REMARK VINA RESULT: -6.220161225      3.049      6.495
REMARK  8 active torsions:
REMARK  status: ('A' for Active; 'I' for Inactive)
REMARK    1  A    between atoms: C4_5  and  C5_6 
REMARK    2  A    between atoms: C5_6  and  C6_7 
REMARK    3  A    between atoms: C5_6  and  N2_10 
REMARK    4  A    between atoms: C6_7  and  O1_8 
REMARK    5  A    between atoms: N2_10  and  C7_12 
REMARK    6  A    between atoms: C9_14  and  N3_15 
REMARK    7  A    between atoms: C12_20  and  N5_21 
REMARK    8  A    between atoms: C15_28  and  N8_29 
ROOT
HETATM    1  N1  UNL     1     -38.534   9.228   7.323  1.00  0.00    -0.190 NA
HETATM    2  C1  UNL     1     -38.272   9.466   6.210  1.00  0.00     0.118 C 
HETATM    3  C2  UNL     1     -37.926   9.761   4.849  1.00  0.00     0.131 A 
HETATM    4  C3  UNL     1     -38.829   9.549   3.827  1.00  0.00     0.069 A 
HETATM    5  C4  UNL     1     -38.492   9.836   2.502  1.00  0.00     0.054 A 
HETATM    6  N7  UNL     1     -37.255  10.320   2.298  1.00  0.00    -0.194 N 
ATOM      7  H7  UNL     1     -36.981  10.539   1.340  1.00  0.00     0.184 HD
HETATM    8  C15 UNL     1     -36.359  10.535   3.269  1.00  0.00     0.677 A 
HETATM    9  N9  UNL     1     -36.708  10.249   4.553  1.00  0.00    -0.182 N 
ATOM     10  H9  UNL     1     -36.035  10.409   5.303  1.00  0.00     0.185 HD
ENDROOT
BRANCH   5  11
HETATM   11  C5  UNL     1     -39.471   9.604   1.409  1.00  0.00     0.157 C 
BRANCH  11  12
HETATM   12  C6  UNL     1     -39.198   8.228   0.851  1.00  0.00     0.195 C 
BRANCH  12  13
HETATM   13  O1  UNL     1     -37.867   7.865   0.939  1.00  0.00    -0.398 OA
ATOM     14  H1  UNL     1     -37.514   7.549   0.116  1.00  0.00     0.209 HD
ENDBRANCH  12  13
ENDBRANCH  11  12
BRANCH  11  15
HETATM   15  N2  UNL     1     -40.822   9.788   1.829  1.00  0.00    -0.364 N 
ATOM     16  H2  UNL     1     -41.336   9.041   2.297  1.00  0.00     0.162 HD
BRANCH  15  17
HETATM   17  C7  UNL     1     -41.380  10.949   1.594  1.00  0.00     0.121 A 
HETATM   18  C8  UNL     1     -41.934  11.221   0.362  1.00  0.00     0.097 A 
HETATM   19  C9  UNL     1     -42.516  12.448   0.134  1.00  0.00     0.122 A 
HETATM   20  N4  UNL     1     -42.521  13.349   1.143  1.00  0.00    -0.177 N 
HETATM   21  C12 UNL     1     -41.988  13.105   2.350  1.00  0.00     0.683 A 
ATOM     22  H4  UNL     1     -42.951  14.258   0.978  1.00  0.00     0.186 HD
HETATM   23  N6  UNL     1     -41.429  11.902   2.538  1.00  0.00    -0.177 N 
ATOM     24  H6  UNL     1     -41.019  11.700   3.449  1.00  0.00     0.185 HD
BRANCH  19  25
HETATM   25  N3  UNL     1     -43.101  12.776  -1.123  1.00  0.00    -0.364 N 
HETATM   26  C10 UNL     1     -44.152  13.153  -2.026  1.00  0.00     0.144 A 
HETATM   27  C11 UNL     1     -42.850  12.944  -2.561  1.00  0.00     0.144 A 
ENDBRANCH  19  25
BRANCH  21  28
HETATM   28  N5  UNL     1     -42.007  14.070   3.394  1.00  0.00    -0.214 N 
HETATM   29  C13 UNL     1     -42.029  15.529   3.663  1.00  0.00     0.161 A 
HETATM   30  C14 UNL     1     -42.020  14.560   4.745  1.00  0.00     0.161 A 
ENDBRANCH  21  28
ENDBRANCH  15  17
ENDBRANCH  11  15
ENDBRANCH   5  11
BRANCH   8  31
HETATM   31  N8  UNL     1     -35.170  11.009   3.006  1.00  0.00    -0.234 N 
ATOM     32  H82 UNL     1     -34.926  11.957   3.292  1.00  0.00     0.174 HD
ATOM     33  H81 UNL     1     -34.470  10.450   2.517  1.00  0.00     0.174 HD
ENDBRANCH   8  31
TORSDOF 8
ENDMDL
