MODEL 1
REMARK VINA RESULT: -6.818657104      0.000      0.000
REMARK  6 active torsions:
REMARK  status: ('A' for Active; 'I' for Inactive)
REMARK    1  A    between atoms: N1_1  and  C1_4 
REMARK    2  A    between atoms: C2_7  and  N3_8 
REMARK    3  A    between atoms: N8_21  and  C9_22 
REMARK    4  A    between atoms: C9_22  and  C10_23 
REMARK    5  A    between atoms: C10_23  and  C11_24 
REMARK    6  A    between atoms: C11_24  and  N9_25 
ROOT
HETATM    1  C1  UNL     1     -37.230  10.126   4.637  1.00  0.00     0.130 A 
HETATM    2  N2  UNL     1     -37.167  10.318   3.290  1.00  0.00    -0.176 N 
ATOM      3  H2  UNL     1     -36.309  10.693   2.888  1.00  0.00     0.186 HD
HETATM    4  C2  UNL     1     -38.199  10.033   2.467  1.00  0.00     0.684 A 
HETATM    5  N6  UNL     1     -39.333   9.538   2.998  1.00  0.00    -0.174 N 
ATOM      6  H6  UNL     1     -40.122   9.316   2.390  1.00  0.00     0.186 HD
HETATM    7  C6  UNL     1     -39.434   9.332   4.342  1.00  0.00     0.153 A 
HETATM    8  C7  UNL     1     -38.384   9.622   5.188  1.00  0.00     0.071 A 
HETATM    9  C8  UNL     1     -38.789   9.308   6.481  1.00  0.00     0.126 A 
HETATM   10  N7  UNL     1     -40.045   8.847   6.383  1.00  0.00    -0.307 N 
ATOM     11  H7  UNL     1     -40.616   8.533   7.168  1.00  0.00     0.186 HD
HETATM   12  N8  UNL     1     -40.440   8.858   5.104  1.00  0.00    -0.276 N 
ENDROOT
BRANCH  12  13
HETATM   13  C9  UNL     1     -41.734   8.433   4.587  1.00  0.00     0.152 C 
BRANCH  13  14
HETATM   14  C10 UNL     1     -42.721   9.568   4.714  1.00  0.00     0.052 C 
BRANCH  14  15
HETATM   15  C11 UNL     1     -42.879  10.355   3.456  1.00  0.00     0.274 C 
BRANCH  15  16
HETATM   16  N9  UNL     1     -42.121  11.590   3.448  1.00  0.00     0.092 N 
HETATM   17  C12 UNL     1     -42.987  12.734   3.672  1.00  0.00     0.298 C 
HETATM   18  C13 UNL     1     -42.277  14.022   3.378  1.00  0.00     0.198 C 
HETATM   19  O1  UNL     1     -41.977  14.089   2.036  1.00  0.00    -0.388 OA
HETATM   20  C14 UNL     1     -42.052  12.892   1.367  1.00  0.00     0.198 C 
HETATM   21  C15 UNL     1     -41.505  11.732   2.150  1.00  0.00     0.298 C 
ENDBRANCH  15  16
ENDBRANCH  14  15
ENDBRANCH  13  14
ENDBRANCH  12  13
BRANCH   4  22
HETATM   22  N3  UNL     1     -38.054  10.265   1.074  1.00  0.00    -0.202 N 
HETATM   23  C3  UNL     1     -37.985   9.101   0.197  1.00  0.00     0.160 C 
HETATM   24  C4  UNL     1     -38.916   9.451  -0.975  1.00  0.00     0.151 C 
HETATM   25  N4  UNL     1     -38.422  10.663  -1.561  1.00  0.00    -0.145 NA
HETATM   26  N5  UNL     1     -38.591  11.749  -0.729  1.00  0.00    -0.128 NA
HETATM   27  C5  UNL     1     -37.987  11.603   0.580  1.00  0.00     0.272 C 
ENDBRANCH   4  22
BRANCH   1  28
HETATM   28  N1  UNL     1     -36.248  10.400   5.406  1.00  0.00    -0.384 N 
ATOM     29  H12 UNL     1     -35.462  10.933   5.033  1.00  0.00     0.157 HD
ATOM     30  H11 UNL     1     -36.225  10.102   6.382  1.00  0.00     0.157 HD
ENDBRANCH   1  28
TORSDOF 6
ENDMDL
MODEL 2
REMARK VINA RESULT: -6.521562600      0.414      1.014
REMARK  6 active torsions:
REMARK  status: ('A' for Active; 'I' for Inactive)
REMARK    1  A    between atoms: N1_1  and  C1_4 
REMARK    2  A    between atoms: C2_7  and  N3_8 
REMARK    3  A    between atoms: N8_21  and  C9_22 
REMARK    4  A    between atoms: C9_22  and  C10_23 
REMARK    5  A    between atoms: C10_23  and  C11_24 
REMARK    6  A    between atoms: C11_24  and  N9_25 
ROOT
HETATM    1  C1  UNL     1     -37.243  10.142   4.633  1.00  0.00     0.130 A 
HETATM    2  N2  UNL     1     -37.208  10.333   3.284  1.00  0.00    -0.176 N 
ATOM      3  H2  UNL     1     -36.348  10.681   2.861  1.00  0.00     0.186 HD
HETATM    4  C2  UNL     1     -38.267  10.079   2.486  1.00  0.00     0.684 A 
HETATM    5  N6  UNL     1     -39.403   9.619   3.045  1.00  0.00    -0.174 N 
ATOM      6  H6  UNL     1     -40.213   9.421   2.456  1.00  0.00     0.186 HD
HETATM    7  C6  UNL     1     -39.478   9.416   4.391  1.00  0.00     0.153 A 
HETATM    8  C7  UNL     1     -38.399   9.673   5.211  1.00  0.00     0.071 A 
HETATM    9  C8  UNL     1     -38.781   9.372   6.514  1.00  0.00     0.126 A 
HETATM   10  N7  UNL     1     -40.054   8.949   6.447  1.00  0.00    -0.307 N 
ATOM     11  H7  UNL     1     -40.615   8.653   7.246  1.00  0.00     0.186 HD
HETATM   12  N8  UNL     1     -40.479   8.972   5.177  1.00  0.00    -0.276 N 
ENDROOT
BRANCH  12  13
HETATM   13  C9  UNL     1     -41.797   8.587   4.693  1.00  0.00     0.152 C 
BRANCH  13  14
HETATM   14  C10 UNL     1     -42.180   9.467   3.529  1.00  0.00     0.052 C 
BRANCH  14  15
HETATM   15  C11 UNL     1     -43.069  10.602   3.915  1.00  0.00     0.274 C 
BRANCH  15  16
HETATM   16  N9  UNL     1     -43.083  11.681   2.947  1.00  0.00     0.092 N 
HETATM   17  C12 UNL     1     -41.776  11.851   2.338  1.00  0.00     0.298 C 
HETATM   18  C13 UNL     1     -41.697  13.131   1.562  1.00  0.00     0.198 C 
HETATM   19  O1  UNL     1     -41.807  14.201   2.422  1.00  0.00    -0.388 OA
HETATM   20  C14 UNL     1     -42.300  13.893   3.666  1.00  0.00     0.198 C 
HETATM   21  C15 UNL     1     -43.428  12.901   3.637  1.00  0.00     0.298 C 
ENDBRANCH  15  16
ENDBRANCH  14  15
ENDBRANCH  13  14
ENDBRANCH  12  13
BRANCH   4  22
HETATM   22  N3  UNL     1     -38.150  10.306   1.090  1.00  0.00    -0.202 N 
HETATM   23  C3  UNL     1     -38.066   9.140   0.218  1.00  0.00     0.160 C 
HETATM   24  C4  UNL     1     -39.023   9.460  -0.941  1.00  0.00     0.151 C 
HETATM   25  N4  UNL     1     -38.567  10.681  -1.541  1.00  0.00    -0.145 NA
HETATM   26  N5  UNL     1     -38.750  11.767  -0.713  1.00  0.00    -0.128 NA
HETATM   27  C5  UNL     1     -38.122  11.643   0.588  1.00  0.00     0.272 C 
ENDBRANCH   4  22
BRANCH   1  28
HETATM   28  N1  UNL     1     -36.236  10.386   5.377  1.00  0.00    -0.384 N 
ATOM     29  H12 UNL     1     -35.936   9.679   6.049  1.00  0.00     0.157 HD
ATOM     30  H11 UNL     1     -35.721  11.266   5.321  1.00  0.00     0.157 HD
ENDBRANCH   1  28
TORSDOF 6
ENDMDL
MODEL 3
REMARK VINA RESULT: -6.314617835      1.661      4.874
REMARK  6 active torsions:
REMARK  status: ('A' for Active; 'I' for Inactive)
REMARK    1  A    between atoms: N1_1  and  C1_4 
REMARK    2  A    between atoms: C2_7  and  N3_8 
REMARK    3  A    between atoms: N8_21  and  C9_22 
REMARK    4  A    between atoms: C9_22  and  C10_23 
REMARK    5  A    between atoms: C10_23  and  C11_24 
REMARK    6  A    between atoms: C11_24  and  N9_25 
ROOT
HETATM    1  C1  UNL     1     -37.075  10.622   2.581  1.00  0.00     0.130 A 
HETATM    2  N2  UNL     1     -37.651  10.071   3.685  1.00  0.00    -0.176 N 
ATOM      3  H2  UNL     1     -37.055   9.803   4.468  1.00  0.00     0.186 HD
HETATM    4  C2  UNL     1     -38.982   9.866   3.785  1.00  0.00     0.684 A 
HETATM    5  N6  UNL     1     -39.771  10.219   2.752  1.00  0.00    -0.174 N 
ATOM      6  H6  UNL     1     -40.779  10.071   2.810  1.00  0.00     0.186 HD
HETATM    7  C6  UNL     1     -39.231  10.773   1.629  1.00  0.00     0.153 A 
HETATM    8  C7  UNL     1     -37.872  10.985   1.522  1.00  0.00     0.071 A 
HETATM    9  C8  UNL     1     -37.634  11.555   0.276  1.00  0.00     0.126 A 
HETATM   10  N7  UNL     1     -38.830  11.669  -0.323  1.00  0.00    -0.307 N 
ATOM     11  H7  UNL     1     -38.983  12.056  -1.255  1.00  0.00     0.186 HD
HETATM   12  N8  UNL     1     -39.793  11.203   0.482  1.00  0.00    -0.276 N 
ENDROOT
BRANCH  12  13
HETATM   13  C9  UNL     1     -41.220  11.155   0.195  1.00  0.00     0.152 C 
BRANCH  13  14
HETATM   14  C10 UNL     1     -41.803  12.540   0.322  1.00  0.00     0.052 C 
BRANCH  14  15
HETATM   15  C11 UNL     1     -41.511  13.186   1.635  1.00  0.00     0.274 C 
BRANCH  15  16
HETATM   16  N9  UNL     1     -42.513  12.916   2.648  1.00  0.00     0.092 N 
HETATM   17  C12 UNL     1     -43.852  13.029   2.098  1.00  0.00     0.298 C 
HETATM   18  C13 UNL     1     -44.888  13.042   3.181  1.00  0.00     0.198 C 
HETATM   19  O1  UNL     1     -44.744  14.178   3.945  1.00  0.00    -0.388 OA
HETATM   20  C14 UNL     1     -43.543  14.826   3.796  1.00  0.00     0.198 C 
HETATM   21  C15 UNL     1     -42.367  13.895   3.698  1.00  0.00     0.298 C 
ENDBRANCH  15  16
ENDBRANCH  14  15
ENDBRANCH  13  14
ENDBRANCH  12  13
BRANCH   4  22
HETATM   22  N3  UNL     1     -39.504   9.284   4.970  1.00  0.00    -0.202 N 
HETATM   23  C3  UNL     1     -38.608   9.157   6.114  1.00  0.00     0.160 C 
HETATM   24  C4  UNL     1     -39.447   9.633   7.311  1.00  0.00     0.151 C 
HETATM   25  N4  UNL     1     -40.609   8.795   7.373  1.00  0.00    -0.145 NA
HETATM   26  N5  UNL     1     -41.467   9.015   6.318  1.00  0.00    -0.128 NA
HETATM   27  C5  UNL     1     -40.865   8.853   5.010  1.00  0.00     0.272 C 
ENDBRANCH   4  22
BRANCH   1  28
HETATM   28  N1  UNL     1     -35.815  10.811   2.498  1.00  0.00    -0.384 N 
ATOM     29  H12 UNL     1     -35.257  10.175   1.927  1.00  0.00     0.157 HD
ATOM     30  H11 UNL     1     -35.349  11.577   2.985  1.00  0.00     0.157 HD
ENDBRANCH   1  28
TORSDOF 6
ENDMDL
MODEL 4
REMARK VINA RESULT: -6.249430937      2.667      3.694
REMARK  6 active torsions:
REMARK  status: ('A' for Active; 'I' for Inactive)
REMARK    1  A    between atoms: N1_1  and  C1_4 
REMARK    2  A    between atoms: C2_7  and  N3_8 
REMARK    3  A    between atoms: N8_21  and  C9_22 
REMARK    4  A    between atoms: C9_22  and  C10_23 
REMARK    5  A    between atoms: C10_23  and  C11_24 
REMARK    6  A    between atoms: C11_24  and  N9_25 
ROOT
HETATM    1  C1  UNL     1     -37.127  10.097   4.725  1.00  0.00     0.130 A 
HETATM    2  N2  UNL     1     -37.112  10.290   3.377  1.00  0.00    -0.176 N 
ATOM      3  H2  UNL     1     -36.254  10.623   2.939  1.00  0.00     0.186 HD
HETATM    4  C2  UNL     1     -38.190  10.058   2.597  1.00  0.00     0.684 A 
HETATM    5  N6  UNL     1     -39.324   9.618   3.175  1.00  0.00    -0.174 N 
ATOM      6  H6  UNL     1     -40.148   9.437   2.601  1.00  0.00     0.186 HD
HETATM    7  C6  UNL     1     -39.378   9.413   4.522  1.00  0.00     0.153 A 
HETATM    8  C7  UNL     1     -38.280   9.648   5.323  1.00  0.00     0.071 A 
HETATM    9  C8  UNL     1     -38.645   9.350   6.632  1.00  0.00     0.126 A 
HETATM   10  N7  UNL     1     -39.926   8.951   6.586  1.00  0.00    -0.307 N 
ATOM     11  H7  UNL     1     -40.478   8.663   7.394  1.00  0.00     0.186 HD
HETATM   12  N8  UNL     1     -40.373   8.985   5.325  1.00  0.00    -0.276 N 
ENDROOT
BRANCH  12  13
HETATM   13  C9  UNL     1     -41.707   8.626   4.863  1.00  0.00     0.152 C 
BRANCH  13  14
HETATM   14  C10 UNL     1     -41.884   7.131   4.957  1.00  0.00     0.052 C 
BRANCH  14  15
HETATM   15  C11 UNL     1     -42.923   6.600   4.026  1.00  0.00     0.274 C 
BRANCH  15  16
HETATM   16  N9  UNL     1     -42.376   5.806   2.943  1.00  0.00     0.092 N 
HETATM   17  C12 UNL     1     -41.027   5.366   3.250  1.00  0.00     0.298 C 
HETATM   18  C13 UNL     1     -40.348   4.801   2.039  1.00  0.00     0.198 C 
HETATM   19  O1  UNL     1     -40.170   5.795   1.103  1.00  0.00    -0.388 OA
HETATM   20  C14 UNL     1     -40.926   6.923   1.307  1.00  0.00     0.198 C 
HETATM   21  C15 UNL     1     -42.328   6.631   1.760  1.00  0.00     0.298 C 
ENDBRANCH  15  16
ENDBRANCH  14  15
ENDBRANCH  13  14
ENDBRANCH  12  13
BRANCH   4  22
HETATM   22  N3  UNL     1     -38.093  10.287   1.200  1.00  0.00    -0.202 N 
HETATM   23  C3  UNL     1     -38.186   9.131   0.315  1.00  0.00     0.160 C 
HETATM   24  C4  UNL     1     -39.135   9.583  -0.806  1.00  0.00     0.151 C 
HETATM   25  N4  UNL     1     -38.551  10.745  -1.411  1.00  0.00    -0.145 NA
HETATM   26  N5  UNL     1     -38.567  11.835  -0.568  1.00  0.00    -0.128 NA
HETATM   27  C5  UNL     1     -37.916  11.616   0.709  1.00  0.00     0.272 C 
ENDBRANCH   4  22
BRANCH   1  28
HETATM   28  N1  UNL     1     -36.101  10.320   5.452  1.00  0.00    -0.384 N 
ATOM     29  H12 UNL     1     -35.181  10.339   5.014  1.00  0.00     0.157 HD
ATOM     30  H11 UNL     1     -36.175  10.479   6.457  1.00  0.00     0.157 HD
ENDBRANCH   1  28
TORSDOF 6
ENDMDL
MODEL 5
REMARK VINA RESULT: -6.203895604      1.944      4.401
REMARK  6 active torsions:
REMARK  status: ('A' for Active; 'I' for Inactive)
REMARK    1  A    between atoms: N1_1  and  C1_4 
REMARK    2  A    between atoms: C2_7  and  N3_8 
REMARK    3  A    between atoms: N8_21  and  C9_22 
REMARK    4  A    between atoms: C9_22  and  C10_23 
REMARK    5  A    between atoms: C10_23  and  C11_24 
REMARK    6  A    between atoms: C11_24  and  N9_25 
ROOT
HETATM    1  C1  UNL     1     -38.315   9.191   5.338  1.00  0.00     0.130 A 
HETATM    2  N2  UNL     1     -39.478   8.602   4.941  1.00  0.00    -0.176 N 
ATOM      3  H2  UNL     1     -40.044   8.117   5.637  1.00  0.00     0.186 HD
HETATM    4  C2  UNL     1     -39.910   8.635   3.663  1.00  0.00     0.684 A 
HETATM    5  N6  UNL     1     -39.163   9.275   2.743  1.00  0.00    -0.174 N 
ATOM      6  H6  UNL     1     -39.475   9.311   1.772  1.00  0.00     0.186 HD
HETATM    7  C6  UNL     1     -37.993   9.877   3.101  1.00  0.00     0.153 A 
HETATM    8  C7  UNL     1     -37.547   9.846   4.406  1.00  0.00     0.071 A 
HETATM    9  C8  UNL     1     -36.340  10.537   4.452  1.00  0.00     0.126 A 
HETATM   10  N7  UNL     1     -36.097  10.958   3.201  1.00  0.00    -0.307 N 
ATOM     11  H7  UNL     1     -35.280  11.498   2.914  1.00  0.00     0.186 HD
HETATM   12  N8  UNL     1     -37.083  10.566   2.384  1.00  0.00    -0.276 N 
ENDROOT
BRANCH  12  13
HETATM   13  C9  UNL     1     -37.186  10.826   0.955  1.00  0.00     0.152 C 
BRANCH  13  14
HETATM   14  C10 UNL     1     -38.209  11.909   0.715  1.00  0.00     0.052 C 
BRANCH  14  15
HETATM   15  C11 UNL     1     -39.216  11.549  -0.326  1.00  0.00     0.274 C 
BRANCH  15  16
HETATM   16  N9  UNL     1     -40.559  11.395   0.197  1.00  0.00     0.092 N 
HETATM   17  C12 UNL     1     -41.536  11.994  -0.695  1.00  0.00     0.298 C 
HETATM   18  C13 UNL     1     -42.880  12.102  -0.039  1.00  0.00     0.198 C 
HETATM   19  O1  UNL     1     -42.809  12.982   1.018  1.00  0.00    -0.388 OA
HETATM   20  C14 UNL     1     -41.537  13.269   1.446  1.00  0.00     0.198 C 
HETATM   21  C15 UNL     1     -40.627  12.074   1.469  1.00  0.00     0.298 C 
ENDBRANCH  15  16
ENDBRANCH  14  15
ENDBRANCH  13  14
ENDBRANCH  12  13
BRANCH   4  22
HETATM   22  N3  UNL     1     -41.132   7.994   3.331  1.00  0.00    -0.202 N 
HETATM   23  C3  UNL     1     -42.036   8.687   2.419  1.00  0.00     0.160 C 
HETATM   24  C4  UNL     1     -42.489   7.600   1.431  1.00  0.00     0.151 C 
HETATM   25  N4  UNL     1     -43.109   6.561   2.201  1.00  0.00    -0.145 NA
HETATM   26  N5  UNL     1     -42.200   5.878   2.979  1.00  0.00    -0.128 NA
HETATM   27  C5  UNL     1     -41.435   6.713   3.884  1.00  0.00     0.272 C 
ENDBRANCH   4  22
BRANCH   1  28
HETATM   28  N1  UNL     1     -37.916   9.152   6.550  1.00  0.00    -0.384 N 
ATOM     29  H12 UNL     1     -37.628   8.258   6.947  1.00  0.00     0.157 HD
ATOM     30  H11 UNL     1     -37.876   9.988   7.133  1.00  0.00     0.157 HD
ENDBRANCH   1  28
TORSDOF 6
ENDMDL
