MODEL 1
REMARK VINA RESULT: -5.427373622      0.000      0.000
REMARK  1 active torsions:
REMARK  status: ('A' for Active; 'I' for Inactive)
REMARK    1  A    between atoms: C2_3  and  N2_4 
ROOT
HETATM    1  N1  UNL     1      34.867   3.824   4.457  1.00  0.00    -0.191 NA
HETATM    2  C1  UNL     1      35.694   3.111   4.804  1.00  0.00     0.105 C 
HETATM    3  C2  UNL     1      36.740   2.232   5.250  1.00  0.00     0.188 C 
ENDROOT
BRANCH   3   4
HETATM    4  N2  UNL     1      36.592   0.878   4.862  1.00  0.00    -0.341 N 
HETATM    5  C3  UNL     1      36.206   0.615   3.545  1.00  0.00     0.069 C 
HETATM    6  C4  UNL     1      35.469  -0.683   3.327  1.00  0.00     0.045 C 
HETATM    7  C5  UNL     1      35.690  -1.657   4.467  1.00  0.00     0.010 C 
HETATM    8  C6  UNL     1      37.100  -1.456   4.975  1.00  0.00     0.045 C 
HETATM    9  C7  UNL     1      37.182  -0.112   5.638  1.00  0.00     0.069 C 
ENDBRANCH   3   4
TORSDOF 1
ENDMDL
MODEL 2
REMARK VINA RESULT: -5.364555590      0.524      1.701
REMARK  1 active torsions:
REMARK  status: ('A' for Active; 'I' for Inactive)
REMARK    1  A    between atoms: C2_3  and  N2_4 
ROOT
HETATM    1  N1  UNL     1      34.870   3.889   4.482  1.00  0.00    -0.191 NA
HETATM    2  C1  UNL     1      35.742   3.149   4.560  1.00  0.00     0.105 C 
HETATM    3  C2  UNL     1      36.848   2.236   4.665  1.00  0.00     0.188 C 
ENDROOT
BRANCH   3   4
HETATM    4  N2  UNL     1      36.519   0.872   4.471  1.00  0.00    -0.341 N 
HETATM    5  C3  UNL     1      36.738  -0.009   5.533  1.00  0.00     0.069 C 
HETATM    6  C4  UNL     1      36.990  -1.446   5.147  1.00  0.00     0.045 C 
HETATM    7  C5  UNL     1      36.506  -1.748   3.743  1.00  0.00     0.010 C 
HETATM    8  C6  UNL     1      35.266  -0.916   3.497  1.00  0.00     0.045 C 
HETATM    9  C7  UNL     1      35.666   0.528   3.430  1.00  0.00     0.069 C 
ENDBRANCH   3   4
TORSDOF 1
ENDMDL
MODEL 3
REMARK VINA RESULT: -5.294853645      1.575      1.867
REMARK  1 active torsions:
REMARK  status: ('A' for Active; 'I' for Inactive)
REMARK    1  A    between atoms: C2_3  and  N2_4 
ROOT
HETATM    1  N1  UNL     1      36.003   3.411   4.107  1.00  0.00    -0.191 NA
HETATM    2  C1  UNL     1      35.802   2.438   3.534  1.00  0.00     0.105 C 
HETATM    3  C2  UNL     1      35.548   1.230   2.798  1.00  0.00     0.188 C 
ENDROOT
BRANCH   3   4
HETATM    4  N2  UNL     1      35.667   0.035   3.549  1.00  0.00    -0.341 N 
HETATM    5  C3  UNL     1      36.761  -0.794   3.289  1.00  0.00     0.069 C 
HETATM    6  C4  UNL     1      36.556  -2.258   3.590  1.00  0.00     0.045 C 
HETATM    7  C5  UNL     1      35.395  -2.485   4.535  1.00  0.00     0.010 C 
HETATM    8  C6  UNL     1      35.351  -1.316   5.496  1.00  0.00     0.045 C 
HETATM    9  C7  UNL     1      34.952  -0.087   4.734  1.00  0.00     0.069 C 
ENDBRANCH   3   4
TORSDOF 1
ENDMDL
MODEL 4
REMARK VINA RESULT: -5.253504427      1.517      2.272
REMARK  1 active torsions:
REMARK  status: ('A' for Active; 'I' for Inactive)
REMARK    1  A    between atoms: C2_3  and  N2_4 
ROOT
HETATM    1  N1  UNL     1      34.198   2.292   2.146  1.00  0.00    -0.191 NA
HETATM    2  C1  UNL     1      35.212   1.967   2.567  1.00  0.00     0.105 C 
HETATM    3  C2  UNL     1      36.493   1.576   3.089  1.00  0.00     0.188 C 
ENDROOT
BRANCH   3   4
HETATM    4  N2  UNL     1      36.492   0.381   3.849  1.00  0.00    -0.341 N 
HETATM    5  C3  UNL     1      36.840   0.465   5.199  1.00  0.00     0.069 C 
HETATM    6  C4  UNL     1      37.430  -0.786   5.801  1.00  0.00     0.045 C 
HETATM    7  C5  UNL     1      37.110  -2.016   4.976  1.00  0.00     0.010 C 
HETATM    8  C6  UNL     1      35.731  -1.823   4.382  1.00  0.00     0.045 C 
HETATM    9  C7  UNL     1      35.800  -0.723   3.364  1.00  0.00     0.069 C 
ENDBRANCH   3   4
TORSDOF 1
ENDMDL
MODEL 5
REMARK VINA RESULT: -5.186741683      1.530      2.211
REMARK  1 active torsions:
REMARK  status: ('A' for Active; 'I' for Inactive)
REMARK    1  A    between atoms: C2_3  and  N2_4 
ROOT
HETATM    1  N1  UNL     1      40.083   2.312   5.620  1.00  0.00    -0.191 NA
HETATM    2  C1  UNL     1      38.956   2.210   5.444  1.00  0.00     0.105 C 
HETATM    3  C2  UNL     1      37.539   2.102   5.227  1.00  0.00     0.188 C 
ENDROOT
BRANCH   3   4
HETATM    4  N2  UNL     1      37.086   0.813   4.852  1.00  0.00    -0.341 N 
HETATM    5  C3  UNL     1      36.621   0.639   3.546  1.00  0.00     0.069 C 
HETATM    6  C4  UNL     1      35.611  -0.465   3.355  1.00  0.00     0.045 C 
HETATM    7  C5  UNL     1      35.639  -1.461   4.496  1.00  0.00     0.010 C 
HETATM    8  C6  UNL     1      37.071  -1.575   4.970  1.00  0.00     0.045 C 
HETATM    9  C7  UNL     1      37.462  -0.281   5.621  1.00  0.00     0.069 C 
ENDBRANCH   3   4
TORSDOF 1
ENDMDL
