MODEL 1
REMARK VINA RESULT: -5.821530899      0.000      0.000
REMARK  2 active torsions:
REMARK  status: ('A' for Active; 'I' for Inactive)
REMARK    1  A    between atoms: C2_2  and  C4_5 
REMARK    2  A    between atoms: C6_7  and  N2_8 
ROOT
HETATM    1  C1  UNL     1      36.062   2.572   5.241  1.00  0.00     0.026 C 
HETATM    2  C2  UNL     1      36.072   1.532   4.138  1.00  0.00     0.093 C 
HETATM    3  C3  UNL     1      35.189   2.001   3.071  1.00  0.00     0.064 C 
HETATM    4  N1  UNL     1      34.495   2.385   2.210  1.00  0.00    -0.197 NA
ENDROOT
BRANCH   2   5
HETATM    5  C4  UNL     1      35.572   0.202   4.601  1.00  0.00     0.007 C 
HETATM    6  C5  UNL     1      36.540  -0.633   5.399  1.00  0.00     0.038 C 
HETATM    7  C6  UNL     1      36.012  -1.846   4.620  1.00  0.00     0.184 C 
HETATM    8  C7  UNL     1      35.650  -0.871   3.527  1.00  0.00     0.038 C 
BRANCH   7   9
HETATM    9  N2  UNL     1      37.018  -2.801   4.332  1.00  0.00    -0.075 N 
ATOM     10  H23 UNL     1      37.414  -2.643   3.406  1.00  0.00     0.274 HD
ATOM     11  H22 UNL     1      37.849  -2.637   4.900  1.00  0.00     0.274 HD
ATOM     12  H21 UNL     1      36.694  -3.763   4.431  1.00  0.00     0.274 HD
ENDBRANCH   7   9
ENDBRANCH   2   5
TORSDOF 2
ENDMDL
MODEL 2
REMARK VINA RESULT: -5.813852155      1.333      1.642
REMARK  2 active torsions:
REMARK  status: ('A' for Active; 'I' for Inactive)
REMARK    1  A    between atoms: C2_2  and  C4_5 
REMARK    2  A    between atoms: C6_7  and  N2_8 
ROOT
HETATM    1  C1  UNL     1      36.795   0.971   2.304  1.00  0.00     0.026 C 
HETATM    2  C2  UNL     1      35.519   1.188   3.093  1.00  0.00     0.093 C 
HETATM    3  C3  UNL     1      35.638   2.464   3.798  1.00  0.00     0.064 C 
HETATM    4  N1  UNL     1      35.726   3.493   4.348  1.00  0.00    -0.197 NA
ENDROOT
BRANCH   2   5
HETATM    5  C4  UNL     1      35.287   0.118   4.110  1.00  0.00     0.007 C 
HETATM    6  C5  UNL     1      36.308   0.013   5.213  1.00  0.00     0.038 C 
HETATM    7  C6  UNL     1      36.186  -1.511   5.072  1.00  0.00     0.184 C 
HETATM    8  C7  UNL     1      35.754  -1.254   3.650  1.00  0.00     0.038 C 
BRANCH   7   9
HETATM    9  N2  UNL     1      37.415  -2.187   5.266  1.00  0.00    -0.075 N 
ATOM     10  H23 UNL     1      38.049  -2.020   4.484  1.00  0.00     0.274 HD
ATOM     11  H22 UNL     1      37.955  -1.752   6.014  1.00  0.00     0.274 HD
ATOM     12  H21 UNL     1      37.300  -3.186   5.435  1.00  0.00     0.274 HD
ENDBRANCH   7   9
ENDBRANCH   2   5
TORSDOF 2
ENDMDL
MODEL 3
REMARK VINA RESULT: -5.812849619      1.219      1.298
REMARK  2 active torsions:
REMARK  status: ('A' for Active; 'I' for Inactive)
REMARK    1  A    between atoms: C2_2  and  C4_5 
REMARK    2  A    between atoms: C6_7  and  N2_8 
ROOT
HETATM    1  C1  UNL     1      37.662   2.036   5.220  1.00  0.00     0.026 C 
HETATM    2  C2  UNL     1      36.471   1.836   4.303  1.00  0.00     0.093 C 
HETATM    3  C3  UNL     1      35.602   3.004   4.433  1.00  0.00     0.064 C 
HETATM    4  N1  UNL     1      34.915   3.947   4.525  1.00  0.00    -0.197 NA
ENDROOT
BRANCH   2   5
HETATM    5  C4  UNL     1      35.673   0.623   4.658  1.00  0.00     0.007 C 
HETATM    6  C5  UNL     1      36.372  -0.411   5.504  1.00  0.00     0.038 C 
HETATM    7  C6  UNL     1      35.692  -1.471   4.626  1.00  0.00     0.184 C 
HETATM    8  C7  UNL     1      35.641  -0.416   3.549  1.00  0.00     0.038 C 
BRANCH   7   9
HETATM    9  N2  UNL     1      36.510  -2.603   4.389  1.00  0.00    -0.075 N 
ATOM     10  H23 UNL     1      37.459  -2.442   4.727  1.00  0.00     0.274 HD
ATOM     11  H22 UNL     1      36.246  -3.377   4.998  1.00  0.00     0.274 HD
ATOM     12  H21 UNL     1      36.516  -2.894   3.412  1.00  0.00     0.274 HD
ENDBRANCH   7   9
ENDBRANCH   2   5
TORSDOF 2
ENDMDL
MODEL 4
REMARK VINA RESULT: -5.811014646      1.402      1.976
REMARK  2 active torsions:
REMARK  status: ('A' for Active; 'I' for Inactive)
REMARK    1  A    between atoms: C2_2  and  C4_5 
REMARK    2  A    between atoms: C6_7  and  N2_8 
ROOT
HETATM    1  C1  UNL     1      34.754   0.814   2.296  1.00  0.00     0.026 C 
HETATM    2  C2  UNL     1      35.038   0.992   3.774  1.00  0.00     0.093 C 
HETATM    3  C3  UNL     1      35.715   2.275   3.952  1.00  0.00     0.064 C 
HETATM    4  N1  UNL     1      36.241   3.311   4.094  1.00  0.00    -0.197 NA
ENDROOT
BRANCH   2   5
HETATM    5  C4  UNL     1      35.928  -0.079   4.318  1.00  0.00     0.007 C 
HETATM    6  C5  UNL     1      36.069  -1.321   3.476  1.00  0.00     0.038 C 
HETATM    7  C6  UNL     1      36.012  -2.119   4.787  1.00  0.00     0.184 C 
HETATM    8  C7  UNL     1      35.243  -0.952   5.357  1.00  0.00     0.038 C 
BRANCH   7   9
HETATM    9  N2  UNL     1      35.323  -3.350   4.658  1.00  0.00    -0.075 N 
ATOM     10  H23 UNL     1      34.365  -3.268   4.998  1.00  0.00     0.274 HD
ATOM     11  H22 UNL     1      35.135  -3.560   3.678  1.00  0.00     0.274 HD
ATOM     12  H21 UNL     1      35.805  -4.127   5.110  1.00  0.00     0.274 HD
ENDBRANCH   7   9
ENDBRANCH   2   5
TORSDOF 2
ENDMDL
MODEL 5
REMARK VINA RESULT: -5.722104449      1.643      4.021
REMARK  2 active torsions:
REMARK  status: ('A' for Active; 'I' for Inactive)
REMARK    1  A    between atoms: C2_2  and  C4_5 
REMARK    2  A    between atoms: C6_7  and  N2_8 
ROOT
HETATM    1  C1  UNL     1      35.561  -2.470   4.496  1.00  0.00     0.026 C 
HETATM    2  C2  UNL     1      36.400  -1.430   3.779  1.00  0.00     0.093 C 
HETATM    3  C3  UNL     1      37.197  -0.726   4.783  1.00  0.00     0.064 C 
HETATM    4  N1  UNL     1      37.847  -0.175   5.585  1.00  0.00    -0.197 NA
ENDROOT
BRANCH   2   5
HETATM    5  C4  UNL     1      35.566  -0.419   3.060  1.00  0.00     0.007 C 
HETATM    6  C5  UNL     1      36.281   0.820   2.587  1.00  0.00     0.038 C 
HETATM    7  C6  UNL     1      35.037   1.607   3.025  1.00  0.00     0.184 C 
HETATM    8  C7  UNL     1      34.781   0.483   3.998  1.00  0.00     0.038 C 
BRANCH   7   9
HETATM    9  N2  UNL     1      35.348   2.878   3.567  1.00  0.00    -0.075 N 
ATOM     10  H23 UNL     1      34.665   3.576   3.271  1.00  0.00     0.274 HD
ATOM     11  H22 UNL     1      35.178   2.896   4.573  1.00  0.00     0.274 HD
ATOM     12  H21 UNL     1      36.297   3.183   3.353  1.00  0.00     0.274 HD
ENDBRANCH   7   9
ENDBRANCH   2   5
TORSDOF 2
ENDMDL
