MODEL 1
REMARK VINA RESULT: -7.786555494      0.000      0.000
REMARK  5 active torsions:
REMARK  status: ('A' for Active; 'I' for Inactive)
REMARK    1  A    between atoms: C2_2  and  O1_3 
REMARK    2  A    between atoms: C2_2  and  C3_5 
REMARK    3  A    between atoms: C3_5  and  C4_6 
REMARK    4  A    between atoms: C4_6  and  N1_7 
REMARK    5  A    between atoms: C4_6  and  C8_18 
REMARK       I    between atoms: N1_7  and  C5_9 
REMARK       I    between atoms: C5_9  and  N4_14 
ROOT
HETATM    1  N1  UNL     1     -29.496  -5.375  -4.193  1.00  0.00    -0.218 N 
ATOM      2  H1  UNL     1     -29.112  -4.430  -4.200  1.00  0.00     0.178 HD
HETATM    3  C5  UNL     1     -29.863  -5.942  -2.945  1.00  0.00     0.696 C 
HETATM    4  N2  UNL     1     -31.116  -6.030  -2.648  1.00  0.00    -0.125 N 
ATOM      5  H2  UNL     1     -31.800  -5.688  -3.322  1.00  0.00     0.197 HD
HETATM    6  C6  UNL     1     -31.577  -6.573  -1.445  1.00  0.00     0.196 C 
HETATM    7  N3  UNL     1     -31.972  -7.019  -0.453  1.00  0.00    -0.171 NA
HETATM    8  N4  UNL     1     -28.936  -6.425  -1.985  1.00  0.00    -0.125 N 
ATOM      9  H4  UNL     1     -28.960  -7.391  -1.657  1.00  0.00     0.197 HD
HETATM   10  C7  UNL     1     -27.989  -5.513  -1.511  1.00  0.00     0.196 C 
HETATM   11  N5  UNL     1     -27.182  -4.762  -1.113  1.00  0.00    -0.171 NA
ENDROOT
BRANCH   1  12
HETATM   12  C4  UNL     1     -29.635  -6.062  -5.451  1.00  0.00     0.130 C 
BRANCH  12  13
HETATM   13  C3  UNL     1     -28.528  -5.696  -6.414  1.00  0.00     0.059 C 
BRANCH  13  14
HETATM   14  C2  UNL     1     -28.410  -4.203  -6.611  1.00  0.00     0.116 C 
HETATM   15  C1  UNL     1     -27.354  -3.974  -7.672  1.00  0.00     0.039 C 
BRANCH  14  16
HETATM   16  O1  UNL     1     -29.578  -3.617  -7.035  1.00  0.00    -0.396 OA
ATOM     17  H1  UNL     1     -30.294  -3.978  -6.525  1.00  0.00     0.210 HD
ENDBRANCH  14  16
ENDBRANCH  13  14
ENDBRANCH  12  13
BRANCH  12  18
HETATM   18  C8  UNL     1     -29.583  -7.563  -5.271  1.00  0.00     0.144 C 
HETATM   19  C9  UNL     1     -30.921  -8.178  -5.069  1.00  0.00     0.036 C 
HETATM   20  C10 UNL     1     -30.686  -9.627  -5.456  1.00  0.00     0.029 C 
HETATM   21  C11 UNL     1     -29.305  -9.554  -6.077  1.00  0.00     0.168 C 
HETATM   22  O2  UNL     1     -29.081  -8.213  -6.387  1.00  0.00    -0.384 OA
ENDBRANCH  12  18
ENDBRANCH   1  12
TORSDOF 5
ENDMDL
MODEL 2
REMARK VINA RESULT: -7.213316751      1.222      3.559
REMARK  5 active torsions:
REMARK  status: ('A' for Active; 'I' for Inactive)
REMARK    1  A    between atoms: C2_2  and  O1_3 
REMARK    2  A    between atoms: C2_2  and  C3_5 
REMARK    3  A    between atoms: C3_5  and  C4_6 
REMARK    4  A    between atoms: C4_6  and  N1_7 
REMARK    5  A    between atoms: C4_6  and  C8_18 
REMARK       I    between atoms: N1_7  and  C5_9 
REMARK       I    between atoms: C5_9  and  N4_14 
ROOT
HETATM    1  N1  UNL     1     -29.094  -6.249  -4.182  1.00  0.00    -0.218 N 
ATOM      2  H1  UNL     1     -28.944  -5.248  -4.309  1.00  0.00     0.178 HD
HETATM    3  C5  UNL     1     -29.487  -6.712  -2.898  1.00  0.00     0.696 C 
HETATM    4  N2  UNL     1     -30.712  -7.071  -2.717  1.00  0.00    -0.125 N 
ATOM      5  H2  UNL     1     -31.359  -7.009  -3.503  1.00  0.00     0.197 HD
HETATM    6  C6  UNL     1     -31.195  -7.540  -1.491  1.00  0.00     0.196 C 
HETATM    7  N3  UNL     1     -31.607  -7.930  -0.482  1.00  0.00    -0.171 NA
HETATM    8  N4  UNL     1     -28.613  -6.808  -1.784  1.00  0.00    -0.125 N 
ATOM      9  H4  UNL     1     -28.455  -7.694  -1.303  1.00  0.00     0.197 HD
HETATM   10  C7  UNL     1     -27.979  -5.630  -1.378  1.00  0.00     0.196 C 
HETATM   11  N5  UNL     1     -27.432  -4.653  -1.034  1.00  0.00    -0.171 NA
ENDROOT
BRANCH   1  12
HETATM   12  C4  UNL     1     -28.896  -7.116  -5.313  1.00  0.00     0.130 C 
BRANCH  12  13
HETATM   13  C3  UNL     1     -30.122  -7.957  -5.597  1.00  0.00     0.059 C 
BRANCH  13  14
HETATM   14  C2  UNL     1     -29.767  -9.365  -6.009  1.00  0.00     0.116 C 
HETATM   15  C1  UNL     1     -30.956 -10.241  -5.675  1.00  0.00     0.039 C 
BRANCH  14  16
HETATM   16  O1  UNL     1     -29.507  -9.489  -7.353  1.00  0.00    -0.396 OA
ATOM     17  H1  UNL     1     -30.041 -10.198  -7.694  1.00  0.00     0.210 HD
ENDBRANCH  14  16
ENDBRANCH  13  14
ENDBRANCH  12  13
BRANCH  12  18
HETATM   18  C8  UNL     1     -28.604  -6.328  -6.571  1.00  0.00     0.144 C 
HETATM   19  C9  UNL     1     -28.796  -4.862  -6.404  1.00  0.00     0.036 C 
HETATM   20  C10 UNL     1     -27.962  -4.284  -7.533  1.00  0.00     0.029 C 
HETATM   21  C11 UNL     1     -27.205  -5.509  -8.007  1.00  0.00     0.168 C 
HETATM   22  O2  UNL     1     -27.286  -6.448  -6.978  1.00  0.00    -0.384 OA
ENDBRANCH  12  18
ENDBRANCH   1  12
TORSDOF 5
ENDMDL
MODEL 3
REMARK VINA RESULT: -6.809171013      1.515      2.994
REMARK  5 active torsions:
REMARK  status: ('A' for Active; 'I' for Inactive)
REMARK    1  A    between atoms: C2_2  and  O1_3 
REMARK    2  A    between atoms: C2_2  and  C3_5 
REMARK    3  A    between atoms: C3_5  and  C4_6 
REMARK    4  A    between atoms: C4_6  and  N1_7 
REMARK    5  A    between atoms: C4_6  and  C8_18 
REMARK       I    between atoms: N1_7  and  C5_9 
REMARK       I    between atoms: C5_9  and  N4_14 
ROOT
HETATM    1  N1  UNL     1     -30.091  -7.643  -3.472  1.00  0.00    -0.218 N 
ATOM      2  H1  UNL     1     -30.457  -8.499  -3.055  1.00  0.00     0.178 HD
HETATM    3  C5  UNL     1     -29.642  -6.612  -2.606  1.00  0.00     0.696 C 
HETATM    4  N2  UNL     1     -28.373  -6.426  -2.468  1.00  0.00    -0.125 N 
ATOM      5  H2  UNL     1     -27.734  -7.029  -2.987  1.00  0.00     0.197 HD
HETATM    6  C6  UNL     1     -27.833  -5.438  -1.640  1.00  0.00     0.196 C 
HETATM    7  N3  UNL     1     -27.374  -4.623  -0.957  1.00  0.00    -0.171 NA
HETATM    8  N4  UNL     1     -30.504  -5.759  -1.869  1.00  0.00    -0.125 N 
ATOM      9  H4  UNL     1     -30.473  -4.744  -1.977  1.00  0.00     0.197 HD
HETATM   10  C7  UNL     1     -31.397  -6.375  -0.987  1.00  0.00     0.196 C 
HETATM   11  N5  UNL     1     -32.158  -6.879  -0.253  1.00  0.00    -0.171 NA
ENDROOT
BRANCH   1  12
HETATM   12  C4  UNL     1     -30.058  -7.546  -4.908  1.00  0.00     0.130 C 
BRANCH  12  13
HETATM   13  C3  UNL     1     -28.639  -7.501  -5.433  1.00  0.00     0.059 C 
BRANCH  13  14
HETATM   14  C2  UNL     1     -28.461  -6.459  -6.511  1.00  0.00     0.116 C 
HETATM   15  C1  UNL     1     -28.727  -5.110  -5.877  1.00  0.00     0.039 C 
BRANCH  14  16
HETATM   16  O1  UNL     1     -27.194  -6.440  -7.044  1.00  0.00    -0.396 OA
ATOM     17  H1  UNL     1     -26.572  -6.546  -6.334  1.00  0.00     0.210 HD
ENDBRANCH  14  16
ENDBRANCH  13  14
ENDBRANCH  12  13
BRANCH  12  18
HETATM   18  C8  UNL     1     -30.729  -8.735  -5.559  1.00  0.00     0.144 C 
HETATM   19  C9  UNL     1     -29.809  -9.539  -6.407  1.00  0.00     0.036 C 
HETATM   20  C10 UNL     1     -30.511 -10.882  -6.483  1.00  0.00     0.029 C 
HETATM   21  C11 UNL     1     -31.596 -10.716  -5.439  1.00  0.00     0.168 C 
HETATM   22  O2  UNL     1     -31.210  -9.646  -4.632  1.00  0.00    -0.384 OA
ENDBRANCH  12  18
ENDBRANCH   1  12
TORSDOF 5
ENDMDL
MODEL 4
REMARK VINA RESULT: -6.762742354      1.405      2.789
REMARK  5 active torsions:
REMARK  status: ('A' for Active; 'I' for Inactive)
REMARK    1  A    between atoms: C2_2  and  O1_3 
REMARK    2  A    between atoms: C2_2  and  C3_5 
REMARK    3  A    between atoms: C3_5  and  C4_6 
REMARK    4  A    between atoms: C4_6  and  N1_7 
REMARK    5  A    between atoms: C4_6  and  C8_18 
REMARK       I    between atoms: N1_7  and  C5_9 
REMARK       I    between atoms: C5_9  and  N4_14 
ROOT
HETATM    1  N1  UNL     1     -29.794  -7.557  -3.361  1.00  0.00    -0.218 N 
ATOM      2  H1  UNL     1     -29.919  -8.525  -3.065  1.00  0.00     0.178 HD
HETATM    3  C5  UNL     1     -29.399  -6.603  -2.386  1.00  0.00     0.696 C 
HETATM    4  N2  UNL     1     -28.181  -6.178  -2.392  1.00  0.00    -0.125 N 
ATOM      5  H2  UNL     1     -27.542  -6.544  -3.098  1.00  0.00     0.197 HD
HETATM    6  C6  UNL     1     -27.697  -5.240  -1.476  1.00  0.00     0.196 C 
HETATM    7  N3  UNL     1     -27.284  -4.464  -0.722  1.00  0.00    -0.171 NA
HETATM    8  N4  UNL     1     -30.262  -6.076  -1.391  1.00  0.00    -0.125 N 
ATOM      9  H4  UNL     1     -30.437  -5.074  -1.310  1.00  0.00     0.197 HD
HETATM   10  C7  UNL     1     -30.861  -6.997  -0.526  1.00  0.00     0.196 C 
HETATM   11  N5  UNL     1     -31.380  -7.759   0.198  1.00  0.00    -0.171 NA
ENDROOT
BRANCH   1  12
HETATM   12  C4  UNL     1     -30.027  -7.231  -4.744  1.00  0.00     0.130 C 
BRANCH  12  13
HETATM   13  C3  UNL     1     -28.743  -6.866  -5.457  1.00  0.00     0.059 C 
BRANCH  13  14
HETATM   14  C2  UNL     1     -28.571  -5.373  -5.598  1.00  0.00     0.116 C 
HETATM   15  C1  UNL     1     -28.586  -5.059  -7.078  1.00  0.00     0.039 C 
BRANCH  14  16
HETATM   16  O1  UNL     1     -29.575  -4.651  -4.996  1.00  0.00    -0.396 OA
ATOM     17  H1  UNL     1     -29.331  -4.503  -4.090  1.00  0.00     0.210 HD
ENDBRANCH  14  16
ENDBRANCH  13  14
ENDBRANCH  12  13
BRANCH  12  18
HETATM   18  C8  UNL     1     -30.629  -8.399  -5.494  1.00  0.00     0.144 C 
HETATM   19  C9  UNL     1     -29.630  -9.168  -6.283  1.00  0.00     0.036 C 
HETATM   20  C10 UNL     1     -30.312 -10.512  -6.469  1.00  0.00     0.029 C 
HETATM   21  C11 UNL     1     -31.489 -10.386  -5.521  1.00  0.00     0.168 C 
HETATM   22  O2  UNL     1     -31.184  -9.344  -4.646  1.00  0.00    -0.384 OA
ENDBRANCH  12  18
ENDBRANCH   1  12
TORSDOF 5
ENDMDL
MODEL 5
REMARK VINA RESULT: -6.641219887      2.958      6.000
REMARK  5 active torsions:
REMARK  status: ('A' for Active; 'I' for Inactive)
REMARK    1  A    between atoms: C2_2  and  O1_3 
REMARK    2  A    between atoms: C2_2  and  C3_5 
REMARK    3  A    between atoms: C3_5  and  C4_6 
REMARK    4  A    between atoms: C4_6  and  N1_7 
REMARK    5  A    between atoms: C4_6  and  C8_18 
REMARK       I    between atoms: N1_7  and  C5_9 
REMARK       I    between atoms: C5_9  and  N4_14 
ROOT
HETATM    1  N1  UNL     1     -30.800  -7.389  -4.374  1.00  0.00    -0.218 N 
ATOM      2  H1  UNL     1     -31.722  -7.663  -4.714  1.00  0.00     0.178 HD
HETATM    3  C5  UNL     1     -29.699  -7.489  -5.264  1.00  0.00     0.696 C 
HETATM    4  N2  UNL     1     -29.217  -6.409  -5.778  1.00  0.00    -0.125 N 
ATOM      5  H2  UNL     1     -29.645  -5.518  -5.527  1.00  0.00     0.197 HD
HETATM    6  C6  UNL     1     -28.135  -6.404  -6.663  1.00  0.00     0.196 C 
HETATM    7  N3  UNL     1     -27.239  -6.386  -7.397  1.00  0.00    -0.171 NA
HETATM    8  N4  UNL     1     -29.082  -8.713  -5.635  1.00  0.00    -0.125 N 
ATOM      9  H4  UNL     1     -28.090  -8.882  -5.472  1.00  0.00     0.197 HD
HETATM   10  C7  UNL     1     -29.902  -9.674  -6.234  1.00  0.00     0.196 C 
HETATM   11  N5  UNL     1     -30.579 -10.493  -6.726  1.00  0.00    -0.171 NA
ENDROOT
BRANCH   1  12
HETATM   12  C4  UNL     1     -30.687  -6.922  -3.017  1.00  0.00     0.130 C 
BRANCH  12  13
HETATM   13  C3  UNL     1     -31.237  -7.928  -2.031  1.00  0.00     0.059 C 
BRANCH  13  14
HETATM   14  C2  UNL     1     -32.010  -7.270  -0.913  1.00  0.00     0.116 C 
HETATM   15  C1  UNL     1     -31.629  -7.977   0.370  1.00  0.00     0.039 C 
BRANCH  14  16
HETATM   16  O1  UNL     1     -31.724  -5.934  -0.767  1.00  0.00    -0.396 OA
ATOM     17  H1  UNL     1     -32.337  -5.566  -0.141  1.00  0.00     0.210 HD
ENDBRANCH  14  16
ENDBRANCH  13  14
ENDBRANCH  12  13
BRANCH  12  18
HETATM   18  C8  UNL     1     -29.244  -6.676  -2.635  1.00  0.00     0.144 C 
HETATM   19  C9  UNL     1     -28.917  -5.234  -2.469  1.00  0.00     0.036 C 
HETATM   20  C10 UNL     1     -27.673  -5.271  -1.600  1.00  0.00     0.029 C 
HETATM   21  C11 UNL     1     -27.639  -6.727  -1.182  1.00  0.00     0.168 C 
HETATM   22  O2  UNL     1     -28.918  -7.235  -1.410  1.00  0.00    -0.384 OA
ENDBRANCH  12  18
ENDBRANCH   1  12
TORSDOF 5
ENDMDL
