MODEL 1
REMARK VINA RESULT: -3.744865872      0.000      0.000
REMARK  7 active torsions:
REMARK  status: ('A' for Active; 'I' for Inactive)
REMARK    1  A    between atoms: C2_2  and  C3_3 
REMARK    2  A    between atoms: C6_7  and  C7_8 
REMARK    3  A    between atoms: N2_10  and  O1_12 
REMARK    4  A    between atoms: N3_14  and  C8_15 
REMARK    5  A    between atoms: C8_15  and  C9_16 
REMARK    6  A    between atoms: C9_16  and  C10_17 
REMARK    7  A    between atoms: C10_17  and  N4_18 
ROOT
HETATM    1  C3  UNL     1     -28.635  -4.827  -6.775  1.00  0.00     0.062 C 
HETATM    2  C4  UNL     1     -29.090  -5.478  -5.460  1.00  0.00     0.044 C 
HETATM    3  S1  UNL     1     -27.041  -4.011  -6.565  1.00  0.00    -0.138 SA
HETATM    4  C5  UNL     1     -26.251  -4.686  -8.079  1.00  0.00     0.130 C 
HETATM    5  C6  UNL     1     -27.443  -5.358  -8.734  1.00  0.00     0.042 C 
HETATM    6  N3  UNL     1     -28.352  -5.837  -7.759  1.00  0.00    -0.265 NA
ENDROOT
BRANCH   6   7
HETATM    7  C8  UNL     1     -27.674  -6.958  -7.100  1.00  0.00     0.099 C 
BRANCH   7   8
HETATM    8  C9  UNL     1     -28.116  -8.313  -7.571  1.00  0.00     0.042 C 
BRANCH   8   9
HETATM    9  C10 UNL     1     -28.853  -8.975  -6.401  1.00  0.00     0.230 C 
BRANCH   9  10
HETATM   10  N4  UNL     1     -29.699 -10.005  -6.970  1.00  0.00    -0.079 N 
ATOM     11  H43 UNL     1     -30.158  -9.717  -7.834  1.00  0.00     0.274 HD
ATOM     12  H42 UNL     1     -29.174 -10.788  -7.359  1.00  0.00     0.274 HD
ATOM     13  H41 UNL     1     -30.355 -10.283  -6.241  1.00  0.00     0.274 HD
ENDBRANCH   9  10
ENDBRANCH   8   9
ENDBRANCH   7   8
ENDBRANCH   6   7
BRANCH   1  14
HETATM   14  C2  UNL     1     -29.684  -3.834  -7.090  1.00  0.00     0.032 C 
HETATM   15  C1  UNL     1     -29.596  -2.726  -6.022  1.00  0.00     0.008 C 
ENDBRANCH   1  14
BRANCH   5  16
HETATM   16  C7  UNL     1     -27.913  -4.654  -9.909  1.00  0.00     0.154 C 
HETATM   17  N1  UNL     1     -27.575  -3.275 -10.137  1.00  0.00    -0.079 NA
HETATM   18  N2  UNL     1     -28.622  -5.208 -10.810  1.00  0.00    -0.254 N 
ATOM     19  H2  UNL     1     -28.923  -4.661 -11.618  1.00  0.00     0.195 HD
BRANCH  18  20
HETATM   20  O1  UNL     1     -28.983  -6.510 -10.718  1.00  0.00    -0.288 OA
ATOM     21  H1  UNL     1     -29.065  -7.054 -11.492  1.00  0.00     0.244 HD
ENDBRANCH  18  20
ENDBRANCH   5  16
TORSDOF 7
ENDMDL
MODEL 2
REMARK VINA RESULT: -2.820936256      5.596      7.230
REMARK  7 active torsions:
REMARK  status: ('A' for Active; 'I' for Inactive)
REMARK    1  A    between atoms: C2_2  and  C3_3 
REMARK    2  A    between atoms: C6_7  and  C7_8 
REMARK    3  A    between atoms: N2_10  and  O1_12 
REMARK    4  A    between atoms: N3_14  and  C8_15 
REMARK    5  A    between atoms: C8_15  and  C9_16 
REMARK    6  A    between atoms: C9_16  and  C10_17 
REMARK    7  A    between atoms: C10_17  and  N4_18 
ROOT
HETATM    1  C3  UNL     1     -29.323  -6.589  -2.918  1.00  0.00     0.062 C 
HETATM    2  C4  UNL     1     -28.666  -6.619  -4.307  1.00  0.00     0.044 C 
HETATM    3  S1  UNL     1     -30.257  -5.064  -2.687  1.00  0.00    -0.138 SA
HETATM    4  C5  UNL     1     -31.777  -5.842  -2.013  1.00  0.00     0.130 C 
HETATM    5  C6  UNL     1     -31.301  -7.273  -1.842  1.00  0.00     0.042 C 
HETATM    6  N3  UNL     1     -30.336  -7.604  -2.824  1.00  0.00    -0.265 NA
ENDROOT
BRANCH   6   7
HETATM    7  C8  UNL     1     -31.066  -7.659  -4.095  1.00  0.00     0.099 C 
BRANCH   7   8
HETATM    8  C9  UNL     1     -30.470  -8.587  -5.113  1.00  0.00     0.042 C 
BRANCH   8   9
HETATM    9  C10 UNL     1     -31.540  -9.631  -5.451  1.00  0.00     0.230 C 
BRANCH   9  10
HETATM   10  N4  UNL     1     -31.282 -10.780  -4.607  1.00  0.00    -0.079 N 
ATOM     11  H43 UNL     1     -30.291 -11.006  -4.527  1.00  0.00     0.274 HD
ATOM     12  H42 UNL     1     -31.453 -10.601  -3.618  1.00  0.00     0.274 HD
ATOM     13  H41 UNL     1     -31.840 -11.549  -4.979  1.00  0.00     0.274 HD
ENDBRANCH   9  10
ENDBRANCH   8   9
ENDBRANCH   7   8
ENDBRANCH   6   7
BRANCH   1  14
HETATM   14  C2  UNL     1     -28.195  -6.651  -1.964  1.00  0.00     0.032 C 
HETATM   15  C1  UNL     1     -27.842  -5.200  -1.582  1.00  0.00     0.008 C 
ENDBRANCH   1  14
BRANCH   5  16
HETATM   16  C7  UNL     1     -31.110  -7.643  -0.455  1.00  0.00     0.154 C 
HETATM   17  N1  UNL     1     -30.028  -7.097   0.320  1.00  0.00    -0.079 NA
HETATM   18  N2  UNL     1     -31.886  -8.441   0.162  1.00  0.00    -0.254 N 
ATOM     19  H2  UNL     1     -31.702  -8.664   1.140  1.00  0.00     0.195 HD
BRANCH  18  20
HETATM   20  O1  UNL     1     -32.954  -9.000  -0.457  1.00  0.00    -0.288 OA
ATOM     21  H1  UNL     1     -33.301  -9.839  -0.177  1.00  0.00     0.244 HD
ENDBRANCH  18  20
ENDBRANCH   5  16
TORSDOF 7
ENDMDL
MODEL 3
REMARK VINA RESULT: -2.650911763      2.808      5.092
REMARK  7 active torsions:
REMARK  status: ('A' for Active; 'I' for Inactive)
REMARK    1  A    between atoms: C2_2  and  C3_3 
REMARK    2  A    between atoms: C6_7  and  C7_8 
REMARK    3  A    between atoms: N2_10  and  O1_12 
REMARK    4  A    between atoms: N3_14  and  C8_15 
REMARK    5  A    between atoms: C8_15  and  C9_16 
REMARK    6  A    between atoms: C9_16  and  C10_17 
REMARK    7  A    between atoms: C10_17  and  N4_18 
ROOT
HETATM    1  C3  UNL     1     -29.420  -6.356  -3.597  1.00  0.00     0.062 C 
HETATM    2  C4  UNL     1     -29.722  -5.063  -2.822  1.00  0.00     0.044 C 
HETATM    3  S1  UNL     1     -30.890  -7.396  -3.699  1.00  0.00    -0.138 SA
HETATM    4  C5  UNL     1     -30.764  -7.771  -5.492  1.00  0.00     0.130 C 
HETATM    5  C6  UNL     1     -29.403  -7.176  -5.802  1.00  0.00     0.042 C 
HETATM    6  N3  UNL     1     -29.140  -6.057  -4.975  1.00  0.00    -0.265 NA
ENDROOT
BRANCH   6   7
HETATM    7  C8  UNL     1     -30.060  -5.007  -5.424  1.00  0.00     0.099 C 
BRANCH   7   8
HETATM    8  C9  UNL     1     -29.671  -4.354  -6.718  1.00  0.00     0.042 C 
BRANCH   8   9
HETATM    9  C10 UNL     1     -28.380  -3.570  -6.455  1.00  0.00     0.230 C 
BRANCH   9  10
HETATM   10  N4  UNL     1     -27.455  -3.922  -7.513  1.00  0.00    -0.079 N 
ATOM     11  H43 UNL     1     -26.500  -3.615  -7.332  1.00  0.00     0.274 HD
ATOM     12  H42 UNL     1     -27.261  -4.923  -7.562  1.00  0.00     0.274 HD
ATOM     13  H41 UNL     1     -27.841  -3.545  -8.379  1.00  0.00     0.274 HD
ENDBRANCH   9  10
ENDBRANCH   8   9
ENDBRANCH   7   8
ENDBRANCH   6   7
BRANCH   1  14
HETATM   14  C2  UNL     1     -28.365  -7.031  -2.811  1.00  0.00     0.032 C 
HETATM   15  C1  UNL     1     -28.221  -6.259  -1.485  1.00  0.00     0.008 C 
ENDBRANCH   1  14
BRANCH   5  16
HETATM   16  C7  UNL     1     -28.388  -8.181  -6.041  1.00  0.00     0.154 C 
HETATM   17  N1  UNL     1     -28.556  -9.534  -5.581  1.00  0.00    -0.079 NA
HETATM   18  N2  UNL     1     -27.315  -7.942  -6.682  1.00  0.00    -0.254 N 
ATOM     19  H2  UNL     1     -26.636  -8.691  -6.820  1.00  0.00     0.195 HD
BRANCH  18  20
HETATM   20  O1  UNL     1     -27.056  -6.711  -7.184  1.00  0.00    -0.288 OA
ATOM     21  H1  UNL     1     -26.280  -6.546  -7.706  1.00  0.00     0.244 HD
ENDBRANCH  18  20
ENDBRANCH   5  16
TORSDOF 7
ENDMDL
MODEL 4
REMARK VINA RESULT: -2.641482991      3.896      6.239
REMARK  7 active torsions:
REMARK  status: ('A' for Active; 'I' for Inactive)
REMARK    1  A    between atoms: C2_2  and  C3_3 
REMARK    2  A    between atoms: C6_7  and  C7_8 
REMARK    3  A    between atoms: N2_10  and  O1_12 
REMARK    4  A    between atoms: N3_14  and  C8_15 
REMARK    5  A    between atoms: C8_15  and  C9_16 
REMARK    6  A    between atoms: C9_16  and  C10_17 
REMARK    7  A    between atoms: C10_17  and  N4_18 
ROOT
HETATM    1  C3  UNL     1     -29.165  -6.221  -2.129  1.00  0.00     0.062 C 
HETATM    2  C4  UNL     1     -27.972  -5.281  -1.891  1.00  0.00     0.044 C 
HETATM    3  S1  UNL     1     -30.722  -5.318  -2.013  1.00  0.00    -0.138 SA
HETATM    4  C5  UNL     1     -31.482  -6.002  -3.538  1.00  0.00     0.130 C 
HETATM    5  C6  UNL     1     -30.468  -7.073  -3.894  1.00  0.00     0.042 C 
HETATM    6  N3  UNL     1     -29.166  -6.692  -3.487  1.00  0.00    -0.265 NA
ENDROOT
BRANCH   6   7
HETATM    7  C8  UNL     1     -28.784  -5.583  -4.368  1.00  0.00     0.099 C 
BRANCH   7   8
HETATM    8  C9  UNL     1     -28.652  -5.959  -5.816  1.00  0.00     0.042 C 
BRANCH   8   9
HETATM    9  C10 UNL     1     -28.641  -4.654  -6.619  1.00  0.00     0.230 C 
BRANCH   9  10
HETATM   10  N4  UNL     1     -29.470  -3.711  -5.896  1.00  0.00    -0.079 N 
ATOM     11  H43 UNL     1     -29.830  -4.083  -5.017  1.00  0.00     0.274 HD
ATOM     12  H42 UNL     1     -28.942  -2.933  -5.499  1.00  0.00     0.274 HD
ATOM     13  H41 UNL     1     -30.205  -3.414  -6.536  1.00  0.00     0.274 HD
ENDBRANCH   9  10
ENDBRANCH   8   9
ENDBRANCH   7   8
ENDBRANCH   6   7
BRANCH   1  14
HETATM   14  C2  UNL     1     -29.074  -7.229  -1.051  1.00  0.00     0.032 C 
HETATM   15  C1  UNL     1     -30.247  -6.970  -0.085  1.00  0.00     0.008 C 
ENDBRANCH   1  14
BRANCH   5  16
HETATM   16  C7  UNL     1     -30.958  -8.416  -3.659  1.00  0.00     0.154 C 
HETATM   17  N1  UNL     1     -31.502  -8.798  -2.383  1.00  0.00    -0.079 NA
HETATM   18  N2  UNL     1     -30.961  -9.319  -4.556  1.00  0.00    -0.254 N 
ATOM     19  H2  UNL     1     -31.320 -10.247  -4.332  1.00  0.00     0.195 HD
BRANCH  18  20
HETATM   20  O1  UNL     1     -30.496  -9.070  -5.804  1.00  0.00    -0.288 OA
ATOM     21  H1  UNL     1     -29.839  -9.627  -6.204  1.00  0.00     0.244 HD
ENDBRANCH  18  20
ENDBRANCH   5  16
TORSDOF 7
ENDMDL
MODEL 5
REMARK VINA RESULT: -2.569628743      3.443      5.827
REMARK  7 active torsions:
REMARK  status: ('A' for Active; 'I' for Inactive)
REMARK    1  A    between atoms: C2_2  and  C3_3 
REMARK    2  A    between atoms: C6_7  and  C7_8 
REMARK    3  A    between atoms: N2_10  and  O1_12 
REMARK    4  A    between atoms: N3_14  and  C8_15 
REMARK    5  A    between atoms: C8_15  and  C9_16 
REMARK    6  A    between atoms: C9_16  and  C10_17 
REMARK    7  A    between atoms: C10_17  and  N4_18 
ROOT
HETATM    1  C3  UNL     1     -29.912  -6.615  -2.742  1.00  0.00     0.062 C 
HETATM    2  C4  UNL     1     -29.231  -5.447  -2.011  1.00  0.00     0.044 C 
HETATM    3  S1  UNL     1     -31.614  -6.195  -3.168  1.00  0.00    -0.138 SA
HETATM    4  C5  UNL     1     -31.551  -6.779  -4.907  1.00  0.00     0.130 C 
HETATM    5  C6  UNL     1     -30.196  -7.460  -4.920  1.00  0.00     0.042 C 
HETATM    6  N3  UNL     1     -29.301  -6.823  -4.027  1.00  0.00    -0.265 NA
ENDROOT
BRANCH   6   7
HETATM    7  C8  UNL     1     -29.008  -5.516  -4.625  1.00  0.00     0.099 C 
BRANCH   7   8
HETATM    8  C9  UNL     1     -28.288  -5.583  -5.940  1.00  0.00     0.042 C 
BRANCH   8   9
HETATM    9  C10 UNL     1     -28.789  -4.408  -6.787  1.00  0.00     0.230 C 
BRANCH   9  10
HETATM   10  N4  UNL     1     -29.625  -3.598  -5.925  1.00  0.00    -0.079 N 
ATOM     11  H43 UNL     1     -29.095  -3.057  -5.242  1.00  0.00     0.274 HD
ATOM     12  H42 UNL     1     -30.056  -2.809  -6.407  1.00  0.00     0.274 HD
ATOM     13  H41 UNL     1     -30.305  -4.228  -5.499  1.00  0.00     0.274 HD
ENDBRANCH   9  10
ENDBRANCH   8   9
ENDBRANCH   7   8
ENDBRANCH   6   7
BRANCH   1  14
HETATM   14  C2  UNL     1     -29.884  -7.735  -1.777  1.00  0.00     0.032 C 
HETATM   15  C1  UNL     1     -31.201  -7.678  -0.978  1.00  0.00     0.008 C 
ENDBRANCH   1  14
BRANCH   5  16
HETATM   16  C7  UNL     1     -30.291  -8.905  -4.975  1.00  0.00     0.154 C 
HETATM   17  N1  UNL     1     -31.313  -9.612  -4.252  1.00  0.00    -0.079 NA
HETATM   18  N2  UNL     1     -29.505  -9.624  -5.673  1.00  0.00    -0.254 N 
ATOM     19  H2  UNL     1     -29.621 -10.638  -5.673  1.00  0.00     0.195 HD
BRANCH  18  20
HETATM   20  O1  UNL     1     -28.518  -9.068  -6.415  1.00  0.00    -0.288 OA
ATOM     21  H1  UNL     1     -28.496  -8.133  -6.584  1.00  0.00     0.244 HD
ENDBRANCH  18  20
ENDBRANCH   5  16
TORSDOF 7
ENDMDL
