MODEL 1
REMARK VINA RESULT: -7.967284067      0.000      0.000
REMARK  7 active torsions:
REMARK  status: ('A' for Active; 'I' for Inactive)
REMARK    1  A    between atoms: C2_2  and  O1_3 
REMARK    2  A    between atoms: O1_3  and  C3_4 
REMARK    3  A    between atoms: C3_4  and  C4_6 
REMARK    4  A    between atoms: C5_10  and  C6_11 
REMARK    5  A    between atoms: C6_11  and  N3_15 
REMARK    6  A    between atoms: N3_15  and  N4_17 
REMARK    7  A    between atoms: C7_19  and  C8_20 
ROOT
HETATM    1  C6  UNL     1     -15.365 -26.869 -10.581  1.00  0.00     0.141 C 
HETATM    2  N2  UNL     1     -16.175 -25.927 -10.157  1.00  0.00    -0.383 N 
ATOM      3  H21 UNL     1     -16.063 -24.972 -10.496  1.00  0.00     0.157 HD
ATOM      4  H22 UNL     1     -16.897 -26.212  -9.495  1.00  0.00     0.157 HD
ENDROOT
BRANCH   1   5
HETATM    5  C5  UNL     1     -15.526 -28.249 -10.092  1.00  0.00     0.091 A 
HETATM    6  N1  UNL     1     -14.931 -28.546  -8.910  1.00  0.00    -0.322 N 
HETATM    7  S1  UNL     1     -15.259 -30.131  -8.622  1.00  0.00    -0.007 SA
ATOM      8  H1  UNL     1     -14.389 -27.915  -8.320  1.00  0.00     0.174 HD
HETATM    9  C4  UNL     1     -16.194 -30.470 -10.046  1.00  0.00     0.105 A 
HETATM   10  C13 UNL     1     -16.193 -29.271 -10.685  1.00  0.00    -0.006 A 
HETATM   11  C14 UNL     1     -16.928 -29.082 -12.012  1.00  0.00     0.052 C 
BRANCH   9  12
HETATM   12  C3  UNL     1     -16.787 -31.776 -10.374  1.00  0.00     0.302 C 
HETATM   13  O2  UNL     1     -17.942 -32.075 -10.118  1.00  0.00    -0.259 OA
BRANCH  12  14
HETATM   14  O1  UNL     1     -16.001 -32.746 -11.020  1.00  0.00    -0.317 OA
BRANCH  14  15
HETATM   15  C2  UNL     1     -15.316 -32.460 -12.221  1.00  0.00     0.174 C 
HETATM   16  C1  UNL     1     -13.837 -32.607 -11.961  1.00  0.00     0.034 C 
ENDBRANCH  14  15
ENDBRANCH  12  14
ENDBRANCH   9  12
ENDBRANCH   1   5
BRANCH   1  17
HETATM   17  N3  UNL     1     -14.387 -26.483 -11.478  1.00  0.00    -0.285 N 
ATOM     18  H3  UNL     1     -14.370 -25.520 -11.812  1.00  0.00     0.188 HD
BRANCH  17  19
HETATM   19  N4  UNL     1     -13.412 -27.390 -11.945  1.00  0.00    -0.314 N 
HETATM   20  C7  UNL     1     -13.754 -28.180 -12.891  1.00  0.00     0.084 C 
ATOM     21  H4  UNL     1     -12.473 -27.414 -11.545  1.00  0.00     0.185 HD
BRANCH  20  22
HETATM   22  C8  UNL     1     -12.782 -29.162 -13.434  1.00  0.00     0.025 C 
HETATM   23  C9  UNL     1     -11.623 -28.494 -14.099  1.00  0.00     0.010 C 
HETATM   24  C10 UNL     1     -11.572 -28.958 -15.518  1.00  0.00     0.001 C 
HETATM   25  C11 UNL     1     -12.362 -30.240 -15.538  1.00  0.00     0.001 C 
HETATM   26  C12 UNL     1     -13.472 -29.952 -14.539  1.00  0.00     0.010 C 
ENDBRANCH  20  22
ENDBRANCH  17  19
ENDBRANCH   1  17
TORSDOF 7
ENDMDL
MODEL 2
REMARK VINA RESULT: -7.449705937      3.027      4.491
REMARK  7 active torsions:
REMARK  status: ('A' for Active; 'I' for Inactive)
REMARK    1  A    between atoms: C2_2  and  O1_3 
REMARK    2  A    between atoms: O1_3  and  C3_4 
REMARK    3  A    between atoms: C3_4  and  C4_6 
REMARK    4  A    between atoms: C5_10  and  C6_11 
REMARK    5  A    between atoms: C6_11  and  N3_15 
REMARK    6  A    between atoms: N3_15  and  N4_17 
REMARK    7  A    between atoms: C7_19  and  C8_20 
ROOT
HETATM    1  C6  UNL     1     -14.102 -33.613 -11.720  1.00  0.00     0.141 C 
HETATM    2  N2  UNL     1     -14.042 -34.860 -11.316  1.00  0.00    -0.383 N 
ATOM      3  H21 UNL     1     -13.384 -35.504 -11.755  1.00  0.00     0.157 HD
ATOM      4  H22 UNL     1     -14.672 -35.125 -10.559  1.00  0.00     0.157 HD
ENDROOT
BRANCH   1   5
HETATM    5  C5  UNL     1     -15.052 -32.683 -11.086  1.00  0.00     0.091 A 
HETATM    6  N1  UNL     1     -16.266 -32.560 -11.677  1.00  0.00    -0.322 N 
HETATM    7  S1  UNL     1     -17.100 -31.464 -10.779  1.00  0.00    -0.007 SA
ATOM      8  H1  UNL     1     -16.595 -33.049 -12.510  1.00  0.00     0.174 HD
HETATM    9  C4  UNL     1     -15.886 -31.121  -9.586  1.00  0.00     0.105 A 
HETATM   10  C13 UNL     1     -14.859 -31.920  -9.981  1.00  0.00    -0.006 A 
HETATM   11  C14 UNL     1     -13.547 -31.964  -9.198  1.00  0.00     0.052 C 
BRANCH   9  12
HETATM   12  C3  UNL     1     -16.042 -30.174  -8.472  1.00  0.00     0.302 C 
HETATM   13  O2  UNL     1     -16.457 -30.493  -7.369  1.00  0.00    -0.259 OA
BRANCH  12  14
HETATM   14  O1  UNL     1     -15.700 -28.824  -8.662  1.00  0.00    -0.317 OA
BRANCH  14  15
HETATM   15  C2  UNL     1     -15.085 -28.379  -9.853  1.00  0.00     0.174 C 
HETATM   16  C1  UNL     1     -16.064 -27.494 -10.583  1.00  0.00     0.034 C 
ENDBRANCH  14  15
ENDBRANCH  12  14
ENDBRANCH   9  12
ENDBRANCH   1   5
BRANCH   1  17
HETATM   17  N3  UNL     1     -13.248 -33.255 -12.746  1.00  0.00    -0.285 N 
ATOM     18  H3  UNL     1     -12.785 -33.986 -13.286  1.00  0.00     0.188 HD
BRANCH  17  19
HETATM   19  N4  UNL     1     -13.002 -31.903 -13.066  1.00  0.00    -0.314 N 
HETATM   20  C7  UNL     1     -13.747 -31.368 -13.957  1.00  0.00     0.084 C 
ATOM     21  H4  UNL     1     -12.260 -31.375 -12.605  1.00  0.00     0.185 HD
BRANCH  20  22
HETATM   22  C8  UNL     1     -13.547 -29.949 -14.345  1.00  0.00     0.025 C 
HETATM   23  C9  UNL     1     -12.285 -29.752 -15.119  1.00  0.00     0.010 C 
HETATM   24  C10 UNL     1     -11.438 -28.769 -14.380  1.00  0.00     0.001 C 
HETATM   25  C11 UNL     1     -12.390 -28.033 -13.476  1.00  0.00     0.001 C 
HETATM   26  C12 UNL     1     -13.366 -29.129 -13.074  1.00  0.00     0.010 C 
ENDBRANCH  20  22
ENDBRANCH  17  19
ENDBRANCH   1  17
TORSDOF 7
ENDMDL
MODEL 3
REMARK VINA RESULT: -7.386847842      2.189      3.451
REMARK  7 active torsions:
REMARK  status: ('A' for Active; 'I' for Inactive)
REMARK    1  A    between atoms: C2_2  and  O1_3 
REMARK    2  A    between atoms: O1_3  and  C3_4 
REMARK    3  A    between atoms: C3_4  and  C4_6 
REMARK    4  A    between atoms: C5_10  and  C6_11 
REMARK    5  A    between atoms: C6_11  and  N3_15 
REMARK    6  A    between atoms: N3_15  and  N4_17 
REMARK    7  A    between atoms: C7_19  and  C8_20 
ROOT
HETATM    1  C6  UNL     1     -15.787 -30.020  -8.451  1.00  0.00     0.141 C 
HETATM    2  N2  UNL     1     -16.729 -30.379  -7.610  1.00  0.00    -0.383 N 
ATOM      3  H21 UNL     1     -17.331 -29.670  -7.192  1.00  0.00     0.157 HD
ATOM      4  H22 UNL     1     -16.812 -31.377  -7.419  1.00  0.00     0.157 HD
ENDROOT
BRANCH   1   5
HETATM    5  C5  UNL     1     -14.917 -31.043  -9.056  1.00  0.00     0.091 A 
HETATM    6  N1  UNL     1     -13.710 -31.238  -8.467  1.00  0.00    -0.322 N 
HETATM    7  S1  UNL     1     -12.959 -32.406  -9.346  1.00  0.00    -0.007 SA
ATOM      8  H1  UNL     1     -13.344 -30.757  -7.646  1.00  0.00     0.174 HD
HETATM    9  C4  UNL     1     -14.200 -32.688 -10.527  1.00  0.00     0.105 A 
HETATM   10  C13 UNL     1     -15.168 -31.814 -10.144  1.00  0.00    -0.006 A 
HETATM   11  C14 UNL     1     -16.492 -31.719 -10.901  1.00  0.00     0.052 C 
BRANCH   9  12
HETATM   12  C3  UNL     1     -14.111 -33.657 -11.630  1.00  0.00     0.302 C 
HETATM   13  O2  UNL     1     -14.662 -34.747 -11.616  1.00  0.00    -0.259 OA
BRANCH  12  14
HETATM   14  O1  UNL     1     -13.358 -33.333 -12.773  1.00  0.00    -0.317 OA
BRANCH  14  15
HETATM   15  C2  UNL     1     -13.108 -31.992 -13.134  1.00  0.00     0.174 C 
HETATM   16  C1  UNL     1     -14.289 -31.493 -13.930  1.00  0.00     0.034 C 
ENDBRANCH  14  15
ENDBRANCH  12  14
ENDBRANCH   9  12
ENDBRANCH   1   5
BRANCH   1  17
HETATM   17  N3  UNL     1     -15.674 -28.667  -8.711  1.00  0.00    -0.285 N 
ATOM     18  H3  UNL     1     -16.195 -28.005  -8.136  1.00  0.00     0.188 HD
BRANCH  17  19
HETATM   19  N4  UNL     1     -14.855 -28.179  -9.751  1.00  0.00    -0.314 N 
HETATM   20  C7  UNL     1     -15.442 -27.728 -10.794  1.00  0.00     0.084 C 
ATOM     21  H4  UNL     1     -13.837 -28.186  -9.674  1.00  0.00     0.185 HD
BRANCH  20  22
HETATM   22  C8  UNL     1     -14.647 -27.197 -11.930  1.00  0.00     0.025 C 
HETATM   23  C9  UNL     1     -14.081 -28.290 -12.776  1.00  0.00     0.010 C 
HETATM   24  C10 UNL     1     -12.594 -28.141 -12.790  1.00  0.00     0.001 C 
HETATM   25  C11 UNL     1     -12.340 -26.713 -12.387  1.00  0.00     0.001 C 
HETATM   26  C12 UNL     1     -13.437 -26.467 -11.362  1.00  0.00     0.010 C 
ENDBRANCH  20  22
ENDBRANCH  17  19
ENDBRANCH   1  17
TORSDOF 7
ENDMDL
MODEL 4
REMARK VINA RESULT: -7.374283693      2.528      4.372
REMARK  7 active torsions:
REMARK  status: ('A' for Active; 'I' for Inactive)
REMARK    1  A    between atoms: C2_2  and  O1_3 
REMARK    2  A    between atoms: O1_3  and  C3_4 
REMARK    3  A    between atoms: C3_4  and  C4_6 
REMARK    4  A    between atoms: C5_10  and  C6_11 
REMARK    5  A    between atoms: C6_11  and  N3_15 
REMARK    6  A    between atoms: N3_15  and  N4_17 
REMARK    7  A    between atoms: C7_19  and  C8_20 
ROOT
HETATM    1  C6  UNL     1     -15.372 -30.139  -8.423  1.00  0.00     0.141 C 
HETATM    2  N2  UNL     1     -16.388 -30.441  -7.649  1.00  0.00    -0.383 N 
ATOM      3  H21 UNL     1     -16.928 -29.695  -7.209  1.00  0.00     0.157 HD
ATOM      4  H22 UNL     1     -16.591 -31.433  -7.530  1.00  0.00     0.157 HD
ENDROOT
BRANCH   1   5
HETATM    5  C5  UNL     1     -14.591 -31.214  -9.059  1.00  0.00     0.091 A 
HETATM    6  N1  UNL     1     -13.392 -31.506  -8.497  1.00  0.00    -0.322 N 
HETATM    7  S1  UNL     1     -12.745 -32.713  -9.407  1.00  0.00    -0.007 SA
ATOM      8  H1  UNL     1     -12.975 -31.066  -7.677  1.00  0.00     0.174 HD
HETATM    9  C4  UNL     1     -14.027 -32.885 -10.566  1.00  0.00     0.105 A 
HETATM   10  C13 UNL     1     -14.920 -31.949 -10.151  1.00  0.00    -0.006 A 
HETATM   11  C14 UNL     1     -16.247 -31.744 -10.881  1.00  0.00     0.052 C 
BRANCH   9  12
HETATM   12  C3  UNL     1     -14.030 -33.842 -11.684  1.00  0.00     0.302 C 
HETATM   13  O2  UNL     1     -14.562 -34.939 -11.629  1.00  0.00    -0.259 OA
BRANCH  12  14
HETATM   14  O1  UNL     1     -13.395 -33.496 -12.889  1.00  0.00    -0.317 OA
BRANCH  14  15
HETATM   15  C2  UNL     1     -12.927 -32.185 -13.126  1.00  0.00     0.174 C 
HETATM   16  C1  UNL     1     -13.993 -31.439 -13.891  1.00  0.00     0.034 C 
ENDBRANCH  14  15
ENDBRANCH  12  14
ENDBRANCH   9  12
ENDBRANCH   1   5
BRANCH   1  17
HETATM   17  N3  UNL     1     -15.097 -28.794  -8.585  1.00  0.00    -0.285 N 
ATOM     18  H3  UNL     1     -14.381 -28.359  -8.003  1.00  0.00     0.188 HD
BRANCH  17  19
HETATM   19  N4  UNL     1     -15.782 -28.008  -9.535  1.00  0.00    -0.314 N 
HETATM   20  C7  UNL     1     -15.342 -28.027 -10.735  1.00  0.00     0.084 C 
ATOM     21  H4  UNL     1     -16.595 -27.448  -9.275  1.00  0.00     0.185 HD
BRANCH  20  22
HETATM   22  C8  UNL     1     -16.011 -27.225 -11.791  1.00  0.00     0.025 C 
HETATM   23  C9  UNL     1     -16.190 -25.800 -11.383  1.00  0.00     0.010 C 
HETATM   24  C10 UNL     1     -17.649 -25.484 -11.428  1.00  0.00     0.001 C 
HETATM   25  C11 UNL     1     -18.249 -26.536 -12.322  1.00  0.00     0.001 C 
HETATM   26  C12 UNL     1     -17.424 -27.766 -11.974  1.00  0.00     0.010 C 
ENDBRANCH  20  22
ENDBRANCH  17  19
ENDBRANCH   1  17
TORSDOF 7
ENDMDL
MODEL 5
REMARK VINA RESULT: -7.367674008      2.999      4.194
REMARK  7 active torsions:
REMARK  status: ('A' for Active; 'I' for Inactive)
REMARK    1  A    between atoms: C2_2  and  O1_3 
REMARK    2  A    between atoms: O1_3  and  C3_4 
REMARK    3  A    between atoms: C3_4  and  C4_6 
REMARK    4  A    between atoms: C5_10  and  C6_11 
REMARK    5  A    between atoms: C6_11  and  N3_15 
REMARK    6  A    between atoms: N3_15  and  N4_17 
REMARK    7  A    between atoms: C7_19  and  C8_20 
ROOT
HETATM    1  C6  UNL     1     -16.671 -31.588 -10.992  1.00  0.00     0.141 C 
HETATM    2  N2  UNL     1     -17.899 -31.937 -10.682  1.00  0.00    -0.383 N 
ATOM      3  H21 UNL     1     -18.305 -32.778 -11.092  1.00  0.00     0.157 HD
ATOM      4  H22 UNL     1     -18.392 -31.331 -10.027  1.00  0.00     0.157 HD
ENDROOT
BRANCH   1   5
HETATM    5  C5  UNL     1     -16.084 -30.373 -10.401  1.00  0.00     0.091 A 
HETATM    6  N1  UNL     1     -15.313 -30.548  -9.299  1.00  0.00    -0.322 N 
HETATM    7  S1  UNL     1     -14.811 -29.047  -8.854  1.00  0.00    -0.007 SA
ATOM      8  H1  UNL     1     -15.089 -31.431  -8.840  1.00  0.00     0.174 HD
HETATM    9  C4  UNL     1     -15.596 -28.126 -10.099  1.00  0.00     0.105 A 
HETATM   10  C13 UNL     1     -16.228 -29.091 -10.818  1.00  0.00    -0.006 A 
HETATM   11  C14 UNL     1     -17.054 -28.741 -12.055  1.00  0.00     0.052 C 
BRANCH   9  12
HETATM   12  C3  UNL     1     -15.526 -26.663 -10.237  1.00  0.00     0.302 C 
HETATM   13  O2  UNL     1     -16.252 -25.893  -9.627  1.00  0.00    -0.259 OA
BRANCH  12  14
HETATM   14  O1  UNL     1     -14.580 -26.097 -11.109  1.00  0.00    -0.317 OA
BRANCH  14  15
HETATM   15  C2  UNL     1     -13.637 -26.896 -11.793  1.00  0.00     0.174 C 
HETATM   16  C1  UNL     1     -12.310 -26.179 -11.765  1.00  0.00     0.034 C 
ENDBRANCH  14  15
ENDBRANCH  12  14
ENDBRANCH   9  12
ENDBRANCH   1   5
BRANCH   1  17
HETATM   17  N3  UNL     1     -16.002 -32.409 -11.880  1.00  0.00    -0.285 N 
ATOM     18  H3  UNL     1     -15.904 -33.401 -11.663  1.00  0.00     0.188 HD
BRANCH  17  19
HETATM   19  N4  UNL     1     -15.452 -31.909 -13.079  1.00  0.00    -0.314 N 
HETATM   20  C7  UNL     1     -14.198 -31.656 -13.085  1.00  0.00     0.084 C 
ATOM     21  H4  UNL     1     -16.029 -31.756 -13.906  1.00  0.00     0.185 HD
BRANCH  20  22
HETATM   22  C8  UNL     1     -13.547 -31.127 -14.310  1.00  0.00     0.025 C 
HETATM   23  C9  UNL     1     -12.136 -31.598 -14.442  1.00  0.00     0.010 C 
HETATM   24  C10 UNL     1     -11.250 -30.397 -14.495  1.00  0.00     0.001 C 
HETATM   25  C11 UNL     1     -12.154 -29.262 -14.896  1.00  0.00     0.001 C 
HETATM   26  C12 UNL     1     -13.450 -29.613 -14.180  1.00  0.00     0.010 C 
ENDBRANCH  20  22
ENDBRANCH  17  19
ENDBRANCH   1  17
TORSDOF 7
ENDMDL
