MODEL 1
REMARK VINA RESULT: -8.398413350      0.000      0.000
REMARK  5 active torsions:
REMARK  status: ('A' for Active; 'I' for Inactive)
REMARK    1  A    between atoms: C2_3  and  C8_10 
REMARK    2  A    between atoms: C3_4  and  C4_5 
REMARK       I    between atoms: C8_10  and  N2_12 
REMARK    3  A    between atoms: N2_12  and  N3_14 
REMARK    4  A    between atoms: N3_14  and  C9_16 
REMARK    5  A    between atoms: C12_19  and  N4_20 
ROOT
HETATM    1  N1  UNL     1     -13.404 -34.715  -9.184  1.00  0.00    -0.191 NA
HETATM    2  C1  UNL     1     -13.697 -33.858  -9.897  1.00  0.00     0.105 C 
HETATM    3  C2  UNL     1     -14.107 -32.747 -10.839  1.00  0.00     0.115 C 
HETATM    4  C3  UNL     1     -13.500 -32.785 -11.949  1.00  0.00     0.047 C 
ENDROOT
BRANCH   3   5
HETATM    5  C8  UNL     1     -15.013 -31.804 -10.273  1.00  0.00     0.280 C 
HETATM    6  O1  UNL     1     -16.228 -32.215 -10.060  1.00  0.00    -0.265 OA
HETATM    7  N2  UNL     1     -14.747 -30.492  -9.917  1.00  0.00    -0.265 N 
ATOM      8  H2  UNL     1     -13.814 -30.101 -10.039  1.00  0.00     0.190 HD
BRANCH   7   9
HETATM    9  N3  UNL     1     -15.797 -29.703  -9.378  1.00  0.00    -0.298 N 
ATOM     10  H3  UNL     1     -16.141 -29.870  -8.433  1.00  0.00     0.187 HD
BRANCH   9  11
HETATM   11  C9  UNL     1     -16.359 -28.677 -10.182  1.00  0.00     0.048 A 
HETATM   12  C10 UNL     1     -16.512 -27.392  -9.658  1.00  0.00     0.033 A 
HETATM   13  C11 UNL     1     -17.060 -26.389 -10.420  1.00  0.00     0.038 A 
HETATM   14  C12 UNL     1     -17.486 -26.590 -11.729  1.00  0.00     0.103 A 
HETATM   15  C13 UNL     1     -17.335 -27.856 -12.242  1.00  0.00     0.038 A 
HETATM   16  C14 UNL     1     -16.780 -28.872 -11.472  1.00  0.00     0.033 A 
BRANCH  14  17
HETATM   17  N4  UNL     1     -18.048 -25.510 -12.466  1.00  0.00    -0.116 N 
HETATM   18  O2  UNL     1     -17.488 -24.397 -12.436  1.00  0.00    -0.532 OA
HETATM   19  O3  UNL     1     -19.188 -25.636 -13.212  1.00  0.00    -0.532 OA
ENDBRANCH  14  17
ENDBRANCH   9  11
ENDBRANCH   7   9
ENDBRANCH   3   5
BRANCH   4  20
HETATM   20  C4  UNL     1     -13.580 -31.949 -13.128  1.00  0.00     0.006 A 
HETATM   21  C5  UNL     1     -14.698 -31.359 -13.645  1.00  0.00     0.019 A 
HETATM   22  C6  UNL     1     -14.556 -30.542 -14.693  1.00  0.00     0.008 A 
HETATM   23  C7  UNL     1     -13.287 -30.354 -15.178  1.00  0.00     0.050 A 
HETATM   24  S1  UNL     1     -12.340 -31.327 -14.149  1.00  0.00    -0.102 SA
ENDBRANCH   4  20
TORSDOF 5
ENDMDL
MODEL 2
REMARK VINA RESULT: -8.356576178      0.164      1.016
REMARK  5 active torsions:
REMARK  status: ('A' for Active; 'I' for Inactive)
REMARK    1  A    between atoms: C2_3  and  C8_10 
REMARK    2  A    between atoms: C3_4  and  C4_5 
REMARK       I    between atoms: C8_10  and  N2_12 
REMARK    3  A    between atoms: N2_12  and  N3_14 
REMARK    4  A    between atoms: N3_14  and  C9_16 
REMARK    5  A    between atoms: C12_19  and  N4_20 
ROOT
HETATM    1  N1  UNL     1     -13.373 -34.832  -9.344  1.00  0.00    -0.191 NA
HETATM    2  C1  UNL     1     -13.679 -33.958 -10.031  1.00  0.00     0.105 C 
HETATM    3  C2  UNL     1     -14.106 -32.824 -10.938  1.00  0.00     0.115 C 
HETATM    4  C3  UNL     1     -13.480 -32.803 -12.038  1.00  0.00     0.047 C 
ENDROOT
BRANCH   3   5
HETATM    5  C8  UNL     1     -15.048 -31.929 -10.353  1.00  0.00     0.280 C 
HETATM    6  O1  UNL     1     -16.270 -32.357 -10.240  1.00  0.00    -0.265 OA
HETATM    7  N2  UNL     1     -14.810 -30.647  -9.884  1.00  0.00    -0.265 N 
ATOM      8  H2  UNL     1     -13.874 -30.245  -9.924  1.00  0.00     0.190 HD
BRANCH   7   9
HETATM    9  N3  UNL     1     -15.893 -29.903  -9.346  1.00  0.00    -0.298 N 
ATOM     10  H3  UNL     1     -16.308 -30.162  -8.451  1.00  0.00     0.187 HD
BRANCH   9  11
HETATM   11  C9  UNL     1     -16.388 -28.793 -10.080  1.00  0.00     0.048 A 
HETATM   12  C10 UNL     1     -16.885 -28.981 -11.370  1.00  0.00     0.033 A 
HETATM   13  C11 UNL     1     -17.361 -27.917 -12.096  1.00  0.00     0.038 A 
HETATM   14  C12 UNL     1     -17.374 -26.617 -11.599  1.00  0.00     0.103 A 
HETATM   15  C13 UNL     1     -16.884 -26.435 -10.328  1.00  0.00     0.038 A 
HETATM   16  C14 UNL     1     -16.402 -27.511  -9.593  1.00  0.00     0.033 A 
BRANCH  14  17
HETATM   17  N4  UNL     1     -17.879 -25.556 -12.402  1.00  0.00    -0.116 N 
HETATM   18  O2  UNL     1     -17.259 -24.475 -12.440  1.00  0.00    -0.532 OA
HETATM   19  O3  UNL     1     -19.025 -25.665 -13.141  1.00  0.00    -0.532 OA
ENDBRANCH  14  17
ENDBRANCH   9  11
ENDBRANCH   7   9
ENDBRANCH   3   5
BRANCH   4  20
HETATM   20  C4  UNL     1     -13.565 -31.926 -13.186  1.00  0.00     0.006 A 
HETATM   21  C5  UNL     1     -14.690 -31.343 -13.696  1.00  0.00     0.019 A 
HETATM   22  C6  UNL     1     -14.554 -30.485 -14.711  1.00  0.00     0.008 A 
HETATM   23  C7  UNL     1     -13.284 -30.250 -15.173  1.00  0.00     0.050 A 
HETATM   24  S1  UNL     1     -12.327 -31.240 -14.168  1.00  0.00    -0.102 SA
ENDBRANCH   4  20
TORSDOF 5
ENDMDL
MODEL 3
REMARK VINA RESULT: -8.259099189      1.665      1.945
REMARK  5 active torsions:
REMARK  status: ('A' for Active; 'I' for Inactive)
REMARK    1  A    between atoms: C2_3  and  C8_10 
REMARK    2  A    between atoms: C3_4  and  C4_5 
REMARK       I    between atoms: C8_10  and  N2_12 
REMARK    3  A    between atoms: N2_12  and  N3_14 
REMARK    4  A    between atoms: N3_14  and  C9_16 
REMARK    5  A    between atoms: C12_19  and  N4_20 
ROOT
HETATM    1  N1  UNL     1     -13.210 -36.022 -10.766  1.00  0.00    -0.191 NA
HETATM    2  C1  UNL     1     -13.430 -34.981 -11.210  1.00  0.00     0.105 C 
HETATM    3  C2  UNL     1     -13.745 -33.625 -11.805  1.00  0.00     0.115 C 
HETATM    4  C3  UNL     1     -13.010 -33.332 -12.793  1.00  0.00     0.047 C 
ENDROOT
BRANCH   3   5
HETATM    5  C8  UNL     1     -14.726 -32.884 -11.086  1.00  0.00     0.280 C 
HETATM    6  O1  UNL     1     -14.393 -32.463  -9.904  1.00  0.00    -0.265 OA
HETATM    7  N2  UNL     1     -16.004 -32.554 -11.508  1.00  0.00    -0.265 N 
ATOM      8  H2  UNL     1     -16.336 -32.835 -12.430  1.00  0.00     0.190 HD
BRANCH   7   9
HETATM    9  N3  UNL     1     -16.844 -31.816 -10.632  1.00  0.00    -0.298 N 
ATOM     10  H3  UNL     1     -17.504 -32.295 -10.019  1.00  0.00     0.187 HD
BRANCH   9  11
HETATM   11  C9  UNL     1     -16.748 -30.400 -10.627  1.00  0.00     0.048 A 
HETATM   12  C10 UNL     1     -16.393 -29.734  -9.453  1.00  0.00     0.033 A 
HETATM   13  C11 UNL     1     -16.301 -28.363  -9.429  1.00  0.00     0.038 A 
HETATM   14  C12 UNL     1     -16.553 -27.577 -10.549  1.00  0.00     0.103 A 
HETATM   15  C13 UNL     1     -16.903 -28.235 -11.703  1.00  0.00     0.038 A 
HETATM   16  C14 UNL     1     -16.995 -29.622 -11.729  1.00  0.00     0.033 A 
BRANCH  14  17
HETATM   17  N4  UNL     1     -16.444 -26.160 -10.459  1.00  0.00    -0.116 N 
HETATM   18  O2  UNL     1     -16.319 -25.630  -9.338  1.00  0.00    -0.532 OA
HETATM   19  O3  UNL     1     -16.472 -25.344 -11.556  1.00  0.00    -0.532 OA
ENDBRANCH  14  17
ENDBRANCH   9  11
ENDBRANCH   7   9
ENDBRANCH   3   5
BRANCH   4  20
HETATM   20  C4  UNL     1     -12.963 -32.173 -13.658  1.00  0.00     0.006 A 
HETATM   21  C5  UNL     1     -14.000 -31.345 -13.983  1.00  0.00     0.019 A 
HETATM   22  C6  UNL     1     -13.740 -30.265 -14.726  1.00  0.00     0.008 A 
HETATM   23  C7  UNL     1     -12.440 -30.065 -15.113  1.00  0.00     0.050 A 
HETATM   24  S1  UNL     1     -11.629 -31.395 -14.422  1.00  0.00    -0.102 SA
ENDBRANCH   4  20
TORSDOF 5
ENDMDL
MODEL 4
REMARK VINA RESULT: -8.235731945      1.684      2.162
REMARK  5 active torsions:
REMARK  status: ('A' for Active; 'I' for Inactive)
REMARK    1  A    between atoms: C2_3  and  C8_10 
REMARK    2  A    between atoms: C3_4  and  C4_5 
REMARK       I    between atoms: C8_10  and  N2_12 
REMARK    3  A    between atoms: N2_12  and  N3_14 
REMARK    4  A    between atoms: N3_14  and  C9_16 
REMARK    5  A    between atoms: C12_19  and  N4_20 
ROOT
HETATM    1  N1  UNL     1     -13.041 -35.972 -10.788  1.00  0.00    -0.191 NA
HETATM    2  C1  UNL     1     -13.302 -34.938 -11.227  1.00  0.00     0.105 C 
HETATM    3  C2  UNL     1     -13.670 -33.593 -11.815  1.00  0.00     0.115 C 
HETATM    4  C3  UNL     1     -12.957 -33.274 -12.812  1.00  0.00     0.047 C 
ENDROOT
BRANCH   3   5
HETATM    5  C8  UNL     1     -14.668 -32.887 -11.085  1.00  0.00     0.280 C 
HETATM    6  O1  UNL     1     -14.333 -32.449  -9.908  1.00  0.00    -0.265 OA
HETATM    7  N2  UNL     1     -15.964 -32.608 -11.487  1.00  0.00    -0.265 N 
ATOM      8  H2  UNL     1     -16.299 -32.905 -12.403  1.00  0.00     0.190 HD
BRANCH   7   9
HETATM    9  N3  UNL     1     -16.818 -31.900 -10.601  1.00  0.00    -0.298 N 
ATOM     10  H3  UNL     1     -17.499 -32.397 -10.027  1.00  0.00     0.187 HD
BRANCH   9  11
HETATM   11  C9  UNL     1     -16.706 -30.487 -10.529  1.00  0.00     0.048 A 
HETATM   12  C10 UNL     1     -16.929 -29.716 -11.670  1.00  0.00     0.033 A 
HETATM   13  C11 UNL     1     -16.818 -28.347 -11.620  1.00  0.00     0.038 A 
HETATM   14  C12 UNL     1     -16.482 -27.666 -10.455  1.00  0.00     0.103 A 
HETATM   15  C13 UNL     1     -16.261 -28.428  -9.333  1.00  0.00     0.038 A 
HETATM   16  C14 UNL     1     -16.375 -29.812  -9.382  1.00  0.00     0.033 A 
BRANCH  14  17
HETATM   17  N4  UNL     1     -16.379 -26.246 -10.468  1.00  0.00    -0.116 N 
HETATM   18  O2  UNL     1     -16.300 -25.632  -9.386  1.00  0.00    -0.532 OA
HETATM   19  O3  UNL     1     -16.365 -25.515 -11.624  1.00  0.00    -0.532 OA
ENDBRANCH  14  17
ENDBRANCH   9  11
ENDBRANCH   7   9
ENDBRANCH   3   5
BRANCH   4  20
HETATM   20  C4  UNL     1     -12.961 -32.111 -13.675  1.00  0.00     0.006 A 
HETATM   21  C5  UNL     1     -14.019 -31.296 -13.953  1.00  0.00     0.019 A 
HETATM   22  C6  UNL     1     -13.803 -30.211 -14.704  1.00  0.00     0.008 A 
HETATM   23  C7  UNL     1     -12.523 -29.994 -15.144  1.00  0.00     0.050 A 
HETATM   24  S1  UNL     1     -11.669 -31.316 -14.491  1.00  0.00    -0.102 SA
ENDBRANCH   4  20
TORSDOF 5
ENDMDL
MODEL 5
REMARK VINA RESULT: -8.075456859      4.074      7.168
REMARK  5 active torsions:
REMARK  status: ('A' for Active; 'I' for Inactive)
REMARK    1  A    between atoms: C2_3  and  C8_10 
REMARK    2  A    between atoms: C3_4  and  C4_5 
REMARK       I    between atoms: C8_10  and  N2_12 
REMARK    3  A    between atoms: N2_12  and  N3_14 
REMARK    4  A    between atoms: N3_14  and  C9_16 
REMARK    5  A    between atoms: C12_19  and  N4_20 
ROOT
HETATM    1  N1  UNL     1     -14.826 -29.946  -8.337  1.00  0.00    -0.191 NA
HETATM    2  C1  UNL     1     -15.236 -29.467  -9.302  1.00  0.00     0.105 C 
HETATM    3  C2  UNL     1     -15.747 -28.830 -10.577  1.00  0.00     0.115 C 
HETATM    4  C3  UNL     1     -16.345 -27.731 -10.380  1.00  0.00     0.047 C 
ENDROOT
BRANCH   3   5
HETATM    5  C8  UNL     1     -15.561 -29.625 -11.744  1.00  0.00     0.280 C 
HETATM    6  O1  UNL     1     -16.192 -30.760 -11.786  1.00  0.00    -0.265 OA
HETATM    7  N2  UNL     1     -14.783 -29.324 -12.850  1.00  0.00    -0.265 N 
ATOM      8  H2  UNL     1     -14.269 -28.445 -12.899  1.00  0.00     0.190 HD
BRANCH   7   9
HETATM    9  N3  UNL     1     -14.715 -30.262 -13.914  1.00  0.00    -0.298 N 
ATOM     10  H3  UNL     1     -15.566 -30.640 -14.330  1.00  0.00     0.187 HD
BRANCH   9  11
HETATM   11  C9  UNL     1     -13.438 -30.663 -14.387  1.00  0.00     0.048 A 
HETATM   12  C10 UNL     1     -12.774 -31.725 -13.772  1.00  0.00     0.033 A 
HETATM   13  C11 UNL     1     -11.535 -32.122 -14.214  1.00  0.00     0.038 A 
HETATM   14  C12 UNL     1     -10.884 -31.502 -15.276  1.00  0.00     0.103 A 
HETATM   15  C13 UNL     1     -11.541 -30.456 -15.879  1.00  0.00     0.038 A 
HETATM   16  C14 UNL     1     -12.794 -30.054 -15.434  1.00  0.00     0.033 A 
BRANCH  14  17
HETATM   17  N4  UNL     1      -9.599 -31.959 -15.684  1.00  0.00    -0.116 N 
HETATM   18  O2  UNL     1      -8.840 -32.473 -14.840  1.00  0.00    -0.532 OA
HETATM   19  O3  UNL     1      -9.152 -31.858 -16.973  1.00  0.00    -0.532 OA
ENDBRANCH  14  17
ENDBRANCH   9  11
ENDBRANCH   7   9
ENDBRANCH   3   5
BRANCH   4  20
HETATM   20  C4  UNL     1     -16.970 -26.791 -11.285  1.00  0.00     0.006 A 
HETATM   21  C5  UNL     1     -18.126 -26.970 -11.989  1.00  0.00     0.019 A 
HETATM   22  C6  UNL     1     -18.597 -25.945 -12.706  1.00  0.00     0.008 A 
HETATM   23  C7  UNL     1     -17.878 -24.778 -12.684  1.00  0.00     0.050 A 
HETATM   24  S1  UNL     1     -16.570 -25.157 -11.659  1.00  0.00    -0.102 SA
ENDBRANCH   4  20
TORSDOF 5
ENDMDL
