MODEL 1
REMARK VINA RESULT: -8.989593048      0.000      0.000
REMARK  5 active torsions:
REMARK  status: ('A' for Active; 'I' for Inactive)
REMARK    1  A    between atoms: C2_3  and  C8_10 
REMARK    2  A    between atoms: C3_4  and  C4_5 
REMARK    3  A    between atoms: C8_10  and  C9_12 
REMARK    4  A    between atoms: C10_13  and  C11_14 
REMARK    5  A    between atoms: C14_17  and  N2_18 
ROOT
HETATM    1  N1  UNL     1      -8.522 -31.999 -17.171  1.00  0.00    -0.191 NA
HETATM    2  C1  UNL     1      -9.386 -31.815 -16.407  1.00  0.00     0.103 C 
HETATM    3  C2  UNL     1     -10.485 -31.604 -15.463  1.00  0.00     0.097 C 
HETATM    4  C3  UNL     1     -10.594 -32.276 -14.409  1.00  0.00     0.064 C 
ENDROOT
BRANCH   3   5
HETATM    5  C8  UNL     1     -11.416 -30.501 -15.819  1.00  0.00     0.192 C 
HETATM    6  O2  UNL     1     -11.513 -30.093 -16.968  1.00  0.00    -0.287 OA
BRANCH   5   7
HETATM    7  C9  UNL     1     -12.231 -29.913 -14.748  1.00  0.00     0.057 C 
HETATM    8  C10 UNL     1     -12.013 -28.782 -14.152  1.00  0.00     0.019 C 
BRANCH   8   9
HETATM    9  C11 UNL     1     -12.929 -28.340 -13.097  1.00  0.00     0.008 A 
HETATM   10  C12 UNL     1     -14.153 -28.941 -12.899  1.00  0.00     0.019 A 
HETATM   11  C13 UNL     1     -15.036 -28.426 -11.959  1.00  0.00     0.056 A 
HETATM   12  C14 UNL     1     -14.768 -27.320 -11.187  1.00  0.00     0.175 A 
HETATM   13  N3  UNL     1     -13.559 -26.748 -11.394  1.00  0.00    -0.323 N 
HETATM   14  C15 UNL     1     -12.677 -27.232 -12.306  1.00  0.00     0.110 A 
ATOM     15  H3  UNL     1     -13.303 -25.925 -10.849  1.00  0.00     0.169 HD
HETATM   16  N4  UNL     1     -11.528 -26.633 -12.431  1.00  0.00    -0.385 N 
ATOM     17  H42 UNL     1     -10.864 -26.996 -13.115  1.00  0.00     0.157 HD
ATOM     18  H41 UNL     1     -11.342 -25.817 -11.848  1.00  0.00     0.157 HD
BRANCH  12  19
HETATM   19  N2  UNL     1     -15.722 -26.860 -10.238  1.00  0.00    -0.098 N 
HETATM   20  O3  UNL     1     -16.020 -25.650 -10.247  1.00  0.00    -0.531 OA
HETATM   21  O4  UNL     1     -16.330 -27.682  -9.340  1.00  0.00    -0.531 OA
ENDBRANCH  12  19
ENDBRANCH   8   9
ENDBRANCH   5   7
ENDBRANCH   3   5
BRANCH   4  22
HETATM   22  C4  UNL     1      -9.612 -33.299 -14.079  1.00  0.00     0.076 A 
HETATM   23  C5  UNL     1      -9.803 -34.692 -14.185  1.00  0.00     0.039 A 
HETATM   24  C6  UNL     1      -8.652 -35.290 -13.778  1.00  0.00     0.027 A 
HETATM   25  C7  UNL     1      -7.775 -34.284 -13.434  1.00  0.00     0.142 A 
HETATM   26  O1  UNL     1      -8.390 -33.156 -13.629  1.00  0.00    -0.323 OA
ENDBRANCH   4  22
TORSDOF 5
ENDMDL
MODEL 2
REMARK VINA RESULT: -8.646716698      2.935      9.132
REMARK  5 active torsions:
REMARK  status: ('A' for Active; 'I' for Inactive)
REMARK    1  A    between atoms: C2_3  and  C8_10 
REMARK    2  A    between atoms: C3_4  and  C4_5 
REMARK    3  A    between atoms: C8_10  and  C9_12 
REMARK    4  A    between atoms: C10_13  and  C11_14 
REMARK    5  A    between atoms: C14_17  and  N2_18 
ROOT
HETATM    1  N1  UNL     1     -16.398 -26.034  -9.138  1.00  0.00    -0.191 NA
HETATM    2  C1  UNL     1     -16.619 -26.692 -10.076  1.00  0.00     0.103 C 
HETATM    3  C2  UNL     1     -16.921 -27.528 -11.240  1.00  0.00     0.097 C 
HETATM    4  C3  UNL     1     -17.590 -27.098 -12.211  1.00  0.00     0.064 C 
ENDROOT
BRANCH   3   5
HETATM    5  C8  UNL     1     -16.326 -28.890 -11.206  1.00  0.00     0.192 C 
HETATM    6  O2  UNL     1     -16.627 -29.698 -10.339  1.00  0.00    -0.287 OA
BRANCH   5   7
HETATM    7  C9  UNL     1     -15.365 -29.249 -12.257  1.00  0.00     0.057 C 
HETATM    8  C10 UNL     1     -14.288 -28.596 -12.566  1.00  0.00     0.019 C 
BRANCH   8   9
HETATM    9  C11 UNL     1     -13.433 -29.094 -13.648  1.00  0.00     0.008 A 
HETATM   10  C12 UNL     1     -13.814 -30.152 -14.445  1.00  0.00     0.019 A 
HETATM   11  C13 UNL     1     -12.933 -30.662 -15.391  1.00  0.00     0.056 A 
HETATM   12  C14 UNL     1     -11.665 -30.170 -15.594  1.00  0.00     0.175 A 
HETATM   13  N3  UNL     1     -11.313 -29.129 -14.803  1.00  0.00    -0.323 N 
HETATM   14  C15 UNL     1     -12.155 -28.611 -13.873  1.00  0.00     0.110 A 
ATOM     15  H3  UNL     1     -10.385 -28.721 -14.910  1.00  0.00     0.169 HD
HETATM   16  N4  UNL     1     -11.746 -27.597 -13.166  1.00  0.00    -0.385 N 
ATOM     17  H42 UNL     1     -12.378 -27.208 -12.467  1.00  0.00     0.157 HD
ATOM     18  H41 UNL     1     -10.805 -27.241 -13.331  1.00  0.00     0.157 HD
BRANCH  12  19
HETATM   19  N2  UNL     1     -10.825 -30.741 -16.589  1.00  0.00    -0.098 N 
HETATM   20  O3  UNL     1      -9.703 -31.158 -16.241  1.00  0.00    -0.531 OA
HETATM   21  O4  UNL     1     -11.199 -30.867 -17.892  1.00  0.00    -0.531 OA
ENDBRANCH  12  19
ENDBRANCH   8   9
ENDBRANCH   5   7
ENDBRANCH   3   5
BRANCH   4  22
HETATM   22  C4  UNL     1     -18.090 -25.731 -12.218  1.00  0.00     0.076 A 
HETATM   23  C5  UNL     1     -17.468 -24.627 -12.833  1.00  0.00     0.039 A 
HETATM   24  C6  UNL     1     -18.252 -23.541 -12.606  1.00  0.00     0.027 A 
HETATM   25  C7  UNL     1     -19.333 -23.973 -11.869  1.00  0.00     0.142 A 
HETATM   26  O1  UNL     1     -19.182 -25.249 -11.676  1.00  0.00    -0.323 OA
ENDBRANCH   4  22
TORSDOF 5
ENDMDL
MODEL 3
REMARK VINA RESULT: -8.635957480      1.338      1.535
REMARK  5 active torsions:
REMARK  status: ('A' for Active; 'I' for Inactive)
REMARK    1  A    between atoms: C2_3  and  C8_10 
REMARK    2  A    between atoms: C3_4  and  C4_5 
REMARK    3  A    between atoms: C8_10  and  C9_12 
REMARK    4  A    between atoms: C10_13  and  C11_14 
REMARK    5  A    between atoms: C14_17  and  N2_18 
ROOT
HETATM    1  N1  UNL     1     -11.342 -33.061 -13.483  1.00  0.00    -0.191 NA
HETATM    2  C1  UNL     1     -11.017 -32.421 -14.404  1.00  0.00     0.103 C 
HETATM    3  C2  UNL     1     -10.594 -31.602 -15.541  1.00  0.00     0.097 C 
HETATM    4  C3  UNL     1      -9.567 -31.873 -16.209  1.00  0.00     0.064 C 
ENDROOT
BRANCH   3   5
HETATM    5  C8  UNL     1     -11.500 -30.472 -15.874  1.00  0.00     0.192 C 
HETATM    6  O2  UNL     1     -11.589 -30.037 -17.014  1.00  0.00    -0.287 OA
BRANCH   5   7
HETATM    7  C9  UNL     1     -12.303 -29.889 -14.790  1.00  0.00     0.057 C 
HETATM    8  C10 UNL     1     -12.057 -28.778 -14.168  1.00  0.00     0.019 C 
BRANCH   8   9
HETATM    9  C11 UNL     1     -12.964 -28.337 -13.104  1.00  0.00     0.008 A 
HETATM   10  C12 UNL     1     -14.184 -28.944 -12.892  1.00  0.00     0.019 A 
HETATM   11  C13 UNL     1     -15.060 -28.431 -11.943  1.00  0.00     0.056 A 
HETATM   12  C14 UNL     1     -14.788 -27.322 -11.176  1.00  0.00     0.175 A 
HETATM   13  N3  UNL     1     -13.584 -26.744 -11.398  1.00  0.00    -0.323 N 
HETATM   14  C15 UNL     1     -12.709 -27.226 -12.318  1.00  0.00     0.110 A 
ATOM     15  H3  UNL     1     -13.326 -25.919 -10.857  1.00  0.00     0.169 HD
HETATM   16  N4  UNL     1     -11.564 -26.622 -12.456  1.00  0.00    -0.385 N 
ATOM     17  H42 UNL     1     -10.907 -26.984 -13.147  1.00  0.00     0.157 HD
ATOM     18  H41 UNL     1     -11.376 -25.804 -11.877  1.00  0.00     0.157 HD
BRANCH  12  19
HETATM   19  N2  UNL     1     -15.734 -26.863 -10.219  1.00  0.00    -0.098 N 
HETATM   20  O3  UNL     1     -15.992 -25.644 -10.187  1.00  0.00    -0.531 OA
HETATM   21  O4  UNL     1     -16.377 -27.695  -9.355  1.00  0.00    -0.531 OA
ENDBRANCH  12  19
ENDBRANCH   8   9
ENDBRANCH   5   7
ENDBRANCH   3   5
BRANCH   4  22
HETATM   22  C4  UNL     1      -8.753 -33.034 -15.878  1.00  0.00     0.076 A 
HETATM   23  C5  UNL     1      -8.874 -34.317 -16.446  1.00  0.00     0.039 A 
HETATM   24  C6  UNL     1      -7.935 -35.109 -15.864  1.00  0.00     0.027 A 
HETATM   25  C7  UNL     1      -7.252 -34.324 -14.961  1.00  0.00     0.142 A 
HETATM   26  O1  UNL     1      -7.772 -33.135 -15.015  1.00  0.00    -0.323 OA
ENDBRANCH   4  22
TORSDOF 5
ENDMDL
MODEL 4
REMARK VINA RESULT: -8.535860728      2.667      8.682
REMARK  5 active torsions:
REMARK  status: ('A' for Active; 'I' for Inactive)
REMARK    1  A    between atoms: C2_3  and  C8_10 
REMARK    2  A    between atoms: C3_4  and  C4_5 
REMARK    3  A    between atoms: C8_10  and  C9_12 
REMARK    4  A    between atoms: C10_13  and  C11_14 
REMARK    5  A    between atoms: C14_17  and  N2_18 
ROOT
HETATM    1  N1  UNL     1     -15.897 -28.379  -8.803  1.00  0.00    -0.191 NA
HETATM    2  C1  UNL     1     -16.075 -28.845  -9.859  1.00  0.00     0.103 C 
HETATM    3  C2  UNL     1     -16.325 -29.434 -11.175  1.00  0.00     0.097 C 
HETATM    4  C3  UNL     1     -16.739 -28.750 -12.142  1.00  0.00     0.064 C 
ENDROOT
BRANCH   3   5
HETATM    5  C8  UNL     1     -15.995 -30.879 -11.290  1.00  0.00     0.192 C 
HETATM    6  O2  UNL     1     -16.777 -31.744 -10.919  1.00  0.00    -0.287 OA
BRANCH   5   7
HETATM    7  C9  UNL     1     -14.699 -31.247 -11.873  1.00  0.00     0.057 C 
HETATM    8  C10 UNL     1     -14.476 -31.559 -13.112  1.00  0.00     0.019 C 
BRANCH   8   9
HETATM    9  C11 UNL     1     -13.115 -31.904 -13.532  1.00  0.00     0.008 A 
HETATM   10  C12 UNL     1     -12.446 -32.987 -13.004  1.00  0.00     0.019 A 
HETATM   11  C13 UNL     1     -11.120 -33.220 -13.349  1.00  0.00     0.056 A 
HETATM   12  C14 UNL     1     -10.404 -32.419 -14.207  1.00  0.00     0.175 A 
HETATM   13  N3  UNL     1     -11.082 -31.363 -14.717  1.00  0.00    -0.323 N 
HETATM   14  C15 UNL     1     -12.378 -31.114 -14.397  1.00  0.00     0.110 A 
ATOM     15  H3  UNL     1     -10.603 -30.735 -15.361  1.00  0.00     0.169 HD
HETATM   16  N4  UNL     1     -12.962 -30.088 -14.946  1.00  0.00    -0.385 N 
ATOM     17  H42 UNL     1     -13.935 -29.901 -14.707  1.00  0.00     0.157 HD
ATOM     18  H41 UNL     1     -12.419 -29.507 -15.583  1.00  0.00     0.157 HD
BRANCH  12  19
HETATM   19  N2  UNL     1      -9.052 -32.730 -14.518  1.00  0.00    -0.098 N 
HETATM   20  O3  UNL     1      -8.674 -32.587 -15.697  1.00  0.00    -0.531 OA
HETATM   21  O4  UNL     1      -8.156 -33.156 -13.586  1.00  0.00    -0.531 OA
ENDBRANCH  12  19
ENDBRANCH   8   9
ENDBRANCH   5   7
ENDBRANCH   3   5
BRANCH   4  22
HETATM   22  C4  UNL     1     -16.980 -27.322 -11.989  1.00  0.00     0.076 A 
HETATM   23  C5  UNL     1     -18.225 -26.675 -12.126  1.00  0.00     0.039 A 
HETATM   24  C6  UNL     1     -18.018 -25.349 -11.908  1.00  0.00     0.027 A 
HETATM   25  C7  UNL     1     -16.676 -25.189 -11.641  1.00  0.00     0.142 A 
HETATM   26  O1  UNL     1     -16.129 -26.367 -11.703  1.00  0.00    -0.323 OA
ENDBRANCH   4  22
TORSDOF 5
ENDMDL
MODEL 5
REMARK VINA RESULT: -8.490166087      2.849      8.926
REMARK  5 active torsions:
REMARK  status: ('A' for Active; 'I' for Inactive)
REMARK    1  A    between atoms: C2_3  and  C8_10 
REMARK    2  A    between atoms: C3_4  and  C4_5 
REMARK    3  A    between atoms: C8_10  and  C9_12 
REMARK    4  A    between atoms: C10_13  and  C11_14 
REMARK    5  A    between atoms: C14_17  and  N2_18 
ROOT
HETATM    1  N1  UNL     1     -16.086 -27.933  -8.990  1.00  0.00    -0.191 NA
HETATM    2  C1  UNL     1     -16.224 -28.424 -10.040  1.00  0.00     0.103 C 
HETATM    3  C2  UNL     1     -16.423 -29.048 -11.349  1.00  0.00     0.097 C 
HETATM    4  C3  UNL     1     -16.926 -28.423 -12.314  1.00  0.00     0.064 C 
ENDROOT
BRANCH   3   5
HETATM    5  C8  UNL     1     -15.930 -30.446 -11.460  1.00  0.00     0.192 C 
HETATM    6  O2  UNL     1     -16.554 -31.384 -10.984  1.00  0.00    -0.287 OA
BRANCH   5   7
HETATM    7  C9  UNL     1     -14.665 -30.678 -12.170  1.00  0.00     0.057 C 
HETATM    8  C10 UNL     1     -14.473 -31.519 -13.138  1.00  0.00     0.019 C 
BRANCH   8   9
HETATM    9  C11 UNL     1     -13.141 -31.628 -13.740  1.00  0.00     0.008 A 
HETATM   10  C12 UNL     1     -12.706 -30.742 -14.703  1.00  0.00     0.019 A 
HETATM   11  C13 UNL     1     -11.479 -30.940 -15.325  1.00  0.00     0.056 A 
HETATM   12  C14 UNL     1     -10.641 -31.992 -15.039  1.00  0.00     0.175 A 
HETATM   13  N3  UNL     1     -11.086 -32.847 -14.089  1.00  0.00    -0.323 N 
HETATM   14  C15 UNL     1     -12.280 -32.676 -13.465  1.00  0.00     0.110 A 
ATOM     15  H3  UNL     1     -10.506 -33.646 -13.833  1.00  0.00     0.169 HD
HETATM   16  N4  UNL     1     -12.626 -33.534 -12.548  1.00  0.00    -0.385 N 
ATOM     17  H42 UNL     1     -13.522 -33.406 -12.079  1.00  0.00     0.157 HD
ATOM     18  H41 UNL     1     -11.992 -34.306 -12.345  1.00  0.00     0.157 HD
BRANCH  12  19
HETATM   19  N2  UNL     1      -9.395 -32.120 -15.713  1.00  0.00    -0.098 N 
HETATM   20  O3  UNL     1      -8.439 -32.618 -15.088  1.00  0.00    -0.531 OA
HETATM   21  O4  UNL     1      -9.211 -31.742 -17.008  1.00  0.00    -0.531 OA
ENDBRANCH  12  19
ENDBRANCH   8   9
ENDBRANCH   5   7
ENDBRANCH   3   5
BRANCH   4  22
HETATM   22  C4  UNL     1     -17.329 -27.032 -12.166  1.00  0.00     0.076 A 
HETATM   23  C5  UNL     1     -18.629 -26.523 -12.361  1.00  0.00     0.039 A 
HETATM   24  C6  UNL     1     -18.579 -25.185 -12.127  1.00  0.00     0.027 A 
HETATM   25  C7  UNL     1     -17.277 -24.883 -11.793  1.00  0.00     0.142 A 
HETATM   26  O1  UNL     1     -16.603 -25.993 -11.834  1.00  0.00    -0.323 OA
ENDBRANCH   4  22
TORSDOF 5
ENDMDL
