MODEL 1
REMARK VINA RESULT: -8.609099153      0.000      0.000
REMARK  7 active torsions:
REMARK  status: ('A' for Active; 'I' for Inactive)
REMARK    1  A    between atoms: O1_2  and  C2_3 
REMARK    2  A    between atoms: C2_3  and  O2_4 
REMARK    3  A    between atoms: C2_3  and  C11_16 
REMARK    4  A    between atoms: O2_4  and  C3_5 
REMARK       I    between atoms: C3_5  and  N1_7 
REMARK    5  A    between atoms: N1_7  and  C4_9 
REMARK    6  A    between atoms: C4_9  and  C5_10 
REMARK    7  A    between atoms: C13_18  and  C14_19 
ROOT
HETATM    1  C2  UNL     1     -15.818 -29.052  -9.917  1.00  0.00     0.331 C 
ENDROOT
BRANCH   1   2
HETATM    2  O1  UNL     1     -15.824 -29.289  -8.558  1.00  0.00    -0.359 OA
HETATM    3  C1  UNL     1     -16.431 -30.478  -8.203  1.00  0.00     0.205 C 
ENDBRANCH   1   2
BRANCH   1   4
HETATM    4  O2  UNL     1     -16.493 -30.055 -10.635  1.00  0.00    -0.266 OA
BRANCH   4   5
HETATM    5  C3  UNL     1     -15.917 -30.804 -11.653  1.00  0.00     0.363 C 
HETATM    6  O3  UNL     1     -16.046 -32.050 -11.593  1.00  0.00    -0.238 OA
HETATM    7  N1  UNL     1     -15.210 -30.225 -12.726  1.00  0.00    -0.336 N 
ATOM      8  H1  UNL     1     -15.118 -29.210 -12.754  1.00  0.00     0.164 HD
BRANCH   7   9
HETATM    9  C4  UNL     1     -14.618 -30.985 -13.772  1.00  0.00     0.129 C 
BRANCH   9  10
HETATM   10  C5  UNL     1     -13.570 -30.254 -14.581  1.00  0.00     0.003 C 
HETATM   11  C6  UNL     1     -12.411 -31.216 -14.746  1.00  0.00     0.006 C 
HETATM   12  C7  UNL     1     -11.205 -30.591 -15.356  1.00  0.00     0.000 C 
HETATM   13  C8  UNL     1     -11.227 -29.093 -15.365  1.00  0.00     0.000 C 
HETATM   14  C9  UNL     1     -11.806 -28.531 -14.098  1.00  0.00     0.000 C 
HETATM   15  C10 UNL     1     -13.173 -29.033 -13.782  1.00  0.00     0.006 C 
ENDBRANCH   9  10
ENDBRANCH   7   9
ENDBRANCH   4   5
ENDBRANCH   1   4
BRANCH   1  16
HETATM   16  C11 UNL     1     -16.432 -27.732 -10.262  1.00  0.00     0.134 A 
HETATM   17  C12 UNL     1     -17.125 -27.398 -11.408  1.00  0.00     0.078 A 
HETATM   18  C13 UNL     1     -17.509 -26.080 -11.303  1.00  0.00     0.133 A 
HETATM   19  N2  UNL     1     -17.040 -25.669 -10.112  1.00  0.00    -0.254 N 
HETATM   20  O6  UNL     1     -16.417 -26.649  -9.527  1.00  0.00    -0.237 OA
ATOM     21  H2  UNL     1     -17.156 -24.732  -9.727  1.00  0.00     0.195 HD
BRANCH  18  22
HETATM   22  C14 UNL     1     -18.264 -25.275 -12.261  1.00  0.00     0.228 C 
HETATM   23  O4  UNL     1     -17.908 -24.111 -12.568  1.00  0.00    -0.643 OA
HETATM   24  O5  UNL     1     -19.394 -25.793 -12.848  1.00  0.00    -0.643 OA
ENDBRANCH  18  22
ENDBRANCH   1  16
TORSDOF 7
ENDMDL
MODEL 2
REMARK VINA RESULT: -8.402233014      0.444      1.073
REMARK  7 active torsions:
REMARK  status: ('A' for Active; 'I' for Inactive)
REMARK    1  A    between atoms: O1_2  and  C2_3 
REMARK    2  A    between atoms: C2_3  and  O2_4 
REMARK    3  A    between atoms: C2_3  and  C11_16 
REMARK    4  A    between atoms: O2_4  and  C3_5 
REMARK       I    between atoms: C3_5  and  N1_7 
REMARK    5  A    between atoms: N1_7  and  C4_9 
REMARK    6  A    between atoms: C4_9  and  C5_10 
REMARK    7  A    between atoms: C13_18  and  C14_19 
ROOT
HETATM    1  C2  UNL     1     -15.918 -29.022  -9.807  1.00  0.00     0.331 C 
ENDROOT
BRANCH   1   2
HETATM    2  O1  UNL     1     -15.977 -29.250  -8.447  1.00  0.00    -0.359 OA
HETATM    3  C1  UNL     1     -16.576 -30.447  -8.110  1.00  0.00     0.205 C 
ENDBRANCH   1   2
BRANCH   1   4
HETATM    4  O2  UNL     1     -16.575 -30.024 -10.543  1.00  0.00    -0.266 OA
BRANCH   4   5
HETATM    5  C3  UNL     1     -15.983 -30.746 -11.571  1.00  0.00     0.363 C 
HETATM    6  O3  UNL     1     -16.097 -31.995 -11.535  1.00  0.00    -0.238 OA
HETATM    7  N1  UNL     1     -15.277 -30.139 -12.629  1.00  0.00    -0.336 N 
ATOM      8  H1  UNL     1     -15.198 -29.122 -12.638  1.00  0.00     0.164 HD
BRANCH   7   9
HETATM    9  C4  UNL     1     -14.670 -30.871 -13.686  1.00  0.00     0.129 C 
BRANCH   9  10
HETATM   10  C5  UNL     1     -13.249 -30.468 -14.012  1.00  0.00     0.003 C 
HETATM   11  C6  UNL     1     -13.094 -29.035 -13.544  1.00  0.00     0.006 C 
HETATM   12  C7  UNL     1     -11.809 -28.411 -13.963  1.00  0.00     0.000 C 
HETATM   13  C8  UNL     1     -11.084 -29.161 -15.038  1.00  0.00     0.000 C 
HETATM   14  C9  UNL     1     -12.024 -29.713 -16.071  1.00  0.00     0.000 C 
HETATM   15  C10 UNL     1     -13.094 -30.586 -15.511  1.00  0.00     0.006 C 
ENDBRANCH   9  10
ENDBRANCH   7   9
ENDBRANCH   4   5
ENDBRANCH   1   4
BRANCH   1  16
HETATM   16  C11 UNL     1     -16.506 -27.699 -10.183  1.00  0.00     0.134 A 
HETATM   17  C12 UNL     1     -17.142 -27.363 -11.362  1.00  0.00     0.078 A 
HETATM   18  C13 UNL     1     -17.522 -26.043 -11.278  1.00  0.00     0.133 A 
HETATM   19  N2  UNL     1     -17.107 -25.632 -10.067  1.00  0.00    -0.254 N 
HETATM   20  O6  UNL     1     -16.519 -26.613  -9.451  1.00  0.00    -0.237 OA
ATOM     21  H2  UNL     1     -17.235 -24.693  -9.690  1.00  0.00     0.195 HD
BRANCH  18  22
HETATM   22  C14 UNL     1     -18.225 -25.235 -12.272  1.00  0.00     0.228 C 
HETATM   23  O4  UNL     1     -17.812 -24.098 -12.610  1.00  0.00    -0.643 OA
HETATM   24  O5  UNL     1     -19.370 -25.719 -12.861  1.00  0.00    -0.643 OA
ENDBRANCH  18  22
ENDBRANCH   1  16
TORSDOF 7
ENDMDL
MODEL 3
REMARK VINA RESULT: -8.340206552      0.806      1.085
REMARK  7 active torsions:
REMARK  status: ('A' for Active; 'I' for Inactive)
REMARK    1  A    between atoms: O1_2  and  C2_3 
REMARK    2  A    between atoms: C2_3  and  O2_4 
REMARK    3  A    between atoms: C2_3  and  C11_16 
REMARK    4  A    between atoms: O2_4  and  C3_5 
REMARK       I    between atoms: C3_5  and  N1_7 
REMARK    5  A    between atoms: N1_7  and  C4_9 
REMARK    6  A    between atoms: C4_9  and  C5_10 
REMARK    7  A    between atoms: C13_18  and  C14_19 
ROOT
HETATM    1  C2  UNL     1     -15.597 -28.824  -9.821  1.00  0.00     0.331 C 
ENDROOT
BRANCH   1   2
HETATM    2  O1  UNL     1     -15.158 -28.810  -8.513  1.00  0.00    -0.359 OA
HETATM    3  C1  UNL     1     -14.452 -29.941  -8.152  1.00  0.00     0.205 C 
ENDBRANCH   1   2
BRANCH   1   4
HETATM    4  O2  UNL     1     -16.422 -29.930 -10.094  1.00  0.00    -0.266 OA
BRANCH   4   5
HETATM    5  C3  UNL     1     -16.255 -30.773 -11.185  1.00  0.00     0.363 C 
HETATM    6  O3  UNL     1     -17.200 -31.550 -11.460  1.00  0.00    -0.238 OA
HETATM    7  N1  UNL     1     -15.088 -30.785 -11.974  1.00  0.00    -0.336 N 
ATOM      8  H1  UNL     1     -14.332 -30.144 -11.731  1.00  0.00     0.164 HD
BRANCH   7   9
HETATM    9  C4  UNL     1     -14.909 -31.643 -13.093  1.00  0.00     0.129 C 
BRANCH   9  10
HETATM   10  C5  UNL     1     -13.922 -31.152 -14.128  1.00  0.00     0.003 C 
HETATM   11  C6  UNL     1     -12.628 -31.896 -13.871  1.00  0.00     0.006 C 
HETATM   12  C7  UNL     1     -11.484 -31.393 -14.680  1.00  0.00     0.000 C 
HETATM   13  C8  UNL     1     -11.721 -30.056 -15.313  1.00  0.00     0.000 C 
HETATM   14  C9  UNL     1     -12.463 -29.124 -14.399  1.00  0.00     0.000 C 
HETATM   15  C10 UNL     1     -13.763 -29.664 -13.909  1.00  0.00     0.006 C 
ENDBRANCH   9  10
ENDBRANCH   7   9
ENDBRANCH   4   5
ENDBRANCH   1   4
BRANCH   1  16
HETATM   16  C11 UNL     1     -16.346 -27.579 -10.177  1.00  0.00     0.134 A 
HETATM   17  C12 UNL     1     -16.987 -27.290 -11.366  1.00  0.00     0.078 A 
HETATM   18  C13 UNL     1     -17.542 -26.036 -11.255  1.00  0.00     0.133 A 
HETATM   19  N2  UNL     1     -17.222 -25.615 -10.019  1.00  0.00    -0.254 N 
HETATM   20  O6  UNL     1     -16.526 -26.530  -9.413  1.00  0.00    -0.237 OA
ATOM     21  H2  UNL     1     -17.486 -24.715  -9.619  1.00  0.00     0.195 HD
BRANCH  18  22
HETATM   22  C14 UNL     1     -18.318 -25.296 -12.248  1.00  0.00     0.228 C 
HETATM   23  O4  UNL     1     -19.315 -25.803 -12.818  1.00  0.00    -0.643 OA
HETATM   24  O5  UNL     1     -17.957 -24.010 -12.578  1.00  0.00    -0.643 OA
ENDBRANCH  18  22
ENDBRANCH   1  16
TORSDOF 7
ENDMDL
MODEL 4
REMARK VINA RESULT: -8.162518714      2.000      4.478
REMARK  7 active torsions:
REMARK  status: ('A' for Active; 'I' for Inactive)
REMARK    1  A    between atoms: O1_2  and  C2_3 
REMARK    2  A    between atoms: C2_3  and  O2_4 
REMARK    3  A    between atoms: C2_3  and  C11_16 
REMARK    4  A    between atoms: O2_4  and  C3_5 
REMARK       I    between atoms: C3_5  and  N1_7 
REMARK    5  A    between atoms: N1_7  and  C4_9 
REMARK    6  A    between atoms: C4_9  and  C5_10 
REMARK    7  A    between atoms: C13_18  and  C14_19 
ROOT
HETATM    1  C2  UNL     1     -16.053 -26.545 -11.370  1.00  0.00     0.331 C 
ENDROOT
BRANCH   1   2
HETATM    2  O1  UNL     1     -17.154 -25.740 -11.164  1.00  0.00    -0.359 OA
HETATM    3  C1  UNL     1     -18.154 -25.915 -12.100  1.00  0.00     0.205 C 
ENDBRANCH   1   2
BRANCH   1   4
HETATM    4  O2  UNL     1     -14.851 -25.902 -11.021  1.00  0.00    -0.266 OA
BRANCH   4   5
HETATM    5  C3  UNL     1     -13.604 -26.273 -11.506  1.00  0.00     0.363 C 
HETATM    6  O3  UNL     1     -12.604 -25.683 -11.030  1.00  0.00    -0.238 OA
HETATM    7  N1  UNL     1     -13.426 -27.267 -12.489  1.00  0.00    -0.336 N 
ATOM      8  H1  UNL     1     -14.253 -27.734 -12.862  1.00  0.00     0.164 HD
BRANCH   7   9
HETATM    9  C4  UNL     1     -12.153 -27.653 -12.989  1.00  0.00     0.129 C 
BRANCH   9  10
HETATM   10  C5  UNL     1     -12.115 -29.000 -13.676  1.00  0.00     0.003 C 
HETATM   11  C6  UNL     1     -11.458 -28.774 -15.023  1.00  0.00     0.006 C 
HETATM   12  C7  UNL     1     -11.513 -29.964 -15.916  1.00  0.00     0.000 C 
HETATM   13  C8  UNL     1     -12.488 -31.014 -15.480  1.00  0.00     0.000 C 
HETATM   14  C9  UNL     1     -13.757 -30.416 -14.944  1.00  0.00     0.000 C 
HETATM   15  C10 UNL     1     -13.549 -29.456 -13.824  1.00  0.00     0.006 C 
ENDBRANCH   9  10
ENDBRANCH   7   9
ENDBRANCH   4   5
ENDBRANCH   1   4
BRANCH   1  16
HETATM   16  C11 UNL     1     -16.140 -27.826 -10.603  1.00  0.00     0.134 A 
HETATM   17  C12 UNL     1     -16.296 -29.103 -11.108  1.00  0.00     0.078 A 
HETATM   18  C13 UNL     1     -16.327 -29.978 -10.046  1.00  0.00     0.133 A 
HETATM   19  N2  UNL     1     -16.192 -29.211  -8.951  1.00  0.00    -0.254 N 
HETATM   20  O6  UNL     1     -16.086 -27.964  -9.302  1.00  0.00    -0.237 OA
ATOM     21  H2  UNL     1     -16.175 -29.555  -7.991  1.00  0.00     0.195 HD
BRANCH  18  22
HETATM   22  C14 UNL     1     -16.474 -31.432 -10.072  1.00  0.00     0.228 C 
HETATM   23  O4  UNL     1     -17.603 -31.979 -10.123  1.00  0.00    -0.643 OA
HETATM   24  O5  UNL     1     -15.357 -32.233 -10.038  1.00  0.00    -0.643 OA
ENDBRANCH  18  22
ENDBRANCH   1  16
TORSDOF 7
ENDMDL
MODEL 5
REMARK VINA RESULT: -8.115807848      0.814      1.190
REMARK  7 active torsions:
REMARK  status: ('A' for Active; 'I' for Inactive)
REMARK    1  A    between atoms: O1_2  and  C2_3 
REMARK    2  A    between atoms: C2_3  and  O2_4 
REMARK    3  A    between atoms: C2_3  and  C11_16 
REMARK    4  A    between atoms: O2_4  and  C3_5 
REMARK       I    between atoms: C3_5  and  N1_7 
REMARK    5  A    between atoms: N1_7  and  C4_9 
REMARK    6  A    between atoms: C4_9  and  C5_10 
REMARK    7  A    between atoms: C13_18  and  C14_19 
ROOT
HETATM    1  C2  UNL     1     -15.900 -29.028  -9.829  1.00  0.00     0.331 C 
ENDROOT
BRANCH   1   2
HETATM    2  O1  UNL     1     -15.957 -29.234  -8.466  1.00  0.00    -0.359 OA
HETATM    3  C1  UNL     1     -16.589 -30.409  -8.107  1.00  0.00     0.205 C 
ENDBRANCH   1   2
BRANCH   1   4
HETATM    4  O2  UNL     1     -16.577 -30.030 -10.547  1.00  0.00    -0.266 OA
BRANCH   4   5
HETATM    5  C3  UNL     1     -15.963 -30.883 -11.455  1.00  0.00     0.363 C 
HETATM    6  O3  UNL     1     -16.076 -32.116 -11.250  1.00  0.00    -0.238 OA
HETATM    7  N1  UNL     1     -15.237 -30.424 -12.572  1.00  0.00    -0.336 N 
ATOM      8  H1  UNL     1     -15.159 -29.417 -12.718  1.00  0.00     0.164 HD
BRANCH   7   9
HETATM    9  C4  UNL     1     -14.607 -31.291 -13.506  1.00  0.00     0.129 C 
BRANCH   9  10
HETATM   10  C5  UNL     1     -13.205 -30.891 -13.909  1.00  0.00     0.003 C 
HETATM   11  C6  UNL     1     -13.294 -30.415 -15.345  1.00  0.00     0.006 C 
HETATM   12  C7  UNL     1     -11.965 -30.163 -15.968  1.00  0.00     0.000 C 
HETATM   13  C8  UNL     1     -10.812 -30.748 -15.212  1.00  0.00     0.000 C 
HETATM   14  C9  UNL     1     -11.135 -32.104 -14.652  1.00  0.00     0.000 C 
HETATM   15  C10 UNL     1     -12.344 -32.127 -13.782  1.00  0.00     0.006 C 
ENDBRANCH   9  10
ENDBRANCH   7   9
ENDBRANCH   4   5
ENDBRANCH   1   4
BRANCH   1  16
HETATM   16  C11 UNL     1     -16.468 -27.701 -10.222  1.00  0.00     0.134 A 
HETATM   17  C12 UNL     1     -17.126 -27.379 -11.393  1.00  0.00     0.078 A 
HETATM   18  C13 UNL     1     -17.475 -26.049 -11.332  1.00  0.00     0.133 A 
HETATM   19  N2  UNL     1     -17.021 -25.619 -10.142  1.00  0.00    -0.254 N 
HETATM   20  O6  UNL     1     -16.439 -26.599  -9.516  1.00  0.00    -0.237 OA
ATOM     21  H2  UNL     1     -17.119 -24.669  -9.784  1.00  0.00     0.195 HD
BRANCH  18  22
HETATM   22  C14 UNL     1     -18.185 -25.249 -12.328  1.00  0.00     0.228 C 
HETATM   23  O4  UNL     1     -17.791 -24.102 -12.655  1.00  0.00    -0.643 OA
HETATM   24  O5  UNL     1     -19.314 -25.752 -12.930  1.00  0.00    -0.643 OA
ENDBRANCH  18  22
ENDBRANCH   1  16
TORSDOF 7
ENDMDL
