MODEL 1
REMARK VINA RESULT: -8.575708512      0.000      0.000
REMARK  6 active torsions:
REMARK  status: ('A' for Active; 'I' for Inactive)
REMARK    1  A    between atoms: C2_2  and  O1_3 
REMARK    2  A    between atoms: C2_2  and  C3_5 
REMARK    3  A    between atoms: C6_10  and  C7_11 
REMARK    4  A    between atoms: C7_11  and  C8_13 
REMARK    5  A    between atoms: N3_16  and  N4_18 
REMARK    6  A    between atoms: N4_18  and  C10_20 
ROOT
HETATM    1  C8  UNL     1     -15.338 -30.058 -10.710  1.00  0.00     0.179 C 
HETATM    2  C9  UNL     1     -14.763 -31.200 -10.101  1.00  0.00     0.123 C 
HETATM    3  N2  UNL     1     -14.301 -32.177  -9.626  1.00  0.00    -0.190 NA
HETATM    4  N3  UNL     1     -15.590 -30.132 -12.016  1.00  0.00    -0.287 N 
ATOM      5  H3  UNL     1     -16.036 -29.361 -12.513  1.00  0.00     0.188 HD
ENDROOT
BRANCH   1   6
HETATM    6  C7  UNL     1     -15.736 -28.834 -10.074  1.00  0.00     0.223 C 
HETATM    7  O2  UNL     1     -15.963 -28.906  -8.808  1.00  0.00    -0.284 OA
BRANCH   6   8
HETATM    8  C6  UNL     1     -15.907 -27.538 -10.689  1.00  0.00     0.046 A 
HETATM    9  C3  UNL     1     -15.010 -26.627 -11.201  1.00  0.00     0.024 A 
HETATM   10  C4  UNL     1     -15.708 -25.409 -11.466  1.00  0.00     0.102 A 
HETATM   11  N1  UNL     1     -16.974 -25.602 -11.127  1.00  0.00    -0.373 N 
HETATM   12  C5  UNL     1     -17.141 -26.850 -10.660  1.00  0.00     0.104 A 
ATOM     13  H1  UNL     1     -17.713 -24.904 -11.208  1.00  0.00     0.164 HD
BRANCH   9  14
HETATM   14  C2  UNL     1     -13.630 -26.799 -11.600  1.00  0.00     0.052 C 
HETATM   15  C1  UNL     1     -13.024 -27.719 -12.527  1.00  0.00     0.077 C 
BRANCH  14  16
HETATM   16  O1  UNL     1     -12.785 -25.978 -11.034  1.00  0.00    -0.364 OA
ATOM     17  H1  UNL     1     -13.037 -25.063 -11.090  1.00  0.00     0.217 HD
ENDBRANCH  14  16
ENDBRANCH   9  14
ENDBRANCH   6   8
ENDBRANCH   1   6
BRANCH   4  18
HETATM   18  N4  UNL     1     -15.222 -31.297 -12.673  1.00  0.00    -0.300 N 
ATOM     19  H4  UNL     1     -15.771 -32.151 -12.565  1.00  0.00     0.187 HD
BRANCH  18  20
HETATM   20  C10 UNL     1     -14.070 -31.278 -13.498  1.00  0.00     0.048 A 
HETATM   21  C11 UNL     1     -13.007 -32.099 -13.223  1.00  0.00     0.032 A 
HETATM   22  C12 UNL     1     -11.875 -32.085 -14.026  1.00  0.00     0.025 A 
HETATM   23  C13 UNL     1     -11.856 -31.216 -15.110  1.00  0.00     0.044 A 
HETATM   24  C14 UNL     1     -10.680 -31.211 -15.933  1.00  0.00     0.099 C 
HETATM   25  C15 UNL     1     -12.914 -30.386 -15.401  1.00  0.00     0.025 A 
HETATM   26  N5  UNL     1      -9.725 -31.214 -16.612  1.00  0.00    -0.191 NA
HETATM   27  C16 UNL     1     -14.007 -30.447 -14.567  1.00  0.00     0.032 A 
ENDBRANCH  18  20
ENDBRANCH   4  18
TORSDOF 6
ENDMDL
MODEL 2
REMARK VINA RESULT: -8.077856085      0.832      1.334
REMARK  6 active torsions:
REMARK  status: ('A' for Active; 'I' for Inactive)
REMARK    1  A    between atoms: C2_2  and  O1_3 
REMARK    2  A    between atoms: C2_2  and  C3_5 
REMARK    3  A    between atoms: C6_10  and  C7_11 
REMARK    4  A    between atoms: C7_11  and  C8_13 
REMARK    5  A    between atoms: N3_16  and  N4_18 
REMARK    6  A    between atoms: N4_18  and  C10_20 
ROOT
HETATM    1  C8  UNL     1     -15.156 -30.260 -11.330  1.00  0.00     0.179 C 
HETATM    2  C9  UNL     1     -15.454 -31.597 -10.973  1.00  0.00     0.123 C 
HETATM    3  N2  UNL     1     -15.709 -32.721 -10.717  1.00  0.00    -0.190 NA
HETATM    4  N3  UNL     1     -14.700 -30.052 -12.564  1.00  0.00    -0.287 N 
ATOM      5  H3  UNL     1     -14.498 -29.111 -12.903  1.00  0.00     0.188 HD
ENDROOT
BRANCH   1   6
HETATM    6  C7  UNL     1     -15.337 -29.079 -10.533  1.00  0.00     0.223 C 
HETATM    7  O2  UNL     1     -15.263 -29.245  -9.258  1.00  0.00    -0.284 OA
BRANCH   6   8
HETATM    8  C6  UNL     1     -15.586 -27.734 -10.998  1.00  0.00     0.046 A 
HETATM    9  C3  UNL     1     -14.746 -26.699 -11.345  1.00  0.00     0.024 A 
HETATM   10  C4  UNL     1     -15.532 -25.517 -11.502  1.00  0.00     0.102 A 
HETATM   11  N1  UNL     1     -16.791 -25.848 -11.261  1.00  0.00    -0.373 N 
HETATM   12  C5  UNL     1     -16.874 -27.153 -10.958  1.00  0.00     0.104 A 
ATOM     13  H1  UNL     1     -17.582 -25.205 -11.300  1.00  0.00     0.164 HD
BRANCH   9  14
HETATM   14  C2  UNL     1     -13.340 -26.713 -11.683  1.00  0.00     0.052 C 
HETATM   15  C1  UNL     1     -12.610 -27.484 -12.656  1.00  0.00     0.077 C 
BRANCH  14  16
HETATM   16  O1  UNL     1     -12.600 -25.880 -10.999  1.00  0.00    -0.364 OA
ATOM     17  H1  UNL     1     -11.812 -26.269 -10.638  1.00  0.00     0.217 HD
ENDBRANCH  14  16
ENDBRANCH   9  14
ENDBRANCH   6   8
ENDBRANCH   1   6
BRANCH   4  18
HETATM   18  N4  UNL     1     -14.509 -31.164 -13.372  1.00  0.00    -0.300 N 
ATOM     19  H4  UNL     1     -15.231 -31.881 -13.450  1.00  0.00     0.187 HD
BRANCH  18  20
HETATM   20  C10 UNL     1     -13.291 -31.285 -14.086  1.00  0.00     0.048 A 
HETATM   21  C11 UNL     1     -13.016 -30.444 -15.133  1.00  0.00     0.032 A 
HETATM   22  C12 UNL     1     -11.825 -30.556 -15.838  1.00  0.00     0.025 A 
HETATM   23  C13 UNL     1     -10.929 -31.545 -15.449  1.00  0.00     0.044 A 
HETATM   24  C14 UNL     1      -9.702 -31.652 -16.186  1.00  0.00     0.099 C 
HETATM   25  C15 UNL     1     -11.190 -32.398 -14.401  1.00  0.00     0.025 A 
HETATM   26  N5  UNL     1      -8.694 -31.732 -16.779  1.00  0.00    -0.191 NA
HETATM   27  C16 UNL     1     -12.387 -32.235 -13.743  1.00  0.00     0.032 A 
ENDBRANCH  18  20
ENDBRANCH   4  18
TORSDOF 6
ENDMDL
MODEL 3
REMARK VINA RESULT: -8.049304071      1.105      1.196
REMARK  6 active torsions:
REMARK  status: ('A' for Active; 'I' for Inactive)
REMARK    1  A    between atoms: C2_2  and  O1_3 
REMARK    2  A    between atoms: C2_2  and  C3_5 
REMARK    3  A    between atoms: C6_10  and  C7_11 
REMARK    4  A    between atoms: C7_11  and  C8_13 
REMARK    5  A    between atoms: N3_16  and  N4_18 
REMARK    6  A    between atoms: N4_18  and  C10_20 
ROOT
HETATM    1  C8  UNL     1     -15.948 -29.881 -10.768  1.00  0.00     0.179 C 
HETATM    2  C9  UNL     1     -16.749 -31.003 -10.446  1.00  0.00     0.123 C 
HETATM    3  N2  UNL     1     -17.413 -31.953 -10.218  1.00  0.00    -0.190 NA
HETATM    4  N3  UNL     1     -15.093 -30.021 -11.780  1.00  0.00    -0.287 N 
ATOM      5  H3  UNL     1     -14.509 -29.244 -12.091  1.00  0.00     0.188 HD
ENDROOT
BRANCH   1   6
HETATM    6  C7  UNL     1     -15.981 -28.579 -10.165  1.00  0.00     0.223 C 
HETATM    7  O2  UNL     1     -15.922 -28.553  -8.879  1.00  0.00    -0.284 OA
BRANCH   6   8
HETATM    8  C6  UNL     1     -16.069 -27.301 -10.834  1.00  0.00     0.046 A 
HETATM    9  C3  UNL     1     -15.111 -26.436 -11.315  1.00  0.00     0.024 A 
HETATM   10  C4  UNL     1     -15.752 -25.209 -11.668  1.00  0.00     0.102 A 
HETATM   11  N1  UNL     1     -17.043 -25.352 -11.410  1.00  0.00    -0.373 N 
HETATM   12  C5  UNL     1     -17.280 -26.578 -10.914  1.00  0.00     0.104 A 
ATOM     13  H1  UNL     1     -17.753 -24.637 -11.565  1.00  0.00     0.164 HD
BRANCH   9  14
HETATM   14  C2  UNL     1     -13.714 -26.662 -11.612  1.00  0.00     0.052 C 
HETATM   15  C1  UNL     1     -13.079 -27.590 -12.512  1.00  0.00     0.077 C 
BRANCH  14  16
HETATM   16  O1  UNL     1     -12.880 -25.891 -10.965  1.00  0.00    -0.364 OA
ATOM     17  H1  UNL     1     -13.194 -25.608 -10.115  1.00  0.00     0.217 HD
ENDBRANCH  14  16
ENDBRANCH   9  14
ENDBRANCH   6   8
ENDBRANCH   1   6
BRANCH   4  18
HETATM   18  N4  UNL     1     -15.026 -31.263 -12.394  1.00  0.00    -0.300 N 
ATOM     19  H4  UNL     1     -15.832 -31.888 -12.394  1.00  0.00     0.187 HD
BRANCH  18  20
HETATM   20  C10 UNL     1     -13.815 -31.647 -13.024  1.00  0.00     0.048 A 
HETATM   21  C11 UNL     1     -13.137 -32.760 -12.601  1.00  0.00     0.032 A 
HETATM   22  C12 UNL     1     -11.950 -33.142 -13.211  1.00  0.00     0.025 A 
HETATM   23  C13 UNL     1     -11.477 -32.360 -14.259  1.00  0.00     0.044 A 
HETATM   24  C14 UNL     1     -10.248 -32.765 -14.882  1.00  0.00     0.099 C 
HETATM   25  C15 UNL     1     -12.145 -31.240 -14.696  1.00  0.00     0.025 A 
HETATM   26  N5  UNL     1      -9.252 -33.100 -15.400  1.00  0.00    -0.191 NA
HETATM   27  C16 UNL     1     -13.315 -30.915 -14.049  1.00  0.00     0.032 A 
ENDBRANCH  18  20
ENDBRANCH   4  18
TORSDOF 6
ENDMDL
MODEL 4
REMARK VINA RESULT: -8.033828829      2.486      4.058
REMARK  6 active torsions:
REMARK  status: ('A' for Active; 'I' for Inactive)
REMARK    1  A    between atoms: C2_2  and  O1_3 
REMARK    2  A    between atoms: C2_2  and  C3_5 
REMARK    3  A    between atoms: C6_10  and  C7_11 
REMARK    4  A    between atoms: C7_11  and  C8_13 
REMARK    5  A    between atoms: N3_16  and  N4_18 
REMARK    6  A    between atoms: N4_18  and  C10_20 
ROOT
HETATM    1  C8  UNL     1     -14.425 -29.119 -13.119  1.00  0.00     0.179 C 
HETATM    2  C9  UNL     1     -13.210 -28.391 -13.128  1.00  0.00     0.123 C 
HETATM    3  N2  UNL     1     -12.177 -27.820 -13.152  1.00  0.00    -0.190 NA
HETATM    4  N3  UNL     1     -14.540 -30.112 -13.998  1.00  0.00    -0.287 N 
ATOM      5  H3  UNL     1     -15.372 -30.701 -14.025  1.00  0.00     0.188 HD
ENDROOT
BRANCH   1   6
HETATM    6  C7  UNL     1     -15.541 -28.948 -12.232  1.00  0.00     0.223 C 
HETATM    7  O2  UNL     1     -16.604 -28.443 -12.756  1.00  0.00    -0.284 OA
BRANCH   6   8
HETATM    8  C6  UNL     1     -15.607 -29.281 -10.828  1.00  0.00     0.046 A 
HETATM    9  C3  UNL     1     -16.103 -30.375 -10.154  1.00  0.00     0.024 A 
HETATM   10  C4  UNL     1     -16.125 -30.071  -8.758  1.00  0.00     0.102 A 
HETATM   11  N1  UNL     1     -15.652 -28.843  -8.618  1.00  0.00    -0.373 N 
HETATM   12  C5  UNL     1     -15.331 -28.332  -9.818  1.00  0.00     0.104 A 
ATOM     13  H1  UNL     1     -15.547 -28.355  -7.728  1.00  0.00     0.164 HD
BRANCH   9  14
HETATM   14  C2  UNL     1     -16.421 -31.702 -10.635  1.00  0.00     0.052 C 
HETATM   15  C1  UNL     1     -15.621 -32.663 -11.350  1.00  0.00     0.077 C 
BRANCH  14  16
HETATM   16  O1  UNL     1     -17.635 -32.109 -10.372  1.00  0.00    -0.364 OA
ATOM     17  H1  UNL     1     -18.144 -31.498  -9.851  1.00  0.00     0.217 HD
ENDBRANCH  14  16
ENDBRANCH   9  14
ENDBRANCH   6   8
ENDBRANCH   1   6
BRANCH   4  18
HETATM   18  N4  UNL     1     -13.485 -30.315 -14.877  1.00  0.00    -0.300 N 
ATOM     19  H4  UNL     1     -13.454 -29.829 -15.773  1.00  0.00     0.187 HD
BRANCH  18  20
HETATM   20  C10 UNL     1     -12.452 -31.211 -14.503  1.00  0.00     0.048 A 
HETATM   21  C11 UNL     1     -11.199 -31.087 -15.046  1.00  0.00     0.032 A 
HETATM   22  C12 UNL     1     -10.182 -31.961 -14.686  1.00  0.00     0.025 A 
HETATM   23  C13 UNL     1     -10.476 -32.958 -13.763  1.00  0.00     0.044 A 
HETATM   24  C14 UNL     1      -9.417 -33.855 -13.399  1.00  0.00     0.099 C 
HETATM   25  C15 UNL     1     -11.728 -33.095 -13.209  1.00  0.00     0.025 A 
HETATM   26  N5  UNL     1      -8.549 -34.581 -13.091  1.00  0.00    -0.191 NA
HETATM   27  C16 UNL     1     -12.692 -32.198 -13.607  1.00  0.00     0.032 A 
ENDBRANCH  18  20
ENDBRANCH   4  18
TORSDOF 6
ENDMDL
MODEL 5
REMARK VINA RESULT: -8.033638525      2.463      6.251
REMARK  6 active torsions:
REMARK  status: ('A' for Active; 'I' for Inactive)
REMARK    1  A    between atoms: C2_2  and  O1_3 
REMARK    2  A    between atoms: C2_2  and  C3_5 
REMARK    3  A    between atoms: C6_10  and  C7_11 
REMARK    4  A    between atoms: C7_11  and  C8_13 
REMARK    5  A    between atoms: N3_16  and  N4_18 
REMARK    6  A    between atoms: N4_18  and  C10_20 
ROOT
HETATM    1  C8  UNL     1     -15.138 -31.765 -11.048  1.00  0.00     0.179 C 
HETATM    2  C9  UNL     1     -16.461 -31.901 -10.561  1.00  0.00     0.123 C 
HETATM    3  N2  UNL     1     -17.553 -31.990 -10.121  1.00  0.00    -0.190 NA
HETATM    4  N3  UNL     1     -14.459 -30.687 -10.658  1.00  0.00    -0.287 N 
ATOM      5  H3  UNL     1     -13.490 -30.541 -10.940  1.00  0.00     0.188 HD
ENDROOT
BRANCH   1   6
HETATM    6  C7  UNL     1     -14.411 -32.684 -11.877  1.00  0.00     0.223 C 
HETATM    7  O2  UNL     1     -14.848 -33.896 -11.890  1.00  0.00    -0.284 OA
BRANCH   6   8
HETATM    8  C6  UNL     1     -13.255 -32.404 -12.697  1.00  0.00     0.046 A 
HETATM    9  C3  UNL     1     -13.038 -31.514 -13.726  1.00  0.00     0.024 A 
HETATM   10  C4  UNL     1     -11.785 -31.830 -14.335  1.00  0.00     0.102 A 
HETATM   11  N1  UNL     1     -11.281 -32.865 -13.682  1.00  0.00    -0.373 N 
HETATM   12  C5  UNL     1     -12.117 -33.241 -12.700  1.00  0.00     0.104 A 
ATOM     13  H1  UNL     1     -10.388 -33.311 -13.893  1.00  0.00     0.164 HD
BRANCH   9  14
HETATM   14  C2  UNL     1     -13.782 -30.335 -14.112  1.00  0.00     0.052 C 
HETATM   15  C1  UNL     1     -13.716 -28.979 -13.631  1.00  0.00     0.077 C 
BRANCH  14  16
HETATM   16  O1  UNL     1     -14.657 -30.522 -15.065  1.00  0.00    -0.364 OA
ATOM     17  H1  UNL     1     -14.872 -31.434 -15.220  1.00  0.00     0.217 HD
ENDBRANCH  14  16
ENDBRANCH   9  14
ENDBRANCH   6   8
ENDBRANCH   1   6
BRANCH   4  18
HETATM   18  N4  UNL     1     -15.122 -29.770  -9.854  1.00  0.00    -0.300 N 
ATOM     19  H4  UNL     1     -15.229 -29.937  -8.853  1.00  0.00     0.187 HD
BRANCH  18  20
HETATM   20  C10 UNL     1     -15.646 -28.596 -10.452  1.00  0.00     0.048 A 
HETATM   21  C11 UNL     1     -14.938 -27.423 -10.412  1.00  0.00     0.032 A 
HETATM   22  C12 UNL     1     -15.445 -26.269 -10.993  1.00  0.00     0.025 A 
HETATM   23  C13 UNL     1     -16.687 -26.344 -11.613  1.00  0.00     0.044 A 
HETATM   24  C14 UNL     1     -17.200 -25.144 -12.210  1.00  0.00     0.099 C 
HETATM   25  C15 UNL     1     -17.410 -27.513 -11.662  1.00  0.00     0.025 A 
HETATM   26  N5  UNL     1     -17.616 -24.169 -12.709  1.00  0.00    -0.191 NA
HETATM   27  C16 UNL     1     -16.853 -28.621 -11.067  1.00  0.00     0.032 A 
ENDBRANCH  18  20
ENDBRANCH   4  18
TORSDOF 6
ENDMDL
