MODEL 1
REMARK VINA RESULT: -7.608532983      0.000      0.000
REMARK  4 active torsions:
REMARK  status: ('A' for Active; 'I' for Inactive)
REMARK    1  A    between atoms: O1_1  and  C1_3 
REMARK    2  A    between atoms: N1_6  and  C4_7 
REMARK    3  A    between atoms: N2_10  and  C7_11 
REMARK    4  A    between atoms: C7_11  and  C8_12 
ROOT
HETATM    1  C7  UNL     1       9.831   1.743  16.147  1.00  0.00     0.192 C 
HETATM    2  C13 UNL     1       9.587   3.225  16.350  1.00  0.00     0.073 C 
HETATM    3  C14 UNL     1       8.720   3.498  17.580  1.00  0.00     0.170 C 
HETATM    4  O2  UNL     1       7.504   2.799  17.524  1.00  0.00    -0.391 OA
HETATM    5  C15 UNL     1       7.870   1.444  17.707  1.00  0.00     0.170 C 
HETATM    6  C16 UNL     1       8.525   1.032  16.418  1.00  0.00     0.073 C 
ENDROOT
BRANCH   1   7
HETATM    7  N2  UNL     1      10.162   1.463  14.771  1.00  0.00     0.103 N 
HETATM    8  C6  UNL     1      11.177   2.309  14.202  1.00  0.00     0.276 C 
HETATM    9  C5  UNL     1      11.753   1.524  13.014  1.00  0.00     0.055 C 
HETATM   10  C4  UNL     1      10.638   1.028  12.118  1.00  0.00     0.086 C 
HETATM   11  C18 UNL     1       9.404   1.829  12.467  1.00  0.00     0.055 C 
HETATM   12  C17 UNL     1       9.003   1.526  13.904  1.00  0.00     0.276 C 
BRANCH  10  13
HETATM   13  N1  UNL     1      10.996   1.145  10.787  1.00  0.00    -0.386 N 
HETATM   14  C3  UNL     1      11.870   2.163  10.347  1.00  0.00     0.125 C 
HETATM   15  C2  UNL     1      12.152   1.775   8.884  1.00  0.00     0.057 C 
HETATM   16  C1  UNL     1      10.808   1.232   8.478  1.00  0.00     0.157 C 
HETATM   17  C19 UNL     1      10.238   0.636   9.737  1.00  0.00     0.090 C 
BRANCH  16  18
HETATM   18  O1  UNL     1      10.961   0.268   7.480  1.00  0.00    -0.390 OA
ATOM     19  H1  UNL     1      10.207   0.272   6.903  1.00  0.00     0.210 HD
ENDBRANCH  16  18
ENDBRANCH  10  13
ENDBRANCH   1   7
BRANCH   1  20
HETATM   20  C8  UNL     1      10.902   1.277  17.087  1.00  0.00    -0.004 A 
HETATM   21  C9  UNL     1      11.653   2.099  17.875  1.00  0.00     0.014 A 
HETATM   22  C10 UNL     1      12.642   1.625  18.716  1.00  0.00     0.043 A 
HETATM   23  C11 UNL     1      12.885   0.253  18.764  1.00  0.00     0.103 A 
HETATM   24 CL1  UNL     1      14.142  -0.386  19.832  1.00  0.00    -0.065 Cl
HETATM   25  N3  UNL     1      12.139  -0.551  17.983  1.00  0.00    -0.356 N 
HETATM   26  C12 UNL     1      11.172  -0.080  17.162  1.00  0.00     0.099 A 
ATOM     27  H3  UNL     1      12.309  -1.556  18.011  1.00  0.00     0.166 HD
ENDBRANCH   1  20
TORSDOF 4
ENDMDL
MODEL 2
REMARK VINA RESULT: -7.430095036      0.924      1.228
REMARK  4 active torsions:
REMARK  status: ('A' for Active; 'I' for Inactive)
REMARK    1  A    between atoms: O1_1  and  C1_3 
REMARK    2  A    between atoms: N1_6  and  C4_7 
REMARK    3  A    between atoms: N2_10  and  C7_11 
REMARK    4  A    between atoms: C7_11  and  C8_12 
ROOT
HETATM    1  C7  UNL     1      10.274   1.147  16.257  1.00  0.00     0.192 C 
HETATM    2  C13 UNL     1       9.959   2.563  16.694  1.00  0.00     0.073 C 
HETATM    3  C14 UNL     1       9.040   2.592  17.917  1.00  0.00     0.170 C 
HETATM    4  O2  UNL     1       7.858   1.866  17.695  1.00  0.00    -0.391 OA
HETATM    5  C15 UNL     1       8.277   0.515  17.664  1.00  0.00     0.170 C 
HETATM    6  C16 UNL     1       8.994   0.351  16.352  1.00  0.00     0.073 C 
ENDROOT
BRANCH   1   7
HETATM    7  N2  UNL     1      10.664   1.116  14.868  1.00  0.00     0.103 N 
HETATM    8  C6  UNL     1      10.530   2.366  14.168  1.00  0.00     0.276 C 
HETATM    9  C5  UNL     1      11.478   2.269  12.963  1.00  0.00     0.055 C 
HETATM   10  C4  UNL     1      11.236   0.983  12.202  1.00  0.00     0.086 C 
HETATM   11  C18 UNL     1       9.883   0.463  12.636  1.00  0.00     0.055 C 
HETATM   12  C17 UNL     1       9.936   0.113  14.117  1.00  0.00     0.276 C 
BRANCH  10  13
HETATM   13  N1  UNL     1      11.313   1.204  10.838  1.00  0.00    -0.386 N 
HETATM   14  C3  UNL     1      11.850   2.401  10.316  1.00  0.00     0.125 C 
HETATM   15  C2  UNL     1      11.942   2.114   8.806  1.00  0.00     0.057 C 
HETATM   16  C1  UNL     1      10.698   1.290   8.605  1.00  0.00     0.157 C 
HETATM   17  C19 UNL     1      10.507   0.558   9.906  1.00  0.00     0.090 C 
BRANCH  16  18
HETATM   18  O1  UNL     1      10.875   0.405   7.541  1.00  0.00    -0.390 OA
ATOM     19  H1  UNL     1      10.060   0.297   7.066  1.00  0.00     0.210 HD
ENDBRANCH  16  18
ENDBRANCH  10  13
ENDBRANCH   1   7
BRANCH   1  20
HETATM   20  C8  UNL     1      11.333   0.570  17.149  1.00  0.00    -0.004 A 
HETATM   21  C9  UNL     1      11.304  -0.691  17.668  1.00  0.00     0.014 A 
HETATM   22  C10 UNL     1      12.295  -1.177  18.500  1.00  0.00     0.043 A 
HETATM   23  C11 UNL     1      13.369  -0.348  18.823  1.00  0.00     0.103 A 
HETATM   24 CL1  UNL     1      14.655  -0.941  19.884  1.00  0.00    -0.065 Cl
HETATM   25  N3  UNL     1      13.389   0.895  18.307  1.00  0.00    -0.356 N 
HETATM   26  C12 UNL     1      12.415   1.364  17.493  1.00  0.00     0.099 A 
ATOM     27  H3  UNL     1      14.170   1.508  18.538  1.00  0.00     0.166 HD
ENDBRANCH   1  20
TORSDOF 4
ENDMDL
MODEL 3
REMARK VINA RESULT: -7.339776513      1.114      1.119
REMARK  4 active torsions:
REMARK  status: ('A' for Active; 'I' for Inactive)
REMARK    1  A    between atoms: O1_1  and  C1_3 
REMARK    2  A    between atoms: N1_6  and  C4_7 
REMARK    3  A    between atoms: N2_10  and  C7_11 
REMARK    4  A    between atoms: C7_11  and  C8_12 
ROOT
HETATM    1  C7  UNL     1       9.285   2.573  15.941  1.00  0.00     0.192 C 
HETATM    2  C13 UNL     1       9.369   4.080  16.067  1.00  0.00     0.073 C 
HETATM    3  C14 UNL     1       8.379   4.624  17.098  1.00  0.00     0.170 C 
HETATM    4  O2  UNL     1       7.063   4.223  16.815  1.00  0.00    -0.391 OA
HETATM    5  C15 UNL     1       7.053   2.835  17.089  1.00  0.00     0.170 C 
HETATM    6  C16 UNL     1       7.820   2.202  15.962  1.00  0.00     0.073 C 
ENDROOT
BRANCH   1   7
HETATM    7  N2  UNL     1       9.790   2.138  14.662  1.00  0.00     0.103 N 
HETATM    8  C6  UNL     1      10.537   3.128  13.931  1.00  0.00     0.276 C 
HETATM    9  C5  UNL     1      11.416   2.341  12.948  1.00  0.00     0.055 C 
HETATM   10  C4  UNL     1      10.580   1.345  12.171  1.00  0.00     0.086 C 
HETATM   11  C18 UNL     1       9.135   1.768  12.327  1.00  0.00     0.055 C 
HETATM   12  C17 UNL     1       8.738   1.653  13.792  1.00  0.00     0.276 C 
BRANCH  10  13
HETATM   13  N1  UNL     1      10.985   1.296  10.850  1.00  0.00    -0.386 N 
HETATM   14  C3  UNL     1      12.041   2.104  10.374  1.00  0.00     0.125 C 
HETATM   15  C2  UNL     1      12.282   1.564   8.952  1.00  0.00     0.057 C 
HETATM   16  C1  UNL     1      10.872   1.243   8.535  1.00  0.00     0.157 C 
HETATM   17  C19 UNL     1      10.172   0.856   9.809  1.00  0.00     0.090 C 
BRANCH  16  18
HETATM   18  O1  UNL     1      10.871   0.196   7.612  1.00  0.00    -0.390 OA
ATOM     19  H1  UNL     1      10.820  -0.638   8.064  1.00  0.00     0.210 HD
ENDBRANCH  16  18
ENDBRANCH  10  13
ENDBRANCH   1   7
BRANCH   1  20
HETATM   20  C8  UNL     1      10.017   1.931  17.081  1.00  0.00    -0.004 A 
HETATM   21  C9  UNL     1      11.044   2.511  17.767  1.00  0.00     0.014 A 
HETATM   22  C10 UNL     1      11.702   1.874  18.802  1.00  0.00     0.043 A 
HETATM   23  C11 UNL     1      11.303   0.587  19.163  1.00  0.00     0.103 A 
HETATM   24 CL1  UNL     1      12.123  -0.254  20.485  1.00  0.00    -0.065 Cl
HETATM   25  N3  UNL     1      10.290   0.023  18.480  1.00  0.00    -0.356 N 
HETATM   26  C12 UNL     1       9.650   0.652  17.468  1.00  0.00     0.099 A 
ATOM     27  H3  UNL     1       9.991  -0.918  18.737  1.00  0.00     0.166 HD
ENDBRANCH   1  20
TORSDOF 4
ENDMDL
MODEL 4
REMARK VINA RESULT: -7.337334616      1.326      1.485
REMARK  4 active torsions:
REMARK  status: ('A' for Active; 'I' for Inactive)
REMARK    1  A    between atoms: O1_1  and  C1_3 
REMARK    2  A    between atoms: N1_6  and  C4_7 
REMARK    3  A    between atoms: N2_10  and  C7_11 
REMARK    4  A    between atoms: C7_11  and  C8_12 
ROOT
HETATM    1  C7  UNL     1       9.373   2.899  16.056  1.00  0.00     0.192 C 
HETATM    2  C13 UNL     1       9.343   4.414  16.072  1.00  0.00     0.073 C 
HETATM    3  C14 UNL     1       8.349   4.954  17.102  1.00  0.00     0.170 C 
HETATM    4  O2  UNL     1       7.061   4.435  16.901  1.00  0.00    -0.391 OA
HETATM    5  C15 UNL     1       7.169   3.073  17.272  1.00  0.00     0.170 C 
HETATM    6  C16 UNL     1       7.944   2.420  16.162  1.00  0.00     0.073 C 
ENDROOT
BRANCH   1   7
HETATM    7  N2  UNL     1       9.866   2.411  14.791  1.00  0.00     0.103 N 
HETATM    8  C6  UNL     1      10.495   3.401  13.957  1.00  0.00     0.276 C 
HETATM    9  C5  UNL     1      11.402   2.618  12.996  1.00  0.00     0.055 C 
HETATM   10  C4  UNL     1      10.627   1.499  12.332  1.00  0.00     0.086 C 
HETATM   11  C18 UNL     1       9.159   1.809  12.520  1.00  0.00     0.055 C 
HETATM   12  C17 UNL     1       8.828   1.774  14.006  1.00  0.00     0.276 C 
BRANCH  10  13
HETATM   13  N1  UNL     1      10.985   1.383  11.001  1.00  0.00    -0.386 N 
HETATM   14  C3  UNL     1      12.042   2.144  10.455  1.00  0.00     0.125 C 
HETATM   15  C2  UNL     1      12.222   1.537   9.051  1.00  0.00     0.057 C 
HETATM   16  C1  UNL     1      10.791   1.232   8.696  1.00  0.00     0.157 C 
HETATM   17  C19 UNL     1      10.127   0.917  10.010  1.00  0.00     0.090 C 
BRANCH  16  18
HETATM   18  O1  UNL     1      10.735   0.146   7.821  1.00  0.00    -0.390 OA
ATOM     19  H1  UNL     1      10.569  -0.655   8.305  1.00  0.00     0.210 HD
ENDBRANCH  16  18
ENDBRANCH  10  13
ENDBRANCH   1   7
BRANCH   1  20
HETATM   20  C8  UNL     1      10.193   2.400  17.207  1.00  0.00    -0.004 A 
HETATM   21  C9  UNL     1       9.725   1.584  18.195  1.00  0.00     0.014 A 
HETATM   22  C10 UNL     1      10.515   1.161  19.248  1.00  0.00     0.043 A 
HETATM   23  C11 UNL     1      11.843   1.582  19.306  1.00  0.00     0.103 A 
HETATM   24 CL1  UNL     1      12.880   1.056  20.639  1.00  0.00    -0.065 Cl
HETATM   25  N3  UNL     1      12.296   2.387  18.327  1.00  0.00    -0.356 N 
HETATM   26  C12 UNL     1      11.517   2.797  17.299  1.00  0.00     0.099 A 
ATOM     27  H3  UNL     1      13.266   2.700  18.360  1.00  0.00     0.166 HD
ENDBRANCH   1  20
TORSDOF 4
ENDMDL
MODEL 5
REMARK VINA RESULT: -7.294692833      2.607      3.695
REMARK  4 active torsions:
REMARK  status: ('A' for Active; 'I' for Inactive)
REMARK    1  A    between atoms: O1_1  and  C1_3 
REMARK    2  A    between atoms: N1_6  and  C4_7 
REMARK    3  A    between atoms: N2_10  and  C7_11 
REMARK    4  A    between atoms: C7_11  and  C8_12 
ROOT
HETATM    1  C7  UNL     1      10.895   1.974  16.191  1.00  0.00     0.192 C 
HETATM    2  C13 UNL     1      10.949   0.633  16.894  1.00  0.00     0.073 C 
HETATM    3  C14 UNL     1      11.548   0.748  18.297  1.00  0.00     0.170 C 
HETATM    4  O2  UNL     1      12.818   1.346  18.272  1.00  0.00    -0.391 OA
HETATM    5  C15 UNL     1      12.562   2.698  17.941  1.00  0.00     0.170 C 
HETATM    6  C16 UNL     1      12.194   2.688  16.484  1.00  0.00     0.073 C 
ENDROOT
BRANCH   1   7
HETATM    7  N2  UNL     1      10.847   1.799  14.760  1.00  0.00     0.103 N 
HETATM    8  C6  UNL     1      11.782   0.841  14.230  1.00  0.00     0.276 C 
HETATM    9  C5  UNL     1      11.206   0.408  12.873  1.00  0.00     0.055 C 
HETATM   10  C4  UNL     1      10.859   1.620  12.035  1.00  0.00     0.086 C 
HETATM   11  C18 UNL     1      11.585   2.799  12.645  1.00  0.00     0.055 C 
HETATM   12  C17 UNL     1      11.046   3.045  14.047  1.00  0.00     0.276 C 
BRANCH  10  13
HETATM   13  N1  UNL     1      11.196   1.408  10.711  1.00  0.00    -0.386 N 
HETATM   14  C3  UNL     1      12.360   1.976  10.148  1.00  0.00     0.125 C 
HETATM   15  C2  UNL     1      12.444   1.305   8.765  1.00  0.00     0.057 C 
HETATM   16  C1  UNL     1      10.984   1.219   8.410  1.00  0.00     0.157 C 
HETATM   17  C19 UNL     1      10.277   1.054   9.728  1.00  0.00     0.090 C 
BRANCH  16  18
HETATM   18  O1  UNL     1      10.758   0.129   7.568  1.00  0.00    -0.390 OA
ATOM     19  H1  UNL     1      10.363   0.420   6.755  1.00  0.00     0.210 HD
ENDBRANCH  16  18
ENDBRANCH  10  13
ENDBRANCH   1   7
BRANCH   1  20
HETATM   20  C8  UNL     1       9.724   2.761  16.698  1.00  0.00    -0.004 A 
HETATM   21  C9  UNL     1       9.715   4.115  16.865  1.00  0.00     0.014 A 
HETATM   22  C10 UNL     1       8.617   4.799  17.352  1.00  0.00     0.043 A 
HETATM   23  C11 UNL     1       7.470   4.079  17.687  1.00  0.00     0.103 A 
HETATM   24 CL1  UNL     1       6.047   4.925  18.310  1.00  0.00    -0.065 Cl
HETATM   25  N3  UNL     1       7.488   2.744  17.519  1.00  0.00    -0.356 N 
HETATM   26  C12 UNL     1       8.567   2.081  17.043  1.00  0.00     0.099 A 
ATOM     27  H3  UNL     1       6.654   2.209  17.762  1.00  0.00     0.166 HD
ENDBRANCH   1  20
TORSDOF 4
ENDMDL
