MODEL 1
REMARK VINA RESULT: -7.951204160      0.000      0.000
REMARK  3 active torsions:
REMARK  status: ('A' for Active; 'I' for Inactive)
REMARK    1  A    between atoms: N1_5  and  C5_6 
REMARK    2  A    between atoms: C5_6  and  C6_7 
REMARK       I    between atoms: N2_14  and  C12_15 
REMARK       I    between atoms: C12_15  and  N3_17 
REMARK    3  A    between atoms: N3_17  and  C13_19 
ROOT
HETATM    1  C6  UNL     1       9.608   1.651  16.228  1.00  0.00     0.182 C 
HETATM    2  O1  UNL     1       8.618   2.586  16.371  1.00  0.00    -0.377 OA
HETATM    3  C7  UNL     1       8.299   3.132  15.158  1.00  0.00     0.194 C 
HETATM    4  C8  UNL     1       7.785   2.085  14.168  1.00  0.00     0.113 C 
HETATM    5  C9  UNL     1       6.728   1.227  14.845  1.00  0.00     0.030 C 
HETATM    6  C10 UNL     1       7.566   0.410  15.801  1.00  0.00     0.030 C 
HETATM    7  C11 UNL     1       8.995   0.550  15.344  1.00  0.00     0.123 C 
HETATM    8  N2  UNL     1       8.850   1.136  14.004  1.00  0.00    -0.320 N 
HETATM    9  C12 UNL     1       9.596   0.836  12.835  1.00  0.00     0.323 C 
HETATM   10  O2  UNL     1      10.472  -0.042  12.963  1.00  0.00    -0.247 OA
HETATM   11  N3  UNL     1       9.332   1.506  11.639  1.00  0.00    -0.306 N 
ATOM     12  H3  UNL     1       8.588   2.203  11.656  1.00  0.00     0.171 HD
ENDROOT
BRANCH   1  13
HETATM   13  C5  UNL     1      10.096   0.986  17.453  1.00  0.00     0.097 C 
BRANCH  13  14
HETATM   14  N1  UNL     1      11.421   1.069  17.796  1.00  0.00    -0.371 N 
HETATM   15  C4  UNL     1      12.424   0.295  17.214  1.00  0.00     0.128 C 
HETATM   16  C3  UNL     1      13.322   1.374  16.580  1.00  0.00     0.029 C 
HETATM   17  C2  UNL     1      13.074   2.607  17.439  1.00  0.00     0.022 C 
HETATM   18  C1  UNL     1      12.495   3.726  16.600  1.00  0.00     0.015 C 
HETATM   19  C18 UNL     1      11.989   2.180  18.421  1.00  0.00     0.067 C 
ENDBRANCH  13  14
ENDBRANCH   1  13
BRANCH  11  20
HETATM   20  C13 UNL     1       9.994   1.311  10.408  1.00  0.00     0.073 A 
HETATM   21  C14 UNL     1       9.513   0.599   9.361  1.00  0.00     0.119 A 
HETATM   22  N4  UNL     1      10.246   0.475   8.212  1.00  0.00    -0.373 N 
HETATM   23  C15 UNL     1      11.447   1.037   8.064  1.00  0.00     0.089 A 
ATOM     24  H4  UNL     1       9.860  -0.067   7.440  1.00  0.00     0.164 HD
HETATM   25  C16 UNL     1      12.005   1.782   9.096  1.00  0.00     0.043 A 
HETATM   26  C17 UNL     1      11.264   1.904  10.248  1.00  0.00     0.063 A 
HETATM   27 CL1  UNL     1      11.928   2.826  11.566  1.00  0.00    -0.082 Cl
ENDBRANCH  11  20
TORSDOF 3
ENDMDL
MODEL 2
REMARK VINA RESULT: -7.521535561      4.133      7.525
REMARK  3 active torsions:
REMARK  status: ('A' for Active; 'I' for Inactive)
REMARK    1  A    between atoms: N1_5  and  C5_6 
REMARK    2  A    between atoms: C5_6  and  C6_7 
REMARK       I    between atoms: N2_14  and  C12_15 
REMARK       I    between atoms: C12_15  and  N3_17 
REMARK    3  A    between atoms: N3_17  and  C13_19 
ROOT
HETATM    1  C6  UNL     1       9.433  -0.878  12.270  1.00  0.00     0.182 C 
HETATM    2  O1  UNL     1      10.459  -1.504  12.927  1.00  0.00    -0.377 OA
HETATM    3  C7  UNL     1      10.046  -1.928  14.162  1.00  0.00     0.194 C 
HETATM    4  C8  UNL     1       8.892  -2.929  14.074  1.00  0.00     0.113 C 
HETATM    5  C9  UNL     1       9.230  -4.000  13.048  1.00  0.00     0.030 C 
HETATM    6  C10 UNL     1       9.109  -3.228  11.755  1.00  0.00     0.030 C 
HETATM    7  C11 UNL     1       8.358  -1.963  12.079  1.00  0.00     0.123 C 
HETATM    8  N2  UNL     1       7.817  -2.241  13.417  1.00  0.00    -0.320 N 
HETATM    9  C12 UNL     1       6.539  -1.900  13.929  1.00  0.00     0.323 C 
HETATM   10  O2  UNL     1       5.782  -1.302  13.141  1.00  0.00    -0.247 OA
HETATM   11  N3  UNL     1       6.194  -2.234  15.240  1.00  0.00    -0.306 N 
ATOM     12  H3  UNL     1       6.897  -2.727  15.791  1.00  0.00     0.171 HD
ENDROOT
BRANCH   1  13
HETATM   13  C5  UNL     1       9.722  -0.328  10.930  1.00  0.00     0.097 C 
BRANCH  13  14
HETATM   14  N1  UNL     1       9.984   1.010  10.781  1.00  0.00    -0.371 N 
HETATM   15  C4  UNL     1      10.609   1.792  11.751  1.00  0.00     0.128 C 
HETATM   16  C3  UNL     1      11.876   2.255  11.007  1.00  0.00     0.029 C 
HETATM   17  C2  UNL     1      11.473   2.220   9.539  1.00  0.00     0.022 C 
HETATM   18  C1  UNL     1      12.345   1.244   8.776  1.00  0.00     0.015 C 
HETATM   19  C18 UNL     1      10.060   1.647   9.541  1.00  0.00     0.067 C 
ENDBRANCH  13  14
ENDBRANCH   1  13
BRANCH  11  20
HETATM   20  C13 UNL     1       4.966  -1.955  15.879  1.00  0.00     0.073 A 
HETATM   21  C14 UNL     1       3.823  -2.666  15.727  1.00  0.00     0.119 A 
HETATM   22  N4  UNL     1       2.687  -2.301  16.396  1.00  0.00    -0.373 N 
HETATM   23  C15 UNL     1       2.644  -1.250  17.217  1.00  0.00     0.089 A 
ATOM     24  H4  UNL     1       1.840  -2.853  16.263  1.00  0.00     0.164 HD
HETATM   25  C16 UNL     1       3.779  -0.474  17.422  1.00  0.00     0.043 A 
HETATM   26  C17 UNL     1       4.918  -0.845  16.747  1.00  0.00     0.063 A 
HETATM   27 CL1  UNL     1       6.360   0.103  16.974  1.00  0.00    -0.082 Cl
ENDBRANCH  11  20
TORSDOF 3
ENDMDL
MODEL 3
REMARK VINA RESULT: -7.515848276      0.864      1.215
REMARK  3 active torsions:
REMARK  status: ('A' for Active; 'I' for Inactive)
REMARK    1  A    between atoms: N1_5  and  C5_6 
REMARK    2  A    between atoms: C5_6  and  C6_7 
REMARK       I    between atoms: N2_14  and  C12_15 
REMARK       I    between atoms: C12_15  and  N3_17 
REMARK    3  A    between atoms: N3_17  and  C13_19 
ROOT
HETATM    1  C6  UNL     1       9.524   1.101  16.238  1.00  0.00     0.182 C 
HETATM    2  O1  UNL     1       8.599   2.090  16.443  1.00  0.00    -0.377 OA
HETATM    3  C7  UNL     1       8.358   2.767  15.277  1.00  0.00     0.194 C 
HETATM    4  C8  UNL     1       7.803   1.854  14.182  1.00  0.00     0.113 C 
HETATM    5  C9  UNL     1       6.665   1.019  14.750  1.00  0.00     0.030 C 
HETATM    6  C10 UNL     1       7.412   0.059  15.646  1.00  0.00     0.030 C 
HETATM    7  C11 UNL     1       8.861   0.134  15.240  1.00  0.00     0.123 C 
HETATM    8  N2  UNL     1       8.802   0.848  13.957  1.00  0.00    -0.320 N 
HETATM    9  C12 UNL     1       9.561   0.600  12.785  1.00  0.00     0.323 C 
HETATM   10  O2  UNL     1      10.367  -0.347  12.852  1.00  0.00    -0.247 OA
HETATM   11  N3  UNL     1       9.383   1.394  11.650  1.00  0.00    -0.306 N 
ATOM     12  H3  UNL     1       8.691   2.141  11.713  1.00  0.00     0.171 HD
ENDROOT
BRANCH   1  13
HETATM   13  C5  UNL     1       9.923   0.293  17.407  1.00  0.00     0.097 C 
BRANCH  13  14
HETATM   14  N1  UNL     1      11.237  -0.061  17.579  1.00  0.00    -0.371 N 
HETATM   15  C4  UNL     1      12.274   0.378  16.756  1.00  0.00     0.128 C 
HETATM   16  C3  UNL     1      13.159   1.147  17.754  1.00  0.00     0.029 C 
HETATM   17  C2  UNL     1      12.859   0.489  19.094  1.00  0.00     0.022 C 
HETATM   18  C1  UNL     1      12.272   1.498  20.058  1.00  0.00     0.015 C 
HETATM   19  C18 UNL     1      11.760  -0.524  18.787  1.00  0.00     0.067 C 
ENDBRANCH  13  14
ENDBRANCH   1  13
BRANCH  11  20
HETATM   20  C13 UNL     1      10.069   1.264  10.422  1.00  0.00     0.073 A 
HETATM   21  C14 UNL     1       9.642   0.545   9.357  1.00  0.00     0.119 A 
HETATM   22  N4  UNL     1      10.393   0.488   8.214  1.00  0.00    -0.373 N 
HETATM   23  C15 UNL     1      11.559   1.123   8.091  1.00  0.00     0.089 A 
ATOM     24  H4  UNL     1      10.048  -0.062   7.427  1.00  0.00     0.164 HD
HETATM   25  C16 UNL     1      12.061   1.880   9.143  1.00  0.00     0.043 A 
HETATM   26  C17 UNL     1      11.302   1.934  10.288  1.00  0.00     0.063 A 
HETATM   27 CL1  UNL     1      11.897   2.869  11.631  1.00  0.00    -0.082 Cl
ENDBRANCH  11  20
TORSDOF 3
ENDMDL
MODEL 4
REMARK VINA RESULT: -7.471153582      1.132      1.815
REMARK  3 active torsions:
REMARK  status: ('A' for Active; 'I' for Inactive)
REMARK    1  A    between atoms: N1_5  and  C5_6 
REMARK    2  A    between atoms: C5_6  and  C6_7 
REMARK       I    between atoms: N2_14  and  C12_15 
REMARK       I    between atoms: C12_15  and  N3_17 
REMARK    3  A    between atoms: N3_17  and  C13_19 
ROOT
HETATM    1  C6  UNL     1      10.372   1.912  16.467  1.00  0.00     0.182 C 
HETATM    2  O1  UNL     1       9.726   3.102  16.677  1.00  0.00    -0.377 OA
HETATM    3  C7  UNL     1       9.476   3.725  15.485  1.00  0.00     0.194 C 
HETATM    4  C8  UNL     1       8.582   2.887  14.569  1.00  0.00     0.113 C 
HETATM    5  C9  UNL     1       7.382   2.384  15.357  1.00  0.00     0.030 C 
HETATM    6  C10 UNL     1       8.020   1.348  16.252  1.00  0.00     0.030 C 
HETATM    7  C11 UNL     1       9.377   1.053  15.667  1.00  0.00     0.123 C 
HETATM    8  N2  UNL     1       9.293   1.662  14.332  1.00  0.00    -0.320 N 
HETATM    9  C12 UNL     1       9.803   1.156  13.109  1.00  0.00     0.323 C 
HETATM   10  O2  UNL     1      10.382   0.055  13.178  1.00  0.00    -0.247 OA
HETATM   11  N3  UNL     1       9.644   1.881  11.926  1.00  0.00    -0.306 N 
ATOM     12  H3  UNL     1       9.149   2.771  11.994  1.00  0.00     0.171 HD
ENDROOT
BRANCH   1  13
HETATM   13  C5  UNL     1      10.747   1.125  17.659  1.00  0.00     0.097 C 
BRANCH  13  14
HETATM   14  N1  UNL     1      11.955   1.343  18.271  1.00  0.00    -0.371 N 
HETATM   15  C4  UNL     1      12.091   1.880  19.551  1.00  0.00     0.128 C 
HETATM   16  C3  UNL     1      12.801   0.733  20.295  1.00  0.00     0.029 C 
HETATM   17  C2  UNL     1      13.549  -0.010  19.195  1.00  0.00     0.022 C 
HETATM   18  C1  UNL     1      13.059  -1.440  19.097  1.00  0.00     0.015 C 
HETATM   19  C18 UNL     1      13.134   0.692  17.906  1.00  0.00     0.067 C 
ENDBRANCH  13  14
ENDBRANCH   1  13
BRANCH  11  20
HETATM   20  C13 UNL     1      10.101   1.502  10.645  1.00  0.00     0.073 A 
HETATM   21  C14 UNL     1       9.446   0.683   9.788  1.00  0.00     0.119 A 
HETATM   22  N4  UNL     1       9.988   0.382   8.568  1.00  0.00    -0.373 N 
HETATM   23  C15 UNL     1      11.162   0.868   8.165  1.00  0.00     0.089 A 
ATOM     24  H4  UNL     1       9.473  -0.238   7.943  1.00  0.00     0.164 HD
HETATM   25  C16 UNL     1      11.892   1.715   8.992  1.00  0.00     0.043 A 
HETATM   26  C17 UNL     1      11.343   2.015  10.216  1.00  0.00     0.063 A 
HETATM   27 CL1  UNL     1      12.225   3.070  11.283  1.00  0.00    -0.082 Cl
ENDBRANCH  11  20
TORSDOF 3
ENDMDL
MODEL 5
REMARK VINA RESULT: -7.424254686      1.676      1.991
REMARK  3 active torsions:
REMARK  status: ('A' for Active; 'I' for Inactive)
REMARK    1  A    between atoms: N1_5  and  C5_6 
REMARK    2  A    between atoms: C5_6  and  C6_7 
REMARK       I    between atoms: N2_14  and  C12_15 
REMARK       I    between atoms: C12_15  and  N3_17 
REMARK    3  A    between atoms: N3_17  and  C13_19 
ROOT
HETATM    1  C6  UNL     1       9.948  -0.566  16.650  1.00  0.00     0.182 C 
HETATM    2  O1  UNL     1       8.730  -0.046  16.998  1.00  0.00    -0.377 OA
HETATM    3  C7  UNL     1       8.182   0.633  15.943  1.00  0.00     0.194 C 
HETATM    4  C8  UNL     1       7.953  -0.271  14.730  1.00  0.00     0.113 C 
HETATM    5  C9  UNL     1       7.254  -1.546  15.175  1.00  0.00     0.030 C 
HETATM    6  C10 UNL     1       8.362  -2.253  15.921  1.00  0.00     0.030 C 
HETATM    7  C11 UNL     1       9.647  -1.574  15.525  1.00  0.00     0.123 C 
HETATM    8  N2  UNL     1       9.245  -0.775  14.359  1.00  0.00    -0.320 N 
HETATM    9  C12 UNL     1       9.971  -0.555  13.161  1.00  0.00     0.323 C 
HETATM   10  O2  UNL     1      11.079  -1.119  13.088  1.00  0.00    -0.247 OA
HETATM   11  N3  UNL     1       9.439   0.251  12.152  1.00  0.00    -0.306 N 
ATOM     12  H3  UNL     1       8.519   0.658  12.325  1.00  0.00     0.171 HD
ENDROOT
BRANCH   1  13
HETATM   13  C5  UNL     1      10.693  -1.304  17.690  1.00  0.00     0.097 C 
BRANCH  13  14
HETATM   14  N1  UNL     1      11.387  -0.616  18.652  1.00  0.00    -0.371 N 
HETATM   15  C4  UNL     1      12.377  -1.187  19.452  1.00  0.00     0.128 C 
HETATM   16  C3  UNL     1      13.610  -0.348  19.067  1.00  0.00     0.029 C 
HETATM   17  C2  UNL     1      13.022   0.982  18.613  1.00  0.00     0.022 C 
HETATM   18  C1  UNL     1      13.377   1.248  17.165  1.00  0.00     0.015 C 
HETATM   19  C18 UNL     1      11.512   0.774  18.669  1.00  0.00     0.067 C 
ENDBRANCH  13  14
ENDBRANCH   1  13
BRANCH  11  20
HETATM   20  C13 UNL     1      10.049   0.558  10.916  1.00  0.00     0.073 A 
HETATM   21  C14 UNL     1       9.732  -0.001   9.724  1.00  0.00     0.119 A 
HETATM   22  N4  UNL     1      10.395   0.373   8.587  1.00  0.00    -0.373 N 
HETATM   23  C15 UNL     1      11.366   1.287   8.590  1.00  0.00     0.089 A 
ATOM     24  H4  UNL     1      10.136  -0.065   7.702  1.00  0.00     0.164 HD
HETATM   25  C16 UNL     1      11.745   1.903   9.777  1.00  0.00     0.043 A 
HETATM   26  C17 UNL     1      11.076   1.524  10.917  1.00  0.00     0.063 A 
HETATM   27 CL1  UNL     1      11.523   2.269  12.425  1.00  0.00    -0.082 Cl
ENDBRANCH  11  20
TORSDOF 3
ENDMDL
