MODEL 1
REMARK VINA RESULT: -6.503171399      0.000      0.000
REMARK  4 active torsions:
REMARK  status: ('A' for Active; 'I' for Inactive)
REMARK    1  A    between atoms: N2_5  and  C3_6 
REMARK    2  A    between atoms: C3_6  and  C4_7 
REMARK       I    between atoms: C4_7  and  N3_9 
REMARK    3  A    between atoms: C8_13  and  N4_14 
REMARK    4  A    between atoms: C9_18  and  C10_19 
ROOT
HETATM    1  C4  UNL     1      11.053   0.446  14.421  1.00  0.00     0.240 C 
HETATM    2  O1  UNL     1      12.099  -0.068  13.960  1.00  0.00    -0.271 OA
HETATM    3  N3  UNL     1       9.871   0.445  13.636  1.00  0.00    -0.344 N 
HETATM    4  C5  UNL     1       8.613   1.008  14.067  1.00  0.00     0.126 C 
HETATM    5  C6  UNL     1       8.316   2.161  13.132  1.00  0.00     0.022 C 
HETATM    6  C7  UNL     1       8.064   1.527  11.763  1.00  0.00     0.036 C 
HETATM    7  C8  UNL     1       9.336   0.851  11.302  1.00  0.00     0.206 C 
HETATM    8  C9  UNL     1       9.846  -0.155  12.271  1.00  0.00     0.121 C 
ENDROOT
BRANCH   1   9
HETATM    9  C3  UNL     1      10.983   1.061  15.758  1.00  0.00     0.251 C 
BRANCH   9  10
HETATM   10  N2  UNL     1      11.451   0.219  16.807  1.00  0.00    -0.286 N 
HETATM   11  N1  UNL     1      10.846  -0.863  17.256  1.00  0.00    -0.301 N 
HETATM   12  C2  UNL     1      11.557  -1.422  18.253  1.00  0.00     0.041 A 
ATOM     13  H1  UNL     1       9.962  -1.225  16.898  1.00  0.00     0.187 HD
HETATM   14  C1  UNL     1      11.182  -2.661  19.005  1.00  0.00     0.071 C 
HETATM   15  C15 UNL     1      12.667  -0.622  18.415  1.00  0.00     0.058 A 
HETATM   16  C13 UNL     1      12.588   0.401  17.503  1.00  0.00     0.044 A 
HETATM   17 BR1  UNL     1      14.039  -0.932  19.696  1.00  0.00    -0.047 Br
HETATM   18  C14 UNL     1      13.595   1.505  17.337  1.00  0.00     0.071 C 
ENDBRANCH   9  10
ENDBRANCH   1   9
BRANCH   8  19
HETATM   19  C10 UNL     1       8.973  -1.384  12.307  1.00  0.00     0.002 C 
HETATM   20  C11 UNL     1       9.185  -2.129  13.638  1.00  0.00     0.011 C 
HETATM   21  C12 UNL     1       9.282  -2.392  11.227  1.00  0.00     0.011 C 
ENDBRANCH   8  19
BRANCH   7  22
HETATM   22  N4  UNL     1       9.122   0.284  10.013  1.00  0.00    -0.073 N 
ATOM     23  H43 UNL     1       8.359  -0.394  10.010  1.00  0.00     0.274 HD
ATOM     24  H42 UNL     1       8.721   0.954   9.356  1.00  0.00     0.274 HD
ATOM     25  H41 UNL     1       9.996  -0.115   9.674  1.00  0.00     0.274 HD
ENDBRANCH   7  22
TORSDOF 4
ENDMDL
MODEL 2
REMARK VINA RESULT: -6.435555490      3.201      6.641
REMARK  4 active torsions:
REMARK  status: ('A' for Active; 'I' for Inactive)
REMARK    1  A    between atoms: N2_5  and  C3_6 
REMARK    2  A    between atoms: C3_6  and  C4_7 
REMARK       I    between atoms: C4_7  and  N3_9 
REMARK    3  A    between atoms: C8_13  and  N4_14 
REMARK    4  A    between atoms: C9_18  and  C10_19 
ROOT
HETATM    1  C4  UNL     1      10.765   1.007  14.670  1.00  0.00     0.240 C 
HETATM    2  O1  UNL     1      11.182  -0.146  14.412  1.00  0.00    -0.271 OA
HETATM    3  N3  UNL     1      10.797   1.476  16.009  1.00  0.00    -0.344 N 
HETATM    4  C5  UNL     1      10.342   2.784  16.419  1.00  0.00     0.126 C 
HETATM    5  C6  UNL     1       9.159   2.559  17.336  1.00  0.00     0.022 C 
HETATM    6  C7  UNL     1       9.728   1.884  18.585  1.00  0.00     0.036 C 
HETATM    7  C8  UNL     1      10.292   0.537  18.192  1.00  0.00     0.206 C 
HETATM    8  C9  UNL     1      11.317   0.625  17.118  1.00  0.00     0.121 C 
ENDROOT
BRANCH   1   9
HETATM    9  C3  UNL     1      10.234   1.918  13.641  1.00  0.00     0.251 C 
BRANCH   9  10
HETATM   10  N2  UNL     1      10.351   1.420  12.312  1.00  0.00    -0.286 N 
HETATM   11  N1  UNL     1       9.655   0.426  11.797  1.00  0.00    -0.301 N 
HETATM   12  C2  UNL     1      10.015   0.212  10.517  1.00  0.00     0.041 A 
ATOM     13  H1  UNL     1       8.944  -0.106  12.297  1.00  0.00     0.187 HD
HETATM   14  C1  UNL     1       9.442  -0.834   9.612  1.00  0.00     0.071 C 
HETATM   15  C15 UNL     1      10.995   1.140  10.244  1.00  0.00     0.058 A 
HETATM   16  C13 UNL     1      11.195   1.890  11.376  1.00  0.00     0.044 A 
HETATM   17 BR1  UNL     1      11.881   1.309   8.568  1.00  0.00    -0.047 Br
HETATM   18  C14 UNL     1      12.180   3.018  11.517  1.00  0.00     0.071 C 
ENDBRANCH   9  10
ENDBRANCH   1   9
BRANCH   8  19
HETATM   19  C10 UNL     1      12.601   1.234  17.624  1.00  0.00     0.002 C 
HETATM   20  C11 UNL     1      13.485   1.638  16.431  1.00  0.00     0.011 C 
HETATM   21  C12 UNL     1      13.444   0.296  18.453  1.00  0.00     0.011 C 
ENDBRANCH   8  19
BRANCH   7  22
HETATM   22  N4  UNL     1      10.796  -0.115  19.353  1.00  0.00    -0.073 N 
ATOM     23  H43 UNL     1      10.614  -1.119  19.344  1.00  0.00     0.274 HD
ATOM     24  H42 UNL     1      11.816  -0.154  19.364  1.00  0.00     0.274 HD
ATOM     25  H41 UNL     1      10.418   0.340  20.183  1.00  0.00     0.274 HD
ENDBRANCH   7  22
TORSDOF 4
ENDMDL
MODEL 3
REMARK VINA RESULT: -6.435416402      3.486      6.832
REMARK  4 active torsions:
REMARK  status: ('A' for Active; 'I' for Inactive)
REMARK    1  A    between atoms: N2_5  and  C3_6 
REMARK    2  A    between atoms: C3_6  and  C4_7 
REMARK       I    between atoms: C4_7  and  N3_9 
REMARK    3  A    between atoms: C8_13  and  N4_14 
REMARK    4  A    between atoms: C9_18  and  C10_19 
ROOT
HETATM    1  C4  UNL     1      11.493   2.107  14.545  1.00  0.00     0.240 C 
HETATM    2  O1  UNL     1      12.252   1.112  14.477  1.00  0.00    -0.271 OA
HETATM    3  N3  UNL     1      10.859   2.418  15.776  1.00  0.00    -0.344 N 
HETATM    4  C5  UNL     1       9.966   3.537  15.968  1.00  0.00     0.126 C 
HETATM    5  C6  UNL     1       8.610   2.953  16.297  1.00  0.00     0.022 C 
HETATM    6  C7  UNL     1       8.769   2.284  17.663  1.00  0.00     0.036 C 
HETATM    7  C8  UNL     1       9.760   1.149  17.533  1.00  0.00     0.206 C 
HETATM    8  C9  UNL     1      11.076   1.584  16.993  1.00  0.00     0.121 C 
ENDROOT
BRANCH   1   9
HETATM    9  C3  UNL     1      11.218   2.988  13.396  1.00  0.00     0.251 C 
BRANCH   9  10
HETATM   10  N2  UNL     1      11.156   2.306  12.147  1.00  0.00    -0.286 N 
HETATM   11  N1  UNL     1      12.111   2.272  11.239  1.00  0.00    -0.301 N 
HETATM   12  C2  UNL     1      11.726   1.540  10.177  1.00  0.00     0.041 A 
ATOM     13  H1  UNL     1      13.016   2.734  11.329  1.00  0.00     0.187 HD
HETATM   14  C1  UNL     1      12.547   1.279   8.952  1.00  0.00     0.071 C 
HETATM   15  C15 UNL     1      10.451   1.105  10.465  1.00  0.00     0.058 A 
HETATM   16  C13 UNL     1      10.107   1.592  11.701  1.00  0.00     0.044 A 
HETATM   17 BR1  UNL     1       9.398   0.018   9.311  1.00  0.00    -0.047 Br
HETATM   18  C14 UNL     1       8.798   1.356  12.402  1.00  0.00     0.071 C 
ENDBRANCH   9  10
ENDBRANCH   1   9
BRANCH   8  19
HETATM   19  C10 UNL     1      11.846   2.401  18.000  1.00  0.00     0.002 C 
HETATM   20  C11 UNL     1      12.955   3.192  17.282  1.00  0.00     0.011 C 
HETATM   21  C12 UNL     1      12.553   1.580  19.051  1.00  0.00     0.011 C 
ENDBRANCH   8  19
BRANCH   7  22
HETATM   22  N4  UNL     1       9.893   0.498  18.793  1.00  0.00    -0.073 N 
ATOM     23  H43 UNL     1       9.337   0.947  19.521  1.00  0.00     0.274 HD
ATOM     24  H42 UNL     1       9.440  -0.416  18.807  1.00  0.00     0.274 HD
ATOM     25  H41 UNL     1      10.881   0.444  19.038  1.00  0.00     0.274 HD
ENDBRANCH   7  22
TORSDOF 4
ENDMDL
MODEL 4
REMARK VINA RESULT: -6.420600007      3.151      6.714
REMARK  4 active torsions:
REMARK  status: ('A' for Active; 'I' for Inactive)
REMARK    1  A    between atoms: N2_5  and  C3_6 
REMARK    2  A    between atoms: C3_6  and  C4_7 
REMARK       I    between atoms: C4_7  and  N3_9 
REMARK    3  A    between atoms: C8_13  and  N4_14 
REMARK    4  A    between atoms: C9_18  and  C10_19 
ROOT
HETATM    1  C4  UNL     1      11.743   1.349  14.673  1.00  0.00     0.240 C 
HETATM    2  O1  UNL     1      12.692   0.583  14.384  1.00  0.00    -0.271 OA
HETATM    3  N3  UNL     1      11.148   1.267  15.958  1.00  0.00    -0.344 N 
HETATM    4  C5  UNL     1      10.051   2.098  16.397  1.00  0.00     0.126 C 
HETATM    5  C6  UNL     1       8.880   1.170  16.639  1.00  0.00     0.022 C 
HETATM    6  C7  UNL     1       9.280   0.307  17.838  1.00  0.00     0.036 C 
HETATM    7  C8  UNL     1      10.480  -0.528  17.453  1.00  0.00     0.206 C 
HETATM    8  C9  UNL     1      11.628   0.288  16.975  1.00  0.00     0.121 C 
ENDROOT
BRANCH   1   9
HETATM    9  C3  UNL     1      11.202   2.347  13.734  1.00  0.00     0.251 C 
BRANCH   9  10
HETATM   10  N2  UNL     1      11.118   1.888  12.388  1.00  0.00    -0.286 N 
HETATM   11  N1  UNL     1      12.026   2.079  11.450  1.00  0.00    -0.301 N 
HETATM   12  C2  UNL     1      11.633   1.516  10.292  1.00  0.00     0.041 A 
ATOM     13  H1  UNL     1      12.902   2.582  11.584  1.00  0.00     0.187 HD
HETATM   14  C1  UNL     1      12.404   1.529   9.009  1.00  0.00     0.071 C 
HETATM   15  C15 UNL     1      10.405   0.948  10.551  1.00  0.00     0.058 A 
HETATM   16  C13 UNL     1      10.095   1.188  11.866  1.00  0.00     0.044 A 
HETATM   17 BR1  UNL     1       9.364   0.005   9.267  1.00  0.00    -0.047 Br
HETATM   18  C14 UNL     1       8.841   0.743  12.566  1.00  0.00     0.071 C 
ENDBRANCH   9  10
ENDBRANCH   1   9
BRANCH   8  19
HETATM   19  C10 UNL     1      12.275   1.051  18.105  1.00  0.00     0.002 C 
HETATM   20  C11 UNL     1      12.851   2.374  17.569  1.00  0.00     0.011 C 
HETATM   21  C12 UNL     1      13.437   0.335  18.748  1.00  0.00     0.011 C 
ENDBRANCH   8  19
BRANCH   7  22
HETATM   22  N4  UNL     1      10.842  -1.360  18.551  1.00  0.00    -0.073 N 
ATOM     23  H43 UNL     1      10.793  -2.352  18.318  1.00  0.00     0.274 HD
ATOM     24  H42 UNL     1      11.838  -1.311  18.764  1.00  0.00     0.274 HD
ATOM     25  H41 UNL     1      10.262  -1.121  19.355  1.00  0.00     0.274 HD
ENDBRANCH   7  22
TORSDOF 4
ENDMDL
MODEL 5
REMARK VINA RESULT: -6.407880720      1.894      3.431
REMARK  4 active torsions:
REMARK  status: ('A' for Active; 'I' for Inactive)
REMARK    1  A    between atoms: N2_5  and  C3_6 
REMARK    2  A    between atoms: C3_6  and  C4_7 
REMARK       I    between atoms: C4_7  and  N3_9 
REMARK    3  A    between atoms: C8_13  and  N4_14 
REMARK    4  A    between atoms: C9_18  and  C10_19 
ROOT
HETATM    1  C4  UNL     1       9.171   1.500  13.704  1.00  0.00     0.240 C 
HETATM    2  O1  UNL     1       8.722   2.646  13.470  1.00  0.00    -0.271 OA
HETATM    3  N3  UNL     1       9.711   0.732  12.640  1.00  0.00    -0.344 N 
HETATM    4  C5  UNL     1      10.254  -0.597  12.794  1.00  0.00     0.126 C 
HETATM    5  C6  UNL     1       9.365  -1.520  11.990  1.00  0.00     0.022 C 
HETATM    6  C7  UNL     1       9.580  -1.129  10.527  1.00  0.00     0.036 C 
HETATM    7  C8  UNL     1       9.097   0.291  10.331  1.00  0.00     0.206 C 
HETATM    8  C9  UNL     1       9.756   1.261  11.246  1.00  0.00     0.121 C 
ENDROOT
BRANCH   1   9
HETATM    9  C3  UNL     1       9.169   0.895  15.047  1.00  0.00     0.251 C 
BRANCH   9  10
HETATM   10  N2  UNL     1      10.331   1.192  15.817  1.00  0.00    -0.286 N 
HETATM   11  N1  UNL     1      11.018   2.317  15.773  1.00  0.00    -0.301 N 
HETATM   12  C2  UNL     1      12.058   2.267  16.626  1.00  0.00     0.041 A 
ATOM     13  H1  UNL     1      10.793   3.112  15.176  1.00  0.00     0.187 HD
HETATM   14  C1  UNL     1      13.058   3.359  16.848  1.00  0.00     0.071 C 
HETATM   15  C15 UNL     1      11.992   1.028  17.225  1.00  0.00     0.058 A 
HETATM   16  C13 UNL     1      10.906   0.366  16.709  1.00  0.00     0.044 A 
HETATM   17 BR1  UNL     1      13.221   0.399  18.534  1.00  0.00    -0.047 Br
HETATM   18  C14 UNL     1      10.466  -1.021  17.087  1.00  0.00     0.071 C 
ENDBRANCH   9  10
ENDBRANCH   1   9
BRANCH   8  19
HETATM   19  C10 UNL     1      11.198   1.490  10.868  1.00  0.00     0.002 C 
HETATM   20  C11 UNL     1      11.860   2.419  11.903  1.00  0.00     0.011 C 
HETATM   21  C12 UNL     1      11.386   2.172   9.535  1.00  0.00     0.011 C 
ENDBRANCH   8  19
BRANCH   7  22
HETATM   22  N4  UNL     1       9.264   0.655   8.964  1.00  0.00    -0.073 N 
ATOM     23  H43 UNL     1       9.784   1.526   8.856  1.00  0.00     0.274 HD
ATOM     24  H42 UNL     1       9.913   0.039   8.474  1.00  0.00     0.274 HD
ATOM     25  H41 UNL     1       8.350   0.691   8.514  1.00  0.00     0.274 HD
ENDBRANCH   7  22
TORSDOF 4
ENDMDL
