MODEL 1
REMARK VINA RESULT: -8.328028633      0.000      0.000
REMARK  14 active torsions:
REMARK  status: ('A' for Active; 'I' for Inactive)
REMARK    1  A    between atoms: C3_3  and  C4_4 
REMARK       I    between atoms: C4_4  and  N1_6 
REMARK    2  A    between atoms: N1_6  and  C5_8 
REMARK    3  A    between atoms: C6_11  and  N3_12 
REMARK    4  A    between atoms: C7_17  and  O2_18 
REMARK    5  A    between atoms: C8_20  and  O3_21 
REMARK    6  A    between atoms: N5_25  and  O5_26 
REMARK    7  A    between atoms: N6_30  and  C11_31 
REMARK    8  A    between atoms: C11_31  and  C12_32 
REMARK    9  A    between atoms: C13_36  and  C14_37 
REMARK   10  A    between atoms: C14_37  and  O10_38 
REMARK   11  A    between atoms: C15_41  and  C16_42 
REMARK   12  A    between atoms: C16_42  and  O12_43 
REMARK   13  A    between atoms: C16_42  and  C17_45 
REMARK   14  A    between atoms: C17_45  and  O13_46 
ROOT
HETATM    1  C1  UNL     1       7.508  -8.297  29.918  1.00  0.00     0.070 C 
HETATM    2  C2  UNL     1       7.218  -9.686  30.250  1.00  0.00     0.037 A 
HETATM    3  C3  UNL     1       7.075  -9.930  31.636  1.00  0.00     0.125 A 
HETATM    4  C9  UNL     1       6.831 -11.185  32.110  1.00  0.00     0.293 A 
HETATM    5  O4  UNL     1       6.686 -11.496  33.316  1.00  0.00    -0.264 OA
HETATM    6  N5  UNL     1       6.734 -12.176  31.213  1.00  0.00    -0.133 N 
HETATM    7  C10 UNL     1       6.872 -11.931  29.908  1.00  0.00     0.359 A 
HETATM    8  O6  UNL     1       6.766 -12.915  29.135  1.00  0.00    -0.244 OA
HETATM    9  N6  UNL     1       7.117 -10.694  29.370  1.00  0.00    -0.256 N 
ENDROOT
BRANCH   3  10
HETATM   10  C4  UNL     1       7.119  -8.847  32.646  1.00  0.00     0.264 C 
HETATM   11  O1  UNL     1       6.115  -8.149  32.757  1.00  0.00    -0.267 OA
HETATM   12  N1  UNL     1       8.275  -8.646  33.424  1.00  0.00    -0.306 N 
ATOM     13  H1  UNL     1       9.059  -9.275  33.250  1.00  0.00     0.170 HD
BRANCH  12  14
HETATM   14  C5  UNL     1       8.459  -7.659  34.425  1.00  0.00     0.161 A 
HETATM   15  N2  UNL     1       7.490  -7.105  35.133  1.00  0.00    -0.174 N 
HETATM   16  C6  UNL     1       7.711  -6.157  36.087  1.00  0.00     0.679 A 
ATOM     17  H2  UNL     1       6.531  -7.401  34.957  1.00  0.00     0.186 HD
HETATM   18  N4  UNL     1       8.964  -5.784  36.305  1.00  0.00    -0.168 N 
HETATM   19  C7  UNL     1      10.002  -6.283  35.644  1.00  0.00     0.192 A 
ATOM     20  H4  UNL     1       9.140  -5.075  37.018  1.00  0.00     0.186 HD
HETATM   21  C8  UNL     1       9.778  -7.249  34.670  1.00  0.00     0.162 A 
BRANCH  16  22
HETATM   22  N3  UNL     1       6.757  -5.630  36.765  1.00  0.00    -0.234 N 
ATOM     23  H32 UNL     1       5.936  -5.259  36.286  1.00  0.00     0.174 HD
ATOM     24  H31 UNL     1       6.782  -5.563  37.782  1.00  0.00     0.174 HD
ENDBRANCH  16  22
BRANCH  19  25
HETATM   25  O2  UNL     1      11.321  -5.869  35.895  1.00  0.00    -0.344 OA
ATOM     26  H2  UNL     1      11.618  -5.614  36.761  1.00  0.00     0.219 HD
ENDBRANCH  19  25
BRANCH  21  27
HETATM   27  O3  UNL     1      10.874  -7.746  34.005  1.00  0.00    -0.354 OA
ATOM     28  H3  UNL     1      11.096  -7.527  33.107  1.00  0.00     0.218 HD
ENDBRANCH  21  27
ENDBRANCH  12  14
ENDBRANCH   3  10
BRANCH   9  29
HETATM   29  C11 UNL     1       7.307 -10.526  27.962  1.00  0.00     0.266 C 
HETATM   30  O9  UNL     1       7.814 -11.816  27.537  1.00  0.00    -0.316 OA
HETATM   31  C13 UNL     1       7.429 -12.044  26.273  1.00  0.00     0.287 C 
HETATM   32  O11 UNL     1       6.606 -11.044  25.828  1.00  0.00    -0.346 OA
HETATM   33  C15 UNL     1       6.237 -10.317  27.027  1.00  0.00     0.223 C 
BRANCH  29  34
HETATM   34  C12 UNL     1       8.539  -9.668  27.734  1.00  0.00     0.235 C 
HETATM   35  O7  UNL     1       8.345  -8.536  27.223  1.00  0.00    -0.644 OA
HETATM   36  O8  UNL     1       9.828 -10.043  28.045  1.00  0.00    -0.644 OA
ENDBRANCH  29  34
BRANCH  31  37
HETATM   37  C14 UNL     1       8.538 -12.321  25.265  1.00  0.00     0.224 C 
BRANCH  37  38
HETATM   38  O10 UNL     1       8.495 -11.296  24.280  1.00  0.00    -0.396 OA
ATOM     39  H10 UNL     1       8.876 -11.644  23.483  1.00  0.00     0.209 HD
ENDBRANCH  37  38
ENDBRANCH  31  37
BRANCH  33  40
HETATM   40  C16 UNL     1       4.822 -10.673  27.231  1.00  0.00     0.176 C 
BRANCH  40  41
HETATM   41  O12 UNL     1       4.374  -9.661  28.209  1.00  0.00    -0.391 OA
ATOM     42  H12 UNL     1       3.896 -10.183  28.842  1.00  0.00     0.210 HD
ENDBRANCH  40  41
BRANCH  40  43
HETATM   43  C17 UNL     1       3.844 -10.448  26.120  1.00  0.00     0.198 C 
BRANCH  43  44
HETATM   44  O13 UNL     1       4.035 -11.195  24.981  1.00  0.00    -0.398 OA
ATOM     45  H13 UNL     1       3.492 -10.969  24.234  1.00  0.00     0.209 HD
ENDBRANCH  43  44
ENDBRANCH  40  43
ENDBRANCH  33  40
ENDBRANCH   9  29
BRANCH   6  46
HETATM   46  O5  UNL     1       6.487 -13.455  31.686  1.00  0.00    -0.276 OA
ATOM     47  H5  UNL     1       6.270 -14.128  31.052  1.00  0.00     0.245 HD
ENDBRANCH   6  46
TORSDOF 14
ENDMDL
MODEL 2
REMARK VINA RESULT: -8.222765874      1.803      3.719
REMARK  14 active torsions:
REMARK  status: ('A' for Active; 'I' for Inactive)
REMARK    1  A    between atoms: C3_3  and  C4_4 
REMARK       I    between atoms: C4_4  and  N1_6 
REMARK    2  A    between atoms: N1_6  and  C5_8 
REMARK    3  A    between atoms: C6_11  and  N3_12 
REMARK    4  A    between atoms: C7_17  and  O2_18 
REMARK    5  A    between atoms: C8_20  and  O3_21 
REMARK    6  A    between atoms: N5_25  and  O5_26 
REMARK    7  A    between atoms: N6_30  and  C11_31 
REMARK    8  A    between atoms: C11_31  and  C12_32 
REMARK    9  A    between atoms: C13_36  and  C14_37 
REMARK   10  A    between atoms: C14_37  and  O10_38 
REMARK   11  A    between atoms: C15_41  and  C16_42 
REMARK   12  A    between atoms: C16_42  and  O12_43 
REMARK   13  A    between atoms: C16_42  and  C17_45 
REMARK   14  A    between atoms: C17_45  and  O13_46 
ROOT
HETATM    1  C1  UNL     1       7.628 -10.540  32.039  1.00  0.00     0.070 C 
HETATM    2  C2  UNL     1       6.704  -9.519  31.561  1.00  0.00     0.037 A 
HETATM    3  C3  UNL     1       6.380  -8.537  32.526  1.00  0.00     0.125 A 
HETATM    4  C9  UNL     1       5.505  -7.531  32.242  1.00  0.00     0.293 A 
HETATM    5  O4  UNL     1       5.161  -6.617  33.028  1.00  0.00    -0.264 OA
HETATM    6  N5  UNL     1       4.965  -7.509  31.014  1.00  0.00    -0.133 N 
HETATM    7  C10 UNL     1       5.280  -8.443  30.114  1.00  0.00     0.359 A 
HETATM    8  O6  UNL     1       4.731  -8.351  28.990  1.00  0.00    -0.244 OA
HETATM    9  N6  UNL     1       6.151  -9.479  30.339  1.00  0.00    -0.256 N 
ENDROOT
BRANCH   3  10
HETATM   10  C4  UNL     1       7.004  -8.501  33.868  1.00  0.00     0.264 C 
HETATM   11  O1  UNL     1       6.504  -9.214  34.734  1.00  0.00    -0.267 OA
HETATM   12  N1  UNL     1       8.116  -7.673  34.115  1.00  0.00    -0.306 N 
ATOM     13  H1  UNL     1       8.452  -7.113  33.332  1.00  0.00     0.170 HD
BRANCH  12  14
HETATM   14  C5  UNL     1       8.815  -7.540  35.341  1.00  0.00     0.161 A 
HETATM   15  N2  UNL     1       8.499  -8.156  36.467  1.00  0.00    -0.174 N 
HETATM   16  C6  UNL     1       9.199  -8.000  37.626  1.00  0.00     0.679 A 
ATOM     17  H2  UNL     1       7.692  -8.780  36.468  1.00  0.00     0.186 HD
HETATM   18  N4  UNL     1      10.245  -7.186  37.607  1.00  0.00    -0.168 N 
HETATM   19  C7  UNL     1      10.639  -6.524  36.525  1.00  0.00     0.192 A 
ATOM     20  H4  UNL     1      10.776  -7.062  38.469  1.00  0.00     0.186 HD
HETATM   21  C8  UNL     1       9.926  -6.683  35.342  1.00  0.00     0.162 A 
BRANCH  16  22
HETATM   22  N3  UNL     1       8.877  -8.606  38.709  1.00  0.00    -0.234 N 
ATOM     23  H32 UNL     1       8.588  -9.584  38.680  1.00  0.00     0.174 HD
ATOM     24  H31 UNL     1       8.897  -8.146  39.619  1.00  0.00     0.174 HD
ENDBRANCH  16  22
BRANCH  19  25
HETATM   25  O2  UNL     1      11.753  -5.668  36.532  1.00  0.00    -0.344 OA
ATOM     26  H2  UNL     1      11.762  -4.842  36.062  1.00  0.00     0.219 HD
ENDBRANCH  19  25
BRANCH  21  27
HETATM   27  O3  UNL     1      10.359  -5.984  34.241  1.00  0.00    -0.354 OA
ATOM     28  H3  UNL     1      10.163  -6.230  33.344  1.00  0.00     0.218 HD
ENDBRANCH  21  27
ENDBRANCH  12  14
ENDBRANCH   3  10
BRANCH   9  29
HETATM   29  C11 UNL     1       6.391 -10.471  29.337  1.00  0.00     0.266 C 
HETATM   30  O9  UNL     1       5.346 -10.224  28.363  1.00  0.00    -0.316 OA
HETATM   31  C13 UNL     1       5.790 -10.568  27.146  1.00  0.00     0.287 C 
HETATM   32  O11 UNL     1       7.106 -10.942  27.196  1.00  0.00    -0.346 OA
HETATM   33  C15 UNL     1       7.560 -10.500  28.501  1.00  0.00     0.223 C 
BRANCH  29  34
HETATM   34  C12 UNL     1       5.946 -11.821  29.869  1.00  0.00     0.235 C 
HETATM   35  O7  UNL     1       4.769 -11.889  30.306  1.00  0.00    -0.644 OA
HETATM   36  O8  UNL     1       6.731 -12.953  29.901  1.00  0.00    -0.644 OA
ENDBRANCH  29  34
BRANCH  31  37
HETATM   37  C14 UNL     1       4.962 -11.599  26.387  1.00  0.00     0.224 C 
BRANCH  37  38
HETATM   38  O10 UNL     1       3.783 -10.952  25.926  1.00  0.00    -0.396 OA
ATOM     39  H10 UNL     1       3.562 -11.324  25.080  1.00  0.00     0.209 HD
ENDBRANCH  37  38
ENDBRANCH  31  37
BRANCH  33  40
HETATM   40  C16 UNL     1       8.441  -9.360  28.197  1.00  0.00     0.176 C 
BRANCH  40  41
HETATM   41  O12 UNL     1       9.069  -9.083  29.505  1.00  0.00    -0.391 OA
ATOM     42  H12 UNL     1       8.729  -9.783  30.049  1.00  0.00     0.210 HD
ENDBRANCH  40  41
BRANCH  40  43
HETATM   43  C17 UNL     1       9.650  -9.578  27.342  1.00  0.00     0.198 C 
BRANCH  43  44
HETATM   44  O13 UNL     1      10.869  -9.412  27.958  1.00  0.00    -0.398 OA
ATOM     45  H13 UNL     1      11.031  -8.560  28.348  1.00  0.00     0.209 HD
ENDBRANCH  43  44
ENDBRANCH  40  43
ENDBRANCH  33  40
ENDBRANCH   9  29
BRANCH   6  46
HETATM   46  O5  UNL     1       4.074  -6.490  30.717  1.00  0.00    -0.276 OA
ATOM     47  H5  UNL     1       3.981  -6.234  29.807  1.00  0.00     0.245 HD
ENDBRANCH   6  46
TORSDOF 14
ENDMDL
MODEL 3
REMARK VINA RESULT: -8.024491577      2.928      8.673
REMARK  14 active torsions:
REMARK  status: ('A' for Active; 'I' for Inactive)
REMARK    1  A    between atoms: C3_3  and  C4_4 
REMARK       I    between atoms: C4_4  and  N1_6 
REMARK    2  A    between atoms: N1_6  and  C5_8 
REMARK    3  A    between atoms: C6_11  and  N3_12 
REMARK    4  A    between atoms: C7_17  and  O2_18 
REMARK    5  A    between atoms: C8_20  and  O3_21 
REMARK    6  A    between atoms: N5_25  and  O5_26 
REMARK    7  A    between atoms: N6_30  and  C11_31 
REMARK    8  A    between atoms: C11_31  and  C12_32 
REMARK    9  A    between atoms: C13_36  and  C14_37 
REMARK   10  A    between atoms: C14_37  and  O10_38 
REMARK   11  A    between atoms: C15_41  and  C16_42 
REMARK   12  A    between atoms: C16_42  and  O12_43 
REMARK   13  A    between atoms: C16_42  and  C17_45 
REMARK   14  A    between atoms: C17_45  and  O13_46 
ROOT
HETATM    1  C1  UNL     1       7.363  -9.229  29.049  1.00  0.00     0.070 C 
HETATM    2  C2  UNL     1       6.605 -10.164  29.873  1.00  0.00     0.037 A 
HETATM    3  C3  UNL     1       6.173 -11.321  29.183  1.00  0.00     0.125 A 
HETATM    4  C9  UNL     1       5.428 -12.276  29.807  1.00  0.00     0.293 A 
HETATM    5  O4  UNL     1       5.005 -13.334  29.282  1.00  0.00    -0.264 OA
HETATM    6  N5  UNL     1       5.121 -12.076  31.098  1.00  0.00    -0.133 N 
HETATM    7  C10 UNL     1       5.535 -10.979  31.735  1.00  0.00     0.359 A 
HETATM    8  O6  UNL     1       5.205 -10.868  32.941  1.00  0.00    -0.244 OA
HETATM    9  N6  UNL     1       6.286  -9.983  31.163  1.00  0.00    -0.256 N 
ENDROOT
BRANCH   3  10
HETATM   10  C4  UNL     1       6.545 -11.598  27.777  1.00  0.00     0.264 C 
HETATM   11  O1  UNL     1       7.656 -12.082  27.580  1.00  0.00    -0.267 OA
HETATM   12  N1  UNL     1       5.648 -11.303  26.732  1.00  0.00    -0.306 N 
ATOM     13  H1  UNL     1       4.752 -10.895  26.999  1.00  0.00     0.170 HD
BRANCH  12  14
HETATM   14  C5  UNL     1       5.865 -11.516  25.347  1.00  0.00     0.161 A 
HETATM   15  N2  UNL     1       6.348 -12.626  24.816  1.00  0.00    -0.174 N 
HETATM   16  C6  UNL     1       6.541 -12.790  23.477  1.00  0.00     0.679 A 
ATOM     17  H2  UNL     1       6.589 -13.397  25.438  1.00  0.00     0.186 HD
HETATM   18  N4  UNL     1       6.223 -11.779  22.681  1.00  0.00    -0.168 N 
HETATM   19  C7  UNL     1       5.731 -10.626  23.122  1.00  0.00     0.192 A 
ATOM     20  H4  UNL     1       6.363 -11.892  21.676  1.00  0.00     0.186 HD
HETATM   21  C8  UNL     1       5.535 -10.458  24.488  1.00  0.00     0.162 A 
BRANCH  16  22
HETATM   22  N3  UNL     1       7.013 -13.874  22.979  1.00  0.00    -0.234 N 
ATOM     23  H32 UNL     1       7.996 -13.928  22.712  1.00  0.00     0.174 HD
ATOM     24  H31 UNL     1       6.437 -14.704  22.833  1.00  0.00     0.174 HD
ENDBRANCH  16  22
BRANCH  19  25
HETATM   25  O2  UNL     1       5.402  -9.570  22.256  1.00  0.00    -0.344 OA
ATOM     26  H2  UNL     1       4.503  -9.314  22.087  1.00  0.00     0.219 HD
ENDBRANCH  19  25
BRANCH  21  27
HETATM   27  O3  UNL     1       5.024  -9.254  24.912  1.00  0.00    -0.354 OA
ATOM     28  H3  UNL     1       5.362  -8.408  24.642  1.00  0.00     0.218 HD
ENDBRANCH  21  27
ENDBRANCH  12  14
ENDBRANCH   3  10
BRANCH   9  29
HETATM   29  C11 UNL     1       6.641  -8.812  31.902  1.00  0.00     0.266 C 
HETATM   30  O9  UNL     1       5.721  -8.829  33.022  1.00  0.00    -0.316 OA
HETATM   31  C13 UNL     1       6.306  -8.251  34.081  1.00  0.00     0.287 C 
HETATM   32  O11 UNL     1       7.606  -7.924  33.799  1.00  0.00    -0.346 OA
HETATM   33  C15 UNL     1       7.901  -8.636  32.571  1.00  0.00     0.223 C 
BRANCH  29  34
HETATM   34  C12 UNL     1       6.132  -7.590  31.158  1.00  0.00     0.235 C 
HETATM   35  O7  UNL     1       6.994  -6.738  30.825  1.00  0.00    -0.644 OA
HETATM   36  O8  UNL     1       4.812  -7.362  30.830  1.00  0.00    -0.644 OA
ENDBRANCH  29  34
BRANCH  31  37
HETATM   37  C14 UNL     1       5.572  -7.067  34.700  1.00  0.00     0.224 C 
BRANCH  37  38
HETATM   38  O10 UNL     1       4.575  -6.646  33.779  1.00  0.00    -0.396 OA
ATOM     39  H10 UNL     1       3.817  -6.368  34.280  1.00  0.00     0.209 HD
ENDBRANCH  37  38
ENDBRANCH  31  37
BRANCH  33  40
HETATM   40  C16 UNL     1       8.815  -9.709  32.998  1.00  0.00     0.176 C 
BRANCH  40  41
HETATM   41  O12 UNL     1      10.031  -8.961  33.379  1.00  0.00    -0.391 OA
ATOM     42  H12 UNL     1      10.702  -9.376  32.851  1.00  0.00     0.210 HD
ENDBRANCH  40  41
BRANCH  40  43
HETATM   43  C17 UNL     1       8.529 -10.451  34.266  1.00  0.00     0.198 C 
BRANCH  43  44
HETATM   44  O13 UNL     1       7.850 -11.640  34.135  1.00  0.00    -0.398 OA
ATOM     45  H13 UNL     1       7.361 -11.932  34.896  1.00  0.00     0.209 HD
ENDBRANCH  43  44
ENDBRANCH  40  43
ENDBRANCH  33  40
ENDBRANCH   9  29
BRANCH   6  46
HETATM   46  O5  UNL     1       4.363 -13.042  31.740  1.00  0.00    -0.276 OA
ATOM     47  H5  UNL     1       4.006 -12.830  32.595  1.00  0.00     0.245 HD
ENDBRANCH   6  46
TORSDOF 14
ENDMDL
MODEL 4
REMARK VINA RESULT: -7.886131622      1.993      2.869
REMARK  14 active torsions:
REMARK  status: ('A' for Active; 'I' for Inactive)
REMARK    1  A    between atoms: C3_3  and  C4_4 
REMARK       I    between atoms: C4_4  and  N1_6 
REMARK    2  A    between atoms: N1_6  and  C5_8 
REMARK    3  A    between atoms: C6_11  and  N3_12 
REMARK    4  A    between atoms: C7_17  and  O2_18 
REMARK    5  A    between atoms: C8_20  and  O3_21 
REMARK    6  A    between atoms: N5_25  and  O5_26 
REMARK    7  A    between atoms: N6_30  and  C11_31 
REMARK    8  A    between atoms: C11_31  and  C12_32 
REMARK    9  A    between atoms: C13_36  and  C14_37 
REMARK   10  A    between atoms: C14_37  and  O10_38 
REMARK   11  A    between atoms: C15_41  and  C16_42 
REMARK   12  A    between atoms: C16_42  and  O12_43 
REMARK   13  A    between atoms: C16_42  and  C17_45 
REMARK   14  A    between atoms: C17_45  and  O13_46 
ROOT
HETATM    1  C1  UNL     1       7.019  -7.888  30.102  1.00  0.00     0.070 C 
HETATM    2  C2  UNL     1       6.928  -9.286  30.506  1.00  0.00     0.037 A 
HETATM    3  C3  UNL     1       6.717  -9.473  31.892  1.00  0.00     0.125 A 
HETATM    4  C9  UNL     1       6.639 -10.723  32.430  1.00  0.00     0.293 A 
HETATM    5  O4  UNL     1       6.451 -10.988  33.642  1.00  0.00    -0.264 OA
HETATM    6  N5  UNL     1       6.769 -11.765  31.596  1.00  0.00    -0.133 N 
HETATM    7  C10 UNL     1       6.968 -11.573  30.291  1.00  0.00     0.359 A 
HETATM    8  O6  UNL     1       7.080 -12.601  29.579  1.00  0.00    -0.244 OA
HETATM    9  N6  UNL     1       7.056 -10.343  29.689  1.00  0.00    -0.256 N 
ENDROOT
BRANCH   3  10
HETATM   10  C4  UNL     1       6.511  -8.344  32.828  1.00  0.00     0.264 C 
HETATM   11  O1  UNL     1       7.511  -7.878  33.365  1.00  0.00    -0.267 OA
HETATM   12  N1  UNL     1       5.215  -7.852  33.075  1.00  0.00    -0.306 N 
ATOM     13  H1  UNL     1       4.448  -8.313  32.585  1.00  0.00     0.170 HD
BRANCH  12  14
HETATM   14  C5  UNL     1       4.868  -6.782  33.937  1.00  0.00     0.161 A 
HETATM   15  N2  UNL     1       5.195  -6.698  35.215  1.00  0.00    -0.174 N 
HETATM   16  C6  UNL     1       4.841  -5.649  36.010  1.00  0.00     0.679 A 
ATOM     17  H2  UNL     1       5.740  -7.455  35.626  1.00  0.00     0.186 HD
HETATM   18  N4  UNL     1       4.133  -4.673  35.460  1.00  0.00    -0.168 N 
HETATM   19  C7  UNL     1       3.758  -4.668  34.186  1.00  0.00     0.192 A 
ATOM     20  H4  UNL     1       3.863  -3.882  36.046  1.00  0.00     0.186 HD
HETATM   21  C8  UNL     1       4.119  -5.738  33.374  1.00  0.00     0.162 A 
BRANCH  16  22
HETATM   22  N3  UNL     1       5.167  -5.586  37.249  1.00  0.00    -0.234 N 
ATOM     23  H32 UNL     1       6.097  -5.881  37.547  1.00  0.00     0.174 HD
ATOM     24  H31 UNL     1       4.526  -5.246  37.966  1.00  0.00     0.174 HD
ENDBRANCH  16  22
BRANCH  19  25
HETATM   25  O2  UNL     1       3.008  -3.619  33.627  1.00  0.00    -0.344 OA
ATOM     26  H2  UNL     1       3.292  -3.148  32.853  1.00  0.00     0.219 HD
ENDBRANCH  19  25
BRANCH  21  27
HETATM   27  O3  UNL     1       3.715  -5.702  32.061  1.00  0.00    -0.354 OA
ATOM     28  H3  UNL     1       4.032  -5.072  31.424  1.00  0.00     0.218 HD
ENDBRANCH  21  27
ENDBRANCH  12  14
ENDBRANCH   3  10
BRANCH   9  29
HETATM   29  C11 UNL     1       7.327 -10.224  28.290  1.00  0.00     0.266 C 
HETATM   30  O9  UNL     1       7.968 -11.483  27.964  1.00  0.00    -0.316 OA
HETATM   31  C13 UNL     1       7.690 -11.800  26.691  1.00  0.00     0.287 C 
HETATM   32  O11 UNL     1       6.817 -10.897  26.144  1.00  0.00    -0.346 OA
HETATM   33  C15 UNL     1       6.308 -10.152  27.279  1.00  0.00     0.223 C 
BRANCH  29  34
HETATM   34  C12 UNL     1       8.495  -9.273  28.097  1.00  0.00     0.235 C 
HETATM   35  O7  UNL     1       8.266  -8.235  27.426  1.00  0.00    -0.644 OA
HETATM   36  O8  UNL     1       9.763  -9.472  28.599  1.00  0.00    -0.644 OA
ENDBRANCH  29  34
BRANCH  31  37
HETATM   37  C14 UNL     1       8.884 -12.026  25.771  1.00  0.00     0.224 C 
BRANCH  37  38
HETATM   38  O10 UNL     1       8.574 -11.446  24.510  1.00  0.00    -0.396 OA
ATOM     39  H10 UNL     1       8.886 -12.037  23.836  1.00  0.00     0.209 HD
ENDBRANCH  37  38
ENDBRANCH  31  37
BRANCH  33  40
HETATM   40  C16 UNL     1       4.918 -10.619  27.410  1.00  0.00     0.176 C 
BRANCH  40  41
HETATM   41  O12 UNL     1       4.283  -9.527  28.174  1.00  0.00    -0.391 OA
ATOM     42  H12 UNL     1       3.423  -9.469  27.775  1.00  0.00     0.210 HD
ENDBRANCH  40  41
BRANCH  40  43
HETATM   43  C17 UNL     1       4.043 -10.663  26.196  1.00  0.00     0.198 C 
BRANCH  43  44
HETATM   44  O13 UNL     1       4.205  -9.638  25.293  1.00  0.00    -0.398 OA
ATOM     45  H13 UNL     1       4.913  -9.029  25.470  1.00  0.00     0.209 HD
ENDBRANCH  43  44
ENDBRANCH  40  43
ENDBRANCH  33  40
ENDBRANCH   9  29
BRANCH   6  46
HETATM   46  O5  UNL     1       6.692 -13.040  32.135  1.00  0.00    -0.276 OA
ATOM     47  H5  UNL     1       5.870 -13.509  32.048  1.00  0.00     0.245 HD
ENDBRANCH   6  46
TORSDOF 14
ENDMDL
MODEL 5
REMARK VINA RESULT: -7.850978339      1.301      1.562
REMARK  14 active torsions:
REMARK  status: ('A' for Active; 'I' for Inactive)
REMARK    1  A    between atoms: C3_3  and  C4_4 
REMARK       I    between atoms: C4_4  and  N1_6 
REMARK    2  A    between atoms: N1_6  and  C5_8 
REMARK    3  A    between atoms: C6_11  and  N3_12 
REMARK    4  A    between atoms: C7_17  and  O2_18 
REMARK    5  A    between atoms: C8_20  and  O3_21 
REMARK    6  A    between atoms: N5_25  and  O5_26 
REMARK    7  A    between atoms: N6_30  and  C11_31 
REMARK    8  A    between atoms: C11_31  and  C12_32 
REMARK    9  A    between atoms: C13_36  and  C14_37 
REMARK   10  A    between atoms: C14_37  and  O10_38 
REMARK   11  A    between atoms: C15_41  and  C16_42 
REMARK   12  A    between atoms: C16_42  and  O12_43 
REMARK   13  A    between atoms: C16_42  and  C17_45 
REMARK   14  A    between atoms: C17_45  and  O13_46 
ROOT
HETATM    1  C1  UNL     1       7.506  -8.391  29.636  1.00  0.00     0.070 C 
HETATM    2  C2  UNL     1       7.171  -9.762  30.003  1.00  0.00     0.037 A 
HETATM    3  C3  UNL     1       7.022  -9.965  31.395  1.00  0.00     0.125 A 
HETATM    4  C9  UNL     1       6.738 -11.199  31.901  1.00  0.00     0.293 A 
HETATM    5  O4  UNL     1       6.584 -11.475  33.115  1.00  0.00    -0.264 OA
HETATM    6  N5  UNL     1       6.606 -12.209  31.028  1.00  0.00    -0.133 N 
HETATM    7  C10 UNL     1       6.750 -12.002  29.718  1.00  0.00     0.359 A 
HETATM    8  O6  UNL     1       6.610 -13.000  28.970  1.00  0.00    -0.244 OA
HETATM    9  N6  UNL     1       7.035 -10.787  29.148  1.00  0.00    -0.256 N 
ENDROOT
BRANCH   3  10
HETATM   10  C4  UNL     1       7.104  -8.860  32.377  1.00  0.00     0.264 C 
HETATM   11  O1  UNL     1       6.217  -8.012  32.336  1.00  0.00    -0.267 OA
HETATM   12  N1  UNL     1       8.166  -8.805  33.300  1.00  0.00    -0.306 N 
ATOM     13  H1  UNL     1       8.858  -9.553  33.248  1.00  0.00     0.170 HD
BRANCH  12  14
HETATM   14  C5  UNL     1       8.371  -7.815  34.294  1.00  0.00     0.161 A 
HETATM   15  N2  UNL     1       9.375  -6.955  34.315  1.00  0.00    -0.174 N 
HETATM   16  C6  UNL     1       9.537  -6.018  35.291  1.00  0.00     0.679 A 
ATOM     17  H2  UNL     1      10.063  -6.995  33.563  1.00  0.00     0.186 HD
HETATM   18  N4  UNL     1       8.634  -5.979  36.260  1.00  0.00    -0.168 N 
HETATM   19  C7  UNL     1       7.592  -6.801  36.325  1.00  0.00     0.192 A 
ATOM     20  H4  UNL     1       8.745  -5.280  36.996  1.00  0.00     0.186 HD
HETATM   21  C8  UNL     1       7.427  -7.757  35.330  1.00  0.00     0.162 A 
BRANCH  16  22
HETATM   22  N3  UNL     1      10.518  -5.192  35.294  1.00  0.00    -0.234 N 
ATOM     23  H32 UNL     1      10.709  -4.623  34.469  1.00  0.00     0.174 HD
ATOM     24  H31 UNL     1      11.130  -5.074  36.101  1.00  0.00     0.174 HD
ENDBRANCH  16  22
BRANCH  19  25
HETATM   25  O2  UNL     1       6.649  -6.737  37.365  1.00  0.00    -0.344 OA
ATOM     26  H2  UNL     1       6.893  -6.830  38.279  1.00  0.00     0.219 HD
ENDBRANCH  19  25
BRANCH  21  27
HETATM   27  O3  UNL     1       6.339  -8.592  35.426  1.00  0.00    -0.354 OA
ATOM     28  H3  UNL     1       5.744  -8.607  36.167  1.00  0.00     0.218 HD
ENDBRANCH  21  27
ENDBRANCH  12  14
ENDBRANCH   3  10
BRANCH   9  29
HETATM   29  C11 UNL     1       7.229 -10.661  27.737  1.00  0.00     0.266 C 
HETATM   30  O9  UNL     1       7.712 -11.971  27.347  1.00  0.00    -0.316 OA
HETATM   31  C13 UNL     1       7.323 -12.226  26.089  1.00  0.00     0.287 C 
HETATM   32  O11 UNL     1       6.518 -11.224  25.617  1.00  0.00    -0.346 OA
HETATM   33  C15 UNL     1       6.162 -10.458  26.796  1.00  0.00     0.223 C 
BRANCH  29  34
HETATM   34  C12 UNL     1       8.476  -9.833  27.486  1.00  0.00     0.235 C 
HETATM   35  O7  UNL     1       8.326  -8.791  26.799  1.00  0.00    -0.644 OA
HETATM   36  O8  UNL     1       9.735 -10.143  27.954  1.00  0.00    -0.644 OA
ENDBRANCH  29  34
BRANCH  31  37
HETATM   37  C14 UNL     1       8.426 -12.551  25.090  1.00  0.00     0.224 C 
BRANCH  37  38
HETATM   38  O10 UNL     1       8.619 -11.405  24.270  1.00  0.00    -0.396 OA
ATOM     39  H10 UNL     1       8.827 -11.708  23.394  1.00  0.00     0.209 HD
ENDBRANCH  37  38
ENDBRANCH  31  37
BRANCH  33  40
HETATM   40  C16 UNL     1       4.741 -10.782  27.009  1.00  0.00     0.176 C 
BRANCH  40  41
HETATM   41  O12 UNL     1       4.333  -9.786  28.020  1.00  0.00    -0.391 OA
ATOM     42  H12 UNL     1       3.909  -9.119  27.493  1.00  0.00     0.210 HD
ENDBRANCH  40  41
BRANCH  40  43
HETATM   43  C17 UNL     1       3.756 -10.499  25.917  1.00  0.00     0.198 C 
BRANCH  43  44
HETATM   44  O13 UNL     1       3.907 -11.225  24.759  1.00  0.00    -0.398 OA
ATOM     45  H13 UNL     1       3.233 -11.108  24.099  1.00  0.00     0.209 HD
ENDBRANCH  43  44
ENDBRANCH  40  43
ENDBRANCH  33  40
ENDBRANCH   9  29
BRANCH   6  46
HETATM   46  O5  UNL     1       6.317 -13.467  31.534  1.00  0.00    -0.276 OA
ATOM     47  H5  UNL     1       6.222 -14.182  30.916  1.00  0.00     0.245 HD
ENDBRANCH   6  46
TORSDOF 14
ENDMDL
