MODEL 1
REMARK VINA RESULT: -8.684768266      0.000      0.000
REMARK  14 active torsions:
REMARK  status: ('A' for Active; 'I' for Inactive)
REMARK    1  A    between atoms: N1_1  and  C1_4 
REMARK    2  A    between atoms: C2_6  and  C3_7 
REMARK    3  A    between atoms: C3_7  and  N2_8 
REMARK    4  A    between atoms: C3_7  and  C4_13 
REMARK    5  A    between atoms: N2_8  and  N3_10 
REMARK    6  A    between atoms: C5_14  and  O2_15 
REMARK    7  A    between atoms: C6_17  and  S1_18 
REMARK    8  A    between atoms: N4_23  and  C8_24 
REMARK    9  A    between atoms: C8_24  and  C9_25 
REMARK   10  A    between atoms: C9_25  and  N5_26 
REMARK   11  A    between atoms: N5_26  and  C10_28 
REMARK   12  A    between atoms: C15_39  and  C16_40 
REMARK   13  A    between atoms: C16_40  and  O7_41 
REMARK   14  A    between atoms: C17_46  and  N10_47 
ROOT
HETATM    1  C3  UNL     1       6.384 -12.609  25.651  1.00  0.00     0.201 C 
ENDROOT
BRANCH   1   2
HETATM    2  C2  UNL     1       5.794 -11.616  24.727  1.00  0.00     0.129 A 
HETATM    3  O1  UNL     1       6.107 -11.338  23.496  1.00  0.00    -0.277 OA
HETATM    4  C1  UNL     1       5.309 -10.365  23.029  1.00  0.00     0.228 A 
HETATM    5  N8  UNL     1       4.454  -9.995  23.975  1.00  0.00    -0.265 N 
HETATM    6  C14 UNL     1       4.759 -10.788  25.059  1.00  0.00     0.144 A 
HETATM    7  C15 UNL     1       3.381  -9.092  24.204  1.00  0.00     0.323 C 
HETATM    8  N11 UNL     1       3.988 -10.579  26.257  1.00  0.00    -0.324 N 
HETATM    9  C17 UNL     1       3.434  -9.267  26.597  1.00  0.00     0.486 C 
ATOM     10  H11 UNL     1       3.824 -11.365  26.886  1.00  0.00     0.165 HD
HETATM   11  N9  UNL     1       3.443  -8.386  25.477  1.00  0.00    -0.005 N 
ATOM     12  H92 UNL     1       4.248  -7.761  25.509  1.00  0.00     0.284 HD
ATOM     13  H91 UNL     1       2.695  -7.696  25.549  1.00  0.00     0.284 HD
BRANCH   4  14
HETATM   14  N1  UNL     1       5.417  -9.914  21.835  1.00  0.00    -0.365 N 
ATOM     15  H12 UNL     1       5.840 -10.365  21.024  1.00  0.00     0.159 HD
ATOM     16  H11 UNL     1       5.063  -8.994  21.572  1.00  0.00     0.159 HD
ENDBRANCH   4  14
BRANCH   9  17
HETATM   17  N10 UNL     1       2.182  -9.361  27.285  1.00  0.00    -0.033 N 
ATOM     18 3H10 UNL     1       1.970  -8.480  27.751  1.00  0.00     0.278 HD
ATOM     19 2H10 UNL     1       1.414  -9.398  26.614  1.00  0.00     0.278 HD
ATOM     20 1H10 UNL     1       2.109 -10.135  27.946  1.00  0.00     0.278 HD
ENDBRANCH   9  17
BRANCH   7  21
HETATM   21  C16 UNL     1       3.043  -8.115  23.145  1.00  0.00     0.219 C 
BRANCH  21  22
HETATM   22  O7  UNL     1       4.086  -7.191  22.895  1.00  0.00    -0.397 OA
ATOM     23  H7  UNL     1       4.188  -6.988  21.973  1.00  0.00     0.209 HD
ENDBRANCH  21  22
ENDBRANCH   7  21
ENDBRANCH   1   2
BRANCH   1  24
HETATM   24  N2  UNL     1       7.559 -13.225  25.156  1.00  0.00    -0.327 N 
ATOM     25  H2  UNL     1       8.447 -13.128  25.649  1.00  0.00     0.180 HD
BRANCH  24  26
HETATM   26  N3  UNL     1       7.477 -13.954  24.002  1.00  0.00    -0.348 N 
ATOM     27  H32 UNL     1       7.131 -14.912  24.031  1.00  0.00     0.176 HD
ATOM     28  H31 UNL     1       7.768 -13.515  23.128  1.00  0.00     0.176 HD
ENDBRANCH  24  26
ENDBRANCH   1  24
BRANCH   1  29
HETATM   29  C4  UNL     1       6.658 -12.095  27.003  1.00  0.00     0.075 A 
HETATM   30  C5  UNL     1       7.418 -10.950  27.138  1.00  0.00     0.105 A 
HETATM   31  C6  UNL     1       7.711 -10.431  28.412  1.00  0.00     0.130 A 
HETATM   32  C7  UNL     1       7.224 -11.089  29.509  1.00  0.00     0.123 A 
HETATM   33  N4  UNL     1       6.485 -12.201  29.411  1.00  0.00    -0.321 N 
HETATM   34  C13 UNL     1       6.223 -12.671  28.176  1.00  0.00     0.259 A 
HETATM   35  O6  UNL     1       5.525 -13.714  28.130  1.00  0.00    -0.267 OA
BRANCH  30  36
HETATM   36  O2  UNL     1       7.943 -10.227  26.101  1.00  0.00    -0.358 OA
ATOM     37  H2  UNL     1       8.759  -9.743  26.131  1.00  0.00     0.217 HD
ENDBRANCH  30  36
BRANCH  31  38
HETATM   38  S1  UNL     1       8.674  -8.970  28.601  1.00  0.00     0.141 S 
HETATM   39  O3  UNL     1       8.642  -8.582  30.041  1.00  0.00    -0.591 OA
HETATM   40  O4  UNL     1       8.203  -7.891  27.694  1.00  0.00    -0.591 OA
HETATM   41  O5  UNL     1      10.274  -9.427  28.255  1.00  0.00    -0.591 OA
ENDBRANCH  31  38
BRANCH  33  42
HETATM   42  C8  UNL     1       5.974 -12.903  30.579  1.00  0.00     0.151 C 
BRANCH  42  43
HETATM   43  C9  UNL     1       5.940 -12.075  31.817  1.00  0.00     0.143 C 
BRANCH  43  44
HETATM   44  N5  UNL     1       7.100 -12.116  32.641  1.00  0.00    -0.361 N 
ATOM     45  H5  UNL     1       7.603 -12.997  32.747  1.00  0.00     0.162 HD
BRANCH  44  46
HETATM   46  C10 UNL     1       7.583 -10.942  33.329  1.00  0.00     0.171 C 
HETATM   47  N6  UNL     1       7.155 -10.470  34.447  1.00  0.00    -0.361 N 
HETATM   48  C11 UNL     1       7.889  -9.270  34.826  1.00  0.00     0.142 C 
ATOM     49  H6  UNL     1       6.400 -10.882  34.996  1.00  0.00     0.162 HD
HETATM   50  C12 UNL     1       8.521  -8.833  33.496  1.00  0.00     0.142 C 
HETATM   51  N7  UNL     1       8.640 -10.123  32.848  1.00  0.00    -0.361 N 
ATOM     52  H7  UNL     1       9.352 -10.394  32.170  1.00  0.00     0.162 HD
ENDBRANCH  44  46
ENDBRANCH  43  44
ENDBRANCH  42  43
ENDBRANCH  33  42
ENDBRANCH   1  29
TORSDOF 14
ENDMDL
MODEL 2
REMARK VINA RESULT: -8.468335704      1.805      3.138
REMARK  14 active torsions:
REMARK  status: ('A' for Active; 'I' for Inactive)
REMARK    1  A    between atoms: N1_1  and  C1_4 
REMARK    2  A    between atoms: C2_6  and  C3_7 
REMARK    3  A    between atoms: C3_7  and  N2_8 
REMARK    4  A    between atoms: C3_7  and  C4_13 
REMARK    5  A    between atoms: N2_8  and  N3_10 
REMARK    6  A    between atoms: C5_14  and  O2_15 
REMARK    7  A    between atoms: C6_17  and  S1_18 
REMARK    8  A    between atoms: N4_23  and  C8_24 
REMARK    9  A    between atoms: C8_24  and  C9_25 
REMARK   10  A    between atoms: C9_25  and  N5_26 
REMARK   11  A    between atoms: N5_26  and  C10_28 
REMARK   12  A    between atoms: C15_39  and  C16_40 
REMARK   13  A    between atoms: C16_40  and  O7_41 
REMARK   14  A    between atoms: C17_46  and  N10_47 
ROOT
HETATM    1  C3  UNL     1       6.464 -12.534  25.836  1.00  0.00     0.201 C 
ENDROOT
BRANCH   1   2
HETATM    2  C2  UNL     1       5.856 -11.595  24.869  1.00  0.00     0.129 A 
HETATM    3  O1  UNL     1       6.167 -11.363  23.628  1.00  0.00    -0.277 OA
HETATM    4  C1  UNL     1       5.349 -10.428  23.118  1.00  0.00     0.228 A 
HETATM    5  N8  UNL     1       4.483 -10.037  24.046  1.00  0.00    -0.265 N 
HETATM    6  C14 UNL     1       4.802 -10.776  25.163  1.00  0.00     0.144 A 
HETATM    7  C15 UNL     1       3.390  -9.149  24.233  1.00  0.00     0.323 C 
HETATM    8  N11 UNL     1       4.022 -10.534  26.350  1.00  0.00    -0.324 N 
HETATM    9  C17 UNL     1       3.439  -9.220  26.631  1.00  0.00     0.486 C 
ATOM     10  H11 UNL     1       3.873 -11.296  27.010  1.00  0.00     0.165 HD
HETATM   11  N9  UNL     1       3.432  -8.388  25.475  1.00  0.00    -0.005 N 
ATOM     12  H92 UNL     1       4.223  -7.745  25.483  1.00  0.00     0.284 HD
ATOM     13  H91 UNL     1       2.669  -7.712  25.516  1.00  0.00     0.284 HD
BRANCH   4  14
HETATM   14  N1  UNL     1       5.452 -10.025  21.907  1.00  0.00    -0.365 N 
ATOM     15  H12 UNL     1       6.287  -9.985  21.322  1.00  0.00     0.159 HD
ATOM     16  H11 UNL     1       4.647  -9.685  21.381  1.00  0.00     0.159 HD
ENDBRANCH   4  14
BRANCH   9  17
HETATM   17  N10 UNL     1       2.186  -9.313  27.320  1.00  0.00    -0.033 N 
ATOM     18 3H10 UNL     1       1.632  -8.473  27.156  1.00  0.00     0.278 HD
ATOM     19 2H10 UNL     1       1.590 -10.010  26.873  1.00  0.00     0.278 HD
ATOM     20 1H10 UNL     1       2.255  -9.500  28.321  1.00  0.00     0.278 HD
ENDBRANCH   9  17
BRANCH   7  21
HETATM   21  C16 UNL     1       3.035  -8.225  23.132  1.00  0.00     0.219 C 
BRANCH  21  22
HETATM   22  O7  UNL     1       4.003  -7.213  22.928  1.00  0.00    -0.397 OA
ATOM     23  H7  UNL     1       4.410  -7.259  22.071  1.00  0.00     0.209 HD
ENDBRANCH  21  22
ENDBRANCH   7  21
ENDBRANCH   1   2
BRANCH   1  24
HETATM   24  N2  UNL     1       7.737 -13.016  25.444  1.00  0.00    -0.327 N 
ATOM     25  H2  UNL     1       8.587 -12.658  25.879  1.00  0.00     0.180 HD
BRANCH  24  26
HETATM   26  N3  UNL     1       7.800 -13.973  24.469  1.00  0.00    -0.348 N 
ATOM     27  H32 UNL     1       6.953 -14.464  24.185  1.00  0.00     0.176 HD
ATOM     28  H31 UNL     1       8.705 -14.174  24.044  1.00  0.00     0.176 HD
ENDBRANCH  24  26
ENDBRANCH   1  24
BRANCH   1  29
HETATM   29  C4  UNL     1       6.562 -12.016  27.210  1.00  0.00     0.075 A 
HETATM   30  C5  UNL     1       7.397 -10.944  27.458  1.00  0.00     0.105 A 
HETATM   31  C6  UNL     1       7.527 -10.424  28.759  1.00  0.00     0.130 A 
HETATM   32  C7  UNL     1       6.807 -11.006  29.766  1.00  0.00     0.123 A 
HETATM   33  N4  UNL     1       5.989 -12.045  29.558  1.00  0.00    -0.321 N 
HETATM   34  C13 UNL     1       5.888 -12.518  28.301  1.00  0.00     0.259 A 
HETATM   35  O6  UNL     1       5.109 -13.492  28.150  1.00  0.00    -0.267 OA
BRANCH  30  36
HETATM   36  O2  UNL     1       8.151 -10.299  26.515  1.00  0.00    -0.358 OA
ATOM     37  H2  UNL     1       8.557  -9.448  26.630  1.00  0.00     0.217 HD
ENDBRANCH  30  36
BRANCH  31  38
HETATM   38  S1  UNL     1       8.583  -9.055  29.091  1.00  0.00     0.141 S 
HETATM   39  O3  UNL     1       7.954  -7.837  28.506  1.00  0.00    -0.591 OA
HETATM   40  O4  UNL     1       9.961  -9.301  28.589  1.00  0.00    -0.591 OA
HETATM   41  O5  UNL     1       8.558  -8.855  30.779  1.00  0.00    -0.591 OA
ENDBRANCH  31  38
BRANCH  33  42
HETATM   42  C8  UNL     1       5.229 -12.667  30.632  1.00  0.00     0.151 C 
BRANCH  42  43
HETATM   43  C9  UNL     1       6.065 -13.144  31.769  1.00  0.00     0.143 C 
BRANCH  43  44
HETATM   44  N5  UNL     1       6.087 -14.549  31.995  1.00  0.00    -0.361 N 
ATOM     45  H5  UNL     1       6.313 -14.899  32.926  1.00  0.00     0.162 HD
BRANCH  44  46
HETATM   46  C10 UNL     1       5.796 -15.492  30.941  1.00  0.00     0.171 C 
HETATM   47  N6  UNL     1       6.542 -15.777  29.931  1.00  0.00    -0.361 N 
HETATM   48  C11 UNL     1       5.913 -16.777  29.080  1.00  0.00     0.142 C 
ATOM     49  H6  UNL     1       7.455 -15.358  29.752  1.00  0.00     0.162 HD
HETATM   50  C12 UNL     1       4.439 -16.695  29.504  1.00  0.00     0.142 C 
HETATM   51  N7  UNL     1       4.606 -16.263  30.876  1.00  0.00    -0.361 N 
ATOM     52  H7  UNL     1       3.981 -16.475  31.655  1.00  0.00     0.162 HD
ENDBRANCH  44  46
ENDBRANCH  43  44
ENDBRANCH  42  43
ENDBRANCH  33  42
ENDBRANCH   1  29
TORSDOF 14
ENDMDL
MODEL 3
REMARK VINA RESULT: -8.288006301      3.113      4.484
REMARK  14 active torsions:
REMARK  status: ('A' for Active; 'I' for Inactive)
REMARK    1  A    between atoms: N1_1  and  C1_4 
REMARK    2  A    between atoms: C2_6  and  C3_7 
REMARK    3  A    between atoms: C3_7  and  N2_8 
REMARK    4  A    between atoms: C3_7  and  C4_13 
REMARK    5  A    between atoms: N2_8  and  N3_10 
REMARK    6  A    between atoms: C5_14  and  O2_15 
REMARK    7  A    between atoms: C6_17  and  S1_18 
REMARK    8  A    between atoms: N4_23  and  C8_24 
REMARK    9  A    between atoms: C8_24  and  C9_25 
REMARK   10  A    between atoms: C9_25  and  N5_26 
REMARK   11  A    between atoms: N5_26  and  C10_28 
REMARK   12  A    between atoms: C15_39  and  C16_40 
REMARK   13  A    between atoms: C16_40  and  O7_41 
REMARK   14  A    between atoms: C17_46  and  N10_47 
ROOT
HETATM    1  C3  UNL     1       6.240 -11.380  27.015  1.00  0.00     0.201 C 
ENDROOT
BRANCH   1   2
HETATM    2  C2  UNL     1       5.045 -10.685  26.489  1.00  0.00     0.129 A 
HETATM    3  O1  UNL     1       4.174  -9.946  27.109  1.00  0.00    -0.277 OA
HETATM    4  C1  UNL     1       3.245  -9.508  26.243  1.00  0.00     0.228 A 
HETATM    5  N8  UNL     1       3.512  -9.973  25.028  1.00  0.00    -0.265 N 
HETATM    6  C14 UNL     1       4.657 -10.724  25.179  1.00  0.00     0.144 A 
HETATM    7  C15 UNL     1       3.017  -9.935  23.697  1.00  0.00     0.323 C 
HETATM    8  N11 UNL     1       5.168 -11.378  24.002  1.00  0.00    -0.324 N 
HETATM    9  C17 UNL     1       4.282 -11.823  22.924  1.00  0.00     0.486 C 
ATOM     10  H11 UNL     1       6.172 -11.535  23.917  1.00  0.00     0.165 HD
HETATM   11  N9  UNL     1       2.992 -11.226  23.022  1.00  0.00    -0.005 N 
ATOM     12  H92 UNL     1       2.330 -11.860  23.471  1.00  0.00     0.284 HD
ATOM     13  H91 UNL     1       2.553 -11.151  22.105  1.00  0.00     0.284 HD
BRANCH   4  14
HETATM   14  N1  UNL     1       2.276  -8.756  26.611  1.00  0.00    -0.365 N 
ATOM     15  H12 UNL     1       2.028  -8.460  27.555  1.00  0.00     0.159 HD
ATOM     16  H11 UNL     1       1.617  -8.359  25.942  1.00  0.00     0.159 HD
ENDBRANCH   4  14
BRANCH   9  17
HETATM   17  N10 UNL     1       4.898 -11.728  21.634  1.00  0.00    -0.033 N 
ATOM     18 3H10 UNL     1       4.207 -11.460  20.934  1.00  0.00     0.278 HD
ATOM     19 2H10 UNL     1       5.513 -10.914  21.597  1.00  0.00     0.278 HD
ATOM     20 1H10 UNL     1       5.400 -12.563  21.332  1.00  0.00     0.278 HD
ENDBRANCH   9  17
BRANCH   7  21
HETATM   21  C16 UNL     1       1.730  -9.251  23.442  1.00  0.00     0.219 C 
BRANCH  21  22
HETATM   22  O7  UNL     1       1.811  -7.847  23.605  1.00  0.00    -0.397 OA
ATOM     23  H7  UNL     1       2.442  -7.443  23.021  1.00  0.00     0.209 HD
ENDBRANCH  21  22
ENDBRANCH   7  21
ENDBRANCH   1   2
BRANCH   1  24
HETATM   24  N2  UNL     1       7.443 -11.032  26.352  1.00  0.00    -0.327 N 
ATOM     25  H2  UNL     1       7.712 -10.055  26.239  1.00  0.00     0.180 HD
BRANCH  24  26
HETATM   26  N3  UNL     1       8.234 -12.037  25.868  1.00  0.00    -0.348 N 
ATOM     27  H32 UNL     1       8.205 -12.271  24.876  1.00  0.00     0.176 HD
ATOM     28  H31 UNL     1       8.841 -12.533  26.520  1.00  0.00     0.176 HD
ENDBRANCH  24  26
ENDBRANCH   1  24
BRANCH   1  29
HETATM   29  C4  UNL     1       6.443 -11.230  28.465  1.00  0.00     0.075 A 
HETATM   30  C5  UNL     1       6.018 -12.241  29.304  1.00  0.00     0.105 A 
HETATM   31  C6  UNL     1       6.186 -12.133  30.697  1.00  0.00     0.130 A 
HETATM   32  C7  UNL     1       6.778 -11.005  31.194  1.00  0.00     0.123 A 
HETATM   33  N4  UNL     1       7.201 -10.008  30.408  1.00  0.00    -0.321 N 
HETATM   34  C13 UNL     1       7.026 -10.143  29.079  1.00  0.00     0.259 A 
HETATM   35  O6  UNL     1       7.438  -9.186  28.378  1.00  0.00    -0.267 OA
BRANCH  30  36
HETATM   36  O2  UNL     1       5.420 -13.403  28.897  1.00  0.00    -0.358 OA
ATOM     37  H2  UNL     1       5.816 -14.265  28.940  1.00  0.00     0.217 HD
ENDBRANCH  30  36
BRANCH  31  38
HETATM   38  S1  UNL     1       5.655 -13.415  31.780  1.00  0.00     0.141 S 
HETATM   39  O3  UNL     1       6.288 -14.688  31.331  1.00  0.00    -0.591 OA
HETATM   40  O4  UNL     1       4.171 -13.491  31.842  1.00  0.00    -0.591 OA
HETATM   41  O5  UNL     1       6.327 -13.043  33.297  1.00  0.00    -0.591 OA
ENDBRANCH  31  38
BRANCH  33  42
HETATM   42  C8  UNL     1       7.825  -8.805  30.940  1.00  0.00     0.151 C 
BRANCH  42  43
HETATM   43  C9  UNL     1       6.920  -7.974  31.781  1.00  0.00     0.143 C 
BRANCH  43  44
HETATM   44  N5  UNL     1       5.965  -7.176  31.091  1.00  0.00    -0.361 N 
ATOM     45  H5  UNL     1       6.066  -7.041  30.084  1.00  0.00     0.162 HD
BRANCH  44  46
HETATM   46  C10 UNL     1       4.858  -6.554  31.777  1.00  0.00     0.171 C 
HETATM   47  N6  UNL     1       3.931  -5.831  31.252  1.00  0.00    -0.361 N 
HETATM   48  C11 UNL     1       2.985  -5.376  32.263  1.00  0.00     0.142 C 
ATOM     49  H6  UNL     1       3.867  -5.606  30.260  1.00  0.00     0.162 HD
HETATM   50  C12 UNL     1       3.776  -5.562  33.566  1.00  0.00     0.142 C 
HETATM   51  N7  UNL     1       4.632  -6.662  33.175  1.00  0.00    -0.361 N 
ATOM     52  H7  UNL     1       5.006  -7.385  33.792  1.00  0.00     0.162 HD
ENDBRANCH  44  46
ENDBRANCH  43  44
ENDBRANCH  42  43
ENDBRANCH  33  42
ENDBRANCH   1  29
TORSDOF 14
ENDMDL
MODEL 4
REMARK VINA RESULT: -8.198938034      2.502      4.104
REMARK  14 active torsions:
REMARK  status: ('A' for Active; 'I' for Inactive)
REMARK    1  A    between atoms: N1_1  and  C1_4 
REMARK    2  A    between atoms: C2_6  and  C3_7 
REMARK    3  A    between atoms: C3_7  and  N2_8 
REMARK    4  A    between atoms: C3_7  and  C4_13 
REMARK    5  A    between atoms: N2_8  and  N3_10 
REMARK    6  A    between atoms: C5_14  and  O2_15 
REMARK    7  A    between atoms: C6_17  and  S1_18 
REMARK    8  A    between atoms: N4_23  and  C8_24 
REMARK    9  A    between atoms: C8_24  and  C9_25 
REMARK   10  A    between atoms: C9_25  and  N5_26 
REMARK   11  A    between atoms: N5_26  and  C10_28 
REMARK   12  A    between atoms: C15_39  and  C16_40 
REMARK   13  A    between atoms: C16_40  and  O7_41 
REMARK   14  A    between atoms: C17_46  and  N10_47 
ROOT
HETATM    1  C3  UNL     1       6.235 -11.525  27.056  1.00  0.00     0.201 C 
ENDROOT
BRANCH   1   2
HETATM    2  C2  UNL     1       5.071 -10.777  26.533  1.00  0.00     0.129 A 
HETATM    3  O1  UNL     1       4.226 -10.012  27.158  1.00  0.00    -0.277 OA
HETATM    4  C1  UNL     1       3.320  -9.528  26.294  1.00  0.00     0.228 A 
HETATM    5  N8  UNL     1       3.575  -9.988  25.074  1.00  0.00    -0.265 N 
HETATM    6  C14 UNL     1       4.688 -10.785  25.221  1.00  0.00     0.144 A 
HETATM    7  C15 UNL     1       3.088  -9.914  23.741  1.00  0.00     0.323 C 
HETATM    8  N11 UNL     1       5.179 -11.444  24.038  1.00  0.00    -0.324 N 
HETATM    9  C17 UNL     1       4.282 -11.840  22.951  1.00  0.00     0.486 C 
ATOM     10  H11 UNL     1       6.177 -11.639  23.956  1.00  0.00     0.165 HD
HETATM   11  N9  UNL     1       3.016 -11.195  23.051  1.00  0.00    -0.005 N 
ATOM     12  H92 UNL     1       2.327 -11.807  23.488  1.00  0.00     0.284 HD
ATOM     13  H91 UNL     1       2.585 -11.092  22.132  1.00  0.00     0.284 HD
BRANCH   4  14
HETATM   14  N1  UNL     1       2.379  -8.743  26.667  1.00  0.00    -0.365 N 
ATOM     15  H12 UNL     1       2.451  -7.879  27.203  1.00  0.00     0.159 HD
ATOM     16  H11 UNL     1       1.401  -8.929  26.443  1.00  0.00     0.159 HD
ENDBRANCH   4  14
BRANCH   9  17
HETATM   17  N10 UNL     1       4.908 -11.754  21.665  1.00  0.00    -0.033 N 
ATOM     18 3H10 UNL     1       4.268 -12.079  20.941  1.00  0.00     0.278 HD
ATOM     19 2H10 UNL     1       5.010 -10.777  21.389  1.00  0.00     0.278 HD
ATOM     20 1H10 UNL     1       5.803 -12.237  21.586  1.00  0.00     0.278 HD
ENDBRANCH   9  17
BRANCH   7  21
HETATM   21  C16 UNL     1       1.830  -9.177  23.489  1.00  0.00     0.219 C 
BRANCH  21  22
HETATM   22  O7  UNL     1       1.971  -7.777  23.648  1.00  0.00    -0.397 OA
ATOM     23  H7  UNL     1       2.857  -7.518  23.872  1.00  0.00     0.209 HD
ENDBRANCH  21  22
ENDBRANCH   7  21
ENDBRANCH   1   2
BRANCH   1  24
HETATM   24  N2  UNL     1       7.447 -11.244  26.379  1.00  0.00    -0.327 N 
ATOM     25  H2  UNL     1       7.807 -10.292  26.326  1.00  0.00     0.180 HD
BRANCH  24  26
HETATM   26  N3  UNL     1       8.124 -12.280  25.797  1.00  0.00    -0.348 N 
ATOM     27  H32 UNL     1       8.227 -12.313  24.784  1.00  0.00     0.176 HD
ATOM     28  H31 UNL     1       8.513 -13.005  26.400  1.00  0.00     0.176 HD
ENDBRANCH  24  26
ENDBRANCH   1  24
BRANCH   1  29
HETATM   29  C4  UNL     1       6.460 -11.369  28.502  1.00  0.00     0.075 A 
HETATM   30  C5  UNL     1       6.006 -12.356  29.356  1.00  0.00     0.105 A 
HETATM   31  C6  UNL     1       6.193 -12.242  30.745  1.00  0.00     0.130 A 
HETATM   32  C7  UNL     1       6.833 -11.132  31.226  1.00  0.00     0.123 A 
HETATM   33  N4  UNL     1       7.284 -10.159  30.425  1.00  0.00    -0.321 N 
HETATM   34  C13 UNL     1       7.089 -10.299  29.100  1.00  0.00     0.259 A 
HETATM   35  O6  UNL     1       7.529  -9.365  28.385  1.00  0.00    -0.267 OA
BRANCH  30  36
HETATM   36  O2  UNL     1       5.360 -13.498  28.966  1.00  0.00    -0.358 OA
ATOM     37  H2  UNL     1       5.576 -14.375  29.260  1.00  0.00     0.217 HD
ENDBRANCH  30  36
BRANCH  31  38
HETATM   38  S1  UNL     1       5.626 -13.493  31.846  1.00  0.00     0.141 S 
HETATM   39  O3  UNL     1       4.143 -13.584  31.713  1.00  0.00    -0.591 OA
HETATM   40  O4  UNL     1       6.073 -13.230  33.239  1.00  0.00    -0.591 OA
HETATM   41  O5  UNL     1       6.260 -14.953  31.248  1.00  0.00    -0.591 OA
ENDBRANCH  31  38
BRANCH  33  42
HETATM   42  C8  UNL     1       7.959  -8.976  30.939  1.00  0.00     0.151 C 
BRANCH  42  43
HETATM   43  C9  UNL     1       7.619  -8.650  32.353  1.00  0.00     0.143 C 
BRANCH  43  44
HETATM   44  N5  UNL     1       8.700  -8.632  33.277  1.00  0.00    -0.361 N 
ATOM     45  H5  UNL     1       9.391  -9.382  33.249  1.00  0.00     0.162 HD
BRANCH  44  46
HETATM   46  C10 UNL     1       8.846  -7.578  34.253  1.00  0.00     0.171 C 
HETATM   47  N6  UNL     1       9.924  -6.936  34.544  1.00  0.00    -0.361 N 
HETATM   48  C11 UNL     1       9.680  -5.943  35.581  1.00  0.00     0.142 C 
ATOM     49  H6  UNL     1      10.829  -7.102  34.105  1.00  0.00     0.162 HD
HETATM   50  C12 UNL     1       8.361  -6.428  36.202  1.00  0.00     0.142 C 
HETATM   51  N7  UNL     1       7.779  -7.086  35.051  1.00  0.00    -0.361 N 
ATOM     52  H7  UNL     1       6.783  -7.179  34.850  1.00  0.00     0.162 HD
ENDBRANCH  44  46
ENDBRANCH  43  44
ENDBRANCH  42  43
ENDBRANCH  33  42
ENDBRANCH   1  29
TORSDOF 14
ENDMDL
MODEL 5
REMARK VINA RESULT: -8.157306936      1.537      2.712
REMARK  14 active torsions:
REMARK  status: ('A' for Active; 'I' for Inactive)
REMARK    1  A    between atoms: N1_1  and  C1_4 
REMARK    2  A    between atoms: C2_6  and  C3_7 
REMARK    3  A    between atoms: C3_7  and  N2_8 
REMARK    4  A    between atoms: C3_7  and  C4_13 
REMARK    5  A    between atoms: N2_8  and  N3_10 
REMARK    6  A    between atoms: C5_14  and  O2_15 
REMARK    7  A    between atoms: C6_17  and  S1_18 
REMARK    8  A    between atoms: N4_23  and  C8_24 
REMARK    9  A    between atoms: C8_24  and  C9_25 
REMARK   10  A    between atoms: C9_25  and  N5_26 
REMARK   11  A    between atoms: N5_26  and  C10_28 
REMARK   12  A    between atoms: C15_39  and  C16_40 
REMARK   13  A    between atoms: C16_40  and  O7_41 
REMARK   14  A    between atoms: C17_46  and  N10_47 
ROOT
HETATM    1  C3  UNL     1       6.536 -12.542  25.681  1.00  0.00     0.201 C 
ENDROOT
BRANCH   1   2
HETATM    2  C2  UNL     1       5.897 -11.576  24.763  1.00  0.00     0.129 A 
HETATM    3  O1  UNL     1       6.174 -11.297  23.524  1.00  0.00    -0.277 OA
HETATM    4  C1  UNL     1       5.336 -10.353  23.067  1.00  0.00     0.228 A 
HETATM    5  N8  UNL     1       4.490 -10.003  24.029  1.00  0.00    -0.265 N 
HETATM    6  C14 UNL     1       4.843 -10.778  25.111  1.00  0.00     0.144 A 
HETATM    7  C15 UNL     1       3.394  -9.132  24.274  1.00  0.00     0.323 C 
HETATM    8  N11 UNL     1       4.092 -10.584  26.324  1.00  0.00    -0.324 N 
HETATM    9  C17 UNL     1       3.504  -9.287  26.666  1.00  0.00     0.486 C 
ATOM     10  H11 UNL     1       3.966 -11.370  26.962  1.00  0.00     0.165 HD
HETATM   11  N9  UNL     1       3.461  -8.415  25.541  1.00  0.00    -0.005 N 
ATOM     12  H92 UNL     1       4.247  -7.765  25.551  1.00  0.00     0.284 HD
ATOM     13  H91 UNL     1       2.694  -7.748  25.624  1.00  0.00     0.284 HD
BRANCH   4  14
HETATM   14  N1  UNL     1       5.405  -9.908  21.868  1.00  0.00    -0.365 N 
ATOM     15  H12 UNL     1       4.744  -9.305  21.378  1.00  0.00     0.159 HD
ATOM     16  H11 UNL     1       6.186 -10.135  21.252  1.00  0.00     0.159 HD
ENDBRANCH   4  14
BRANCH   9  17
HETATM   17  N10 UNL     1       2.270  -9.415  27.382  1.00  0.00    -0.033 N 
ATOM     18 3H10 UNL     1       1.723 -10.189  27.004  1.00  0.00     0.278 HD
ATOM     19 2H10 UNL     1       2.445  -9.765  28.325  1.00  0.00     0.278 HD
ATOM     20 1H10 UNL     1       1.702  -8.569  27.421  1.00  0.00     0.278 HD
ENDBRANCH   9  17
BRANCH   7  21
HETATM   21  C16 UNL     1       3.004  -8.174  23.216  1.00  0.00     0.219 C 
BRANCH  21  22
HETATM   22  O7  UNL     1       3.990  -7.189  22.973  1.00  0.00    -0.397 OA
ATOM     23  H7  UNL     1       3.852  -6.719  22.159  1.00  0.00     0.209 HD
ENDBRANCH  21  22
ENDBRANCH   7  21
ENDBRANCH   1   2
BRANCH   1  24
HETATM   24  N2  UNL     1       7.798 -13.007  25.235  1.00  0.00    -0.327 N 
ATOM     25  H2  UNL     1       8.656 -12.524  25.500  1.00  0.00     0.180 HD
BRANCH  24  26
HETATM   26  N3  UNL     1       7.839 -14.120  24.441  1.00  0.00    -0.348 N 
ATOM     27  H32 UNL     1       8.398 -14.924  24.723  1.00  0.00     0.176 HD
ATOM     28  H31 UNL     1       7.303 -14.117  23.573  1.00  0.00     0.176 HD
ENDBRANCH  24  26
ENDBRANCH   1  24
BRANCH   1  29
HETATM   29  C4  UNL     1       6.676 -12.066  27.066  1.00  0.00     0.075 A 
HETATM   30  C5  UNL     1       7.466 -10.961  27.313  1.00  0.00     0.105 A 
HETATM   31  C6  UNL     1       7.633 -10.479  28.624  1.00  0.00     0.130 A 
HETATM   32  C7  UNL     1       6.995 -11.132  29.643  1.00  0.00     0.123 A 
HETATM   33  N4  UNL     1       6.222 -12.205  29.436  1.00  0.00    -0.321 N 
HETATM   34  C13 UNL     1       6.083 -12.640  28.169  1.00  0.00     0.259 A 
HETATM   35  O6  UNL     1       5.349 -13.649  28.020  1.00  0.00    -0.267 OA
BRANCH  30  36
HETATM   36  O2  UNL     1       8.139 -10.245  26.360  1.00  0.00    -0.358 OA
ATOM     37  H2  UNL     1       8.795  -9.581  26.537  1.00  0.00     0.217 HD
ENDBRANCH  30  36
BRANCH  31  38
HETATM   38  S1  UNL     1       8.633  -9.068  28.956  1.00  0.00     0.141 S 
HETATM   39  O3  UNL     1       7.993  -7.889  28.306  1.00  0.00    -0.591 OA
HETATM   40  O4  UNL     1      10.037  -9.286  28.519  1.00  0.00    -0.591 OA
HETATM   41  O5  UNL     1       8.530  -8.816  30.634  1.00  0.00    -0.591 OA
ENDBRANCH  31  38
BRANCH  33  42
HETATM   42  C8  UNL     1       5.549 -12.903  30.522  1.00  0.00     0.151 C 
BRANCH  42  43
HETATM   43  C9  UNL     1       5.993 -12.482  31.881  1.00  0.00     0.143 C 
BRANCH  43  44
HETATM   44  N5  UNL     1       6.529 -13.500  32.717  1.00  0.00    -0.361 N 
ATOM     45  H5  UNL     1       7.295 -13.271  33.351  1.00  0.00     0.162 HD
BRANCH  44  46
HETATM   46  C10 UNL     1       6.016 -14.849  32.694  1.00  0.00     0.171 C 
HETATM   47  N6  UNL     1       6.583 -15.883  32.176  1.00  0.00    -0.361 N 
HETATM   48  C11 UNL     1       5.760 -17.073  32.348  1.00  0.00     0.142 C 
ATOM     49  H6  UNL     1       7.489 -15.871  31.709  1.00  0.00     0.162 HD
HETATM   50  C12 UNL     1       4.375 -16.480  32.644  1.00  0.00     0.142 C 
HETATM   51  N7  UNL     1       4.772 -15.233  33.263  1.00  0.00    -0.361 N 
ATOM     52  H7  UNL     1       4.253 -14.722  33.978  1.00  0.00     0.162 HD
ENDBRANCH  44  46
ENDBRANCH  43  44
ENDBRANCH  42  43
ENDBRANCH  33  42
ENDBRANCH   1  29
TORSDOF 14
ENDMDL
