MODEL 1
REMARK VINA RESULT: -8.621363094      0.000      0.000
REMARK  19 active torsions:
REMARK  status: ('A' for Active; 'I' for Inactive)
REMARK    1  A    between atoms: C2_2  and  C10_25 
REMARK    2  A    between atoms: N1_3  and  O1_5 
REMARK    3  A    between atoms: O1_5  and  C3_6 
REMARK    4  A    between atoms: C4_7  and  N2_8 
REMARK    5  A    between atoms: C6_13  and  O2_14 
REMARK    6  A    between atoms: C7_16  and  C8_17 
REMARK    7  A    between atoms: C8_17  and  N3_18 
REMARK    8  A    between atoms: C9_22  and  O3_23 
REMARK    9  A    between atoms: C10_25  and  O4_26 
REMARK   10  A    between atoms: C10_25  and  N4_28 
REMARK   11  A    between atoms: N4_28  and  C11_30 
REMARK   12  A    between atoms: C11_30  and  O5_31 
REMARK   13  A    between atoms: C11_30  and  O6_33 
REMARK   14  A    between atoms: O6_33  and  C12_34 
REMARK   15  A    between atoms: C15_40  and  C16_41 
REMARK   16  A    between atoms: C16_41  and  O7_42 
REMARK   17  A    between atoms: C17_44  and  O8_45 
REMARK   18  A    between atoms: C18_47  and  O9_48 
REMARK   19  A    between atoms: C19_50  and  O10_51 
ROOT
HETATM    1  C12 UNL     1       7.409  -9.453  30.056  1.00  0.00     0.204 C 
HETATM    2  C13 UNL     1       6.147  -8.687  30.109  1.00  0.00     0.037 C 
HETATM    3  N5  UNL     1       5.129  -8.862  29.373  1.00  0.00    -0.298 N 
ATOM      4  H5  UNL     1       4.321  -8.257  29.519  1.00  0.00     0.177 HD
HETATM    5  C14 UNL     1       5.050  -9.826  28.383  1.00  0.00     0.181 C 
HETATM    6  N6  UNL     1       4.961 -10.630  27.546  1.00  0.00    -0.172 NA
HETATM    7  C15 UNL     1       6.086  -7.598  31.150  1.00  0.00     0.089 C 
HETATM    8  C17 UNL     1       6.426  -8.257  32.461  1.00  0.00     0.161 C 
HETATM    9  C18 UNL     1       6.501  -9.760  32.375  1.00  0.00     0.179 C 
HETATM   10  C19 UNL     1       7.462 -10.263  31.341  1.00  0.00     0.184 C 
ENDROOT
BRANCH   1  11
HETATM   11  O6  UNL     1       7.564 -10.224  28.937  1.00  0.00    -0.331 OA
BRANCH  11  12
HETATM   12  C11 UNL     1       8.558  -9.630  28.121  1.00  0.00     0.366 C 
BRANCH  12  13
HETATM   13  N4  UNL     1       8.256 -10.014  26.789  1.00  0.00    -0.345 N 
ATOM     14  H4  UNL     1       7.922  -9.327  26.113  1.00  0.00     0.161 HD
BRANCH  13  15
HETATM   15  C10 UNL     1       8.425 -11.370  26.416  1.00  0.00     0.265 C 
BRANCH  15  16
HETATM   16  C2  UNL     1       7.610 -11.819  25.245  1.00  0.00     0.054 C 
HETATM   17  C1  UNL     1       7.715 -13.162  24.650  1.00  0.00     0.070 C 
HETATM   18  N1  UNL     1       6.788 -10.992  24.758  1.00  0.00    -0.270 N 
ATOM     19  H1  UNL     1       6.804 -10.099  25.251  1.00  0.00     0.194 HD
BRANCH  18  20
HETATM   20  O1  UNL     1       5.915 -10.999  23.772  1.00  0.00    -0.270 OA
BRANCH  20  21
HETATM   21  C3  UNL     1       5.666  -9.995  22.841  1.00  0.00     0.211 C 
HETATM   22  C4  UNL     1       4.458 -10.265  21.986  1.00  0.00     0.219 C 
HETATM   23  C5  UNL     1       3.407 -10.811  22.931  1.00  0.00     0.067 C 
HETATM   24  C6  UNL     1       3.135  -9.901  24.083  1.00  0.00     0.128 C 
HETATM   25  C7  UNL     1       3.980  -8.701  24.219  1.00  0.00     0.071 C 
HETATM   26  C9  UNL     1       5.318  -8.700  23.593  1.00  0.00     0.159 C 
BRANCH  22  27
HETATM   27  N2  UNL     1       4.655 -11.206  20.929  1.00  0.00    -0.072 N 
ATOM     28  H23 UNL     1       4.244 -10.853  20.065  1.00  0.00     0.274 HD
ATOM     29  H22 UNL     1       5.639 -11.231  20.662  1.00  0.00     0.274 HD
ATOM     30  H21 UNL     1       4.318 -12.150  21.117  1.00  0.00     0.274 HD
ENDBRANCH  22  27
BRANCH  24  31
HETATM   31  O2  UNL     1       3.108 -10.655  25.282  1.00  0.00    -0.395 OA
ATOM     32  H2  UNL     1       3.267 -10.079  26.021  1.00  0.00     0.210 HD
ENDBRANCH  24  31
BRANCH  25  33
HETATM   33  C8  UNL     1       3.199  -7.438  23.819  1.00  0.00     0.239 C 
BRANCH  33  34
HETATM   34  N3  UNL     1       3.066  -6.556  24.962  1.00  0.00    -0.079 N 
ATOM     35  H33 UNL     1       2.527  -6.984  25.716  1.00  0.00     0.274 HD
ATOM     36  H32 UNL     1       3.948  -6.437  25.459  1.00  0.00     0.274 HD
ATOM     37  H31 UNL     1       2.669  -5.662  24.669  1.00  0.00     0.274 HD
ENDBRANCH  33  34
ENDBRANCH  25  33
BRANCH  26  38
HETATM   38  O3  UNL     1       6.370  -8.484  24.488  1.00  0.00    -0.392 OA
ATOM     39  H3  UNL     1       5.969  -8.402  25.346  1.00  0.00     0.210 HD
ENDBRANCH  26  38
ENDBRANCH  20  21
ENDBRANCH  18  20
ENDBRANCH  15  16
BRANCH  15  40
HETATM   40  O4  UNL     1       9.779 -11.505  26.027  1.00  0.00    -0.372 OA
ATOM     41  H4  UNL     1      10.024 -10.676  25.631  1.00  0.00     0.212 HD
ENDBRANCH  15  40
ENDBRANCH  13  15
ENDBRANCH  12  13
BRANCH  12  42
HETATM   42  O5  UNL     1       8.542  -8.241  28.307  1.00  0.00    -0.355 OA
ATOM     43  H5  UNL     1       8.720  -7.985  29.205  1.00  0.00     0.214 HD
ENDBRANCH  12  42
ENDBRANCH  11  12
ENDBRANCH   1  11
BRANCH   7  44
HETATM   44  C16 UNL     1       4.739  -6.944  31.157  1.00  0.00     0.177 C 
BRANCH  44  45
HETATM   45  O7  UNL     1       4.941  -5.582  31.443  1.00  0.00    -0.400 OA
ATOM     46  H7  UNL     1       4.105  -5.147  31.332  1.00  0.00     0.209 HD
ENDBRANCH  44  45
ENDBRANCH   7  44
BRANCH  10  47
HETATM   47  O10 UNL     1       7.164 -11.597  31.062  1.00  0.00    -0.390 OA
ATOM     48  H10 UNL     1       6.583 -11.938  31.732  1.00  0.00     0.210 HD
ENDBRANCH  10  47
BRANCH   8  49
HETATM   49  O8  UNL     1       5.363  -7.968  33.345  1.00  0.00    -0.392 OA
ATOM     50  H8  UNL     1       5.426  -8.593  34.058  1.00  0.00     0.210 HD
ENDBRANCH   8  49
BRANCH   9  51
HETATM   51  O9  UNL     1       6.999 -10.196  33.625  1.00  0.00    -0.390 OA
ATOM     52  H9  UNL     1       7.181 -11.123  33.524  1.00  0.00     0.210 HD
ENDBRANCH   9  51
TORSDOF 19
ENDMDL
MODEL 2
REMARK VINA RESULT: -8.572527658      1.206      1.382
REMARK  19 active torsions:
REMARK  status: ('A' for Active; 'I' for Inactive)
REMARK    1  A    between atoms: C2_2  and  C10_25 
REMARK    2  A    between atoms: N1_3  and  O1_5 
REMARK    3  A    between atoms: O1_5  and  C3_6 
REMARK    4  A    between atoms: C4_7  and  N2_8 
REMARK    5  A    between atoms: C6_13  and  O2_14 
REMARK    6  A    between atoms: C7_16  and  C8_17 
REMARK    7  A    between atoms: C8_17  and  N3_18 
REMARK    8  A    between atoms: C9_22  and  O3_23 
REMARK    9  A    between atoms: C10_25  and  O4_26 
REMARK   10  A    between atoms: C10_25  and  N4_28 
REMARK   11  A    between atoms: N4_28  and  C11_30 
REMARK   12  A    between atoms: C11_30  and  O5_31 
REMARK   13  A    between atoms: C11_30  and  O6_33 
REMARK   14  A    between atoms: O6_33  and  C12_34 
REMARK   15  A    between atoms: C15_40  and  C16_41 
REMARK   16  A    between atoms: C16_41  and  O7_42 
REMARK   17  A    between atoms: C17_44  and  O8_45 
REMARK   18  A    between atoms: C18_47  and  O9_48 
REMARK   19  A    between atoms: C19_50  and  O10_51 
ROOT
HETATM    1  C12 UNL     1       7.305  -9.925  30.080  1.00  0.00     0.204 C 
HETATM    2  C13 UNL     1       6.375  -9.091  30.869  1.00  0.00     0.037 C 
HETATM    3  N5  UNL     1       5.272  -8.610  30.468  1.00  0.00    -0.298 N 
ATOM      4  H5  UNL     1       4.727  -8.049  31.122  1.00  0.00     0.177 HD
HETATM    5  C14 UNL     1       4.764  -8.802  29.195  1.00  0.00     0.181 C 
HETATM    6  N6  UNL     1       4.317  -8.951  28.130  1.00  0.00    -0.172 NA
HETATM    7  C15 UNL     1       6.798  -8.801  32.286  1.00  0.00     0.089 C 
HETATM    8  C17 UNL     1       7.067 -10.139  32.923  1.00  0.00     0.161 C 
HETATM    9  C18 UNL     1       6.641 -11.306  32.067  1.00  0.00     0.179 C 
HETATM   10  C19 UNL     1       7.253 -11.312  30.699  1.00  0.00     0.184 C 
ENDROOT
BRANCH   1  11
HETATM   11  O6  UNL     1       7.064  -9.936  28.734  1.00  0.00    -0.331 OA
BRANCH  11  12
HETATM   12  C11 UNL     1       8.255  -9.564  28.064  1.00  0.00     0.366 C 
BRANCH  12  13
HETATM   13  N4  UNL     1       8.299 -10.340  26.877  1.00  0.00    -0.345 N 
ATOM     14  H4  UNL     1       9.048 -10.209  26.198  1.00  0.00     0.161 HD
BRANCH  13  15
HETATM   15  C10 UNL     1       7.282 -11.300  26.654  1.00  0.00     0.265 C 
BRANCH  15  16
HETATM   16  C2  UNL     1       7.011 -11.623  25.219  1.00  0.00     0.054 C 
HETATM   17  C1  UNL     1       7.575 -12.797  24.531  1.00  0.00     0.070 C 
HETATM   18  N1  UNL     1       6.250 -10.842  24.581  1.00  0.00    -0.270 N 
ATOM     19  H1  UNL     1       5.922 -10.068  25.159  1.00  0.00     0.194 HD
BRANCH  18  20
HETATM   20  O1  UNL     1       5.776 -10.780  23.354  1.00  0.00    -0.270 OA
BRANCH  20  21
HETATM   21  C3  UNL     1       5.261  -9.672  22.689  1.00  0.00     0.211 C 
HETATM   22  C4  UNL     1       3.879  -9.898  22.139  1.00  0.00     0.219 C 
HETATM   23  C5  UNL     1       3.130 -10.647  23.223  1.00  0.00     0.067 C 
HETATM   24  C6  UNL     1       3.145  -9.935  24.535  1.00  0.00     0.128 C 
HETATM   25  C7  UNL     1       3.961  -8.712  24.638  1.00  0.00     0.071 C 
HETATM   26  C9  UNL     1       5.086  -8.527  23.700  1.00  0.00     0.159 C 
BRANCH  22  27
HETATM   27  N2  UNL     1       3.818 -10.659  20.932  1.00  0.00    -0.072 N 
ATOM     28  H23 UNL     1       3.929 -10.046  20.125  1.00  0.00     0.274 HD
ATOM     29  H22 UNL     1       4.656 -11.234  20.838  1.00  0.00     0.274 HD
ATOM     30  H21 UNL     1       2.984 -11.236  20.821  1.00  0.00     0.274 HD
ENDBRANCH  22  27
BRANCH  24  31
HETATM   31  O2  UNL     1       3.456 -10.855  25.566  1.00  0.00    -0.395 OA
ATOM     32  H2  UNL     1       3.469 -10.402  26.400  1.00  0.00     0.210 HD
ENDBRANCH  24  31
BRANCH  25  33
HETATM   33  C8  UNL     1       3.065  -7.461  24.656  1.00  0.00     0.239 C 
BRANCH  33  34
HETATM   34  N3  UNL     1       3.033  -6.894  25.991  1.00  0.00    -0.079 N 
ATOM     35  H33 UNL     1       3.729  -7.320  26.604  1.00  0.00     0.274 HD
ATOM     36  H32 UNL     1       3.386  -5.937  26.009  1.00  0.00     0.274 HD
ATOM     37  H31 UNL     1       2.091  -6.962  26.376  1.00  0.00     0.274 HD
ENDBRANCH  33  34
ENDBRANCH  25  33
BRANCH  26  38
HETATM   38  O3  UNL     1       6.330  -8.371  24.319  1.00  0.00    -0.392 OA
ATOM     39  H3  UNL     1       6.146  -8.047  25.193  1.00  0.00     0.210 HD
ENDBRANCH  26  38
ENDBRANCH  20  21
ENDBRANCH  18  20
ENDBRANCH  15  16
BRANCH  15  40
HETATM   40  O4  UNL     1       7.739 -12.502  27.248  1.00  0.00    -0.372 OA
ATOM     41  H4  UNL     1       7.264 -13.205  26.818  1.00  0.00     0.212 HD
ENDBRANCH  15  40
ENDBRANCH  13  15
ENDBRANCH  12  13
BRANCH  12  42
HETATM   42  O5  UNL     1       8.237  -8.184  27.817  1.00  0.00    -0.355 OA
ATOM     43  H5  UNL     1       8.656  -7.678  28.503  1.00  0.00     0.214 HD
ENDBRANCH  12  42
ENDBRANCH  11  12
ENDBRANCH   1  11
BRANCH   7  44
HETATM   44  C16 UNL     1       5.745  -8.014  33.005  1.00  0.00     0.177 C 
BRANCH  44  45
HETATM   45  O7  UNL     1       6.344  -7.482  34.161  1.00  0.00    -0.400 OA
ATOM     46  H7  UNL     1       5.798  -7.731  34.897  1.00  0.00     0.209 HD
ENDBRANCH  44  45
ENDBRANCH   7  44
BRANCH  10  47
HETATM   47  O10 UNL     1       6.508 -12.160  29.879  1.00  0.00    -0.390 OA
ATOM     48  H10 UNL     1       6.944 -12.252  29.040  1.00  0.00     0.210 HD
ENDBRANCH  10  47
BRANCH   8  49
HETATM   49  O8  UNL     1       6.272 -10.199  34.088  1.00  0.00    -0.392 OA
ATOM     50  H8  UNL     1       6.871 -10.285  34.821  1.00  0.00     0.210 HD
ENDBRANCH   8  49
BRANCH   9  51
HETATM   51  O9  UNL     1       7.123 -12.464  32.722  1.00  0.00    -0.390 OA
ATOM     52  H9  UNL     1       6.594 -12.559  33.505  1.00  0.00     0.210 HD
ENDBRANCH   9  51
TORSDOF 19
ENDMDL
MODEL 3
REMARK VINA RESULT: -8.533549468      2.279      7.753
REMARK  19 active torsions:
REMARK  status: ('A' for Active; 'I' for Inactive)
REMARK    1  A    between atoms: C2_2  and  C10_25 
REMARK    2  A    between atoms: N1_3  and  O1_5 
REMARK    3  A    between atoms: O1_5  and  C3_6 
REMARK    4  A    between atoms: C4_7  and  N2_8 
REMARK    5  A    between atoms: C6_13  and  O2_14 
REMARK    6  A    between atoms: C7_16  and  C8_17 
REMARK    7  A    between atoms: C8_17  and  N3_18 
REMARK    8  A    between atoms: C9_22  and  O3_23 
REMARK    9  A    between atoms: C10_25  and  O4_26 
REMARK   10  A    between atoms: C10_25  and  N4_28 
REMARK   11  A    between atoms: N4_28  and  C11_30 
REMARK   12  A    between atoms: C11_30  and  O5_31 
REMARK   13  A    between atoms: C11_30  and  O6_33 
REMARK   14  A    between atoms: O6_33  and  C12_34 
REMARK   15  A    between atoms: C15_40  and  C16_41 
REMARK   16  A    between atoms: C16_41  and  O7_42 
REMARK   17  A    between atoms: C17_44  and  O8_45 
REMARK   18  A    between atoms: C18_47  and  O9_48 
REMARK   19  A    between atoms: C19_50  and  O10_51 
ROOT
HETATM    1  C12 UNL     1       4.471  -9.950  23.695  1.00  0.00     0.204 C 
HETATM    2  C13 UNL     1       3.096  -9.410  23.682  1.00  0.00     0.037 C 
HETATM    3  N5  UNL     1       2.535  -8.759  24.615  1.00  0.00    -0.298 N 
ATOM      4  H5  UNL     1       1.575  -8.445  24.470  1.00  0.00     0.177 HD
HETATM    5  C14 UNL     1       3.147  -8.451  25.817  1.00  0.00     0.181 C 
HETATM    6  N6  UNL     1       3.642  -8.179  26.835  1.00  0.00    -0.172 NA
HETATM    7  C15 UNL     1       2.304  -9.668  22.425  1.00  0.00     0.089 C 
HETATM    8  C17 UNL     1       3.147  -9.150  21.289  1.00  0.00     0.161 C 
HETATM    9  C18 UNL     1       4.357  -8.374  21.745  1.00  0.00     0.179 C 
HETATM   10  C19 UNL     1       5.251  -9.136  22.676  1.00  0.00     0.184 C 
ENDROOT
BRANCH   1  11
HETATM   11  O6  UNL     1       5.067  -9.970  24.926  1.00  0.00    -0.331 OA
BRANCH  11  12
HETATM   12  C11 UNL     1       5.022 -11.296  25.421  1.00  0.00     0.366 C 
BRANCH  12  13
HETATM   13  N4  UNL     1       6.353 -11.785  25.359  1.00  0.00    -0.345 N 
ATOM     14  H4  UNL     1       6.538 -12.767  25.157  1.00  0.00     0.161 HD
BRANCH  13  15
HETATM   15  C10 UNL     1       7.421 -10.882  25.585  1.00  0.00     0.265 C 
BRANCH  15  16
HETATM   16  C2  UNL     1       7.785 -10.667  27.019  1.00  0.00     0.054 C 
HETATM   17  C1  UNL     1       8.923  -9.839  27.452  1.00  0.00     0.070 C 
HETATM   18  N1  UNL     1       7.063 -11.226  27.892  1.00  0.00    -0.270 N 
ATOM     19  H1  UNL     1       6.308 -11.771  27.475  1.00  0.00     0.194 HD
BRANCH  18  20
HETATM   20  O1  UNL     1       7.044 -11.278  29.208  1.00  0.00    -0.270 OA
BRANCH  20  21
HETATM   21  C3  UNL     1       5.942 -11.199  30.053  1.00  0.00     0.211 C 
HETATM   22  C4  UNL     1       6.254 -11.580  31.475  1.00  0.00     0.219 C 
HETATM   23  C5  UNL     1       7.593 -10.940  31.781  1.00  0.00     0.067 C 
HETATM   24  C6  UNL     1       7.598  -9.466  31.540  1.00  0.00     0.128 C 
HETATM   25  C7  UNL     1       6.393  -8.869  30.938  1.00  0.00     0.071 C 
HETATM   26  C9  UNL     1       5.494  -9.731  30.143  1.00  0.00     0.159 C 
BRANCH  22  27
HETATM   27  N2  UNL     1       6.352 -12.984  31.724  1.00  0.00    -0.072 N 
ATOM     28  H23 UNL     1       7.265 -13.329  31.430  1.00  0.00     0.274 HD
ATOM     29  H22 UNL     1       6.408 -13.158  32.727  1.00  0.00     0.274 HD
ATOM     30  H21 UNL     1       5.613 -13.552  31.310  1.00  0.00     0.274 HD
ENDBRANCH  22  27
BRANCH  24  31
HETATM   31  O2  UNL     1       8.767  -9.111  30.823  1.00  0.00    -0.395 OA
ATOM     32  H2  UNL     1       8.875  -8.167  30.843  1.00  0.00     0.210 HD
ENDBRANCH  24  31
BRANCH  25  33
HETATM   33  C8  UNL     1       5.592  -8.083  31.990  1.00  0.00     0.239 C 
BRANCH  33  34
HETATM   34  N3  UNL     1       5.300  -6.751  31.496  1.00  0.00    -0.079 N 
ATOM     35  H33 UNL     1       5.892  -6.498  30.705  1.00  0.00     0.274 HD
ATOM     36  H32 UNL     1       4.396  -6.707  31.025  1.00  0.00     0.274 HD
ATOM     37  H31 UNL     1       5.368  -6.074  32.257  1.00  0.00     0.274 HD
ENDBRANCH  33  34
ENDBRANCH  25  33
BRANCH  26  38
HETATM   38  O3  UNL     1       5.310  -9.306  28.824  1.00  0.00    -0.392 OA
ATOM     39  H3  UNL     1       4.455  -8.893  28.801  1.00  0.00     0.210 HD
ENDBRANCH  26  38
ENDBRANCH  20  21
ENDBRANCH  18  20
ENDBRANCH  15  16
BRANCH  15  40
HETATM   40  O4  UNL     1       8.560 -11.459  24.972  1.00  0.00    -0.372 OA
ATOM     41  H4  UNL     1       8.238 -12.178  24.441  1.00  0.00     0.212 HD
ENDBRANCH  15  40
ENDBRANCH  13  15
ENDBRANCH  12  13
BRANCH  12  42
HETATM   42  O5  UNL     1       4.501 -11.288  26.722  1.00  0.00    -0.355 OA
ATOM     43  H5  UNL     1       4.930 -10.659  27.290  1.00  0.00     0.214 HD
ENDBRANCH  12  42
ENDBRANCH  11  12
ENDBRANCH   1  11
BRANCH   7  44
HETATM   44  C16 UNL     1       0.959  -9.012  22.500  1.00  0.00     0.177 C 
BRANCH  44  45
HETATM   45  O7  UNL     1       0.109  -9.891  23.193  1.00  0.00    -0.400 OA
ATOM     46  H7  UNL     1      -0.159 -10.564  22.578  1.00  0.00     0.209 HD
ENDBRANCH  44  45
ENDBRANCH   7  44
BRANCH  10  47
HETATM   47  O10 UNL     1       6.081  -8.231  23.341  1.00  0.00    -0.390 OA
ATOM     48  H10 UNL     1       6.978  -8.358  23.057  1.00  0.00     0.210 HD
ENDBRANCH  10  47
BRANCH   8  49
HETATM   49  O8  UNL     1       2.342  -8.235  20.575  1.00  0.00    -0.392 OA
ATOM     50  H8  UNL     1       2.064  -8.679  19.782  1.00  0.00     0.210 HD
ENDBRANCH   8  49
BRANCH   9  51
HETATM   51  O9  UNL     1       5.119  -8.123  20.580  1.00  0.00    -0.390 OA
ATOM     52  H9  UNL     1       4.685  -7.406  20.135  1.00  0.00     0.210 HD
ENDBRANCH   9  51
TORSDOF 19
ENDMDL
MODEL 4
REMARK VINA RESULT: -8.327932044      2.228      2.861
REMARK  19 active torsions:
REMARK  status: ('A' for Active; 'I' for Inactive)
REMARK    1  A    between atoms: C2_2  and  C10_25 
REMARK    2  A    between atoms: N1_3  and  O1_5 
REMARK    3  A    between atoms: O1_5  and  C3_6 
REMARK    4  A    between atoms: C4_7  and  N2_8 
REMARK    5  A    between atoms: C6_13  and  O2_14 
REMARK    6  A    between atoms: C7_16  and  C8_17 
REMARK    7  A    between atoms: C8_17  and  N3_18 
REMARK    8  A    between atoms: C9_22  and  O3_23 
REMARK    9  A    between atoms: C10_25  and  O4_26 
REMARK   10  A    between atoms: C10_25  and  N4_28 
REMARK   11  A    between atoms: N4_28  and  C11_30 
REMARK   12  A    between atoms: C11_30  and  O5_31 
REMARK   13  A    between atoms: C11_30  and  O6_33 
REMARK   14  A    between atoms: O6_33  and  C12_34 
REMARK   15  A    between atoms: C15_40  and  C16_41 
REMARK   16  A    between atoms: C16_41  and  O7_42 
REMARK   17  A    between atoms: C17_44  and  O8_45 
REMARK   18  A    between atoms: C18_47  and  O9_48 
REMARK   19  A    between atoms: C19_50  and  O10_51 
ROOT
HETATM    1  C12 UNL     1       6.972 -11.243  30.384  1.00  0.00     0.204 C 
HETATM    2  C13 UNL     1       7.573 -10.234  31.280  1.00  0.00     0.037 C 
HETATM    3  N5  UNL     1       7.927  -9.059  30.959  1.00  0.00    -0.298 N 
ATOM      4  H5  UNL     1       8.331  -8.465  31.683  1.00  0.00     0.177 HD
HETATM    5  C14 UNL     1       7.798  -8.536  29.684  1.00  0.00     0.181 C 
HETATM    6  N6  UNL     1       7.698  -8.074  28.620  1.00  0.00    -0.172 NA
HETATM    7  C15 UNL     1       7.773 -10.665  32.710  1.00  0.00     0.089 C 
HETATM    8  C17 UNL     1       6.428 -11.147  33.191  1.00  0.00     0.161 C 
HETATM    9  C18 UNL     1       5.308 -10.859  32.223  1.00  0.00     0.179 C 
HETATM   10  C19 UNL     1       5.535 -11.413  30.849  1.00  0.00     0.184 C 
ENDROOT
BRANCH   1  11
HETATM   11  O6  UNL     1       7.066 -10.954  29.050  1.00  0.00    -0.331 OA
BRANCH  11  12
HETATM   12  C11 UNL     1       6.570 -12.062  28.318  1.00  0.00     0.366 C 
BRANCH  12  13
HETATM   13  N4  UNL     1       6.174 -11.552  27.055  1.00  0.00    -0.345 N 
ATOM     14  H4  UNL     1       5.196 -11.330  26.868  1.00  0.00     0.161 HD
BRANCH  13  15
HETATM   15  C10 UNL     1       7.161 -11.359  26.058  1.00  0.00     0.265 C 
BRANCH  15  16
HETATM   16  C2  UNL     1       6.646 -11.263  24.657  1.00  0.00     0.054 C 
HETATM   17  C1  UNL     1       6.660 -12.388  23.708  1.00  0.00     0.070 C 
HETATM   18  N1  UNL     1       6.170 -10.151  24.288  1.00  0.00    -0.270 N 
ATOM     19  H1  UNL     1       6.214  -9.450  25.028  1.00  0.00     0.194 HD
BRANCH  18  20
HETATM   20  O1  UNL     1       5.632  -9.676  23.185  1.00  0.00    -0.270 OA
BRANCH  20  21
HETATM   21  C3  UNL     1       4.920  -8.492  23.019  1.00  0.00     0.211 C 
HETATM   22  C4  UNL     1       4.206  -8.408  21.697  1.00  0.00     0.219 C 
HETATM   23  C5  UNL     1       3.611  -9.783  21.470  1.00  0.00     0.067 C 
HETATM   24  C6  UNL     1       2.738 -10.229  22.596  1.00  0.00     0.128 C 
HETATM   25  C7  UNL     1       2.673  -9.368  23.791  1.00  0.00     0.071 C 
HETATM   26  C9  UNL     1       3.793  -8.445  24.064  1.00  0.00     0.159 C 
BRANCH  22  27
HETATM   27  N2  UNL     1       5.030  -8.076  20.578  1.00  0.00    -0.072 N 
ATOM     28  H23 UNL     1       5.405  -7.134  20.687  1.00  0.00     0.274 HD
ATOM     29  H22 UNL     1       5.893  -8.618  20.606  1.00  0.00     0.274 HD
ATOM     30  H21 UNL     1       4.585  -8.173  19.665  1.00  0.00     0.274 HD
ENDBRANCH  22  27
BRANCH  24  31
HETATM   31  O2  UNL     1       3.055 -11.566  22.937  1.00  0.00    -0.395 OA
ATOM     32  H2  UNL     1       3.301 -11.609  23.853  1.00  0.00     0.210 HD
ENDBRANCH  24  31
BRANCH  25  33
HETATM   33  C8  UNL     1       1.332  -8.617  23.848  1.00  0.00     0.239 C 
BRANCH  33  34
HETATM   34  N3  UNL     1       0.352  -9.290  23.016  1.00  0.00    -0.079 N 
ATOM     35  H33 UNL     1      -0.371  -8.651  22.684  1.00  0.00     0.274 HD
ATOM     36  H32 UNL     1       0.739  -9.559  22.112  1.00  0.00     0.274 HD
ATOM     37  H31 UNL     1      -0.042 -10.087  23.517  1.00  0.00     0.274 HD
ENDBRANCH  33  34
ENDBRANCH  25  33
BRANCH  26  38
HETATM   38  O3  UNL     1       4.411  -8.642  25.302  1.00  0.00    -0.392 OA
ATOM     39  H3  UNL     1       3.736  -8.500  25.955  1.00  0.00     0.210 HD
ENDBRANCH  26  38
ENDBRANCH  20  21
ENDBRANCH  18  20
ENDBRANCH  15  16
BRANCH  15  40
HETATM   40  O4  UNL     1       7.766 -10.111  26.341  1.00  0.00    -0.372 OA
ATOM     41  H4  UNL     1       8.490 -10.025  25.731  1.00  0.00     0.212 HD
ENDBRANCH  15  40
ENDBRANCH  13  15
ENDBRANCH  12  13
BRANCH  12  42
HETATM   42  O5  UNL     1       7.568 -13.041  28.226  1.00  0.00    -0.355 OA
ATOM     43  H5  UNL     1       7.598 -13.614  28.983  1.00  0.00     0.214 HD
ENDBRANCH  12  42
ENDBRANCH  11  12
ENDBRANCH   1  11
BRANCH   7  44
HETATM   44  C16 UNL     1       8.317  -9.539  33.534  1.00  0.00     0.177 C 
BRANCH  44  45
HETATM   45  O7  UNL     1       9.655  -9.351  33.145  1.00  0.00    -0.400 OA
ATOM     46  H7  UNL     1       9.783  -8.417  33.031  1.00  0.00     0.209 HD
ENDBRANCH  44  45
ENDBRANCH   7  44
BRANCH  10  47
HETATM   47  O10 UNL     1       4.678 -10.767  29.957  1.00  0.00    -0.390 OA
ATOM     48  H10 UNL     1       3.873 -10.535  30.404  1.00  0.00     0.210 HD
ENDBRANCH  10  47
BRANCH   8  49
HETATM   49  O8  UNL     1       6.132 -10.413  34.360  1.00  0.00    -0.392 OA
ATOM     50  H8  UNL     1       5.724 -11.022  34.966  1.00  0.00     0.210 HD
ENDBRANCH   8  49
BRANCH   9  51
HETATM   51  O9  UNL     1       4.171 -11.527  32.736  1.00  0.00    -0.390 OA
ATOM     52  H9  UNL     1       4.031 -11.171  33.605  1.00  0.00     0.210 HD
ENDBRANCH   9  51
TORSDOF 19
ENDMDL
MODEL 5
REMARK VINA RESULT: -8.240944574      2.265      7.862
REMARK  19 active torsions:
REMARK  status: ('A' for Active; 'I' for Inactive)
REMARK    1  A    between atoms: C2_2  and  C10_25 
REMARK    2  A    between atoms: N1_3  and  O1_5 
REMARK    3  A    between atoms: O1_5  and  C3_6 
REMARK    4  A    between atoms: C4_7  and  N2_8 
REMARK    5  A    between atoms: C6_13  and  O2_14 
REMARK    6  A    between atoms: C7_16  and  C8_17 
REMARK    7  A    between atoms: C8_17  and  N3_18 
REMARK    8  A    between atoms: C9_22  and  O3_23 
REMARK    9  A    between atoms: C10_25  and  O4_26 
REMARK   10  A    between atoms: C10_25  and  N4_28 
REMARK   11  A    between atoms: N4_28  and  C11_30 
REMARK   12  A    between atoms: C11_30  and  O5_31 
REMARK   13  A    between atoms: C11_30  and  O6_33 
REMARK   14  A    between atoms: O6_33  and  C12_34 
REMARK   15  A    between atoms: C15_40  and  C16_41 
REMARK   16  A    between atoms: C16_41  and  O7_42 
REMARK   17  A    between atoms: C17_44  and  O8_45 
REMARK   18  A    between atoms: C18_47  and  O9_48 
REMARK   19  A    between atoms: C19_50  and  O10_51 
ROOT
HETATM    1  C12 UNL     1       4.279 -10.510  22.740  1.00  0.00     0.204 C 
HETATM    2  C13 UNL     1       2.979  -9.976  23.197  1.00  0.00     0.037 C 
HETATM    3  N5  UNL     1       2.636  -9.758  24.399  1.00  0.00    -0.298 N 
ATOM      4  H5  UNL     1       1.703  -9.385  24.571  1.00  0.00     0.177 HD
HETATM    5  C14 UNL     1       3.453  -9.997  25.490  1.00  0.00     0.181 C 
HETATM    6  N6  UNL     1       4.124 -10.188  26.422  1.00  0.00    -0.172 NA
HETATM    7  C15 UNL     1       1.982  -9.663  22.111  1.00  0.00     0.089 C 
HETATM    8  C17 UNL     1       2.688  -8.742  21.150  1.00  0.00     0.161 C 
HETATM    9  C18 UNL     1       4.026  -8.262  21.654  1.00  0.00     0.179 C 
HETATM   10  C19 UNL     1       4.971  -9.367  22.017  1.00  0.00     0.184 C 
ENDROOT
BRANCH   1  11
HETATM   11  O6  UNL     1       5.052 -11.058  23.727  1.00  0.00    -0.331 OA
BRANCH  11  12
HETATM   12  C11 UNL     1       5.594 -12.275  23.244  1.00  0.00     0.366 C 
BRANCH  12  13
HETATM   13  N4  UNL     1       6.667 -12.600  24.113  1.00  0.00    -0.345 N 
ATOM     14  H4  UNL     1       7.002 -13.560  24.189  1.00  0.00     0.161 HD
BRANCH  13  15
HETATM   15  C10 UNL     1       7.265 -11.565  24.872  1.00  0.00     0.265 C 
BRANCH  15  16
HETATM   16  C2  UNL     1       7.133 -11.702  26.356  1.00  0.00     0.054 C 
HETATM   17  C1  UNL     1       7.077 -12.999  27.050  1.00  0.00     0.070 C 
HETATM   18  N1  UNL     1       7.075 -10.637  27.035  1.00  0.00    -0.270 N 
ATOM     19  H1  UNL     1       7.123  -9.804  26.448  1.00  0.00     0.194 HD
BRANCH  18  20
HETATM   20  O1  UNL     1       6.969 -10.338  28.312  1.00  0.00    -0.270 OA
BRANCH  20  21
HETATM   21  C3  UNL     1       6.902  -9.076  28.895  1.00  0.00     0.211 C 
HETATM   22  C4  UNL     1       5.656  -8.864  29.711  1.00  0.00     0.219 C 
HETATM   23  C5  UNL     1       5.451 -10.153  30.480  1.00  0.00     0.067 C 
HETATM   24  C6  UNL     1       6.643 -10.538  31.293  1.00  0.00     0.128 C 
HETATM   25  C7  UNL     1       7.860  -9.720  31.149  1.00  0.00     0.071 C 
HETATM   26  C9  UNL     1       8.049  -8.940  29.909  1.00  0.00     0.159 C 
BRANCH  22  27
HETATM   27  N2  UNL     1       4.473  -8.587  28.960  1.00  0.00    -0.072 N 
ATOM     28  H23 UNL     1       4.661  -8.683  27.962  1.00  0.00     0.274 HD
ATOM     29  H22 UNL     1       3.794  -9.337  29.087  1.00  0.00     0.274 HD
ATOM     30  H21 UNL     1       4.037  -7.684  29.149  1.00  0.00     0.274 HD
ENDBRANCH  22  27
BRANCH  24  31
HETATM   31  O2  UNL     1       6.918 -11.915  31.103  1.00  0.00    -0.395 OA
ATOM     32  H2  UNL     1       7.315 -12.269  31.890  1.00  0.00     0.210 HD
ENDBRANCH  24  31
BRANCH  25  33
HETATM   33  C8  UNL     1       8.063  -8.825  32.383  1.00  0.00     0.239 C 
BRANCH  33  34
HETATM   34  N3  UNL     1       9.220  -9.273  33.135  1.00  0.00    -0.079 N 
ATOM     35  H33 UNL     1       9.732 -10.008  32.647  1.00  0.00     0.274 HD
ATOM     36  H32 UNL     1       9.957  -8.568  33.158  1.00  0.00     0.274 HD
ATOM     37  H31 UNL     1       8.936  -9.561  34.072  1.00  0.00     0.274 HD
ENDBRANCH  33  34
ENDBRANCH  25  33
BRANCH  26  38
HETATM   38  O3  UNL     1       9.218  -9.250  29.208  1.00  0.00    -0.392 OA
ATOM     39  H3  UNL     1       9.890  -8.674  29.555  1.00  0.00     0.210 HD
ENDBRANCH  26  38
ENDBRANCH  20  21
ENDBRANCH  18  20
ENDBRANCH  15  16
BRANCH  15  40
HETATM   40  O4  UNL     1       8.653 -11.624  24.595  1.00  0.00    -0.372 OA
ATOM     41  H4  UNL     1       8.856 -10.839  24.099  1.00  0.00     0.212 HD
ENDBRANCH  15  40
ENDBRANCH  13  15
ENDBRANCH  12  13
BRANCH  12  42
HETATM   42  O5  UNL     1       4.590 -13.253  23.223  1.00  0.00    -0.355 OA
ATOM     43  H5  UNL     1       3.885 -13.048  22.620  1.00  0.00     0.214 HD
ENDBRANCH  12  42
ENDBRANCH  11  12
ENDBRANCH   1  11
BRANCH   7  44
HETATM   44  C16 UNL     1       0.738  -9.062  22.688  1.00  0.00     0.177 C 
BRANCH  44  45
HETATM   45  O7  UNL     1      -0.060 -10.124  23.148  1.00  0.00    -0.400 OA
ATOM     46  H7  UNL     1      -0.966  -9.860  23.039  1.00  0.00     0.209 HD
ENDBRANCH  44  45
ENDBRANCH   7  44
BRANCH  10  47
HETATM   47  O10 UNL     1       5.979  -8.845  22.829  1.00  0.00    -0.390 OA
ATOM     48  H10 UNL     1       6.140  -7.940  22.592  1.00  0.00     0.210 HD
ENDBRANCH  10  47
BRANCH   8  49
HETATM   49  O8  UNL     1       1.880  -7.591  21.028  1.00  0.00    -0.392 OA
ATOM     50  H8  UNL     1       2.440  -6.900  20.696  1.00  0.00     0.210 HD
ENDBRANCH   8  49
BRANCH   9  51
HETATM   51  O9  UNL     1       4.621  -7.569  20.574  1.00  0.00    -0.390 OA
ATOM     52  H9  UNL     1       5.467  -7.274  20.889  1.00  0.00     0.210 HD
ENDBRANCH   9  51
TORSDOF 19
ENDMDL
