MODEL 1
REMARK VINA RESULT: -4.821603170      0.000      0.000
REMARK  5 active torsions:
REMARK  status: ('A' for Active; 'I' for Inactive)
REMARK    1  A    between atoms: O1_2  and  C2_3 
REMARK    2  A    between atoms: C5_6  and  O2_7 
REMARK    3  A    between atoms: C9_11  and  O3_12 
REMARK    4  A    between atoms: C16_22  and  O7_23 
REMARK    5  A    between atoms: C17_25  and  O8_26 
ROOT
HETATM    1  C2  UNL     1     -29.966  79.475   9.193  1.00  0.00     0.113 A 
HETATM    2  C3  UNL     1     -30.733  78.634   9.971  1.00  0.00     0.008 A 
HETATM    3  C4  UNL     1     -32.089  78.246   9.542  1.00  0.00     0.054 C 
HETATM    4  C5  UNL     1     -30.259  78.123  11.184  1.00  0.00     0.088 A 
HETATM    5  C7  UNL     1     -29.019  78.469  11.586  1.00  0.00     0.043 A 
HETATM    6  C8  UNL     1     -28.230  79.331  10.793  1.00  0.00     0.120 A 
HETATM    7  C9  UNL     1     -28.694  79.837   9.600  1.00  0.00     0.136 A 
HETATM    8  O4  UNL     1     -26.937  79.776  11.081  1.00  0.00    -0.314 OA
HETATM    9  C11 UNL     1     -26.352  79.737  12.382  1.00  0.00     0.301 C 
HETATM   10  O5  UNL     1     -25.549  80.871  12.494  1.00  0.00    -0.323 OA
HETATM   11  C12 UNL     1     -25.458  81.059  13.868  1.00  0.00     0.160 C 
HETATM   12  C13 UNL     1     -25.352  82.527  14.194  1.00  0.00     0.078 C 
HETATM   13  C14 UNL     1     -24.193  80.327  14.316  1.00  0.00     0.078 C 
HETATM   14  O6  UNL     1     -26.593  80.560  14.455  1.00  0.00    -0.343 OA
HETATM   15  C15 UNL     1     -27.390  80.017  13.450  1.00  0.00     0.212 C 
HETATM   16  C16 UNL     1     -28.162  78.842  13.912  1.00  0.00     0.185 C 
HETATM   17  C17 UNL     1     -28.549  77.864  12.835  1.00  0.00     0.191 C 
ENDROOT
BRANCH   1  18
HETATM   18  O1  UNL     1     -30.465  79.965   7.996  1.00  0.00    -0.352 OA
HETATM   19  C1  UNL     1     -31.255  81.117   7.878  1.00  0.00     0.210 C 
ENDBRANCH   1  18
BRANCH   7  20
HETATM   20  O3  UNL     1     -27.916  80.679   8.831  1.00  0.00    -0.351 OA
HETATM   21  C10 UNL     1     -27.974  82.073   9.160  1.00  0.00     0.210 C 
ENDBRANCH   7  20
BRANCH   4  22
HETATM   22  O2  UNL     1     -31.091  77.307  11.871  1.00  0.00    -0.355 OA
HETATM   23  C6  UNL     1     -32.168  77.820  12.680  1.00  0.00     0.210 C 
ENDBRANCH   4  22
BRANCH  17  24
HETATM   24  O8  UNL     1     -29.351  76.877  13.308  1.00  0.00    -0.383 OA
HETATM   25  C18 UNL     1     -28.716  75.753  13.774  1.00  0.00     0.202 C 
ENDBRANCH  17  24
BRANCH  16  26
HETATM   26  O7  UNL     1     -29.312  79.272  14.556  1.00  0.00    -0.390 OA
ATOM     27  H7  UNL     1     -29.746  78.527  14.954  1.00  0.00     0.210 HD
ENDBRANCH  16  26
TORSDOF 5
ENDMDL
MODEL 2
REMARK VINA RESULT: -4.744814699      2.030      5.223
REMARK  5 active torsions:
REMARK  status: ('A' for Active; 'I' for Inactive)
REMARK    1  A    between atoms: O1_2  and  C2_3 
REMARK    2  A    between atoms: C5_6  and  O2_7 
REMARK    3  A    between atoms: C9_11  and  O3_12 
REMARK    4  A    between atoms: C16_22  and  O7_23 
REMARK    5  A    between atoms: C17_25  and  O8_26 
ROOT
HETATM    1  C2  UNL     1     -32.775  76.300  11.302  1.00  0.00     0.113 A 
HETATM    2  C3  UNL     1     -32.950  76.310   9.934  1.00  0.00     0.008 A 
HETATM    3  C4  UNL     1     -33.748  75.261   9.274  1.00  0.00     0.054 C 
HETATM    4  C5  UNL     1     -32.383  77.305   9.130  1.00  0.00     0.088 A 
HETATM    5  C7  UNL     1     -31.653  78.271   9.724  1.00  0.00     0.043 A 
HETATM    6  C8  UNL     1     -31.469  78.265  11.124  1.00  0.00     0.120 A 
HETATM    7  C9  UNL     1     -32.025  77.287  11.918  1.00  0.00     0.136 A 
HETATM    8  O4  UNL     1     -30.740  79.192  11.873  1.00  0.00    -0.314 OA
HETATM    9  C11 UNL     1     -29.764  80.072  11.318  1.00  0.00     0.301 C 
HETATM   10  O5  UNL     1     -28.759  80.209  12.275  1.00  0.00    -0.323 OA
HETATM   11  C12 UNL     1     -27.656  80.593  11.521  1.00  0.00     0.160 C 
HETATM   12  C13 UNL     1     -26.386  80.057  12.132  1.00  0.00     0.078 C 
HETATM   13  C14 UNL     1     -27.643  82.123  11.536  1.00  0.00     0.078 C 
HETATM   14  O6  UNL     1     -27.787  80.078  10.257  1.00  0.00    -0.343 OA
HETATM   15  C15 UNL     1     -29.000  79.396  10.198  1.00  0.00     0.212 C 
HETATM   16  C16 UNL     1     -29.629  79.473   8.861  1.00  0.00     0.185 C 
HETATM   17  C17 UNL     1     -31.126  79.319   8.845  1.00  0.00     0.191 C 
ENDROOT
BRANCH   1  18
HETATM   18  O1  UNL     1     -33.350  75.300  12.071  1.00  0.00    -0.352 OA
HETATM   19  C1  UNL     1     -34.569  75.425  12.753  1.00  0.00     0.210 C 
ENDBRANCH   1  18
BRANCH   7  20
HETATM   20  O3  UNL     1     -31.841  77.288  13.286  1.00  0.00    -0.351 OA
HETATM   21  C10 UNL     1     -30.779  76.464  13.784  1.00  0.00     0.210 C 
ENDBRANCH   7  20
BRANCH   4  22
HETATM   22  O2  UNL     1     -32.615  77.223   7.800  1.00  0.00    -0.355 OA
HETATM   23  C6  UNL     1     -31.962  76.242   6.970  1.00  0.00     0.210 C 
ENDBRANCH   4  22
BRANCH  17  24
HETATM   24  O8  UNL     1     -31.622  79.283   7.582  1.00  0.00    -0.383 OA
HETATM   25  C18 UNL     1     -31.859  80.499   6.991  1.00  0.00     0.202 C 
ENDBRANCH  17  24
BRANCH  16  26
HETATM   26  O7  UNL     1     -29.075  78.507   8.036  1.00  0.00    -0.390 OA
ATOM     27  H7  UNL     1     -29.767  78.071   7.552  1.00  0.00     0.210 HD
ENDBRANCH  16  26
TORSDOF 5
ENDMDL
MODEL 3
REMARK VINA RESULT: -4.629767726      1.571      4.621
REMARK  5 active torsions:
REMARK  status: ('A' for Active; 'I' for Inactive)
REMARK    1  A    between atoms: O1_2  and  C2_3 
REMARK    2  A    between atoms: C5_6  and  O2_7 
REMARK    3  A    between atoms: C9_11  and  O3_12 
REMARK    4  A    between atoms: C16_22  and  O7_23 
REMARK    5  A    between atoms: C17_25  and  O8_26 
ROOT
HETATM    1  C2  UNL     1     -32.074  77.264  11.138  1.00  0.00     0.113 A 
HETATM    2  C3  UNL     1     -32.152  77.523   9.786  1.00  0.00     0.008 A 
HETATM    3  C4  UNL     1     -32.968  76.666   8.906  1.00  0.00     0.054 C 
HETATM    4  C5  UNL     1     -31.468  78.596   9.205  1.00  0.00     0.088 A 
HETATM    5  C7  UNL     1     -30.720  79.387  10.000  1.00  0.00     0.043 A 
HETATM    6  C8  UNL     1     -30.636  79.126  11.386  1.00  0.00     0.120 A 
HETATM    7  C9  UNL     1     -31.307  78.071  11.961  1.00  0.00     0.136 A 
HETATM    8  O4  UNL     1     -29.903  79.854  12.327  1.00  0.00    -0.314 OA
HETATM    9  C11 UNL     1     -28.836  80.740  11.993  1.00  0.00     0.301 C 
HETATM   10  O5  UNL     1     -27.894  80.635  13.015  1.00  0.00    -0.323 OA
HETATM   11  C12 UNL     1     -26.719  81.059  12.406  1.00  0.00     0.160 C 
HETATM   12  C13 UNL     1     -25.532  80.331  12.984  1.00  0.00     0.078 C 
HETATM   13  C14 UNL     1     -26.609  82.558  12.691  1.00  0.00     0.078 C 
HETATM   14  O6  UNL     1     -26.794  80.780  11.065  1.00  0.00    -0.343 OA
HETATM   15  C15 UNL     1     -28.041  80.211  10.817  1.00  0.00     0.212 C 
HETATM   16  C16 UNL     1     -28.569  80.565   9.481  1.00  0.00     0.185 C 
HETATM   17  C17 UNL     1     -30.068  80.528   9.352  1.00  0.00     0.191 C 
ENDROOT
BRANCH   1  18
HETATM   18  O1  UNL     1     -32.764  76.193  11.684  1.00  0.00    -0.352 OA
HETATM   19  C1  UNL     1     -34.022  76.287  12.295  1.00  0.00     0.210 C 
ENDBRANCH   1  18
BRANCH   7  20
HETATM   20  O3  UNL     1     -31.219  77.823  13.316  1.00  0.00    -0.351 OA
HETATM   21  C10 UNL     1     -30.260  76.836  13.720  1.00  0.00     0.210 C 
ENDBRANCH   7  20
BRANCH   4  22
HETATM   22  O2  UNL     1     -31.611  78.761   7.870  1.00  0.00    -0.355 OA
HETATM   23  C6  UNL     1     -30.869  77.973   6.918  1.00  0.00     0.210 C 
ENDBRANCH   4  22
BRANCH  17  24
HETATM   24  O8  UNL     1     -30.476  80.748   8.076  1.00  0.00    -0.383 OA
HETATM   25  C18 UNL     1     -30.909  82.018   7.790  1.00  0.00     0.202 C 
ENDBRANCH  17  24
BRANCH  16  26
HETATM   26  O7  UNL     1     -28.022  79.716   8.531  1.00  0.00    -0.390 OA
ATOM     27  H7  UNL     1     -27.900  80.191   7.717  1.00  0.00     0.210 HD
ENDBRANCH  16  26
TORSDOF 5
ENDMDL
MODEL 4
REMARK VINA RESULT: -4.528845796      3.609      6.545
REMARK  5 active torsions:
REMARK  status: ('A' for Active; 'I' for Inactive)
REMARK    1  A    between atoms: O1_2  and  C2_3 
REMARK    2  A    between atoms: C5_6  and  O2_7 
REMARK    3  A    between atoms: C9_11  and  O3_12 
REMARK    4  A    between atoms: C16_22  and  O7_23 
REMARK    5  A    between atoms: C17_25  and  O8_26 
ROOT
HETATM    1  C2  UNL     1     -32.372  76.538   7.905  1.00  0.00     0.113 A 
HETATM    2  C3  UNL     1     -31.705  77.724   8.127  1.00  0.00     0.008 A 
HETATM    3  C4  UNL     1     -31.065  78.443   7.010  1.00  0.00     0.054 C 
HETATM    4  C5  UNL     1     -31.611  78.284   9.406  1.00  0.00     0.088 A 
HETATM    5  C7  UNL     1     -32.195  77.636  10.435  1.00  0.00     0.043 A 
HETATM    6  C8  UNL     1     -32.878  76.420  10.213  1.00  0.00     0.120 A 
HETATM    7  C9  UNL     1     -32.971  75.866   8.956  1.00  0.00     0.136 A 
HETATM    8  O4  UNL     1     -33.524  75.641  11.176  1.00  0.00    -0.314 OA
HETATM    9  C11 UNL     1     -33.284  75.746  12.578  1.00  0.00     0.301 C 
HETATM   10  O5  UNL     1     -33.390  74.458  13.101  1.00  0.00    -0.323 OA
HETATM   11  C12 UNL     1     -32.651  74.532  14.276  1.00  0.00     0.160 C 
HETATM   12  C13 UNL     1     -31.989  73.209  14.568  1.00  0.00     0.078 C 
HETATM   13  C14 UNL     1     -33.647  74.880  15.383  1.00  0.00     0.078 C 
HETATM   14  O6  UNL     1     -31.677  75.486  14.122  1.00  0.00    -0.343 OA
HETATM   15  C15 UNL     1     -31.825  76.047  12.856  1.00  0.00     0.212 C 
HETATM   16  C16 UNL     1     -31.453  77.479  12.824  1.00  0.00     0.185 C 
HETATM   17  C17 UNL     1     -32.114  78.291  11.743  1.00  0.00     0.191 C 
ENDROOT
BRANCH   1  18
HETATM   18  O1  UNL     1     -32.447  76.009   6.626  1.00  0.00    -0.352 OA
HETATM   19  C1  UNL     1     -31.477  75.173   6.055  1.00  0.00     0.210 C 
ENDBRANCH   1  18
BRANCH   7  20
HETATM   20  O3  UNL     1     -33.641  74.677   8.748  1.00  0.00    -0.351 OA
HETATM   21  C10 UNL     1     -32.854  73.482   8.832  1.00  0.00     0.210 C 
ENDBRANCH   7  20
BRANCH   4  22
HETATM   22  O2  UNL     1     -30.934  79.450   9.515  1.00  0.00    -0.355 OA
HETATM   23  C6  UNL     1     -29.493  79.500   9.511  1.00  0.00     0.210 C 
ENDBRANCH   4  22
BRANCH  17  24
HETATM   24  O8  UNL     1     -31.641  79.562  11.698  1.00  0.00    -0.383 OA
HETATM   25  C18 UNL     1     -32.198  80.447  12.587  1.00  0.00     0.202 C 
ENDBRANCH  17  24
BRANCH  16  26
HETATM   26  O7  UNL     1     -30.078  77.593  12.686  1.00  0.00    -0.390 OA
ATOM     27  H7  UNL     1     -29.846  77.506  11.769  1.00  0.00     0.210 HD
ENDBRANCH  16  26
TORSDOF 5
ENDMDL
MODEL 5
REMARK VINA RESULT: -4.478780755      5.311      9.018
REMARK  5 active torsions:
REMARK  status: ('A' for Active; 'I' for Inactive)
REMARK    1  A    between atoms: O1_2  and  C2_3 
REMARK    2  A    between atoms: C5_6  and  O2_7 
REMARK    3  A    between atoms: C9_11  and  O3_12 
REMARK    4  A    between atoms: C16_22  and  O7_23 
REMARK    5  A    between atoms: C17_25  and  O8_26 
ROOT
HETATM    1  C2  UNL     1     -37.002  81.329   5.616  1.00  0.00     0.113 A 
HETATM    2  C3  UNL     1     -36.550  82.628   5.527  1.00  0.00     0.008 A 
HETATM    3  C4  UNL     1     -37.332  83.645   4.800  1.00  0.00     0.054 C 
HETATM    4  C5  UNL     1     -35.347  83.027   6.119  1.00  0.00     0.088 A 
HETATM    5  C7  UNL     1     -34.624  82.107   6.788  1.00  0.00     0.043 A 
HETATM    6  C8  UNL     1     -35.082  80.774   6.880  1.00  0.00     0.120 A 
HETATM    7  C9  UNL     1     -36.265  80.378   6.299  1.00  0.00     0.136 A 
HETATM    8  O4  UNL     1     -34.443  79.718   7.534  1.00  0.00    -0.314 OA
HETATM    9  C11 UNL     1     -33.061  79.721   7.892  1.00  0.00     0.301 C 
HETATM   10  O5  UNL     1     -32.606  78.412   7.742  1.00  0.00    -0.323 OA
HETATM   11  C12 UNL     1     -31.236  78.571   7.573  1.00  0.00     0.160 C 
HETATM   12  C13 UNL     1     -30.688  77.502   6.663  1.00  0.00     0.078 C 
HETATM   13  C14 UNL     1     -30.618  78.446   8.966  1.00  0.00     0.078 C 
HETATM   14  O6  UNL     1     -31.004  79.796   7.000  1.00  0.00    -0.343 OA
HETATM   15  C15 UNL     1     -32.233  80.432   6.842  1.00  0.00     0.212 C 
HETATM   16  C16 UNL     1     -32.135  81.901   6.995  1.00  0.00     0.185 C 
HETATM   17  C17 UNL     1     -33.400  82.587   7.434  1.00  0.00     0.191 C 
ENDROOT
BRANCH   1  18
HETATM   18  O1  UNL     1     -38.199  80.965   5.019  1.00  0.00    -0.352 OA
HETATM   19  C1  UNL     1     -39.449  81.013   5.653  1.00  0.00     0.210 C 
ENDBRANCH   1  18
BRANCH   7  20
HETATM   20  O3  UNL     1     -36.705  79.073   6.394  1.00  0.00    -0.351 OA
HETATM   21  C10 UNL     1     -37.377  78.716   7.609  1.00  0.00     0.210 C 
ENDBRANCH   7  20
BRANCH   4  22
HETATM   22  O2  UNL     1     -34.994  84.325   5.972  1.00  0.00    -0.355 OA
HETATM   23  C6  UNL     1     -34.395  84.823   4.759  1.00  0.00     0.210 C 
ENDBRANCH   4  22
BRANCH  17  24
HETATM   24  O8  UNL     1     -33.271  83.938   7.441  1.00  0.00    -0.383 OA
HETATM   25  C18 UNL     1     -32.673  84.483   8.550  1.00  0.00     0.202 C 
ENDBRANCH  17  24
BRANCH  16  26
HETATM   26  O7  UNL     1     -31.719  82.461   5.797  1.00  0.00    -0.390 OA
ATOM     27  H7  UNL     1     -32.153  83.297   5.674  1.00  0.00     0.210 HD
ENDBRANCH  16  26
TORSDOF 5
ENDMDL
