MODEL 1
REMARK VINA RESULT: -7.220874562      0.000      0.000
REMARK  5 active torsions:
REMARK  status: ('A' for Active; 'I' for Inactive)
REMARK    1  A    between atoms: C1_2  and  C2_4 
REMARK    2  A    between atoms: N1_8  and  C6_9 
REMARK    3  A    between atoms: C7_13  and  S1_14 
REMARK    4  A    between atoms: S1_14  and  C8_15 
REMARK    5  A    between atoms: C8_15  and  C9_16 
ROOT
HETATM    1  C6  UNL     1     -32.666  76.698   7.703  1.00  0.00     0.165 A 
HETATM    2  N2  UNL     1     -32.061  75.910   6.832  1.00  0.00    -0.269 N 
ATOM      3  H2  UNL     1     -31.653  76.308   5.987  1.00  0.00     0.190 HD
HETATM    4  N3  UNL     1     -31.984  74.657   7.040  1.00  0.00    -0.206 N 
HETATM    5  C7  UNL     1     -31.447  73.570   6.373  1.00  0.00     0.182 A 
HETATM    6  N4  UNL     1     -31.693  72.481   7.117  1.00  0.00    -0.276 N 
ATOM      7  H4  UNL     1     -31.408  71.535   6.865  1.00  0.00     0.189 HD
HETATM    8  N5  UNL     1     -32.349  72.792   8.211  1.00  0.00    -0.276 N 
ATOM      9  H5  UNL     1     -32.661  72.160   8.949  1.00  0.00     0.189 HD
HETATM   10  C14 UNL     1     -32.522  74.150   8.147  1.00  0.00     0.190 A 
HETATM   11  S2  UNL     1     -33.150  75.568   8.888  1.00  0.00    -0.013 SA
ENDROOT
BRANCH   1  12
HETATM   12  N1  UNL     1     -32.873  78.112   7.676  1.00  0.00    -0.359 N 
HETATM   13  C5  UNL     1     -34.164  78.686   7.501  1.00  0.00     0.125 C 
HETATM   14  C4  UNL     1     -34.453  79.817   8.461  1.00  0.00     0.021 C 
HETATM   15  C3  UNL     1     -33.276  80.677   8.775  1.00  0.00     0.019 C 
HETATM   16  C2  UNL     1     -32.064  80.399   7.917  1.00  0.00     0.105 C 
HETATM   17  C15 UNL     1     -31.723  78.952   7.832  1.00  0.00     0.140 C 
BRANCH  16  18
HETATM   18  C1  UNL     1     -32.196  81.077   6.630  1.00  0.00     0.178 C 
HETATM   19  O1  UNL     1     -31.545  80.692   5.635  1.00  0.00    -0.648 OA
HETATM   20  O2  UNL     1     -33.045  82.156   6.496  1.00  0.00    -0.648 OA
ENDBRANCH  16  18
ENDBRANCH   1  12
BRANCH   5  21
HETATM   21  S1  UNL     1     -30.541  73.583   4.859  1.00  0.00    -0.090 SA
BRANCH  21  22
HETATM   22  C8  UNL     1     -29.675  72.107   4.452  1.00  0.00     0.087 C 
BRANCH  22  23
HETATM   23  C9  UNL     1     -28.485  71.700   5.199  1.00  0.00    -0.005 C 
HETATM   24  C10 UNL     1     -27.144  72.189   4.796  1.00  0.00     0.005 C 
HETATM   25  C11 UNL     1     -26.300  71.515   5.921  1.00  0.00     0.000 C 
HETATM   26  C12 UNL     1     -26.829  70.086   5.819  1.00  0.00     0.000 C 
HETATM   27  C13 UNL     1     -28.250  70.200   5.247  1.00  0.00     0.005 C 
ENDBRANCH  22  23
ENDBRANCH  21  22
ENDBRANCH   5  21
TORSDOF 5
ENDMDL
MODEL 2
REMARK VINA RESULT: -7.149984286      1.104      1.799
REMARK  5 active torsions:
REMARK  status: ('A' for Active; 'I' for Inactive)
REMARK    1  A    between atoms: C1_2  and  C2_4 
REMARK    2  A    between atoms: N1_8  and  C6_9 
REMARK    3  A    between atoms: C7_13  and  S1_14 
REMARK    4  A    between atoms: S1_14  and  C8_15 
REMARK    5  A    between atoms: C8_15  and  C9_16 
ROOT
HETATM    1  C6  UNL     1     -32.700  76.743   7.705  1.00  0.00     0.165 A 
HETATM    2  N2  UNL     1     -32.094  75.958   6.833  1.00  0.00    -0.269 N 
ATOM      3  H2  UNL     1     -31.698  76.358   5.982  1.00  0.00     0.190 HD
HETATM    4  N3  UNL     1     -32.000  74.707   7.046  1.00  0.00    -0.206 N 
HETATM    5  C7  UNL     1     -31.456  73.624   6.380  1.00  0.00     0.182 A 
HETATM    6  N4  UNL     1     -31.682  72.536   7.131  1.00  0.00    -0.276 N 
ATOM      7  H4  UNL     1     -31.388  71.592   6.882  1.00  0.00     0.189 HD
HETATM    8  N5  UNL     1     -32.332  72.844   8.230  1.00  0.00    -0.276 N 
ATOM      9  H5  UNL     1     -32.630  72.212   8.973  1.00  0.00     0.189 HD
HETATM   10  C14 UNL     1     -32.522  74.199   8.160  1.00  0.00     0.190 A 
HETATM   11  S2  UNL     1     -33.160  75.613   8.900  1.00  0.00    -0.013 SA
ENDROOT
BRANCH   1  12
HETATM   12  N1  UNL     1     -32.925  78.154   7.674  1.00  0.00    -0.359 N 
HETATM   13  C5  UNL     1     -31.855  79.093   7.649  1.00  0.00     0.125 C 
HETATM   14  C4  UNL     1     -32.050  80.198   6.636  1.00  0.00     0.021 C 
HETATM   15  C3  UNL     1     -33.461  80.652   6.480  1.00  0.00     0.019 C 
HETATM   16  C2  UNL     1     -34.408  80.082   7.511  1.00  0.00     0.105 C 
HETATM   17  C15 UNL     1     -34.285  78.608   7.672  1.00  0.00     0.140 C 
BRANCH  16  18
HETATM   18  C1  UNL     1     -34.316  80.847   8.752  1.00  0.00     0.178 C 
HETATM   19  O1  UNL     1     -34.153  82.086   8.728  1.00  0.00    -0.648 OA
HETATM   20  O2  UNL     1     -34.408  80.208   9.971  1.00  0.00    -0.648 OA
ENDBRANCH  16  18
ENDBRANCH   1  12
BRANCH   5  21
HETATM   21  S1  UNL     1     -30.563  73.641   4.858  1.00  0.00    -0.090 SA
BRANCH  21  22
HETATM   22  C8  UNL     1     -29.709  72.162   4.435  1.00  0.00     0.087 C 
BRANCH  22  23
HETATM   23  C9  UNL     1     -28.530  71.731   5.185  1.00  0.00    -0.005 C 
HETATM   24  C10 UNL     1     -27.176  72.173   4.770  1.00  0.00     0.005 C 
HETATM   25  C11 UNL     1     -26.349  71.492   5.904  1.00  0.00     0.000 C 
HETATM   26  C12 UNL     1     -26.920  70.078   5.826  1.00  0.00     0.000 C 
HETATM   27  C13 UNL     1     -28.339  70.226   5.256  1.00  0.00     0.005 C 
ENDBRANCH  22  23
ENDBRANCH  21  22
ENDBRANCH   5  21
TORSDOF 5
ENDMDL
MODEL 3
REMARK VINA RESULT: -7.129723408      1.200      1.984
REMARK  5 active torsions:
REMARK  status: ('A' for Active; 'I' for Inactive)
REMARK    1  A    between atoms: C1_2  and  C2_4 
REMARK    2  A    between atoms: N1_8  and  C6_9 
REMARK    3  A    between atoms: C7_13  and  S1_14 
REMARK    4  A    between atoms: S1_14  and  C8_15 
REMARK    5  A    between atoms: C8_15  and  C9_16 
ROOT
HETATM    1  C6  UNL     1     -32.688  77.298   7.574  1.00  0.00     0.165 A 
HETATM    2  N2  UNL     1     -32.083  76.472   6.740  1.00  0.00    -0.269 N 
ATOM      3  H2  UNL     1     -31.660  76.835   5.886  1.00  0.00     0.190 HD
HETATM    4  N3  UNL     1     -32.025  75.226   6.994  1.00  0.00    -0.206 N 
HETATM    5  C7  UNL     1     -31.494  74.110   6.373  1.00  0.00     0.182 A 
HETATM    6  N4  UNL     1     -31.763  73.052   7.152  1.00  0.00    -0.276 N 
ATOM      7  H4  UNL     1     -31.487  72.093   6.938  1.00  0.00     0.189 HD
HETATM    8  N5  UNL     1     -32.427  73.409   8.227  1.00  0.00    -0.276 N 
ATOM      9  H5  UNL     1     -32.756  72.809   8.982  1.00  0.00     0.189 HD
HETATM   10  C14 UNL     1     -32.582  74.766   8.111  1.00  0.00     0.190 A 
HETATM   11  S2  UNL     1     -33.201  76.218   8.793  1.00  0.00    -0.013 SA
ENDROOT
BRANCH   1  12
HETATM   12  N1  UNL     1     -32.877  78.713   7.495  1.00  0.00    -0.359 N 
HETATM   13  C5  UNL     1     -31.796  79.612   7.273  1.00  0.00     0.125 C 
HETATM   14  C4  UNL     1     -32.097  80.669   6.236  1.00  0.00     0.021 C 
HETATM   15  C3  UNL     1     -33.504  81.162   6.246  1.00  0.00     0.019 C 
HETATM   16  C2  UNL     1     -34.317  80.679   7.425  1.00  0.00     0.105 C 
HETATM   17  C15 UNL     1     -34.212  79.211   7.650  1.00  0.00     0.140 C 
BRANCH  16  18
HETATM   18  C1  UNL     1     -34.036  81.503   8.598  1.00  0.00     0.178 C 
HETATM   19  O1  UNL     1     -34.045  81.007   9.744  1.00  0.00    -0.648 OA
HETATM   20  O2  UNL     1     -33.757  82.846   8.452  1.00  0.00    -0.648 OA
ENDBRANCH  16  18
ENDBRANCH   1  12
BRANCH   5  21
HETATM   21  S1  UNL     1     -30.570  74.057   4.871  1.00  0.00    -0.090 SA
BRANCH  21  22
HETATM   22  C8  UNL     1     -30.287  72.464   4.181  1.00  0.00     0.087 C 
BRANCH  22  23
HETATM   23  C9  UNL     1     -29.142  71.654   4.597  1.00  0.00    -0.005 C 
HETATM   24  C10 UNL     1     -29.164  70.938   5.895  1.00  0.00     0.005 C 
HETATM   25  C11 UNL     1     -27.779  70.228   5.796  1.00  0.00     0.000 C 
HETATM   26  C12 UNL     1     -26.905  71.421   5.416  1.00  0.00     0.000 C 
HETATM   27  C13 UNL     1     -27.832  72.415   4.702  1.00  0.00     0.005 C 
ENDBRANCH  22  23
ENDBRANCH  21  22
ENDBRANCH   5  21
TORSDOF 5
ENDMDL
MODEL 4
REMARK VINA RESULT: -7.094978574      0.650      1.238
REMARK  5 active torsions:
REMARK  status: ('A' for Active; 'I' for Inactive)
REMARK    1  A    between atoms: C1_2  and  C2_4 
REMARK    2  A    between atoms: N1_8  and  C6_9 
REMARK    3  A    between atoms: C7_13  and  S1_14 
REMARK    4  A    between atoms: S1_14  and  C8_15 
REMARK    5  A    between atoms: C8_15  and  C9_16 
ROOT
HETATM    1  C6  UNL     1     -32.747  77.232   7.808  1.00  0.00     0.165 A 
HETATM    2  N2  UNL     1     -32.137  76.457   6.928  1.00  0.00    -0.269 N 
ATOM      3  H2  UNL     1     -31.721  76.870   6.094  1.00  0.00     0.190 HD
HETATM    4  N3  UNL     1     -32.066  75.201   7.115  1.00  0.00    -0.206 N 
HETATM    5  C7  UNL     1     -31.526  74.125   6.433  1.00  0.00     0.182 A 
HETATM    6  N4  UNL     1     -31.782  73.024   7.154  1.00  0.00    -0.276 N 
ATOM      7  H4  UNL     1     -31.497  72.081   6.888  1.00  0.00     0.189 HD
HETATM    8  N5  UNL     1     -32.447  73.316   8.248  1.00  0.00    -0.276 N 
ATOM      9  H5  UNL     1     -32.767  72.672   8.971  1.00  0.00     0.189 HD
HETATM   10  C14 UNL     1     -32.615  74.675   8.207  1.00  0.00     0.190 A 
HETATM   11  S2  UNL     1     -33.245  76.082   8.968  1.00  0.00    -0.013 SA
ENDROOT
BRANCH   1  12
HETATM   12  N1  UNL     1     -32.951  78.646   7.806  1.00  0.00    -0.359 N 
HETATM   13  C5  UNL     1     -34.230  79.229   7.576  1.00  0.00     0.125 C 
HETATM   14  C4  UNL     1     -34.567  80.337   8.546  1.00  0.00     0.021 C 
HETATM   15  C3  UNL     1     -33.408  81.185   8.944  1.00  0.00     0.019 C 
HETATM   16  C2  UNL     1     -32.152  80.924   8.146  1.00  0.00     0.105 C 
HETATM   17  C15 UNL     1     -31.809  79.479   8.044  1.00  0.00     0.140 C 
BRANCH  16  18
HETATM   18  C1  UNL     1     -32.213  81.634   6.871  1.00  0.00     0.178 C 
HETATM   19  O1  UNL     1     -32.794  82.737   6.781  1.00  0.00    -0.648 OA
HETATM   20  O2  UNL     1     -31.626  81.094   5.745  1.00  0.00    -0.648 OA
ENDBRANCH  16  18
ENDBRANCH   1  12
BRANCH   5  21
HETATM   21  S1  UNL     1     -30.606  74.163   4.928  1.00  0.00    -0.090 SA
BRANCH  21  22
HETATM   22  C8  UNL     1     -30.351  72.618   4.126  1.00  0.00     0.087 C 
BRANCH  22  23
HETATM   23  C9  UNL     1     -29.238  71.747   4.504  1.00  0.00    -0.005 C 
HETATM   24  C10 UNL     1     -29.309  70.938   5.745  1.00  0.00     0.005 C 
HETATM   25  C11 UNL     1     -27.942  70.197   5.622  1.00  0.00     0.000 C 
HETATM   26  C12 UNL     1     -27.027  71.389   5.349  1.00  0.00     0.000 C 
HETATM   27  C13 UNL     1     -27.911  72.460   4.692  1.00  0.00     0.005 C 
ENDBRANCH  22  23
ENDBRANCH  21  22
ENDBRANCH   5  21
TORSDOF 5
ENDMDL
MODEL 5
REMARK VINA RESULT: -6.897430586      3.891      5.290
REMARK  5 active torsions:
REMARK  status: ('A' for Active; 'I' for Inactive)
REMARK    1  A    between atoms: C1_2  and  C2_4 
REMARK    2  A    between atoms: N1_8  and  C6_9 
REMARK    3  A    between atoms: C7_13  and  S1_14 
REMARK    4  A    between atoms: S1_14  and  C8_15 
REMARK    5  A    between atoms: C8_15  and  C9_16 
ROOT
HETATM    1  C6  UNL     1     -30.923  79.342   9.470  1.00  0.00     0.165 A 
HETATM    2  N2  UNL     1     -31.264  78.199   8.903  1.00  0.00    -0.269 N 
ATOM      3  H2  UNL     1     -30.574  77.454   8.811  1.00  0.00     0.190 HD
HETATM    4  N3  UNL     1     -32.448  78.022   8.470  1.00  0.00    -0.206 N 
HETATM    5  C7  UNL     1     -33.133  76.995   7.845  1.00  0.00     0.182 A 
HETATM    6  N4  UNL     1     -34.387  77.421   7.634  1.00  0.00    -0.276 N 
ATOM      7  H4  UNL     1     -35.117  76.866   7.187  1.00  0.00     0.189 HD
HETATM    8  N5  UNL     1     -34.555  78.645   8.079  1.00  0.00    -0.276 N 
ATOM      9  H5  UNL     1     -35.406  79.206   8.047  1.00  0.00     0.189 HD
HETATM   10  C14 UNL     1     -33.337  79.003   8.596  1.00  0.00     0.190 A 
HETATM   11  S2  UNL     1     -32.391  80.208   9.374  1.00  0.00    -0.013 SA
ENDROOT
BRANCH   1  12
HETATM   12  N1  UNL     1     -29.670  79.761  10.018  1.00  0.00    -0.359 N 
HETATM   13  C5  UNL     1     -28.485  79.833   9.232  1.00  0.00     0.125 C 
HETATM   14  C4  UNL     1     -27.700  81.106   9.446  1.00  0.00     0.021 C 
HETATM   15  C3  UNL     1     -27.712  81.612  10.848  1.00  0.00     0.019 C 
HETATM   16  C2  UNL     1     -28.323  80.653  11.843  1.00  0.00     0.105 C 
HETATM   17  C15 UNL     1     -29.640  80.112  11.407  1.00  0.00     0.140 C 
BRANCH  16  18
HETATM   18  C1  UNL     1     -27.342  79.644  12.234  1.00  0.00     0.178 C 
HETATM   19  O1  UNL     1     -27.708  78.521  12.642  1.00  0.00    -0.648 OA
HETATM   20  O2  UNL     1     -25.993  79.920  12.155  1.00  0.00    -0.648 OA
ENDBRANCH  16  18
ENDBRANCH   1  12
BRANCH   5  21
HETATM   21  S1  UNL     1     -32.524  75.388   7.445  1.00  0.00    -0.090 SA
BRANCH  21  22
HETATM   22  C8  UNL     1     -31.696  75.226   5.901  1.00  0.00     0.087 C 
BRANCH  22  23
HETATM   23  C9  UNL     1     -30.812  74.092   5.635  1.00  0.00    -0.005 C 
HETATM   24  C10 UNL     1     -30.583  73.631   4.244  1.00  0.00     0.005 C 
HETATM   25  C11 UNL     1     -29.564  72.488   4.539  1.00  0.00     0.000 C 
HETATM   26  C12 UNL     1     -30.319  71.749   5.642  1.00  0.00     0.000 C 
HETATM   27  C13 UNL     1     -31.223  72.795   6.311  1.00  0.00     0.005 C 
ENDBRANCH  22  23
ENDBRANCH  21  22
ENDBRANCH   5  21
TORSDOF 5
ENDMDL
