MODEL 1
REMARK VINA RESULT: -5.784740327      0.000      0.000
REMARK  7 active torsions:
REMARK  status: ('A' for Active; 'I' for Inactive)
REMARK    1  A    between atoms: C2_2  and  O1_3 
REMARK    2  A    between atoms: O1_3  and  C3_4 
REMARK    3  A    between atoms: C3_4  and  C4_6 
REMARK    4  A    between atoms: C5_8  and  N1_9 
REMARK    5  A    between atoms: C12_18  and  N3_19 
REMARK    6  A    between atoms: N3_19  and  C13_21 
REMARK    7  A    between atoms: C13_21  and  C14_22 
ROOT
HETATM    1  C4  UNL     1     -33.823  75.747   9.570  1.00  0.00     0.111 A 
HETATM    2  S1  UNL     1     -33.896  77.419   9.269  1.00  0.00    -0.046 SA
HETATM    3  C5  UNL     1     -33.028  77.848   7.843  1.00  0.00     0.149 A 
HETATM    4  N2  UNL     1     -32.466  76.837   7.240  1.00  0.00    -0.321 N 
ATOM      5  H2  UNL     1     -31.948  77.077   6.395  1.00  0.00     0.169 HD
HETATM    6  C12 UNL     1     -32.460  75.534   7.552  1.00  0.00     0.129 A 
HETATM    7  C16 UNL     1     -33.098  75.017   8.650  1.00  0.00     0.113 A 
HETATM    8  N4  UNL     1     -33.053  73.592   8.934  1.00  0.00    -0.097 NA
ENDROOT
BRANCH   3   9
HETATM    9  N1  UNL     1     -32.970  79.201   7.422  1.00  0.00    -0.361 N 
HETATM   10  C6  UNL     1     -34.217  79.913   7.245  1.00  0.00     0.125 C 
HETATM   11  C7  UNL     1     -33.869  81.394   7.217  1.00  0.00     0.024 C 
HETATM   12  C8  UNL     1     -32.987  81.679   6.047  1.00  0.00    -0.015 C 
HETATM   13  C9  UNL     1     -32.337  83.029   6.266  1.00  0.00     0.010 C 
HETATM   14  C10 UNL     1     -31.905  80.657   5.871  1.00  0.00     0.024 C 
HETATM   15  C11 UNL     1     -31.735  79.891   7.163  1.00  0.00     0.125 C 
ENDBRANCH   3   9
BRANCH   1  16
HETATM   16  C3  UNL     1     -34.477  75.133  10.718  1.00  0.00     0.302 C 
HETATM   17  O2  UNL     1     -33.881  75.104  11.820  1.00  0.00    -0.259 OA
BRANCH  16  18
HETATM   18  O1  UNL     1     -35.739  74.574  10.645  1.00  0.00    -0.317 OA
BRANCH  18  19
HETATM   19  C2  UNL     1     -36.867  75.176  11.271  1.00  0.00     0.174 C 
HETATM   20  C1  UNL     1     -37.477  76.147  10.284  1.00  0.00     0.034 C 
ENDBRANCH  18  19
ENDBRANCH  16  18
ENDBRANCH   1  16
BRANCH   6  21
HETATM   21  N3  UNL     1     -31.798  74.801   6.725  1.00  0.00    -0.373 N 
ATOM     22  H3  UNL     1     -31.853  73.801   6.915  1.00  0.00     0.161 HD
BRANCH  21  23
HETATM   23  C13 UNL     1     -31.015  75.134   5.612  1.00  0.00     0.137 C 
BRANCH  23  24
HETATM   24  C14 UNL     1     -30.853  73.846   4.771  1.00  0.00     0.072 C 
HETATM   25  C15 UNL     1     -30.675  72.684   5.696  1.00  0.00     0.024 C 
HETATM   26  S2  UNL     1     -29.356  74.040   3.760  1.00  0.00    -0.091 SA
ENDBRANCH  23  24
ENDBRANCH  21  23
ENDBRANCH   6  21
TORSDOF 7
ENDMDL
MODEL 2
REMARK VINA RESULT: -5.718605187      1.022      1.748
REMARK  7 active torsions:
REMARK  status: ('A' for Active; 'I' for Inactive)
REMARK    1  A    between atoms: C2_2  and  O1_3 
REMARK    2  A    between atoms: O1_3  and  C3_4 
REMARK    3  A    between atoms: C3_4  and  C4_6 
REMARK    4  A    between atoms: C5_8  and  N1_9 
REMARK    5  A    between atoms: C12_18  and  N3_19 
REMARK    6  A    between atoms: N3_19  and  C13_21 
REMARK    7  A    between atoms: C13_21  and  C14_22 
ROOT
HETATM    1  C4  UNL     1     -33.463  75.649   9.673  1.00  0.00     0.111 A 
HETATM    2  S1  UNL     1     -33.579  77.323   9.399  1.00  0.00    -0.046 SA
HETATM    3  C5  UNL     1     -32.916  77.766   7.870  1.00  0.00     0.149 A 
HETATM    4  N2  UNL     1     -32.443  76.761   7.187  1.00  0.00    -0.321 N 
ATOM      5  H2  UNL     1     -32.046  77.008   6.280  1.00  0.00     0.169 HD
HETATM    6  C12 UNL     1     -32.392  75.455   7.484  1.00  0.00     0.129 A 
HETATM    7  C16 UNL     1     -32.872  74.928   8.656  1.00  0.00     0.113 A 
HETATM    8  N4  UNL     1     -32.787  73.501   8.919  1.00  0.00    -0.097 NA
ENDROOT
BRANCH   3   9
HETATM    9  N1  UNL     1     -32.919  79.122   7.456  1.00  0.00    -0.361 N 
HETATM   10  C6  UNL     1     -34.196  79.783   7.294  1.00  0.00     0.125 C 
HETATM   11  C7  UNL     1     -33.909  81.277   7.272  1.00  0.00     0.024 C 
HETATM   12  C8  UNL     1     -33.051  81.604   6.096  1.00  0.00    -0.015 C 
HETATM   13  C9  UNL     1     -32.455  82.978   6.316  1.00  0.00     0.010 C 
HETATM   14  C10 UNL     1     -31.929  80.629   5.903  1.00  0.00     0.024 C 
HETATM   15  C11 UNL     1     -31.715  79.864   7.190  1.00  0.00     0.125 C 
ENDBRANCH   3   9
BRANCH   1  16
HETATM   16  C3  UNL     1     -33.952  75.025  10.895  1.00  0.00     0.302 C 
HETATM   17  O2  UNL     1     -35.178  74.790  11.016  1.00  0.00    -0.259 OA
BRANCH  16  18
HETATM   18  O1  UNL     1     -33.117  74.676  11.940  1.00  0.00    -0.317 OA
BRANCH  18  19
HETATM   19  C2  UNL     1     -32.936  75.517  13.074  1.00  0.00     0.174 C 
HETATM   20  C1  UNL     1     -31.546  76.107  12.992  1.00  0.00     0.034 C 
ENDBRANCH  18  19
ENDBRANCH  16  18
ENDBRANCH   1  16
BRANCH   6  21
HETATM   21  N3  UNL     1     -31.850  74.730   6.568  1.00  0.00    -0.373 N 
ATOM     22  H3  UNL     1     -32.122  73.747   6.596  1.00  0.00     0.161 HD
BRANCH  21  23
HETATM   23  C13 UNL     1     -30.954  75.051   5.541  1.00  0.00     0.137 C 
BRANCH  23  24
HETATM   24  C14 UNL     1     -30.770  73.776   4.685  1.00  0.00     0.072 C 
HETATM   25  C15 UNL     1     -30.526  72.615   5.595  1.00  0.00     0.024 C 
HETATM   26  S2  UNL     1     -29.309  74.030   3.633  1.00  0.00    -0.091 SA
ENDBRANCH  23  24
ENDBRANCH  21  23
ENDBRANCH   6  21
TORSDOF 7
ENDMDL
MODEL 3
REMARK VINA RESULT: -5.099423597      1.250      2.189
REMARK  7 active torsions:
REMARK  status: ('A' for Active; 'I' for Inactive)
REMARK    1  A    between atoms: C2_2  and  O1_3 
REMARK    2  A    between atoms: O1_3  and  C3_4 
REMARK    3  A    between atoms: C3_4  and  C4_6 
REMARK    4  A    between atoms: C5_8  and  N1_9 
REMARK    5  A    between atoms: C12_18  and  N3_19 
REMARK    6  A    between atoms: N3_19  and  C13_21 
REMARK    7  A    between atoms: C13_21  and  C14_22 
ROOT
HETATM    1  C4  UNL     1     -33.416  75.730   9.878  1.00  0.00     0.111 A 
HETATM    2  S1  UNL     1     -33.542  77.408   9.633  1.00  0.00    -0.046 SA
HETATM    3  C5  UNL     1     -32.980  77.868   8.069  1.00  0.00     0.149 A 
HETATM    4  N2  UNL     1     -32.557  76.869   7.344  1.00  0.00    -0.321 N 
ATOM      5  H2  UNL     1     -32.221  77.127   6.416  1.00  0.00     0.169 HD
HETATM    6  C12 UNL     1     -32.493  75.560   7.621  1.00  0.00     0.129 A 
HETATM    7  C16 UNL     1     -32.897  75.020   8.815  1.00  0.00     0.113 A 
HETATM    8  N4  UNL     1     -32.802  73.589   9.054  1.00  0.00    -0.097 NA
ENDROOT
BRANCH   3   9
HETATM    9  N1  UNL     1     -33.004  79.229   7.673  1.00  0.00    -0.361 N 
HETATM   10  C6  UNL     1     -31.762  79.971   7.709  1.00  0.00     0.125 C 
HETATM   11  C7  UNL     1     -31.977  81.215   6.859  1.00  0.00     0.024 C 
HETATM   12  C8  UNL     1     -33.053  82.054   7.464  1.00  0.00    -0.015 C 
HETATM   13  C9  UNL     1     -33.523  83.042   6.418  1.00  0.00     0.010 C 
HETATM   14  C10 UNL     1     -34.233  81.251   7.919  1.00  0.00     0.024 C 
HETATM   15  C11 UNL     1     -34.201  79.900   7.240  1.00  0.00     0.125 C 
ENDBRANCH   3   9
BRANCH   1  16
HETATM   16  C3  UNL     1     -33.825  75.092  11.122  1.00  0.00     0.302 C 
HETATM   17  O2  UNL     1     -35.036  74.822  11.303  1.00  0.00    -0.259 OA
BRANCH  16  18
HETATM   18  O1  UNL     1     -32.930  74.768  12.124  1.00  0.00    -0.317 OA
BRANCH  18  19
HETATM   19  C2  UNL     1     -32.713  75.616  13.246  1.00  0.00     0.174 C 
HETATM   20  C1  UNL     1     -31.347  75.295  13.808  1.00  0.00     0.034 C 
ENDBRANCH  18  19
ENDBRANCH  16  18
ENDBRANCH   1  16
BRANCH   6  21
HETATM   21  N3  UNL     1     -32.016  74.844   6.662  1.00  0.00    -0.373 N 
ATOM     22  H3  UNL     1     -32.392  73.897   6.619  1.00  0.00     0.161 HD
BRANCH  21  23
HETATM   23  C13 UNL     1     -31.074  75.136   5.668  1.00  0.00     0.137 C 
BRANCH  23  24
HETATM   24  C14 UNL     1     -30.913  73.860   4.808  1.00  0.00     0.072 C 
HETATM   25  C15 UNL     1     -30.738  72.685   5.717  1.00  0.00     0.024 C 
HETATM   26  S2  UNL     1     -29.413  74.067   3.802  1.00  0.00    -0.091 SA
ENDBRANCH  23  24
ENDBRANCH  21  23
ENDBRANCH   6  21
TORSDOF 7
ENDMDL
MODEL 4
REMARK VINA RESULT: -4.882269959      3.237      5.766
REMARK  7 active torsions:
REMARK  status: ('A' for Active; 'I' for Inactive)
REMARK    1  A    between atoms: C2_2  and  O1_3 
REMARK    2  A    between atoms: O1_3  and  C3_4 
REMARK    3  A    between atoms: C3_4  and  C4_6 
REMARK    4  A    between atoms: C5_8  and  N1_9 
REMARK    5  A    between atoms: C12_18  and  N3_19 
REMARK    6  A    between atoms: N3_19  and  C13_21 
REMARK    7  A    between atoms: C13_21  and  C14_22 
ROOT
HETATM    1  C4  UNL     1     -32.850  77.132   8.231  1.00  0.00     0.111 A 
HETATM    2  S1  UNL     1     -31.452  77.948   8.751  1.00  0.00    -0.046 SA
HETATM    3  C5  UNL     1     -31.632  79.659   8.635  1.00  0.00     0.149 A 
HETATM    4  N2  UNL     1     -32.791  80.039   8.174  1.00  0.00    -0.321 N 
ATOM      5  H2  UNL     1     -32.912  81.049   8.100  1.00  0.00     0.169 HD
HETATM    6  C12 UNL     1     -33.850  79.317   7.783  1.00  0.00     0.129 A 
HETATM    7  C16 UNL     1     -33.881  77.946   7.808  1.00  0.00     0.113 A 
HETATM    8  N4  UNL     1     -35.062  77.220   7.370  1.00  0.00    -0.097 NA
ENDROOT
BRANCH   3   9
HETATM    9  N1  UNL     1     -30.572  80.517   9.023  1.00  0.00    -0.361 N 
HETATM   10  C6  UNL     1     -30.547  81.858   8.481  1.00  0.00     0.125 C 
HETATM   11  C7  UNL     1     -29.600  82.662   9.360  1.00  0.00     0.024 C 
HETATM   12  C8  UNL     1     -28.226  82.086   9.272  1.00  0.00    -0.015 C 
HETATM   13  C9  UNL     1     -27.416  82.623  10.432  1.00  0.00     0.010 C 
HETATM   14  C10 UNL     1     -28.216  80.589   9.342  1.00  0.00     0.024 C 
HETATM   15  C11 UNL     1     -29.526  80.114   9.926  1.00  0.00     0.125 C 
ENDBRANCH   3   9
BRANCH   1  16
HETATM   16  C3  UNL     1     -32.949  75.679   8.231  1.00  0.00     0.302 C 
HETATM   17  O2  UNL     1     -33.735  75.117   9.030  1.00  0.00    -0.259 OA
BRANCH  16  18
HETATM   18  O1  UNL     1     -32.206  74.881   7.380  1.00  0.00    -0.317 OA
BRANCH  18  19
HETATM   19  C2  UNL     1     -31.689  75.370   6.147  1.00  0.00     0.174 C 
HETATM   20  C1  UNL     1     -31.035  74.210   5.431  1.00  0.00     0.034 C 
ENDBRANCH  18  19
ENDBRANCH  16  18
ENDBRANCH   1  16
BRANCH   6  21
HETATM   21  N3  UNL     1     -34.847  80.026   7.378  1.00  0.00    -0.373 N 
ATOM     22  H3  UNL     1     -35.661  79.992   7.991  1.00  0.00     0.161 HD
BRANCH  21  23
HETATM   23  C13 UNL     1     -35.010  80.834   6.246  1.00  0.00     0.137 C 
BRANCH  23  24
HETATM   24  C14 UNL     1     -36.529  80.930   5.973  1.00  0.00     0.072 C 
HETATM   25  C15 UNL     1     -36.881  79.984   4.868  1.00  0.00     0.024 C 
HETATM   26  S2  UNL     1     -36.882  82.631   5.439  1.00  0.00    -0.091 SA
ENDBRANCH  23  24
ENDBRANCH  21  23
ENDBRANCH   6  21
TORSDOF 7
ENDMDL
MODEL 5
REMARK VINA RESULT: -4.827896529      3.035      5.877
REMARK  7 active torsions:
REMARK  status: ('A' for Active; 'I' for Inactive)
REMARK    1  A    between atoms: C2_2  and  O1_3 
REMARK    2  A    between atoms: O1_3  and  C3_4 
REMARK    3  A    between atoms: C3_4  and  C4_6 
REMARK    4  A    between atoms: C5_8  and  N1_9 
REMARK    5  A    between atoms: C12_18  and  N3_19 
REMARK    6  A    between atoms: N3_19  and  C13_21 
REMARK    7  A    between atoms: C13_21  and  C14_22 
ROOT
HETATM    1  C4  UNL     1     -31.468  78.303   7.910  1.00  0.00     0.111 A 
HETATM    2  S1  UNL     1     -32.811  78.128   8.937  1.00  0.00    -0.046 SA
HETATM    3  C5  UNL     1     -33.631  76.636   8.666  1.00  0.00     0.149 A 
HETATM    4  N2  UNL     1     -33.095  75.900   7.733  1.00  0.00    -0.321 N 
ATOM      5  H2  UNL     1     -33.570  75.013   7.562  1.00  0.00     0.169 HD
HETATM    6  C12 UNL     1     -32.020  76.118   6.963  1.00  0.00     0.129 A 
HETATM    7  C16 UNL     1     -31.251  77.251   7.044  1.00  0.00     0.113 A 
HETATM    8  N4  UNL     1     -30.096  77.429   6.179  1.00  0.00    -0.097 NA
ENDROOT
BRANCH   3   9
HETATM    9  N1  UNL     1     -34.780  76.304   9.427  1.00  0.00    -0.361 N 
HETATM   10  C6  UNL     1     -36.002  77.035   9.171  1.00  0.00     0.125 C 
HETATM   11  C7  UNL     1     -37.131  76.219   9.784  1.00  0.00     0.024 C 
HETATM   12  C8  UNL     1     -36.934  76.122  11.260  1.00  0.00    -0.015 C 
HETATM   13  C9  UNL     1     -37.806  74.999  11.779  1.00  0.00     0.010 C 
HETATM   14  C10 UNL     1     -35.514  75.831  11.641  1.00  0.00     0.024 C 
HETATM   15  C11 UNL     1     -34.784  75.279  10.437  1.00  0.00     0.125 C 
ENDBRANCH   3   9
BRANCH   1  16
HETATM   16  C3  UNL     1     -30.610  79.480   7.944  1.00  0.00     0.302 C 
HETATM   17  O2  UNL     1     -30.996  80.536   7.389  1.00  0.00    -0.259 OA
BRANCH  16  18
HETATM   18  O1  UNL     1     -29.375  79.486   8.565  1.00  0.00    -0.317 OA
BRANCH  18  19
HETATM   19  C2  UNL     1     -29.072  80.377   9.634  1.00  0.00     0.174 C 
HETATM   20  C1  UNL     1     -27.574  80.577   9.654  1.00  0.00     0.034 C 
ENDBRANCH  18  19
ENDBRANCH  16  18
ENDBRANCH   1  16
BRANCH   6  21
HETATM   21  N3  UNL     1     -31.768  75.166   6.133  1.00  0.00    -0.373 N 
ATOM     22  H3  UNL     1     -31.978  75.392   5.161  1.00  0.00     0.161 HD
BRANCH  21  23
HETATM   23  C13 UNL     1     -31.256  73.877   6.328  1.00  0.00     0.137 C 
BRANCH  23  24
HETATM   24  C14 UNL     1     -30.817  73.350   4.941  1.00  0.00     0.072 C 
HETATM   25  C15 UNL     1     -30.061  72.073   5.128  1.00  0.00     0.024 C 
HETATM   26  S2  UNL     1     -29.715  74.596   4.208  1.00  0.00    -0.091 SA
ENDBRANCH  23  24
ENDBRANCH  21  23
ENDBRANCH   6  21
TORSDOF 7
ENDMDL
