MODEL 1
REMARK VINA RESULT: -6.220181306      0.000      0.000
REMARK  6 active torsions:
REMARK  status: ('A' for Active; 'I' for Inactive)
REMARK    1  A    between atoms: O1_2  and  C2_3 
REMARK    2  A    between atoms: C3_6  and  N2_7 
REMARK    3  A    between atoms: N2_7  and  C4_9 
REMARK    4  A    between atoms: C6_11  and  O2_12 
REMARK    5  A    between atoms: C8_14  and  O3_15 
REMARK    6  A    between atoms: C10_17  and  O4_18 
ROOT
HETATM    1  C2  UNL     1     -32.140  73.160   7.888  1.00  0.00     0.225 A 
HETATM    2  N1  UNL     1     -31.992  74.395   7.437  1.00  0.00    -0.307 N 
ATOM      3  H1  UNL     1     -32.373  75.181   7.964  1.00  0.00     0.171 HD
HETATM    4  C3  UNL     1     -31.334  74.613   6.277  1.00  0.00     0.127 A 
HETATM    5  C13 UNL     1     -30.843  73.540   5.607  1.00  0.00     0.068 A 
HETATM    6  C14 UNL     1     -30.986  72.261   6.057  1.00  0.00     0.034 A 
HETATM    7  N3  UNL     1     -31.661  72.117   7.236  1.00  0.00    -0.324 N 
ATOM      8  H3  UNL     1     -31.797  71.182   7.621  1.00  0.00     0.169 HD
HETATM    9  C15 UNL     1     -30.417  71.218   5.224  1.00  0.00     0.073 C 
HETATM   10  C16 UNL     1     -29.241  71.746   4.438  1.00  0.00     0.054 C 
HETATM   11  C17 UNL     1     -28.010  71.928   5.272  1.00  0.00     0.022 C 
HETATM   12  S1  UNL     1     -29.919  73.429   4.081  1.00  0.00    -0.119 SA
ENDROOT
BRANCH   4  13
HETATM   13  N2  UNL     1     -31.195  75.842   5.838  1.00  0.00    -0.341 N 
ATOM     14  H2  UNL     1     -30.883  76.016   4.883  1.00  0.00     0.167 HD
BRANCH  13  15
HETATM   15  C4  UNL     1     -31.479  76.912   6.699  1.00  0.00     0.039 A 
HETATM   16  C5  UNL     1     -30.553  77.864   7.032  1.00  0.00     0.069 A 
HETATM   17  C6  UNL     1     -30.894  78.893   7.884  1.00  0.00     0.106 A 
HETATM   18  C8  UNL     1     -32.168  78.967   8.406  1.00  0.00     0.135 A 
HETATM   19  C10 UNL     1     -33.126  78.029   8.096  1.00  0.00     0.106 A 
HETATM   20  C12 UNL     1     -32.752  77.016   7.242  1.00  0.00     0.069 A 
BRANCH  17  21
HETATM   21  O2  UNL     1     -29.915  79.831   8.187  1.00  0.00    -0.353 OA
HETATM   22  C7  UNL     1     -28.940  79.611   9.180  1.00  0.00     0.210 C 
ENDBRANCH  17  21
BRANCH  18  23
HETATM   23  O3  UNL     1     -32.483  80.008   9.258  1.00  0.00    -0.351 OA
HETATM   24  C9  UNL     1     -32.376  79.885  10.671  1.00  0.00     0.210 C 
ENDBRANCH  18  23
BRANCH  19  25
HETATM   25  O4  UNL     1     -34.416  78.082   8.608  1.00  0.00    -0.353 OA
HETATM   26  C11 UNL     1     -35.396  77.122   8.329  1.00  0.00     0.210 C 
ENDBRANCH  19  25
ENDBRANCH  13  15
ENDBRANCH   4  13
BRANCH   1  27
HETATM   27  O1  UNL     1     -32.825  72.981   9.092  1.00  0.00    -0.327 OA
HETATM   28  C1  UNL     1     -33.435  74.056   9.778  1.00  0.00     0.213 C 
ENDBRANCH   1  27
TORSDOF 6
ENDMDL
MODEL 2
REMARK VINA RESULT: -6.189436185      0.503      2.628
REMARK  6 active torsions:
REMARK  status: ('A' for Active; 'I' for Inactive)
REMARK    1  A    between atoms: O1_2  and  C2_3 
REMARK    2  A    between atoms: C3_6  and  N2_7 
REMARK    3  A    between atoms: N2_7  and  C4_9 
REMARK    4  A    between atoms: C6_11  and  O2_12 
REMARK    5  A    between atoms: C8_14  and  O3_15 
REMARK    6  A    between atoms: C10_17  and  O4_18 
ROOT
HETATM    1  C2  UNL     1     -32.145  73.157   7.891  1.00  0.00     0.225 A 
HETATM    2  N1  UNL     1     -31.997  74.398   7.457  1.00  0.00    -0.307 N 
ATOM      3  H1  UNL     1     -32.378  75.177   7.995  1.00  0.00     0.171 HD
HETATM    4  C3  UNL     1     -31.341  74.632   6.299  1.00  0.00     0.127 A 
HETATM    5  C13 UNL     1     -30.851  73.568   5.614  1.00  0.00     0.068 A 
HETATM    6  C14 UNL     1     -30.993  72.283   6.046  1.00  0.00     0.034 A 
HETATM    7  N3  UNL     1     -31.666  72.123   7.224  1.00  0.00    -0.324 N 
ATOM      8  H3  UNL     1     -31.803  71.183   7.597  1.00  0.00     0.169 HD
HETATM    9  C15 UNL     1     -30.426  71.251   5.199  1.00  0.00     0.073 C 
HETATM   10  C16 UNL     1     -29.251  71.790   4.418  1.00  0.00     0.054 C 
HETATM   11  C17 UNL     1     -28.018  71.961   5.253  1.00  0.00     0.022 C 
HETATM   12  S1  UNL     1     -29.928  73.478   4.086  1.00  0.00    -0.119 SA
ENDROOT
BRANCH   4  13
HETATM   13  N2  UNL     1     -31.202  75.866   5.877  1.00  0.00    -0.341 N 
ATOM     14  H2  UNL     1     -30.849  76.054   4.938  1.00  0.00     0.167 HD
BRANCH  13  15
HETATM   15  C4  UNL     1     -31.544  76.925   6.731  1.00  0.00     0.039 A 
HETATM   16  C5  UNL     1     -32.798  77.081   7.256  1.00  0.00     0.069 A 
HETATM   17  C6  UNL     1     -33.072  78.145   8.090  1.00  0.00     0.106 A 
HETATM   18  C8  UNL     1     -32.084  79.056   8.398  1.00  0.00     0.135 A 
HETATM   19  C10 UNL     1     -30.812  78.933   7.889  1.00  0.00     0.106 A 
HETATM   20  C12 UNL     1     -30.572  77.860   7.061  1.00  0.00     0.069 A 
BRANCH  17  21
HETATM   21  O2  UNL     1     -34.362  78.253   8.595  1.00  0.00    -0.353 OA
HETATM   22  C7  UNL     1     -35.347  77.273   8.363  1.00  0.00     0.210 C 
ENDBRANCH  17  21
BRANCH  18  23
HETATM   23  O3  UNL     1     -32.385  80.112   9.235  1.00  0.00    -0.351 OA
HETATM   24  C9  UNL     1     -32.833  81.367   8.737  1.00  0.00     0.210 C 
ENDBRANCH  18  23
BRANCH  19  25
HETATM   25  O4  UNL     1     -29.799  79.838   8.184  1.00  0.00    -0.353 OA
HETATM   26  C11 UNL     1     -28.914  79.681   9.257  1.00  0.00     0.210 C 
ENDBRANCH  19  25
ENDBRANCH  13  15
ENDBRANCH   4  13
BRANCH   1  27
HETATM   27  O1  UNL     1     -32.828  72.962   9.094  1.00  0.00    -0.327 OA
HETATM   28  C1  UNL     1     -33.427  74.029   9.801  1.00  0.00     0.213 C 
ENDBRANCH   1  27
TORSDOF 6
ENDMDL
MODEL 3
REMARK VINA RESULT: -6.058532355      2.825      7.026
REMARK  6 active torsions:
REMARK  status: ('A' for Active; 'I' for Inactive)
REMARK    1  A    between atoms: O1_2  and  C2_3 
REMARK    2  A    between atoms: C3_6  and  N2_7 
REMARK    3  A    between atoms: N2_7  and  C4_9 
REMARK    4  A    between atoms: C6_11  and  O2_12 
REMARK    5  A    between atoms: C8_14  and  O3_15 
REMARK    6  A    between atoms: C10_17  and  O4_18 
ROOT
HETATM    1  C2  UNL     1     -29.883  78.768   8.633  1.00  0.00     0.225 A 
HETATM    2  N1  UNL     1     -30.368  78.136   7.577  1.00  0.00    -0.307 N 
ATOM      3  H1  UNL     1     -29.826  78.092   6.714  1.00  0.00     0.171 HD
HETATM    4  C3  UNL     1     -31.584  77.549   7.643  1.00  0.00     0.127 A 
HETATM    5  C13 UNL     1     -32.272  77.631   8.809  1.00  0.00     0.068 A 
HETATM    6  C14 UNL     1     -31.789  78.278   9.908  1.00  0.00     0.034 A 
HETATM    7  N3  UNL     1     -30.554  78.847   9.768  1.00  0.00    -0.324 N 
ATOM      8  H3  UNL     1     -30.142  79.344  10.558  1.00  0.00     0.169 HD
HETATM    9  C15 UNL     1     -32.646  78.292  11.077  1.00  0.00     0.073 C 
HETATM   10  C16 UNL     1     -33.539  77.074  11.098  1.00  0.00     0.054 C 
HETATM   11  C17 UNL     1     -32.814  75.820  11.486  1.00  0.00     0.022 C 
HETATM   12  S1  UNL     1     -33.868  76.978   9.281  1.00  0.00    -0.119 SA
ENDROOT
BRANCH   4  13
HETATM   13  N2  UNL     1     -32.054  76.926   6.589  1.00  0.00    -0.341 N 
ATOM     14  H2  UNL     1     -32.673  77.409   5.938  1.00  0.00     0.167 HD
BRANCH  13  15
HETATM   15  C4  UNL     1     -31.698  75.588   6.368  1.00  0.00     0.039 A 
HETATM   16  C5  UNL     1     -32.037  74.576   7.225  1.00  0.00     0.069 A 
HETATM   17  C6  UNL     1     -31.655  73.279   6.951  1.00  0.00     0.106 A 
HETATM   18  C8  UNL     1     -30.930  72.997   5.814  1.00  0.00     0.135 A 
HETATM   19  C10 UNL     1     -30.569  73.986   4.928  1.00  0.00     0.106 A 
HETATM   20  C12 UNL     1     -30.966  75.268   5.231  1.00  0.00     0.069 A 
BRANCH  17  21
HETATM   21  O2  UNL     1     -32.028  72.293   7.856  1.00  0.00    -0.353 OA
HETATM   22  C7  UNL     1     -32.778  72.576   9.014  1.00  0.00     0.210 C 
ENDBRANCH  17  21
BRANCH  18  23
HETATM   23  O3  UNL     1     -30.560  71.689   5.564  1.00  0.00    -0.351 OA
HETATM   24  C9  UNL     1     -29.202  71.268   5.605  1.00  0.00     0.210 C 
ENDBRANCH  18  23
BRANCH  19  25
HETATM   25  O4  UNL     1     -29.838  73.726   3.775  1.00  0.00    -0.353 OA
HETATM   26  C11 UNL     1     -28.809  74.554   3.312  1.00  0.00     0.210 C 
ENDBRANCH  19  25
ENDBRANCH  13  15
ENDBRANCH   4  13
BRANCH   1  27
HETATM   27  O1  UNL     1     -28.623  79.360   8.521  1.00  0.00    -0.327 OA
HETATM   28  C1  UNL     1     -28.134  80.278   9.478  1.00  0.00     0.213 C 
ENDBRANCH   1  27
TORSDOF 6
ENDMDL
MODEL 4
REMARK VINA RESULT: -5.687836471      2.725      6.571
REMARK  6 active torsions:
REMARK  status: ('A' for Active; 'I' for Inactive)
REMARK    1  A    between atoms: O1_2  and  C2_3 
REMARK    2  A    between atoms: C3_6  and  N2_7 
REMARK    3  A    between atoms: N2_7  and  C4_9 
REMARK    4  A    between atoms: C6_11  and  O2_12 
REMARK    5  A    between atoms: C8_14  and  O3_15 
REMARK    6  A    between atoms: C10_17  and  O4_18 
ROOT
HETATM    1  C2  UNL     1     -34.124  76.826   8.598  1.00  0.00     0.225 A 
HETATM    2  N1  UNL     1     -33.392  76.574   7.525  1.00  0.00    -0.307 N 
ATOM      3  H1  UNL     1     -33.756  75.968   6.788  1.00  0.00     0.171 HD
HETATM    4  C3  UNL     1     -32.162  77.121   7.405  1.00  0.00     0.127 A 
HETATM    5  C13 UNL     1     -31.716  77.920   8.407  1.00  0.00     0.068 A 
HETATM    6  C14 UNL     1     -32.456  78.190   9.519  1.00  0.00     0.034 A 
HETATM    7  N3  UNL     1     -33.689  77.604   9.572  1.00  0.00    -0.324 N 
ATOM      8  H3  UNL     1     -34.287  77.772  10.381  1.00  0.00     0.169 HD
HETATM    9  C15 UNL     1     -31.839  79.052  10.509  1.00  0.00     0.073 C 
HETATM   10  C16 UNL     1     -30.857  79.996   9.857  1.00  0.00     0.054 C 
HETATM   11  C17 UNL     1     -31.523  81.114   9.112  1.00  0.00     0.022 C 
HETATM   12  S1  UNL     1     -30.184  78.821   8.598  1.00  0.00    -0.119 SA
ENDROOT
BRANCH   4  13
HETATM   13  N2  UNL     1     -31.445  76.863   6.337  1.00  0.00    -0.341 N 
ATOM     14  H2  UNL     1     -31.099  77.623   5.752  1.00  0.00     0.167 HD
BRANCH  13  15
HETATM   15  C4  UNL     1     -31.161  75.529   6.008  1.00  0.00     0.039 A 
HETATM   16  C5  UNL     1     -30.442  75.174   4.898  1.00  0.00     0.069 A 
HETATM   17  C6  UNL     1     -30.197  73.844   4.630  1.00  0.00     0.106 A 
HETATM   18  C8  UNL     1     -30.674  72.867   5.476  1.00  0.00     0.135 A 
HETATM   19  C10 UNL     1     -31.401  73.183   6.600  1.00  0.00     0.106 A 
HETATM   20  C12 UNL     1     -31.628  74.520   6.839  1.00  0.00     0.069 A 
BRANCH  17  21
HETATM   21  O2  UNL     1     -29.461  73.542   3.490  1.00  0.00    -0.353 OA
HETATM   22  C7  UNL     1     -28.206  74.125   3.225  1.00  0.00     0.210 C 
ENDBRANCH  17  21
BRANCH  18  23
HETATM   23  O3  UNL     1     -30.414  71.542   5.183  1.00  0.00    -0.351 OA
HETATM   24  C9  UNL     1     -29.195  70.911   5.556  1.00  0.00     0.210 C 
ENDBRANCH  18  23
BRANCH  19  25
HETATM   25  O4  UNL     1     -31.894  72.216   7.469  1.00  0.00    -0.353 OA
HETATM   26  C11 UNL     1     -32.595  72.519   8.642  1.00  0.00     0.210 C 
ENDBRANCH  19  25
ENDBRANCH  13  15
ENDBRANCH   4  13
BRANCH   1  27
HETATM   27  O1  UNL     1     -35.390  76.241   8.679  1.00  0.00    -0.327 OA
HETATM   28  C1  UNL     1     -36.331  76.619   9.663  1.00  0.00     0.213 C 
ENDBRANCH   1  27
TORSDOF 6
ENDMDL
MODEL 5
REMARK VINA RESULT: -5.478546618      3.221      5.684
REMARK  6 active torsions:
REMARK  status: ('A' for Active; 'I' for Inactive)
REMARK    1  A    between atoms: O1_2  and  C2_3 
REMARK    2  A    between atoms: C3_6  and  N2_7 
REMARK    3  A    between atoms: N2_7  and  C4_9 
REMARK    4  A    between atoms: C6_11  and  O2_12 
REMARK    5  A    between atoms: C8_14  and  O3_15 
REMARK    6  A    between atoms: C10_17  and  O4_18 
ROOT
HETATM    1  C2  UNL     1     -32.030  76.002   7.149  1.00  0.00     0.225 A 
HETATM    2  N1  UNL     1     -31.703  77.222   7.543  1.00  0.00    -0.307 N 
ATOM      3  H1  UNL     1     -31.111  77.808   6.955  1.00  0.00     0.171 HD
HETATM    4  C3  UNL     1     -32.156  77.690   8.728  1.00  0.00     0.127 A 
HETATM    5  C13 UNL     1     -32.940  76.878   9.479  1.00  0.00     0.068 A 
HETATM    6  C14 UNL     1     -33.287  75.618   9.089  1.00  0.00     0.034 A 
HETATM    7  N3  UNL     1     -32.794  75.213   7.881  1.00  0.00    -0.324 N 
ATOM      8  H3  UNL     1     -33.021  74.280   7.538  1.00  0.00     0.169 HD
HETATM    9  C15 UNL     1     -34.121  74.866  10.007  1.00  0.00     0.073 C 
HETATM   10  C16 UNL     1     -34.978  75.796  10.833  1.00  0.00     0.054 C 
HETATM   11  C17 UNL     1     -36.126  76.377  10.065  1.00  0.00     0.022 C 
HETATM   12  S1  UNL     1     -33.730  77.142  11.061  1.00  0.00    -0.119 SA
ENDROOT
BRANCH   4  13
HETATM   13  N2  UNL     1     -31.825  78.901   9.109  1.00  0.00    -0.341 N 
ATOM     14  H2  UNL     1     -32.504  79.660   9.063  1.00  0.00     0.167 HD
BRANCH  13  15
HETATM   15  C4  UNL     1     -30.526  79.140   9.580  1.00  0.00     0.039 A 
HETATM   16  C5  UNL     1     -29.691  80.070   9.022  1.00  0.00     0.069 A 
HETATM   17  C6  UNL     1     -28.424  80.257   9.531  1.00  0.00     0.106 A 
HETATM   18  C8  UNL     1     -27.990  79.507  10.604  1.00  0.00     0.135 A 
HETATM   19  C10 UNL     1     -28.799  78.562  11.192  1.00  0.00     0.106 A 
HETATM   20  C12 UNL     1     -30.058  78.401  10.659  1.00  0.00     0.069 A 
BRANCH  17  21
HETATM   21  O2  UNL     1     -27.621  81.216   8.926  1.00  0.00    -0.353 OA
HETATM   22  C7  UNL     1     -27.708  82.585   9.246  1.00  0.00     0.210 C 
ENDBRANCH  17  21
BRANCH  18  23
HETATM   23  O3  UNL     1     -26.716  79.715  11.094  1.00  0.00    -0.351 OA
HETATM   24  C9  UNL     1     -26.459  80.595  12.182  1.00  0.00     0.210 C 
ENDBRANCH  18  23
BRANCH  19  25
HETATM   25  O4  UNL     1     -28.385  77.794  12.274  1.00  0.00    -0.353 OA
HETATM   26  C11 UNL     1     -28.813  78.019  13.587  1.00  0.00     0.210 C 
ENDBRANCH  19  25
ENDBRANCH  13  15
ENDBRANCH   4  13
BRANCH   1  27
HETATM   27  O1  UNL     1     -31.541  75.560   5.917  1.00  0.00    -0.327 OA
HETATM   28  C1  UNL     1     -31.146  74.220   5.702  1.00  0.00     0.213 C 
ENDBRANCH   1  27
TORSDOF 6
ENDMDL
