MODEL 1
REMARK VINA RESULT: -6.188203851      0.000      0.000
REMARK  13 active torsions:
REMARK  status: ('A' for Active; 'I' for Inactive)
REMARK    1  A    between atoms: S1_2  and  N1_4 
REMARK    2  A    between atoms: S1_2  and  C2_9 
REMARK    3  A    between atoms: N1_4  and  N2_6 
REMARK    4  A    between atoms: C2_9  and  N3_10 
REMARK    5  A    between atoms: C2_9  and  C5_25 
REMARK    6  A    between atoms: N3_10  and  C3_12 
REMARK    7  A    between atoms: C4_17  and  S2_18 
REMARK    8  A    between atoms: S2_18  and  N6_19 
REMARK    9  A    between atoms: C5_25  and  O4_26 
REMARK   10  A    between atoms: C5_25  and  C6_28 
REMARK   11  A    between atoms: C6_28  and  N7_29 
REMARK   12  A    between atoms: C6_28  and  C7_33 
REMARK   13  A    between atoms: C7_33  and  O5_34 
ROOT
HETATM    1  C2  UNL     1     -12.535 -16.189  11.295  1.00  0.00     0.217 C 
ENDROOT
BRANCH   1   2
HETATM    2  S1  UNL     1     -10.984 -15.342  11.096  1.00  0.00     0.058 S 
HETATM    3  C1  UNL     1     -11.225 -13.655  10.608  1.00  0.00     0.140 C 
HETATM    4  O1  UNL     1     -10.232 -15.340  12.394  1.00  0.00    -0.247 OA
BRANCH   2   5
HETATM    5  N1  UNL     1     -10.091 -16.037  10.017  1.00  0.00    -0.265 N 
ATOM      6  H1  UNL     1      -9.207 -16.460  10.300  1.00  0.00     0.196 HD
BRANCH   5   7
HETATM    7  N2  UNL     1     -10.473 -16.092   8.680  1.00  0.00    -0.338 N 
ATOM      8  H22 UNL     1     -11.306 -16.630   8.439  1.00  0.00     0.177 HD
ATOM      9  H21 UNL     1      -9.943 -15.612   7.952  1.00  0.00     0.177 HD
ENDBRANCH   5   7
ENDBRANCH   2   5
ENDBRANCH   1   2
BRANCH   1  10
HETATM   10  N3  UNL     1     -13.250 -15.530  12.363  1.00  0.00    -0.350 N 
ATOM     11  H3  UNL     1     -12.902 -15.616  13.318  1.00  0.00     0.163 HD
BRANCH  10  12
HETATM   12  C3  UNL     1     -14.324 -14.830  12.140  1.00  0.00     0.163 A 
HETATM   13  N4  UNL     1     -14.694 -13.698  12.740  1.00  0.00    -0.278 N 
HETATM   14  N5  UNL     1     -15.784 -13.151  12.392  1.00  0.00    -0.281 N 
ATOM     15  H4  UNL     1     -14.111 -13.280  13.464  1.00  0.00     0.189 HD
HETATM   16  C4  UNL     1     -16.539 -13.693  11.454  1.00  0.00     0.208 A 
ATOM     17  H5  UNL     1     -16.080 -12.284  12.842  1.00  0.00     0.188 HD
HETATM   18  S3  UNL     1     -15.624 -15.076  11.048  1.00  0.00    -0.020 SA
BRANCH  16  19
HETATM   19  S2  UNL     1     -18.073 -13.064  10.856  1.00  0.00     0.280 S 
HETATM   20  O2  UNL     1     -18.315 -13.486   9.444  1.00  0.00    -0.199 OA
HETATM   21  O3  UNL     1     -19.191 -13.600  11.735  1.00  0.00    -0.199 OA
BRANCH  19  22
HETATM   22  N6  UNL     1     -18.116 -11.338  10.940  1.00  0.00    -0.323 N 
ATOM     23  H62 UNL     1     -17.875 -10.729  10.158  1.00  0.00     0.169 HD
ATOM     24  H61 UNL     1     -18.410 -11.021  11.865  1.00  0.00     0.169 HD
ENDBRANCH  19  22
ENDBRANCH  16  19
ENDBRANCH  10  12
ENDBRANCH   1  10
BRANCH   1  25
HETATM   25  C5  UNL     1     -12.315 -17.623  11.729  1.00  0.00     0.186 C 
BRANCH  25  26
HETATM   26  O4  UNL     1     -11.011 -17.914  12.029  1.00  0.00    -0.390 OA
ATOM     27  H4  UNL     1     -10.903 -18.382  12.847  1.00  0.00     0.210 HD
ENDBRANCH  25  26
BRANCH  25  28
HETATM   28  C6  UNL     1     -12.893 -18.544  10.671  1.00  0.00     0.238 C 
BRANCH  28  29
HETATM   29  N7  UNL     1     -13.461 -17.724   9.613  1.00  0.00    -0.070 N 
ATOM     30  H73 UNL     1     -13.751 -16.804   9.943  1.00  0.00     0.274 HD
ATOM     31  H72 UNL     1     -12.762 -17.415   8.937  1.00  0.00     0.274 HD
ATOM     32  H71 UNL     1     -14.224 -18.245   9.180  1.00  0.00     0.274 HD
ENDBRANCH  28  29
BRANCH  28  33
HETATM   33  C7  UNL     1     -11.852 -19.479  10.120  1.00  0.00     0.199 C 
BRANCH  33  34
HETATM   34  O5  UNL     1     -11.038 -18.785   9.224  1.00  0.00    -0.399 OA
ATOM     35  H5  UNL     1     -10.589 -19.407   8.663  1.00  0.00     0.209 HD
ENDBRANCH  33  34
ENDBRANCH  28  33
ENDBRANCH  25  28
ENDBRANCH   1  25
TORSDOF 13
ENDMDL
MODEL 2
REMARK VINA RESULT: -6.009837521      2.180      2.685
REMARK  13 active torsions:
REMARK  status: ('A' for Active; 'I' for Inactive)
REMARK    1  A    between atoms: S1_2  and  N1_4 
REMARK    2  A    between atoms: S1_2  and  C2_9 
REMARK    3  A    between atoms: N1_4  and  N2_6 
REMARK    4  A    between atoms: C2_9  and  N3_10 
REMARK    5  A    between atoms: C2_9  and  C5_25 
REMARK    6  A    between atoms: N3_10  and  C3_12 
REMARK    7  A    between atoms: C4_17  and  S2_18 
REMARK    8  A    between atoms: S2_18  and  N6_19 
REMARK    9  A    between atoms: C5_25  and  O4_26 
REMARK   10  A    between atoms: C5_25  and  C6_28 
REMARK   11  A    between atoms: C6_28  and  N7_29 
REMARK   12  A    between atoms: C6_28  and  C7_33 
REMARK   13  A    between atoms: C7_33  and  O5_34 
ROOT
HETATM    1  C2  UNL     1     -12.187 -15.037  12.660  1.00  0.00     0.217 C 
ENDROOT
BRANCH   1   2
HETATM    2  S1  UNL     1     -11.182 -16.280  13.440  1.00  0.00     0.058 S 
HETATM    3  C1  UNL     1     -10.753 -15.821  15.097  1.00  0.00     0.140 C 
HETATM    4  O1  UNL     1     -11.931 -17.578  13.503  1.00  0.00    -0.247 OA
BRANCH   2   5
HETATM    5  N1  UNL     1      -9.857 -16.521  12.644  1.00  0.00    -0.265 N 
ATOM      6  H1  UNL     1      -9.151 -15.785  12.620  1.00  0.00     0.196 HD
BRANCH   5   7
HETATM    7  N2  UNL     1      -9.619 -17.715  11.969  1.00  0.00    -0.338 N 
ATOM      8  H22 UNL     1     -10.252 -17.975  11.213  1.00  0.00     0.177 HD
ATOM      9  H21 UNL     1      -8.837 -18.321  12.215  1.00  0.00     0.177 HD
ENDBRANCH   5   7
ENDBRANCH   2   5
ENDBRANCH   1   2
BRANCH   1  10
HETATM   10  N3  UNL     1     -13.421 -14.955  13.405  1.00  0.00    -0.350 N 
ATOM     11  H3  UNL     1     -13.488 -15.428  14.307  1.00  0.00     0.163 HD
BRANCH  10  12
HETATM   12  C3  UNL     1     -14.451 -14.297  12.957  1.00  0.00     0.163 A 
HETATM   13  N4  UNL     1     -14.900 -13.112  13.372  1.00  0.00    -0.278 N 
HETATM   14  N5  UNL     1     -15.927 -12.619  12.816  1.00  0.00    -0.281 N 
ATOM     15  H4  UNL     1     -14.426 -12.611  14.123  1.00  0.00     0.189 HD
HETATM   16  C4  UNL     1     -16.542 -13.268  11.843  1.00  0.00     0.208 A 
ATOM     17  H5  UNL     1     -16.282 -11.713  13.123  1.00  0.00     0.188 HD
HETATM   18  S3  UNL     1     -15.582 -14.674  11.723  1.00  0.00    -0.020 SA
BRANCH  16  19
HETATM   19  S2  UNL     1     -17.972 -12.726  10.969  1.00  0.00     0.280 S 
HETATM   20  O2  UNL     1     -17.999 -13.283   9.583  1.00  0.00    -0.199 OA
HETATM   21  O3  UNL     1     -19.206 -13.198  11.720  1.00  0.00    -0.199 OA
BRANCH  19  22
HETATM   22  N6  UNL     1     -18.034 -11.001  10.881  1.00  0.00    -0.323 N 
ATOM     23  H62 UNL     1     -17.311 -10.390  11.261  1.00  0.00     0.169 HD
ATOM     24  H61 UNL     1     -18.879 -10.686  10.403  1.00  0.00     0.169 HD
ENDBRANCH  19  22
ENDBRANCH  16  19
ENDBRANCH  10  12
ENDBRANCH   1  10
BRANCH   1  25
HETATM   25  C5  UNL     1     -12.549 -15.443  11.248  1.00  0.00     0.186 C 
BRANCH  25  26
HETATM   26  O4  UNL     1     -12.244 -16.745  10.954  1.00  0.00    -0.390 OA
ATOM     27  H4  UNL     1     -12.591 -17.040  10.120  1.00  0.00     0.210 HD
ENDBRANCH  25  26
BRANCH  25  28
HETATM   28  C6  UNL     1     -11.914 -14.460  10.282  1.00  0.00     0.238 C 
BRANCH  28  29
HETATM   29  N7  UNL     1     -11.336 -13.372  11.054  1.00  0.00    -0.070 N 
ATOM     30  H73 UNL     1     -10.569 -12.909  10.567  1.00  0.00     0.274 HD
ATOM     31  H72 UNL     1     -11.960 -12.568  11.126  1.00  0.00     0.274 HD
ATOM     32  H71 UNL     1     -11.059 -13.738  11.965  1.00  0.00     0.274 HD
ENDBRANCH  28  29
BRANCH  28  33
HETATM   33  C7  UNL     1     -10.869 -15.119   9.426  1.00  0.00     0.199 C 
BRANCH  33  34
HETATM   34  O5  UNL     1      -9.686 -15.245  10.157  1.00  0.00    -0.399 OA
ATOM     35  H5  UNL     1      -8.969 -15.437   9.563  1.00  0.00     0.209 HD
ENDBRANCH  33  34
ENDBRANCH  28  33
ENDBRANCH  25  28
ENDBRANCH   1  25
TORSDOF 13
ENDMDL
MODEL 3
REMARK VINA RESULT: -5.986542123      7.142      9.791
REMARK  13 active torsions:
REMARK  status: ('A' for Active; 'I' for Inactive)
REMARK    1  A    between atoms: S1_2  and  N1_4 
REMARK    2  A    between atoms: S1_2  and  C2_9 
REMARK    3  A    between atoms: N1_4  and  N2_6 
REMARK    4  A    between atoms: C2_9  and  N3_10 
REMARK    5  A    between atoms: C2_9  and  C5_25 
REMARK    6  A    between atoms: N3_10  and  C3_12 
REMARK    7  A    between atoms: C4_17  and  S2_18 
REMARK    8  A    between atoms: S2_18  and  N6_19 
REMARK    9  A    between atoms: C5_25  and  O4_26 
REMARK   10  A    between atoms: C5_25  and  C6_28 
REMARK   11  A    between atoms: C6_28  and  N7_29 
REMARK   12  A    between atoms: C6_28  and  C7_33 
REMARK   13  A    between atoms: C7_33  and  O5_34 
ROOT
HETATM    1  C2  UNL     1     -18.082 -15.085   4.985  1.00  0.00     0.217 C 
ENDROOT
BRANCH   1   2
HETATM    2  S1  UNL     1     -19.077 -14.481   6.329  1.00  0.00     0.058 S 
HETATM    3  C1  UNL     1     -19.550 -15.792   7.425  1.00  0.00     0.140 C 
HETATM    4  O1  UNL     1     -18.303 -13.474   7.127  1.00  0.00    -0.247 OA
BRANCH   2   5
HETATM    5  N1  UNL     1     -20.380 -13.791   5.807  1.00  0.00    -0.265 N 
ATOM      6  H1  UNL     1     -20.301 -12.978   5.196  1.00  0.00     0.196 HD
BRANCH   5   7
HETATM    7  N2  UNL     1     -21.643 -14.261   6.155  1.00  0.00    -0.338 N 
ATOM      8  H22 UNL     1     -21.735 -14.809   7.010  1.00  0.00     0.177 HD
ATOM      9  H21 UNL     1     -22.462 -14.068   5.578  1.00  0.00     0.177 HD
ENDBRANCH   5   7
ENDBRANCH   2   5
ENDBRANCH   1   2
BRANCH   1  10
HETATM   10  N3  UNL     1     -17.017 -15.873   5.561  1.00  0.00    -0.350 N 
ATOM     11  H3  UNL     1     -16.240 -15.397   6.018  1.00  0.00     0.163 HD
BRANCH  10  12
HETATM   12  C3  UNL     1     -17.023 -17.174   5.512  1.00  0.00     0.163 A 
HETATM   13  N4  UNL     1     -16.987 -18.025   6.538  1.00  0.00    -0.278 N 
HETATM   14  N5  UNL     1     -16.998 -19.270   6.300  1.00  0.00    -0.281 N 
ATOM     15  H4  UNL     1     -16.952 -17.681   7.497  1.00  0.00     0.189 HD
HETATM   16  C4  UNL     1     -17.044 -19.716   5.057  1.00  0.00     0.208 A 
ATOM     17  H5  UNL     1     -16.972 -19.933   7.075  1.00  0.00     0.188 HD
HETATM   18  S3  UNL     1     -17.072 -18.253   4.179  1.00  0.00    -0.020 SA
BRANCH  16  19
HETATM   19  S2  UNL     1     -17.067 -21.405   4.556  1.00  0.00     0.280 S 
HETATM   20  O2  UNL     1     -16.491 -21.569   3.187  1.00  0.00    -0.199 OA
HETATM   21  O3  UNL     1     -16.242 -22.214   5.544  1.00  0.00    -0.199 OA
BRANCH  19  22
HETATM   22  N6  UNL     1     -18.675 -22.039   4.567  1.00  0.00    -0.323 N 
ATOM     23  H62 UNL     1     -19.242 -22.125   5.411  1.00  0.00     0.169 HD
ATOM     24  H61 UNL     1     -18.971 -22.309   3.628  1.00  0.00     0.169 HD
ENDBRANCH  19  22
ENDBRANCH  16  19
ENDBRANCH  10  12
ENDBRANCH   1  10
BRANCH   1  25
HETATM   25  C5  UNL     1     -17.430 -13.940   4.239  1.00  0.00     0.186 C 
BRANCH  25  26
HETATM   26  O4  UNL     1     -18.051 -12.735   4.429  1.00  0.00    -0.390 OA
ATOM     27  H4  UNL     1     -17.454 -12.025   4.629  1.00  0.00     0.210 HD
ENDBRANCH  25  26
BRANCH  25  28
HETATM   28  C6  UNL     1     -17.318 -14.317   2.774  1.00  0.00     0.238 C 
BRANCH  28  29
HETATM   29  N7  UNL     1     -17.352 -13.097   1.985  1.00  0.00    -0.070 N 
ATOM     30  H73 UNL     1     -18.302 -12.788   1.781  1.00  0.00     0.274 HD
ATOM     31  H72 UNL     1     -17.051 -12.278   2.515  1.00  0.00     0.274 HD
ATOM     32  H71 UNL     1     -16.797 -13.245   1.142  1.00  0.00     0.274 HD
ENDBRANCH  28  29
BRANCH  28  33
HETATM   33  C7  UNL     1     -16.062 -15.096   2.496  1.00  0.00     0.199 C 
BRANCH  33  34
HETATM   34  O5  UNL     1     -16.242 -15.865   1.345  1.00  0.00    -0.399 OA
ATOM     35  H5  UNL     1     -16.003 -15.350   0.583  1.00  0.00     0.209 HD
ENDBRANCH  33  34
ENDBRANCH  28  33
ENDBRANCH  25  28
ENDBRANCH   1  25
TORSDOF 13
ENDMDL
MODEL 4
REMARK VINA RESULT: -5.859471548      1.001      1.366
REMARK  13 active torsions:
REMARK  status: ('A' for Active; 'I' for Inactive)
REMARK    1  A    between atoms: S1_2  and  N1_4 
REMARK    2  A    between atoms: S1_2  and  C2_9 
REMARK    3  A    between atoms: N1_4  and  N2_6 
REMARK    4  A    between atoms: C2_9  and  N3_10 
REMARK    5  A    between atoms: C2_9  and  C5_25 
REMARK    6  A    between atoms: N3_10  and  C3_12 
REMARK    7  A    between atoms: C4_17  and  S2_18 
REMARK    8  A    between atoms: S2_18  and  N6_19 
REMARK    9  A    between atoms: C5_25  and  O4_26 
REMARK   10  A    between atoms: C5_25  and  C6_28 
REMARK   11  A    between atoms: C6_28  and  N7_29 
REMARK   12  A    between atoms: C6_28  and  C7_33 
REMARK   13  A    between atoms: C7_33  and  O5_34 
ROOT
HETATM    1  C2  UNL     1     -12.448 -15.840  11.349  1.00  0.00     0.217 C 
ENDROOT
BRANCH   1   2
HETATM    2  S1  UNL     1     -10.822 -15.147  11.546  1.00  0.00     0.058 S 
HETATM    3  C1  UNL     1     -10.879 -13.379  11.645  1.00  0.00     0.140 C 
HETATM    4  O1  UNL     1     -10.199 -15.657  12.812  1.00  0.00    -0.247 OA
BRANCH   2   5
HETATM    5  N1  UNL     1      -9.889 -15.537  10.353  1.00  0.00    -0.265 N 
ATOM      6  H1  UNL     1      -8.902 -15.721  10.533  1.00  0.00     0.196 HD
BRANCH   5   7
HETATM    7  N2  UNL     1     -10.374 -15.640   9.052  1.00  0.00    -0.338 N 
ATOM      8  H22 UNL     1     -11.357 -15.424   8.886  1.00  0.00     0.177 HD
ATOM      9  H21 UNL     1      -9.773 -15.923   8.279  1.00  0.00     0.177 HD
ENDBRANCH   5   7
ENDBRANCH   2   5
ENDBRANCH   1   2
BRANCH   1  10
HETATM   10  N3  UNL     1     -13.263 -15.333  12.428  1.00  0.00    -0.350 N 
ATOM     11  H3  UNL     1     -12.975 -15.508  13.391  1.00  0.00     0.163 HD
BRANCH  10  12
HETATM   12  C3  UNL     1     -14.355 -14.660  12.206  1.00  0.00     0.163 A 
HETATM   13  N4  UNL     1     -14.775 -13.562  12.836  1.00  0.00    -0.278 N 
HETATM   14  N5  UNL     1     -15.874 -13.038  12.483  1.00  0.00    -0.281 N 
ATOM     15  H4  UNL     1     -14.222 -13.152  13.587  1.00  0.00     0.189 HD
HETATM   16  C4  UNL     1     -16.591 -13.571  11.510  1.00  0.00     0.208 A 
ATOM     17  H5  UNL     1     -16.208 -12.198  12.956  1.00  0.00     0.188 HD
HETATM   18  S3  UNL     1     -15.623 -14.908  11.076  1.00  0.00    -0.020 SA
BRANCH  16  19
HETATM   19  S2  UNL     1     -18.131 -12.970  10.900  1.00  0.00     0.280 S 
HETATM   20  O2  UNL     1     -18.378 -13.441   9.504  1.00  0.00    -0.199 OA
HETATM   21  O3  UNL     1     -19.241 -13.483  11.802  1.00  0.00    -0.199 OA
BRANCH  19  22
HETATM   22  N6  UNL     1     -18.183 -11.243  10.927  1.00  0.00    -0.323 N 
ATOM     23  H62 UNL     1     -17.987 -10.685  11.759  1.00  0.00     0.169 HD
ATOM     24  H61 UNL     1     -18.431 -10.867  10.011  1.00  0.00     0.169 HD
ENDBRANCH  19  22
ENDBRANCH  16  19
ENDBRANCH  10  12
ENDBRANCH   1  10
BRANCH   1  25
HETATM   25  C5  UNL     1     -12.414 -17.347  11.491  1.00  0.00     0.186 C 
BRANCH  25  26
HETATM   26  O4  UNL     1     -11.192 -17.899  11.213  1.00  0.00    -0.390 OA
ATOM     27  H4  UNL     1     -10.821 -18.391  11.935  1.00  0.00     0.210 HD
ENDBRANCH  25  26
BRANCH  25  28
HETATM   28  C6  UNL     1     -13.530 -17.939  10.651  1.00  0.00     0.238 C 
BRANCH  28  29
HETATM   29  N7  UNL     1     -12.944 -18.892   9.723  1.00  0.00    -0.070 N 
ATOM     30  H73 UNL     1     -12.135 -19.374  10.112  1.00  0.00     0.274 HD
ATOM     31  H72 UNL     1     -13.535 -19.711   9.575  1.00  0.00     0.274 HD
ATOM     32  H71 UNL     1     -12.729 -18.401   8.854  1.00  0.00     0.274 HD
ENDBRANCH  28  29
BRANCH  28  33
HETATM   33  C7  UNL     1     -14.575 -18.601  11.505  1.00  0.00     0.199 C 
BRANCH  33  34
HETATM   34  O5  UNL     1     -14.414 -18.194  12.830  1.00  0.00    -0.399 OA
ATOM     35  H5  UNL     1     -14.321 -18.961  13.384  1.00  0.00     0.209 HD
ENDBRANCH  33  34
ENDBRANCH  28  33
ENDBRANCH  25  28
ENDBRANCH   1  25
TORSDOF 13
ENDMDL
MODEL 5
REMARK VINA RESULT: -5.781629026      6.991      9.653
REMARK  13 active torsions:
REMARK  status: ('A' for Active; 'I' for Inactive)
REMARK    1  A    between atoms: S1_2  and  N1_4 
REMARK    2  A    between atoms: S1_2  and  C2_9 
REMARK    3  A    between atoms: N1_4  and  N2_6 
REMARK    4  A    between atoms: C2_9  and  N3_10 
REMARK    5  A    between atoms: C2_9  and  C5_25 
REMARK    6  A    between atoms: N3_10  and  C3_12 
REMARK    7  A    between atoms: C4_17  and  S2_18 
REMARK    8  A    between atoms: S2_18  and  N6_19 
REMARK    9  A    between atoms: C5_25  and  O4_26 
REMARK   10  A    between atoms: C5_25  and  C6_28 
REMARK   11  A    between atoms: C6_28  and  N7_29 
REMARK   12  A    between atoms: C6_28  and  C7_33 
REMARK   13  A    between atoms: C7_33  and  O5_34 
ROOT
HETATM    1  C2  UNL     1     -18.285 -15.026   5.253  1.00  0.00     0.217 C 
ENDROOT
BRANCH   1   2
HETATM    2  S1  UNL     1     -19.338 -14.931   6.683  1.00  0.00     0.058 S 
HETATM    3  C1  UNL     1     -20.932 -14.277   6.271  1.00  0.00     0.140 C 
HETATM    4  O1  UNL     1     -19.540 -16.300   7.261  1.00  0.00    -0.247 OA
BRANCH   2   5
HETATM    5  N1  UNL     1     -18.711 -14.023   7.791  1.00  0.00    -0.265 N 
ATOM      6  H1  UNL     1     -18.098 -13.255   7.517  1.00  0.00     0.196 HD
BRANCH   5   7
HETATM    7  N2  UNL     1     -18.970 -14.237   9.142  1.00  0.00    -0.338 N 
ATOM      8  H22 UNL     1     -19.569 -13.571   9.629  1.00  0.00     0.177 HD
ATOM      9  H21 UNL     1     -18.576 -15.035   9.641  1.00  0.00     0.177 HD
ENDBRANCH   5   7
ENDBRANCH   2   5
ENDBRANCH   1   2
BRANCH   1  10
HETATM   10  N3  UNL     1     -17.120 -15.793   5.628  1.00  0.00    -0.350 N 
ATOM     11  H3  UNL     1     -16.293 -15.304   5.968  1.00  0.00     0.163 HD
BRANCH  10  12
HETATM   12  C3  UNL     1     -17.097 -17.092   5.544  1.00  0.00     0.163 A 
HETATM   13  N4  UNL     1     -17.073 -17.971   6.547  1.00  0.00    -0.278 N 
HETATM   14  N5  UNL     1     -17.052 -19.209   6.275  1.00  0.00    -0.281 N 
ATOM     15  H4  UNL     1     -17.071 -17.652   7.516  1.00  0.00     0.189 HD
HETATM   16  C4  UNL     1     -17.053 -19.621   5.020  1.00  0.00     0.208 A 
ATOM     17  H5  UNL     1     -17.033 -19.892   7.032  1.00  0.00     0.188 HD
HETATM   18  S3  UNL     1     -17.087 -18.135   4.181  1.00  0.00    -0.020 SA
BRANCH  16  19
HETATM   19  S2  UNL     1     -17.027 -21.295   4.472  1.00  0.00     0.280 S 
HETATM   20  O2  UNL     1     -16.539 -21.394   3.064  1.00  0.00    -0.199 OA
HETATM   21  O3  UNL     1     -16.098 -22.086   5.378  1.00  0.00    -0.199 OA
BRANCH  19  22
HETATM   22  N6  UNL     1     -18.598 -22.010   4.572  1.00  0.00    -0.323 N 
ATOM     23  H62 UNL     1     -19.130 -22.084   5.439  1.00  0.00     0.169 HD
ATOM     24  H61 UNL     1     -18.911 -22.340   3.659  1.00  0.00     0.169 HD
ENDBRANCH  19  22
ENDBRANCH  16  19
ENDBRANCH  10  12
ENDBRANCH   1  10
BRANCH   1  25
HETATM   25  C5  UNL     1     -17.797 -13.651   4.849  1.00  0.00     0.186 C 
BRANCH  25  26
HETATM   26  O4  UNL     1     -18.548 -12.628   5.363  1.00  0.00    -0.390 OA
ATOM     27  H4  UNL     1     -18.057 -11.828   5.506  1.00  0.00     0.210 HD
ENDBRANCH  25  26
BRANCH  25  28
HETATM   28  C6  UNL     1     -17.690 -13.598   3.337  1.00  0.00     0.238 C 
BRANCH  28  29
HETATM   29  N7  UNL     1     -17.448 -12.220   2.945  1.00  0.00    -0.070 N 
ATOM     30  H73 UNL     1     -17.419 -11.584   3.742  1.00  0.00     0.274 HD
ATOM     31  H72 UNL     1     -16.495 -12.067   2.612  1.00  0.00     0.274 HD
ATOM     32  H71 UNL     1     -18.152 -11.954   2.257  1.00  0.00     0.274 HD
ENDBRANCH  28  29
BRANCH  28  33
HETATM   33  C7  UNL     1     -16.598 -14.497   2.826  1.00  0.00     0.199 C 
BRANCH  33  34
HETATM   34  O5  UNL     1     -17.066 -15.206   1.719  1.00  0.00    -0.399 OA
ATOM     35  H5  UNL     1     -16.428 -15.149   1.017  1.00  0.00     0.209 HD
ENDBRANCH  33  34
ENDBRANCH  28  33
ENDBRANCH  25  28
ENDBRANCH   1  25
TORSDOF 13
ENDMDL
