MODEL 1
REMARK VINA RESULT: -8.733777971      0.000      0.000
REMARK  7 active torsions:
REMARK  status: ('A' for Active; 'I' for Inactive)
REMARK       I    between atoms: N1_2  and  C3_4 
REMARK    1  A    between atoms: C3_4  and  C4_6 
REMARK    2  A    between atoms: C4_6  and  N2_7 
REMARK    3  A    between atoms: C4_6  and  C13_30 
REMARK       I    between atoms: N2_7  and  C5_9 
REMARK    4  A    between atoms: C5_9  and  C6_11 
REMARK    5  A    between atoms: N6_24  and  N7_25 
REMARK       I    between atoms: N7_25  and  C12_27 
REMARK    6  A    between atoms: C13_30  and  O6_31 
REMARK    7  A    between atoms: C13_30  and  O7_33 
ROOT
HETATM    1  C6  UNL     1     -16.808 -16.736   5.498  1.00  0.00     0.198 A 
HETATM    2  N3  UNL     1     -16.282 -17.050   4.322  1.00  0.00    -0.329 N 
ATOM      3  H3  UNL     1     -15.854 -17.942   4.075  1.00  0.00     0.168 HD
HETATM    4  C7  UNL     1     -16.412 -15.980   3.509  1.00  0.00     0.149 A 
HETATM    5  C8  UNL     1     -16.060 -15.803   2.179  1.00  0.00     0.280 A 
HETATM    6  O3  UNL     1     -15.480 -16.739   1.574  1.00  0.00    -0.265 OA
HETATM    7  N4  UNL     1     -16.344 -14.644   1.571  1.00  0.00    -0.273 N 
ATOM      8  H4  UNL     1     -16.095 -14.485   0.594  1.00  0.00     0.173 HD
HETATM    9  C9  UNL     1     -16.967 -13.701   2.293  1.00  0.00     0.330 A 
HETATM   10  O4  UNL     1     -17.254 -12.595   1.750  1.00  0.00    -0.246 OA
HETATM   11  N5  UNL     1     -17.324 -13.842   3.592  1.00  0.00    -0.286 N 
HETATM   12  C10 UNL     1     -18.124 -12.796   4.224  1.00  0.00     0.163 C 
HETATM   13  C11 UNL     1     -17.054 -14.989   4.263  1.00  0.00     0.168 A 
HETATM   14  N6  UNL     1     -17.294 -15.438   5.475  1.00  0.00    -0.212 N 
ENDROOT
BRANCH   1  15
HETATM   15  C5  UNL     1     -16.879 -17.614   6.672  1.00  0.00     0.288 C 
HETATM   16  N2  UNL     1     -16.471 -17.130   7.930  1.00  0.00    -0.337 N 
ATOM     17  H2  UNL     1     -16.132 -16.171   7.999  1.00  0.00     0.164 HD
HETATM   18  O2  UNL     1     -17.291 -18.796   6.620  1.00  0.00    -0.264 OA
BRANCH  16  19
HETATM   19  C4  UNL     1     -16.515 -17.959   9.157  1.00  0.00     0.232 C 
BRANCH  19  20
HETATM   20  C3  UNL     1     -15.764 -17.263  10.198  1.00  0.00     0.246 C 
HETATM   21  N1  UNL     1     -14.504 -17.529  10.716  1.00  0.00    -0.359 N 
HETATM   22  C1  UNL     1     -13.657 -18.575  10.241  1.00  0.00     0.152 C 
HETATM   23  C2  UNL     1     -13.988 -16.701  11.821  1.00  0.00     0.152 C 
HETATM   24  O1  UNL     1     -16.366 -16.243  10.711  1.00  0.00    -0.271 OA
ENDBRANCH  19  20
BRANCH  19  25
HETATM   25  C13 UNL     1     -17.985 -18.173   9.485  1.00  0.00     0.285 C 
BRANCH  25  26
HETATM   26  O6  UNL     1     -18.217 -18.846  10.659  1.00  0.00    -0.369 OA
ATOM     27  H6  UNL     1     -17.612 -18.638  11.361  1.00  0.00     0.212 HD
ENDBRANCH  25  26
BRANCH  25  28
HETATM   28  O7  UNL     1     -18.698 -16.986   9.512  1.00  0.00    -0.369 OA
ATOM     29  H7  UNL     1     -19.540 -17.078   9.943  1.00  0.00     0.212 HD
ENDBRANCH  25  28
ENDBRANCH  19  25
ENDBRANCH  16  19
ENDBRANCH   1  15
BRANCH  14  30
HETATM   30  N7  UNL     1     -17.933 -14.918   6.565  1.00  0.00    -0.244 N 
HETATM   31  C12 UNL     1     -19.294 -14.813   6.898  1.00  0.00     0.347 C 
HETATM   32  N8  UNL     1     -19.714 -14.252   8.164  1.00  0.00    -0.038 NA
HETATM   33  O5  UNL     1     -20.244 -15.174   6.171  1.00  0.00    -0.249 OA
ATOM     34  H7  UNL     1     -17.303 -14.534   7.270  1.00  0.00     0.192 HD
ENDBRANCH  14  30
TORSDOF 7
ENDMDL
MODEL 2
REMARK VINA RESULT: -8.298263013      2.457      3.771
REMARK  7 active torsions:
REMARK  status: ('A' for Active; 'I' for Inactive)
REMARK       I    between atoms: N1_2  and  C3_4 
REMARK    1  A    between atoms: C3_4  and  C4_6 
REMARK    2  A    between atoms: C4_6  and  N2_7 
REMARK    3  A    between atoms: C4_6  and  C13_30 
REMARK       I    between atoms: N2_7  and  C5_9 
REMARK    4  A    between atoms: C5_9  and  C6_11 
REMARK    5  A    between atoms: N6_24  and  N7_25 
REMARK       I    between atoms: N7_25  and  C12_27 
REMARK    6  A    between atoms: C13_30  and  O6_31 
REMARK    7  A    between atoms: C13_30  and  O7_33 
ROOT
HETATM    1  C6  UNL     1     -17.922 -15.068   6.957  1.00  0.00     0.198 A 
HETATM    2  N3  UNL     1     -18.131 -14.001   6.199  1.00  0.00    -0.329 N 
ATOM      3  H3  UNL     1     -18.520 -13.110   6.511  1.00  0.00     0.168 HD
HETATM    4  C7  UNL     1     -17.740 -14.299   4.942  1.00  0.00     0.149 A 
HETATM    5  C8  UNL     1     -17.718 -13.525   3.791  1.00  0.00     0.280 A 
HETATM    6  O3  UNL     1     -18.161 -12.350   3.839  1.00  0.00    -0.265 OA
HETATM    7  N4  UNL     1     -17.230 -14.044   2.658  1.00  0.00    -0.273 N 
ATOM      8  H4  UNL     1     -17.203 -13.499   1.795  1.00  0.00     0.173 HD
HETATM    9  C9  UNL     1     -16.777 -15.306   2.697  1.00  0.00     0.330 A 
HETATM   10  O4  UNL     1     -16.305 -15.827   1.646  1.00  0.00    -0.246 OA
HETATM   11  N5  UNL     1     -16.784 -16.088   3.804  1.00  0.00    -0.286 N 
HETATM   12  C10 UNL     1     -16.133 -17.394   3.753  1.00  0.00     0.163 C 
HETATM   13  C11 UNL     1     -17.276 -15.619   4.978  1.00  0.00     0.168 A 
HETATM   14  N6  UNL     1     -17.387 -16.098   6.198  1.00  0.00    -0.212 N 
ENDROOT
BRANCH   1  15
HETATM   15  C5  UNL     1     -18.206 -15.175   8.393  1.00  0.00     0.288 C 
HETATM   16  N2  UNL     1     -17.834 -14.127   9.257  1.00  0.00    -0.337 N 
ATOM     17  H2  UNL     1     -17.370 -13.308   8.863  1.00  0.00     0.164 HD
HETATM   18  O2  UNL     1     -18.773 -16.167   8.907  1.00  0.00    -0.264 OA
BRANCH  16  19
HETATM   19  C4  UNL     1     -18.088 -14.167  10.716  1.00  0.00     0.232 C 
BRANCH  19  20
HETATM   20  C3  UNL     1     -16.816 -13.958  11.401  1.00  0.00     0.246 C 
HETATM   21  N1  UNL     1     -15.678 -14.752  11.429  1.00  0.00    -0.359 N 
HETATM   22  C1  UNL     1     -15.544 -15.969  10.694  1.00  0.00     0.152 C 
HETATM   23  C2  UNL     1     -14.530 -14.342  12.257  1.00  0.00     0.152 C 
HETATM   24  O1  UNL     1     -16.739 -12.864  12.082  1.00  0.00    -0.271 OA
ENDBRANCH  19  20
BRANCH  19  25
HETATM   25  C13 UNL     1     -19.135 -13.101  11.004  1.00  0.00     0.285 C 
BRANCH  25  26
HETATM   26  O6  UNL     1     -19.521 -13.020  12.319  1.00  0.00    -0.369 OA
ATOM     27  H6  UNL     1     -19.548 -12.137  12.670  1.00  0.00     0.212 HD
ENDBRANCH  25  26
BRANCH  25  28
HETATM   28  O7  UNL     1     -18.735 -11.842  10.586  1.00  0.00    -0.369 OA
ATOM     29  H7  UNL     1     -18.912 -11.171  11.235  1.00  0.00     0.212 HD
ENDBRANCH  25  28
ENDBRANCH  19  25
ENDBRANCH  16  19
ENDBRANCH   1  15
BRANCH  14  30
HETATM   30  N7  UNL     1     -17.037 -17.281   6.784  1.00  0.00    -0.244 N 
HETATM   31  C12 UNL     1     -17.743 -18.481   6.978  1.00  0.00     0.347 C 
HETATM   32  N8  UNL     1     -17.113 -19.627   7.596  1.00  0.00    -0.038 NA
HETATM   33  O5  UNL     1     -18.933 -18.677   6.653  1.00  0.00    -0.249 OA
ATOM     34  H7  UNL     1     -16.085 -17.297   7.149  1.00  0.00     0.192 HD
ENDBRANCH  14  30
TORSDOF 7
ENDMDL
MODEL 3
REMARK VINA RESULT: -8.161181505      2.566      6.547
REMARK  7 active torsions:
REMARK  status: ('A' for Active; 'I' for Inactive)
REMARK       I    between atoms: N1_2  and  C3_4 
REMARK    1  A    between atoms: C3_4  and  C4_6 
REMARK    2  A    between atoms: C4_6  and  N2_7 
REMARK    3  A    between atoms: C4_6  and  C13_30 
REMARK       I    between atoms: N2_7  and  C5_9 
REMARK    4  A    between atoms: C5_9  and  C6_11 
REMARK    5  A    between atoms: N6_24  and  N7_25 
REMARK       I    between atoms: N7_25  and  C12_27 
REMARK    6  A    between atoms: C13_30  and  O6_31 
REMARK    7  A    between atoms: C13_30  and  O7_33 
ROOT
HETATM    1  C6  UNL     1     -16.824 -17.404   8.839  1.00  0.00     0.198 A 
HETATM    2  N3  UNL     1     -15.620 -17.795   9.233  1.00  0.00    -0.329 N 
ATOM      3  H3  UNL     1     -15.112 -18.610   8.891  1.00  0.00     0.168 HD
HETATM    4  C7  UNL     1     -15.185 -16.923  10.168  1.00  0.00     0.149 A 
HETATM    5  C8  UNL     1     -13.987 -16.862  10.864  1.00  0.00     0.280 A 
HETATM    6  O3  UNL     1     -13.128 -17.760  10.676  1.00  0.00    -0.265 OA
HETATM    7  N4  UNL     1     -13.771 -15.853  11.717  1.00  0.00    -0.273 N 
ATOM      8  H4  UNL     1     -12.900 -15.784  12.244  1.00  0.00     0.173 HD
HETATM    9  C9  UNL     1     -14.742 -14.938  11.854  1.00  0.00     0.330 A 
HETATM   10  O4  UNL     1     -14.571 -13.969  12.649  1.00  0.00    -0.246 OA
HETATM   11  N5  UNL     1     -15.923 -14.968  11.190  1.00  0.00    -0.286 N 
HETATM   12  C10 UNL     1     -16.837 -13.837  11.319  1.00  0.00     0.163 C 
HETATM   13  C11 UNL     1     -16.201 -15.971  10.320  1.00  0.00     0.168 A 
HETATM   14  N6  UNL     1     -17.204 -16.258   9.520  1.00  0.00    -0.212 N 
ENDROOT
BRANCH   1  15
HETATM   15  C5  UNL     1     -17.658 -18.069   7.830  1.00  0.00     0.288 C 
HETATM   16  N2  UNL     1     -17.058 -18.614   6.678  1.00  0.00    -0.337 N 
ATOM     17  H2  UNL     1     -16.048 -18.535   6.568  1.00  0.00     0.164 HD
HETATM   18  O2  UNL     1     -18.901 -18.183   7.936  1.00  0.00    -0.264 OA
BRANCH  16  19
HETATM   19  C4  UNL     1     -17.838 -19.298   5.620  1.00  0.00     0.232 C 
BRANCH  19  20
HETATM   20  C3  UNL     1     -17.346 -18.832   4.326  1.00  0.00     0.246 C 
HETATM   21  N1  UNL     1     -17.041 -17.546   3.900  1.00  0.00    -0.359 N 
HETATM   22  C1  UNL     1     -17.118 -16.395   4.741  1.00  0.00     0.152 C 
HETATM   23  C2  UNL     1     -16.615 -17.329   2.507  1.00  0.00     0.152 C 
HETATM   24  O1  UNL     1     -17.166 -19.759   3.448  1.00  0.00    -0.271 OA
ENDBRANCH  19  20
BRANCH  19  25
HETATM   25  C13 UNL     1     -17.667 -20.792   5.851  1.00  0.00     0.285 C 
BRANCH  25  26
HETATM   26  O6  UNL     1     -18.455 -21.587   5.058  1.00  0.00    -0.369 OA
ATOM     27  H6  UNL     1     -18.513 -22.493   5.338  1.00  0.00     0.212 HD
ENDBRANCH  25  26
BRANCH  25  28
HETATM   28  O7  UNL     1     -16.350 -21.200   5.710  1.00  0.00    -0.369 OA
ATOM     29  H7  UNL     1     -16.228 -22.115   5.938  1.00  0.00     0.212 HD
ENDBRANCH  25  28
ENDBRANCH  19  25
ENDBRANCH  16  19
ENDBRANCH   1  15
BRANCH  14  30
HETATM   30  N7  UNL     1     -18.390 -15.643   9.234  1.00  0.00    -0.244 N 
HETATM   31  C12 UNL     1     -18.764 -14.742   8.222  1.00  0.00     0.347 C 
HETATM   32  N8  UNL     1     -20.125 -14.268   8.108  1.00  0.00    -0.038 NA
HETATM   33  O5  UNL     1     -17.996 -14.275   7.353  1.00  0.00    -0.249 OA
ATOM     34  H7  UNL     1     -19.145 -15.883   9.875  1.00  0.00     0.192 HD
ENDBRANCH  14  30
TORSDOF 7
ENDMDL
MODEL 4
REMARK VINA RESULT: -8.100009660      2.724      7.745
REMARK  7 active torsions:
REMARK  status: ('A' for Active; 'I' for Inactive)
REMARK       I    between atoms: N1_2  and  C3_4 
REMARK    1  A    between atoms: C3_4  and  C4_6 
REMARK    2  A    between atoms: C4_6  and  N2_7 
REMARK    3  A    between atoms: C4_6  and  C13_30 
REMARK       I    between atoms: N2_7  and  C5_9 
REMARK    4  A    between atoms: C5_9  and  C6_11 
REMARK    5  A    between atoms: N6_24  and  N7_25 
REMARK       I    between atoms: N7_25  and  C12_27 
REMARK    6  A    between atoms: C13_30  and  O6_31 
REMARK    7  A    between atoms: C13_30  and  O7_33 
ROOT
HETATM    1  C6  UNL     1     -14.638 -17.862  10.356  1.00  0.00     0.198 A 
HETATM    2  N3  UNL     1     -13.707 -18.754  10.049  1.00  0.00    -0.329 N 
ATOM      3  H3  UNL     1     -13.784 -19.481   9.337  1.00  0.00     0.168 HD
HETATM    4  C7  UNL     1     -12.638 -18.532  10.843  1.00  0.00     0.149 A 
HETATM    5  C8  UNL     1     -11.402 -19.159  10.898  1.00  0.00     0.280 A 
HETATM    6  O3  UNL     1     -11.181 -20.134  10.137  1.00  0.00    -0.265 OA
HETATM    7  N4  UNL     1     -10.475 -18.714  11.755  1.00  0.00    -0.273 N 
ATOM      8  H4  UNL     1      -9.558 -19.156  11.818  1.00  0.00     0.173 HD
HETATM    9  C9  UNL     1     -10.797 -17.666  12.528  1.00  0.00     0.330 A 
HETATM   10  O4  UNL     1      -9.945 -17.216  13.347  1.00  0.00    -0.246 OA
HETATM   11  N5  UNL     1     -11.994 -17.032  12.500  1.00  0.00    -0.286 N 
HETATM   12  C10 UNL     1     -12.170 -15.815  13.288  1.00  0.00     0.163 C 
HETATM   13  C11 UNL     1     -12.975 -17.444  11.658  1.00  0.00     0.168 A 
HETATM   14  N6  UNL     1     -14.191 -17.033  11.373  1.00  0.00    -0.212 N 
ENDROOT
BRANCH   1  15
HETATM   15  C5  UNL     1     -15.961 -17.746   9.730  1.00  0.00     0.288 C 
HETATM   16  N2  UNL     1     -16.068 -17.733   8.326  1.00  0.00    -0.337 N 
ATOM     17  H2  UNL     1     -15.217 -17.805   7.769  1.00  0.00     0.164 HD
HETATM   18  O2  UNL     1     -17.024 -17.655  10.386  1.00  0.00    -0.264 OA
BRANCH  16  19
HETATM   19  C4  UNL     1     -17.369 -17.618   7.626  1.00  0.00     0.232 C 
BRANCH  19  20
HETATM   20  C3  UNL     1     -17.178 -16.762   6.458  1.00  0.00     0.246 C 
HETATM   21  N1  UNL     1     -17.665 -15.488   6.198  1.00  0.00    -0.359 N 
HETATM   22  C1  UNL     1     -18.449 -14.736   7.124  1.00  0.00     0.152 C 
HETATM   23  C2  UNL     1     -17.374 -14.855   4.900  1.00  0.00     0.152 C 
HETATM   24  O1  UNL     1     -16.440 -17.268   5.529  1.00  0.00    -0.271 OA
ENDBRANCH  19  20
BRANCH  19  25
HETATM   25  C13 UNL     1     -17.812 -19.035   7.295  1.00  0.00     0.285 C 
BRANCH  25  26
HETATM   26  O6  UNL     1     -18.878 -19.115   6.435  1.00  0.00    -0.369 OA
ATOM     27  H6  UNL     1     -18.988 -18.360   5.868  1.00  0.00     0.212 HD
ENDBRANCH  25  26
BRANCH  25  28
HETATM   28  O7  UNL     1     -16.779 -19.805   6.785  1.00  0.00    -0.369 OA
ATOM     29  H7  UNL     1     -15.998 -19.293   6.609  1.00  0.00     0.212 HD
ENDBRANCH  25  28
ENDBRANCH  19  25
ENDBRANCH  16  19
ENDBRANCH   1  15
BRANCH  14  30
HETATM   30  N7  UNL     1     -14.966 -15.999  11.816  1.00  0.00    -0.244 N 
HETATM   31  C12 UNL     1     -14.955 -14.623  11.529  1.00  0.00     0.347 C 
HETATM   32  N8  UNL     1     -15.937 -13.731  12.105  1.00  0.00    -0.038 NA
HETATM   33  O5  UNL     1     -14.135 -14.050  10.781  1.00  0.00    -0.249 OA
ATOM     34  H7  UNL     1     -15.689 -16.278  12.479  1.00  0.00     0.192 HD
ENDBRANCH  14  30
TORSDOF 7
ENDMDL
MODEL 5
REMARK VINA RESULT: -7.858627036      4.162      7.124
REMARK  7 active torsions:
REMARK  status: ('A' for Active; 'I' for Inactive)
REMARK       I    between atoms: N1_2  and  C3_4 
REMARK    1  A    between atoms: C3_4  and  C4_6 
REMARK    2  A    between atoms: C4_6  and  N2_7 
REMARK    3  A    between atoms: C4_6  and  C13_30 
REMARK       I    between atoms: N2_7  and  C5_9 
REMARK    4  A    between atoms: C5_9  and  C6_11 
REMARK    5  A    between atoms: N6_24  and  N7_25 
REMARK       I    between atoms: N7_25  and  C12_27 
REMARK    6  A    between atoms: C13_30  and  O6_31 
REMARK    7  A    between atoms: C13_30  and  O7_33 
ROOT
HETATM    1  C6  UNL     1     -15.587 -14.617  11.395  1.00  0.00     0.198 A 
HETATM    2  N3  UNL     1     -16.619 -13.792  11.504  1.00  0.00    -0.329 N 
ATOM      3  H3  UNL     1     -16.681 -12.987  12.128  1.00  0.00     0.168 HD
HETATM    4  C7  UNL     1     -17.575 -14.204  10.643  1.00  0.00     0.149 A 
HETATM    5  C8  UNL     1     -18.821 -13.672  10.347  1.00  0.00     0.280 A 
HETATM    6  O3  UNL     1     -19.213 -12.657  10.977  1.00  0.00    -0.265 OA
HETATM    7  N4  UNL     1     -19.575 -14.246   9.403  1.00  0.00    -0.273 N 
ATOM      8  H4  UNL     1     -20.496 -13.878   9.165  1.00  0.00     0.173 HD
HETATM    9  C9  UNL     1     -19.076 -15.324   8.780  1.00  0.00     0.330 A 
HETATM   10  O4  UNL     1     -19.760 -15.891   7.880  1.00  0.00    -0.246 OA
HETATM   11  N5  UNL     1     -17.864 -15.870   9.045  1.00  0.00    -0.286 N 
HETATM   12  C10 UNL     1     -17.376 -16.955   8.200  1.00  0.00     0.163 C 
HETATM   13  C11 UNL     1     -17.060 -15.336   9.998  1.00  0.00     0.168 A 
HETATM   14  N6  UNL     1     -15.854 -15.598  10.452  1.00  0.00    -0.212 N 
ENDROOT
BRANCH   1  15
HETATM   15  C5  UNL     1     -14.332 -14.530  12.150  1.00  0.00     0.288 C 
HETATM   16  N2  UNL     1     -13.113 -14.370  11.462  1.00  0.00    -0.337 N 
ATOM     17  H2  UNL     1     -13.130 -14.316  10.443  1.00  0.00     0.164 HD
HETATM   18  O2  UNL     1     -14.278 -14.593  13.400  1.00  0.00    -0.264 OA
BRANCH  16  19
HETATM   19  C4  UNL     1     -11.809 -14.275  12.158  1.00  0.00     0.232 C 
BRANCH  19  20
HETATM   20  C3  UNL     1     -11.246 -15.620  12.243  1.00  0.00     0.246 C 
HETATM   21  N1  UNL     1     -10.977 -16.405  13.356  1.00  0.00    -0.359 N 
HETATM   22  C1  UNL     1     -11.278 -16.010  14.694  1.00  0.00     0.152 C 
HETATM   23  C2  UNL     1     -10.342 -17.722  13.175  1.00  0.00     0.152 C 
HETATM   24  O1  UNL     1     -10.958 -16.160  11.107  1.00  0.00    -0.271 OA
ENDBRANCH  19  20
BRANCH  19  25
HETATM   25  C13 UNL     1     -10.962 -13.293  11.365  1.00  0.00     0.285 C 
BRANCH  25  26
HETATM   26  O6  UNL     1      -9.619 -13.341  11.643  1.00  0.00    -0.369 OA
ATOM     27  H6  UNL     1      -9.221 -12.496  11.819  1.00  0.00     0.212 HD
ENDBRANCH  25  26
BRANCH  25  28
HETATM   28  O7  UNL     1     -11.132 -13.434   9.997  1.00  0.00    -0.369 OA
ATOM     29  H7  UNL     1     -11.575 -14.244   9.768  1.00  0.00     0.212 HD
ENDBRANCH  25  28
ENDBRANCH  19  25
ENDBRANCH  16  19
ENDBRANCH   1  15
BRANCH  14  30
HETATM   30  N7  UNL     1     -14.906 -16.528  10.133  1.00  0.00    -0.244 N 
HETATM   31  C12 UNL     1     -14.718 -17.860  10.542  1.00  0.00     0.347 C 
HETATM   32  N8  UNL     1     -13.640 -18.662  10.006  1.00  0.00    -0.038 NA
HETATM   33  O5  UNL     1     -15.427 -18.465  11.374  1.00  0.00    -0.249 OA
ATOM     34  H7  UNL     1     -14.203 -16.194   9.474  1.00  0.00     0.192 HD
ENDBRANCH  14  30
TORSDOF 7
ENDMDL
