MODEL 1
REMARK VINA RESULT: -8.140435516      0.000      0.000
REMARK  8 active torsions:
REMARK  status: ('A' for Active; 'I' for Inactive)
REMARK    1  A    between atoms: N3_9  and  C5_10 
REMARK    2  A    between atoms: C7_17  and  C8_18 
REMARK    3  A    between atoms: C8_18  and  N6_19 
REMARK    4  A    between atoms: C8_18  and  C9_23 
REMARK    5  A    between atoms: C9_23  and  O4_24 
REMARK    6  A    between atoms: C9_23  and  C10_26 
REMARK    7  A    between atoms: C10_26  and  O5_27 
REMARK    8  A    between atoms: C10_26  and  C11_29 
ROOT
HETATM    1  C5  UNL     1     -19.128 -14.295   7.553  1.00  0.00     0.351 C 
HETATM    2  N4  UNL     1     -20.520 -14.645   7.603  1.00  0.00    -0.299 N 
ATOM      3  H4  UNL     1     -20.963 -15.055   6.781  1.00  0.00     0.168 HD
HETATM    4  C6  UNL     1     -21.302 -14.429   8.788  1.00  0.00     0.321 C 
HETATM    5  O3  UNL     1     -22.551 -14.433   8.725  1.00  0.00    -0.247 OA
HETATM    6  N5  UNL     1     -20.535 -14.223   9.963  1.00  0.00    -0.314 N 
ATOM      7  H5  UNL     1     -21.002 -14.092  10.861  1.00  0.00     0.166 HD
HETATM    8  C7  UNL     1     -19.089 -14.199   9.886  1.00  0.00     0.262 C 
HETATM    9  O7  UNL     1     -18.577 -13.852   8.712  1.00  0.00    -0.322 OA
ENDROOT
BRANCH   8  10
HETATM   10  C8  UNL     1     -18.591 -13.531  11.130  1.00  0.00     0.263 C 
BRANCH  10  11
HETATM   11  N6  UNL     1     -19.681 -12.564  11.477  1.00  0.00    -0.068 N 
ATOM     12  H63 UNL     1     -19.505 -12.015  12.319  1.00  0.00     0.275 HD
ATOM     13  H62 UNL     1     -19.755 -11.768  10.842  1.00  0.00     0.275 HD
ATOM     14  H61 UNL     1     -20.518 -13.145  11.521  1.00  0.00     0.275 HD
ENDBRANCH  10  11
BRANCH  10  15
HETATM   15  C9  UNL     1     -17.317 -12.728  10.991  1.00  0.00     0.190 C 
BRANCH  15  16
HETATM   16  O4  UNL     1     -17.807 -11.391  10.696  1.00  0.00    -0.390 OA
ATOM     17  H4  UNL     1     -17.157 -10.833  11.106  1.00  0.00     0.210 HD
ENDBRANCH  15  16
BRANCH  15  18
HETATM   18  C10 UNL     1     -16.640 -12.528  12.315  1.00  0.00     0.237 C 
BRANCH  18  19
HETATM   19  O5  UNL     1     -16.224 -11.272  12.616  1.00  0.00    -0.384 OA
ATOM     20  H5  UNL     1     -15.321 -11.167  12.893  1.00  0.00     0.210 HD
ENDBRANCH  18  19
BRANCH  18  21
HETATM   21  C11 UNL     1     -15.468 -13.459  12.455  1.00  0.00     0.262 C 
HETATM   22  N7  UNL     1     -15.159 -14.421  11.463  1.00  0.00    -0.060 NA
HETATM   23  O6  UNL     1     -14.770 -13.349  13.489  1.00  0.00    -0.274 OA
ENDBRANCH  18  21
ENDBRANCH  15  18
ENDBRANCH  10  15
ENDBRANCH   8  10
BRANCH   1  24
HETATM   24  N3  UNL     1     -18.428 -15.379   6.898  1.00  0.00    -0.204 N 
HETATM   25  C4  UNL     1     -18.360 -16.624   7.419  1.00  0.00     0.339 A 
HETATM   26  N2  UNL     1     -17.708 -17.636   6.812  1.00  0.00    -0.255 N 
HETATM   27  O2  UNL     1     -18.925 -16.873   8.524  1.00  0.00    -0.246 OA
HETATM   28  C2  UNL     1     -17.093 -17.397   5.625  1.00  0.00     0.336 A 
HETATM   29  C3  UNL     1     -17.672 -18.945   7.422  1.00  0.00     0.166 C 
HETATM   30  N1  UNL     1     -17.141 -16.187   5.089  1.00  0.00    -0.255 N 
HETATM   31  O1  UNL     1     -16.481 -18.345   5.052  1.00  0.00    -0.246 OA
HETATM   32  C1  UNL     1     -16.479 -15.934   3.814  1.00  0.00     0.166 C 
HETATM   33  C12 UNL     1     -17.807 -15.183   5.726  1.00  0.00     0.339 A 
HETATM   34  O8  UNL     1     -17.813 -14.076   5.168  1.00  0.00    -0.246 OA
ENDBRANCH   1  24
TORSDOF 8
ENDMDL
MODEL 2
REMARK VINA RESULT: -8.078434481      0.026      2.009
REMARK  8 active torsions:
REMARK  status: ('A' for Active; 'I' for Inactive)
REMARK    1  A    between atoms: N3_9  and  C5_10 
REMARK    2  A    between atoms: C7_17  and  C8_18 
REMARK    3  A    between atoms: C8_18  and  N6_19 
REMARK    4  A    between atoms: C8_18  and  C9_23 
REMARK    5  A    between atoms: C9_23  and  O4_24 
REMARK    6  A    between atoms: C9_23  and  C10_26 
REMARK    7  A    between atoms: C10_26  and  O5_27 
REMARK    8  A    between atoms: C10_26  and  C11_29 
ROOT
HETATM    1  C5  UNL     1     -19.126 -14.281   7.540  1.00  0.00     0.351 C 
HETATM    2  N4  UNL     1     -20.517 -14.636   7.591  1.00  0.00    -0.299 N 
ATOM      3  H4  UNL     1     -20.959 -15.043   6.766  1.00  0.00     0.168 HD
HETATM    4  C6  UNL     1     -21.297 -14.431   8.779  1.00  0.00     0.321 C 
HETATM    5  O3  UNL     1     -22.546 -14.440   8.718  1.00  0.00    -0.247 OA
HETATM    6  N5  UNL     1     -20.530 -14.230   9.953  1.00  0.00    -0.314 N 
ATOM      7  H5  UNL     1     -20.995 -14.106  10.852  1.00  0.00     0.166 HD
HETATM    8  C7  UNL     1     -19.084 -14.199   9.874  1.00  0.00     0.262 C 
HETATM    9  O7  UNL     1     -18.575 -13.843   8.702  1.00  0.00    -0.322 OA
ENDROOT
BRANCH   8  10
HETATM   10  C8  UNL     1     -18.587 -13.537  11.122  1.00  0.00     0.263 C 
BRANCH  10  11
HETATM   11  N6  UNL     1     -19.680 -12.576  11.476  1.00  0.00    -0.068 N 
ATOM     12  H63 UNL     1     -19.356 -11.710  11.906  1.00  0.00     0.275 HD
ATOM     13  H62 UNL     1     -20.130 -12.137  10.673  1.00  0.00     0.275 HD
ATOM     14  H61 UNL     1     -20.308 -13.128  12.061  1.00  0.00     0.275 HD
ENDBRANCH  10  11
BRANCH  10  15
HETATM   15  C9  UNL     1     -17.316 -12.729  10.985  1.00  0.00     0.190 C 
BRANCH  15  16
HETATM   16  O4  UNL     1     -17.811 -11.393  10.693  1.00  0.00    -0.390 OA
ATOM     17  H4  UNL     1     -18.435 -11.240  11.392  1.00  0.00     0.210 HD
ENDBRANCH  15  16
BRANCH  15  18
HETATM   18  C10 UNL     1     -16.641 -12.528  12.311  1.00  0.00     0.237 C 
BRANCH  18  19
HETATM   19  O5  UNL     1     -16.226 -11.271  12.613  1.00  0.00    -0.384 OA
ATOM     20  H5  UNL     1     -16.595 -10.558  12.105  1.00  0.00     0.210 HD
ENDBRANCH  18  19
BRANCH  18  21
HETATM   21  C11 UNL     1     -15.469 -13.458  12.454  1.00  0.00     0.262 C 
HETATM   22  N7  UNL     1     -15.159 -14.421  11.463  1.00  0.00    -0.060 NA
HETATM   23  O6  UNL     1     -14.772 -13.347  13.488  1.00  0.00    -0.274 OA
ENDBRANCH  18  21
ENDBRANCH  15  18
ENDBRANCH  10  15
ENDBRANCH   8  10
BRANCH   1  24
HETATM   24  N3  UNL     1     -18.423 -15.358   6.878  1.00  0.00    -0.204 N 
HETATM   25  C4  UNL     1     -17.786 -15.198   5.698  1.00  0.00     0.339 A 
HETATM   26  N2  UNL     1     -17.130 -16.199   5.079  1.00  0.00    -0.255 N 
HETATM   27  O2  UNL     1     -17.794 -14.065   5.131  1.00  0.00    -0.246 OA
HETATM   28  C2  UNL     1     -17.105 -17.423   5.665  1.00  0.00     0.336 A 
HETATM   29  C3  UNL     1     -16.469 -15.962   3.816  1.00  0.00     0.166 C 
HETATM   30  N1  UNL     1     -17.720 -17.613   6.823  1.00  0.00    -0.255 N 
HETATM   31  O1  UNL     1     -16.489 -18.366   5.087  1.00  0.00    -0.246 OA
HETATM   32  C1  UNL     1     -17.691 -18.930   7.449  1.00  0.00     0.166 C 
HETATM   33  C12 UNL     1     -18.376 -16.582   7.425  1.00  0.00     0.339 A 
HETATM   34  O8  UNL     1     -18.929 -16.829   8.506  1.00  0.00    -0.246 OA
ENDBRANCH   1  24
TORSDOF 8
ENDMDL
MODEL 3
REMARK VINA RESULT: -7.964887831      2.056      2.751
REMARK  8 active torsions:
REMARK  status: ('A' for Active; 'I' for Inactive)
REMARK    1  A    between atoms: N3_9  and  C5_10 
REMARK    2  A    between atoms: C7_17  and  C8_18 
REMARK    3  A    between atoms: C8_18  and  N6_19 
REMARK    4  A    between atoms: C8_18  and  C9_23 
REMARK    5  A    between atoms: C9_23  and  O4_24 
REMARK    6  A    between atoms: C9_23  and  C10_26 
REMARK    7  A    between atoms: C10_26  and  O5_27 
REMARK    8  A    between atoms: C10_26  and  C11_29 
ROOT
HETATM    1  C5  UNL     1     -18.745 -13.627   5.819  1.00  0.00     0.351 C 
HETATM    2  N4  UNL     1     -20.084 -14.122   5.662  1.00  0.00    -0.299 N 
ATOM      3  H4  UNL     1     -20.492 -14.171   4.728  1.00  0.00     0.168 HD
HETATM    4  C6  UNL     1     -20.859 -14.549   6.792  1.00  0.00     0.321 C 
HETATM    5  O3  UNL     1     -22.100 -14.669   6.692  1.00  0.00    -0.247 OA
HETATM    6  N5  UNL     1     -20.098 -14.799   7.961  1.00  0.00    -0.314 N 
ATOM      7  H5  UNL     1     -20.557 -15.136   8.807  1.00  0.00     0.166 HD
HETATM    8  C7  UNL     1     -18.666 -14.575   7.952  1.00  0.00     0.262 C 
HETATM    9  O7  UNL     1     -18.225 -13.685   7.072  1.00  0.00    -0.322 OA
ENDROOT
BRANCH   8  10
HETATM   10  C8  UNL     1     -18.226 -14.478   9.379  1.00  0.00     0.263 C 
BRANCH  10  11
HETATM   11  N6  UNL     1     -18.455 -15.856   9.919  1.00  0.00    -0.068 N 
ATOM     12  H63 UNL     1     -19.437 -16.092  10.066  1.00  0.00     0.275 HD
ATOM     13  H62 UNL     1     -18.261 -16.605   9.255  1.00  0.00     0.275 HD
ATOM     14  H61 UNL     1     -17.884 -15.885  10.764  1.00  0.00     0.275 HD
ENDBRANCH  10  11
BRANCH  10  15
HETATM   15  C9  UNL     1     -19.009 -13.525  10.254  1.00  0.00     0.190 C 
BRANCH  15  16
HETATM   16  O4  UNL     1     -19.299 -14.328  11.431  1.00  0.00    -0.390 OA
ATOM     17  H4  UNL     1     -19.133 -13.724  12.146  1.00  0.00     0.210 HD
ENDBRANCH  15  16
BRANCH  15  18
HETATM   18  C10 UNL     1     -18.134 -12.445  10.821  1.00  0.00     0.237 C 
BRANCH  18  19
HETATM   19  O5  UNL     1     -17.538 -11.602   9.939  1.00  0.00    -0.384 OA
ATOM     20  H5  UNL     1     -18.084 -11.232   9.256  1.00  0.00     0.210 HD
ENDBRANCH  18  19
BRANCH  18  21
HETATM   21  C11 UNL     1     -17.068 -13.036  11.700  1.00  0.00     0.262 C 
HETATM   22  N7  UNL     1     -16.147 -13.994  11.211  1.00  0.00    -0.060 NA
HETATM   23  O6  UNL     1     -17.025 -12.645  12.890  1.00  0.00    -0.274 OA
ENDBRANCH  18  21
ENDBRANCH  15  18
ENDBRANCH  10  15
ENDBRANCH   8  10
BRANCH   1  24
HETATM   24  N3  UNL     1     -17.934 -14.217   4.775  1.00  0.00    -0.204 N 
HETATM   25  C4  UNL     1     -17.632 -15.533   4.741  1.00  0.00     0.339 A 
HETATM   26  N2  UNL     1     -16.878 -16.086   3.771  1.00  0.00    -0.255 N 
HETATM   27  O2  UNL     1     -18.067 -16.299   5.651  1.00  0.00    -0.246 OA
HETATM   28  C2  UNL     1     -16.400 -15.287   2.782  1.00  0.00     0.336 A 
HETATM   29  C3  UNL     1     -16.591 -17.501   3.792  1.00  0.00     0.166 C 
HETATM   30  N1  UNL     1     -16.678 -13.992   2.787  1.00  0.00    -0.255 N 
HETATM   31  O1  UNL     1     -15.691 -15.802   1.868  1.00  0.00    -0.246 OA
HETATM   32  C1  UNL     1     -16.162 -13.138   1.724  1.00  0.00     0.166 C 
HETATM   33  C12 UNL     1     -17.443 -13.461   3.782  1.00  0.00     0.339 A 
HETATM   34  O8  UNL     1     -17.665 -12.243   3.725  1.00  0.00    -0.246 OA
ENDBRANCH   1  24
TORSDOF 8
ENDMDL
MODEL 4
REMARK VINA RESULT: -7.896645253      2.043      3.333
REMARK  8 active torsions:
REMARK  status: ('A' for Active; 'I' for Inactive)
REMARK    1  A    between atoms: N3_9  and  C5_10 
REMARK    2  A    between atoms: C7_17  and  C8_18 
REMARK    3  A    between atoms: C8_18  and  N6_19 
REMARK    4  A    between atoms: C8_18  and  C9_23 
REMARK    5  A    between atoms: C9_23  and  O4_24 
REMARK    6  A    between atoms: C9_23  and  C10_26 
REMARK    7  A    between atoms: C10_26  and  O5_27 
REMARK    8  A    between atoms: C10_26  and  C11_29 
ROOT
HETATM    1  C5  UNL     1     -18.758 -13.624   5.824  1.00  0.00     0.351 C 
HETATM    2  N4  UNL     1     -20.094 -14.128   5.670  1.00  0.00    -0.299 N 
ATOM      3  H4  UNL     1     -20.504 -14.180   4.737  1.00  0.00     0.168 HD
HETATM    4  C6  UNL     1     -20.863 -14.561   6.802  1.00  0.00     0.321 C 
HETATM    5  O3  UNL     1     -22.104 -14.690   6.705  1.00  0.00    -0.247 OA
HETATM    6  N5  UNL     1     -20.097 -14.807   7.969  1.00  0.00    -0.314 N 
ATOM      7  H5  UNL     1     -20.552 -15.147   8.816  1.00  0.00     0.166 HD
HETATM    8  C7  UNL     1     -18.667 -14.573   7.956  1.00  0.00     0.262 C 
HETATM    9  O7  UNL     1     -18.234 -13.679   7.076  1.00  0.00    -0.322 OA
ENDROOT
BRANCH   8  10
HETATM   10  C8  UNL     1     -18.223 -14.474   9.383  1.00  0.00     0.263 C 
BRANCH  10  11
HETATM   11  N6  UNL     1     -18.450 -15.851   9.924  1.00  0.00    -0.068 N 
ATOM     12  H63 UNL     1     -18.418 -15.914  10.942  1.00  0.00     0.275 HD
ATOM     13  H62 UNL     1     -19.407 -16.190   9.825  1.00  0.00     0.275 HD
ATOM     14  H61 UNL     1     -17.751 -16.419   9.445  1.00  0.00     0.275 HD
ENDBRANCH  10  11
BRANCH  10  15
HETATM   15  C9  UNL     1     -19.007 -13.521  10.258  1.00  0.00     0.190 C 
BRANCH  15  16
HETATM   16  O4  UNL     1     -19.295 -14.325  11.436  1.00  0.00    -0.390 OA
ATOM     17  H4  UNL     1     -20.159 -14.671  11.249  1.00  0.00     0.210 HD
ENDBRANCH  15  16
BRANCH  15  18
HETATM   18  C10 UNL     1     -18.131 -12.441  10.824  1.00  0.00     0.237 C 
BRANCH  18  19
HETATM   19  O5  UNL     1     -17.543 -11.593   9.942  1.00  0.00    -0.384 OA
ATOM     20  H5  UNL     1     -17.246 -10.755  10.277  1.00  0.00     0.210 HD
ENDBRANCH  18  19
BRANCH  18  21
HETATM   21  C11 UNL     1     -17.059 -13.032  11.696  1.00  0.00     0.262 C 
HETATM   22  N7  UNL     1     -16.134 -13.980  11.197  1.00  0.00    -0.060 NA
HETATM   23  O6  UNL     1     -17.016 -12.651  12.889  1.00  0.00    -0.274 OA
ENDBRANCH  18  21
ENDBRANCH  15  18
ENDBRANCH  10  15
ENDBRANCH   8  10
BRANCH   1  24
HETATM   24  N3  UNL     1     -17.946 -14.208   4.778  1.00  0.00    -0.204 N 
HETATM   25  C4  UNL     1     -17.434 -13.482   3.760  1.00  0.00     0.339 A 
HETATM   26  N2  UNL     1     -16.678 -14.023   2.784  1.00  0.00    -0.255 N 
HETATM   27  O2  UNL     1     -17.662 -12.238   3.701  1.00  0.00    -0.246 OA
HETATM   28  C2  UNL     1     -16.417 -15.355   2.824  1.00  0.00     0.336 A 
HETATM   29  C3  UNL     1     -16.159 -13.192   1.723  1.00  0.00     0.166 C 
HETATM   30  N1  UNL     1     -16.905 -16.094   3.809  1.00  0.00    -0.255 N 
HETATM   31  O1  UNL     1     -15.706 -15.866   1.910  1.00  0.00    -0.246 OA
HETATM   32  C1  UNL     1     -16.623 -17.525   3.847  1.00  0.00     0.166 C 
HETATM   33  C12 UNL     1     -17.667 -15.520   4.781  1.00  0.00     0.339 A 
HETATM   34  O8  UNL     1     -18.091 -16.269   5.673  1.00  0.00    -0.246 OA
ENDBRANCH   1  24
TORSDOF 8
ENDMDL
MODEL 5
REMARK VINA RESULT: -7.825098485      2.786      3.648
REMARK  8 active torsions:
REMARK  status: ('A' for Active; 'I' for Inactive)
REMARK    1  A    between atoms: N3_9  and  C5_10 
REMARK    2  A    between atoms: C7_17  and  C8_18 
REMARK    3  A    between atoms: C8_18  and  N6_19 
REMARK    4  A    between atoms: C8_18  and  C9_23 
REMARK    5  A    between atoms: C9_23  and  O4_24 
REMARK    6  A    between atoms: C9_23  and  C10_26 
REMARK    7  A    between atoms: C10_26  and  O5_27 
REMARK    8  A    between atoms: C10_26  and  C11_29 
ROOT
HETATM    1  C5  UNL     1     -18.508 -14.034   6.113  1.00  0.00     0.351 C 
HETATM    2  N4  UNL     1     -19.933 -14.169   5.995  1.00  0.00    -0.299 N 
ATOM      3  H4  UNL     1     -20.387 -13.921   5.115  1.00  0.00     0.168 HD
HETATM    4  C6  UNL     1     -20.732 -14.644   7.089  1.00  0.00     0.321 C 
HETATM    5  O3  UNL     1     -21.969 -14.457   7.090  1.00  0.00    -0.247 OA
HETATM    6  N5  UNL     1     -19.997 -15.307   8.103  1.00  0.00    -0.314 N 
ATOM      7  H5  UNL     1     -20.481 -15.707   8.907  1.00  0.00     0.166 HD
HETATM    8  C7  UNL     1     -18.556 -15.415   7.997  1.00  0.00     0.262 C 
HETATM    9  O7  UNL     1     -17.956 -14.478   7.273  1.00  0.00    -0.322 OA
ENDROOT
BRANCH   8  10
HETATM   10  C8  UNL     1     -18.034 -15.731   9.364  1.00  0.00     0.263 C 
BRANCH  10  11
HETATM   11  N6  UNL     1     -18.054 -14.410  10.069  1.00  0.00    -0.068 N 
ATOM     12  H63 UNL     1     -18.552 -13.674   9.569  1.00  0.00     0.275 HD
ATOM     13  H62 UNL     1     -18.637 -14.388  10.905  1.00  0.00     0.275 HD
ATOM     14  H61 UNL     1     -17.068 -14.210  10.239  1.00  0.00     0.275 HD
ENDBRANCH  10  11
BRANCH  10  15
HETATM   15  C9  UNL     1     -16.614 -16.247   9.432  1.00  0.00     0.190 C 
BRANCH  15  16
HETATM   16  O4  UNL     1     -16.150 -15.751  10.718  1.00  0.00    -0.390 OA
ATOM     17  H4  UNL     1     -15.327 -16.210  10.837  1.00  0.00     0.210 HD
ENDBRANCH  15  16
BRANCH  15  18
HETATM   18  C10 UNL     1     -16.573 -17.733   9.637  1.00  0.00     0.237 C 
BRANCH  18  19
HETATM   19  O5  UNL     1     -17.646 -18.307  10.239  1.00  0.00    -0.384 OA
ATOM     20  H5  UNL     1     -17.487 -18.795  11.038  1.00  0.00     0.210 HD
ENDBRANCH  18  19
BRANCH  18  21
HETATM   21  C11 UNL     1     -15.339 -18.127  10.400  1.00  0.00     0.262 C 
HETATM   22  N7  UNL     1     -14.048 -18.036   9.824  1.00  0.00    -0.060 NA
HETATM   23  O6  UNL     1     -15.497 -18.541  11.571  1.00  0.00    -0.274 OA
ENDBRANCH  18  21
ENDBRANCH  15  18
ENDBRANCH  10  15
ENDBRANCH   8  10
BRANCH   1  24
HETATM   24  N3  UNL     1     -17.916 -14.551   4.898  1.00  0.00    -0.204 N 
HETATM   25  C4  UNL     1     -17.688 -15.868   4.700  1.00  0.00     0.339 A 
HETATM   26  N2  UNL     1     -17.137 -16.353   3.570  1.00  0.00    -0.255 N 
HETATM   27  O2  UNL     1     -17.996 -16.700   5.603  1.00  0.00    -0.246 OA
HETATM   28  C2  UNL     1     -16.797 -15.482   2.584  1.00  0.00     0.336 A 
HETATM   29  C3  UNL     1     -16.918 -17.772   3.420  1.00  0.00     0.166 C 
HETATM   30  N1  UNL     1     -17.008 -14.184   2.748  1.00  0.00    -0.255 N 
HETATM   31  O1  UNL     1     -16.280 -15.933   1.521  1.00  0.00    -0.246 OA
HETATM   32  C1  UNL     1     -16.641 -13.253   1.688  1.00  0.00     0.166 C 
HETATM   33  C12 UNL     1     -17.566 -13.724   3.902  1.00  0.00     0.339 A 
HETATM   34  O8  UNL     1     -17.737 -12.499   3.989  1.00  0.00    -0.246 OA
ENDBRANCH   1  24
TORSDOF 8
ENDMDL
