MODEL 1
REMARK VINA RESULT: -7.567241351      0.000      0.000
REMARK  9 active torsions:
REMARK  status: ('A' for Active; 'I' for Inactive)
REMARK    1  A    between atoms: N1_1  and  C1_4 
REMARK    2  A    between atoms: C7_21  and  C8_22 
REMARK    3  A    between atoms: C8_22  and  C9_23 
REMARK    4  A    between atoms: C9_23  and  N7_24 
REMARK    5  A    between atoms: N7_24  and  C10_25 
REMARK    6  A    between atoms: N7_24  and  C11_27 
REMARK    7  A    between atoms: C11_27  and  O4_28 
REMARK    8  A    between atoms: C12_31  and  O6_32 
REMARK    9  A    between atoms: N8_34  and  O7_35 
ROOT
HETATM    1  C1  UNL     1     -16.398 -12.113  12.955  1.00  0.00     0.706 A 
HETATM    2  N2  UNL     1     -17.335 -12.037  12.013  1.00  0.00    -0.019 N 
ATOM      3  H2  UNL     1     -17.986 -11.259  11.896  1.00  0.00     0.203 HD
HETATM    4  C2  UNL     1     -17.297 -13.140  11.236  1.00  0.00     0.723 A 
HETATM    5  N3  UNL     1     -18.035 -13.528  10.162  1.00  0.00    -0.170 N 
ATOM      6  H3  UNL     1     -18.788 -12.949   9.791  1.00  0.00     0.186 HD
HETATM    7  C3  UNL     1     -17.726 -14.699   9.622  1.00  0.00     0.180 A 
HETATM    8  C4  UNL     1     -16.715 -15.508  10.099  1.00  0.00     0.153 A 
HETATM    9  C5  UNL     1     -15.980 -15.096  11.189  1.00  0.00     0.313 A 
HETATM   10  O1  UNL     1     -15.055 -15.817  11.640  1.00  0.00    -0.263 OA
HETATM   11  N4  UNL     1     -16.302 -13.895  11.736  1.00  0.00    -0.030 N 
HETATM   12  N5  UNL     1     -15.751 -13.288  12.774  1.00  0.00    -0.108 N 
ATOM     13  H5  UNL     1     -14.977 -13.642  13.337  1.00  0.00     0.207 HD
HETATM   14  N6  UNL     1     -16.156 -16.792   9.743  1.00  0.00    -0.317 N 
ATOM     15  H6  UNL     1     -15.327 -17.067  10.270  1.00  0.00     0.169 HD
HETATM   16  C6  UNL     1     -16.589 -17.721   8.773  1.00  0.00     0.251 C 
HETATM   17  O2  UNL     1     -15.659 -18.520   8.433  1.00  0.00    -0.270 OA
HETATM   18  C7  UNL     1     -17.841 -18.060   8.006  1.00  0.00     0.220 C 
HETATM   19  O5  UNL     1     -18.874 -17.257   8.270  1.00  0.00    -0.328 OA
HETATM   20  C12 UNL     1     -19.036 -16.064   7.703  1.00  0.00     0.399 C 
HETATM   21  N8  UNL     1     -18.613 -14.916   8.516  1.00  0.00    -0.188 N 
ENDROOT
BRANCH  18  22
HETATM   22  C8  UNL     1     -17.462 -18.297   6.593  1.00  0.00     0.062 C 
BRANCH  22  23
HETATM   23  C9  UNL     1     -17.822 -19.684   6.101  1.00  0.00     0.130 C 
BRANCH  23  24
HETATM   24  N7  UNL     1     -17.537 -19.864   4.711  1.00  0.00    -0.338 N 
BRANCH  24  25
HETATM   25  C10 UNL     1     -17.326 -21.153   4.142  1.00  0.00     0.352 C 
HETATM   26  O3  UNL     1     -16.614 -21.246   3.120  1.00  0.00    -0.283 OA
ENDBRANCH  24  25
BRANCH  24  27
HETATM   27  C11 UNL     1     -17.453 -18.723   3.820  1.00  0.00     0.292 C 
BRANCH  27  28
HETATM   28  O4  UNL     1     -18.365 -18.835   2.754  1.00  0.00    -0.382 OA
ATOM     29  H4  UNL     1     -18.199 -18.180   2.085  1.00  0.00     0.211 HD
ENDBRANCH  27  28
ENDBRANCH  24  27
ENDBRANCH  23  24
ENDBRANCH  22  23
ENDBRANCH  18  22
BRANCH  20  30
HETATM   30  O6  UNL     1     -20.432 -15.858   7.541  1.00  0.00    -0.353 OA
ATOM     31  H6  UNL     1     -20.544 -15.107   6.970  1.00  0.00     0.214 HD
ENDBRANCH  20  30
BRANCH  21  32
HETATM   32  O7  UNL     1     -19.202 -13.758   8.137  1.00  0.00    -0.281 OA
ATOM     33  H7  UNL     1     -18.615 -13.240   7.599  1.00  0.00     0.245 HD
ENDBRANCH  21  32
BRANCH   1  34
HETATM   34  N1  UNL     1     -16.118 -11.255  13.891  1.00  0.00    -0.233 N 
ATOM     35  H12 UNL     1     -16.788 -10.912  14.579  1.00  0.00     0.174 HD
ATOM     36  H11 UNL     1     -15.228 -10.799  14.089  1.00  0.00     0.174 HD
ENDBRANCH   1  34
TORSDOF 9
ENDMDL
MODEL 2
REMARK VINA RESULT: -7.357605710      1.130      2.908
REMARK  9 active torsions:
REMARK  status: ('A' for Active; 'I' for Inactive)
REMARK    1  A    between atoms: N1_1  and  C1_4 
REMARK    2  A    between atoms: C7_21  and  C8_22 
REMARK    3  A    between atoms: C8_22  and  C9_23 
REMARK    4  A    between atoms: C9_23  and  N7_24 
REMARK    5  A    between atoms: N7_24  and  C10_25 
REMARK    6  A    between atoms: N7_24  and  C11_27 
REMARK    7  A    between atoms: C11_27  and  O4_28 
REMARK    8  A    between atoms: C12_31  and  O6_32 
REMARK    9  A    between atoms: N8_34  and  O7_35 
ROOT
HETATM    1  C1  UNL     1     -16.385 -11.917  12.968  1.00  0.00     0.706 A 
HETATM    2  N2  UNL     1     -15.633 -13.015  12.952  1.00  0.00    -0.019 N 
ATOM      3  H2  UNL     1     -14.849 -13.198  13.578  1.00  0.00     0.203 HD
HETATM    4  C2  UNL     1     -16.063 -13.852  11.983  1.00  0.00     0.723 A 
HETATM    5  N3  UNL     1     -15.633 -15.076  11.575  1.00  0.00    -0.170 N 
ATOM      6  H3  UNL     1     -14.841 -15.542  12.018  1.00  0.00     0.186 HD
HETATM    7  C3  UNL     1     -16.296 -15.633  10.571  1.00  0.00     0.180 A 
HETATM    8  C4  UNL     1     -17.371 -15.030   9.948  1.00  0.00     0.153 A 
HETATM    9  C5  UNL     1     -17.789 -13.790  10.376  1.00  0.00     0.313 A 
HETATM   10  O1  UNL     1     -18.764 -13.222   9.824  1.00  0.00    -0.263 OA
HETATM   11  N4  UNL     1     -17.104 -13.226  11.407  1.00  0.00    -0.030 N 
HETATM   12  N5  UNL     1     -17.310 -12.057  11.990  1.00  0.00    -0.108 N 
ATOM     13  H5  UNL     1     -18.036 -11.382  11.747  1.00  0.00     0.207 HD
HETATM   14  N6  UNL     1     -18.267 -15.366   8.867  1.00  0.00    -0.317 N 
ATOM     15  H6  UNL     1     -19.034 -14.710   8.716  1.00  0.00     0.169 HD
HETATM   16  C6  UNL     1     -18.239 -16.470   7.988  1.00  0.00     0.251 C 
HETATM   17  O2  UNL     1     -19.374 -16.682   7.454  1.00  0.00    -0.270 OA
HETATM   18  C7  UNL     1     -17.253 -17.491   7.480  1.00  0.00     0.220 C 
HETATM   19  O5  UNL     1     -16.031 -17.374   8.004  1.00  0.00    -0.328 OA
HETATM   20  C12 UNL     1     -15.695 -17.869   9.192  1.00  0.00     0.399 C 
HETATM   21  N8  UNL     1     -15.690 -16.904  10.300  1.00  0.00    -0.188 N 
ENDROOT
BRANCH  18  22
HETATM   22  C8  UNL     1     -17.916 -18.816   7.499  1.00  0.00     0.062 C 
BRANCH  22  23
HETATM   23  C9  UNL     1     -17.157 -19.877   6.728  1.00  0.00     0.130 C 
BRANCH  23  24
HETATM   24  N7  UNL     1     -17.724 -20.129   5.439  1.00  0.00    -0.338 N 
BRANCH  24  25
HETATM   25  C10 UNL     1     -18.547 -21.264   5.183  1.00  0.00     0.352 C 
HETATM   26  O3  UNL     1     -18.032 -22.266   4.644  1.00  0.00    -0.283 OA
ENDBRANCH  24  25
BRANCH  24  27
HETATM   27  C11 UNL     1     -17.476 -19.225   4.334  1.00  0.00     0.292 C 
BRANCH  27  28
HETATM   28  O4  UNL     1     -17.842 -19.803   3.104  1.00  0.00    -0.382 OA
ATOM     29  H4  UNL     1     -18.295 -19.179   2.548  1.00  0.00     0.211 HD
ENDBRANCH  27  28
ENDBRANCH  24  27
ENDBRANCH  23  24
ENDBRANCH  22  23
ENDBRANCH  18  22
BRANCH  20  30
HETATM   30  O6  UNL     1     -14.339 -18.285   9.110  1.00  0.00    -0.353 OA
ATOM     31  H6  UNL     1     -14.339 -19.216   8.921  1.00  0.00     0.214 HD
ENDBRANCH  20  30
BRANCH  21  32
HETATM   32  O7  UNL     1     -14.921 -17.302  11.340  1.00  0.00    -0.281 OA
ATOM     33  H7  UNL     1     -14.622 -18.196  11.217  1.00  0.00     0.245 HD
ENDBRANCH  21  32
BRANCH   1  34
HETATM   34  N1  UNL     1     -16.290 -10.882  13.749  1.00  0.00    -0.233 N 
ATOM     35  H12 UNL     1     -15.472 -10.276  13.807  1.00  0.00     0.174 HD
ATOM     36  H11 UNL     1     -16.979 -10.516  14.406  1.00  0.00     0.174 HD
ENDBRANCH   1  34
TORSDOF 9
ENDMDL
MODEL 3
REMARK VINA RESULT: -7.304359325      3.468      5.130
REMARK  9 active torsions:
REMARK  status: ('A' for Active; 'I' for Inactive)
REMARK    1  A    between atoms: N1_1  and  C1_4 
REMARK    2  A    between atoms: C7_21  and  C8_22 
REMARK    3  A    between atoms: C8_22  and  C9_23 
REMARK    4  A    between atoms: C9_23  and  N7_24 
REMARK    5  A    between atoms: N7_24  and  C10_25 
REMARK    6  A    between atoms: N7_24  and  C11_27 
REMARK    7  A    between atoms: C11_27  and  O4_28 
REMARK    8  A    between atoms: C12_31  and  O6_32 
REMARK    9  A    between atoms: N8_34  and  O7_35 
ROOT
HETATM    1  C1  UNL     1     -11.719 -16.232  13.747  1.00  0.00     0.706 A 
HETATM    2  N2  UNL     1     -12.509 -15.171  13.896  1.00  0.00    -0.019 N 
ATOM      3  H2  UNL     1     -12.386 -14.443  14.602  1.00  0.00     0.203 HD
HETATM    4  C2  UNL     1     -13.495 -15.199  12.975  1.00  0.00     0.723 A 
HETATM    5  N3  UNL     1     -14.534 -14.358  12.720  1.00  0.00    -0.170 N 
ATOM      6  H3  UNL     1     -14.688 -13.514  13.272  1.00  0.00     0.186 HD
HETATM    7  C3  UNL     1     -15.335 -14.692  11.718  1.00  0.00     0.180 A 
HETATM    8  C4  UNL     1     -15.156 -15.827  10.953  1.00  0.00     0.153 A 
HETATM    9  C5  UNL     1     -14.099 -16.666  11.229  1.00  0.00     0.313 A 
HETATM   10  O1  UNL     1     -13.917 -17.705  10.546  1.00  0.00    -0.263 OA
HETATM   11  N4  UNL     1     -13.282 -16.316  12.258  1.00  0.00    -0.030 N 
HETATM   12  N5  UNL     1     -12.213 -16.950  12.712  1.00  0.00    -0.108 N 
ATOM     13  H5  UNL     1     -11.830 -17.822  12.348  1.00  0.00     0.207 HD
HETATM   14  N6  UNL     1     -15.832 -16.444   9.835  1.00  0.00    -0.317 N 
ATOM     15  H6  UNL     1     -15.366 -17.262   9.443  1.00  0.00     0.169 HD
HETATM   16  C6  UNL     1     -17.042 -16.080   9.207  1.00  0.00     0.251 C 
HETATM   17  O2  UNL     1     -17.127 -16.555   8.030  1.00  0.00    -0.270 OA
HETATM   18  C7  UNL     1     -18.286 -15.286   9.514  1.00  0.00     0.220 C 
HETATM   19  O5  UNL     1     -18.283 -14.718  10.721  1.00  0.00    -0.328 OA
HETATM   20  C12 UNL     1     -17.671 -13.567  10.986  1.00  0.00     0.399 C 
HETATM   21  N8  UNL     1     -16.350 -13.685  11.619  1.00  0.00    -0.188 N 
ENDROOT
BRANCH  18  22
HETATM   22  C8  UNL     1     -18.599 -14.451   8.330  1.00  0.00     0.062 C 
BRANCH  22  23
HETATM   23  C9  UNL     1     -19.940 -14.777   7.705  1.00  0.00     0.130 C 
BRANCH  23  24
HETATM   24  N7  UNL     1     -20.074 -14.243   6.385  1.00  0.00    -0.338 N 
BRANCH  24  25
HETATM   25  C10 UNL     1     -21.346 -14.042   5.775  1.00  0.00     0.352 C 
HETATM   26  O3  UNL     1     -21.779 -12.876   5.667  1.00  0.00    -0.283 OA
ENDBRANCH  24  25
BRANCH  24  27
HETATM   27  C11 UNL     1     -18.902 -13.882   5.611  1.00  0.00     0.292 C 
BRANCH  27  28
HETATM   28  O4  UNL     1     -18.861 -12.499   5.355  1.00  0.00    -0.382 OA
ATOM     29  H4  UNL     1     -18.580 -12.319   4.465  1.00  0.00     0.211 HD
ENDBRANCH  27  28
ENDBRANCH  24  27
ENDBRANCH  23  24
ENDBRANCH  22  23
ENDBRANCH  18  22
BRANCH  20  30
HETATM   30  O6  UNL     1     -18.447 -12.889  11.965  1.00  0.00    -0.353 OA
ATOM     31  H6  UNL     1     -18.199 -11.973  11.939  1.00  0.00     0.214 HD
ENDBRANCH  20  30
BRANCH  21  32
HETATM   32  O7  UNL     1     -15.983 -12.563  12.281  1.00  0.00    -0.281 OA
ATOM     33  H7  UNL     1     -16.741 -12.026  12.482  1.00  0.00     0.245 HD
ENDBRANCH  21  32
BRANCH   1  34
HETATM   34  N1  UNL     1     -10.666 -16.560  14.436  1.00  0.00    -0.233 N 
ATOM     35  H12 UNL     1     -10.688 -16.898  15.397  1.00  0.00     0.174 HD
ATOM     36  H11 UNL     1      -9.688 -16.539  14.150  1.00  0.00     0.174 HD
ENDBRANCH   1  34
TORSDOF 9
ENDMDL
MODEL 4
REMARK VINA RESULT: -7.278002935      3.472      4.999
REMARK  9 active torsions:
REMARK  status: ('A' for Active; 'I' for Inactive)
REMARK    1  A    between atoms: N1_1  and  C1_4 
REMARK    2  A    between atoms: C7_21  and  C8_22 
REMARK    3  A    between atoms: C8_22  and  C9_23 
REMARK    4  A    between atoms: C9_23  and  N7_24 
REMARK    5  A    between atoms: N7_24  and  C10_25 
REMARK    6  A    between atoms: N7_24  and  C11_27 
REMARK    7  A    between atoms: C11_27  and  O4_28 
REMARK    8  A    between atoms: C12_31  and  O6_32 
REMARK    9  A    between atoms: N8_34  and  O7_35 
ROOT
HETATM    1  C1  UNL     1     -12.120 -15.934  14.083  1.00  0.00     0.706 A 
HETATM    2  N2  UNL     1     -12.917 -14.869  14.128  1.00  0.00    -0.019 N 
ATOM      3  H2  UNL     1     -12.843 -14.110  14.806  1.00  0.00     0.203 HD
HETATM    4  C2  UNL     1     -13.838 -14.943  13.145  1.00  0.00     0.723 A 
HETATM    5  N3  UNL     1     -14.856 -14.117  12.780  1.00  0.00    -0.170 N 
ATOM      6  H3  UNL     1     -15.047 -13.249  13.280  1.00  0.00     0.186 HD
HETATM    7  C3  UNL     1     -15.587 -14.498  11.743  1.00  0.00     0.180 A 
HETATM    8  C4  UNL     1     -15.357 -15.666  11.044  1.00  0.00     0.153 A 
HETATM    9  C5  UNL     1     -14.322 -16.489  11.431  1.00  0.00     0.313 A 
HETATM   10  O1  UNL     1     -14.095 -17.558  10.810  1.00  0.00    -0.263 OA
HETATM   11  N4  UNL     1     -13.577 -16.091  12.495  1.00  0.00    -0.030 N 
HETATM   12  N5  UNL     1     -12.542 -16.700  13.050  1.00  0.00    -0.108 N 
ATOM     13  H5  UNL     1     -12.136 -17.588  12.754  1.00  0.00     0.207 HD
HETATM   14  N6  UNL     1     -15.955 -16.336   9.913  1.00  0.00    -0.317 N 
ATOM     15  H6  UNL     1     -15.465 -17.170   9.591  1.00  0.00     0.169 HD
HETATM   16  C6  UNL     1     -17.119 -16.004   9.187  1.00  0.00     0.251 C 
HETATM   17  O2  UNL     1     -17.124 -16.533   8.030  1.00  0.00    -0.270 OA
HETATM   18  C7  UNL     1     -18.381 -15.200   9.371  1.00  0.00     0.220 C 
HETATM   19  O5  UNL     1     -18.460 -14.576  10.548  1.00  0.00    -0.328 OA
HETATM   20  C12 UNL     1     -17.867 -13.413  10.801  1.00  0.00     0.399 C 
HETATM   21  N8  UNL     1     -16.592 -13.499  11.527  1.00  0.00    -0.188 N 
ENDROOT
BRANCH  18  22
HETATM   22  C8  UNL     1     -18.611 -14.421   8.131  1.00  0.00     0.062 C 
BRANCH  22  23
HETATM   23  C9  UNL     1     -19.945 -14.717   7.477  1.00  0.00     0.130 C 
BRANCH  23  24
HETATM   24  N7  UNL     1     -20.108 -14.035   6.230  1.00  0.00    -0.338 N 
BRANCH  24  25
HETATM   25  C10 UNL     1     -19.001 -13.706   5.396  1.00  0.00     0.352 C 
HETATM   26  O3  UNL     1     -18.669 -12.507   5.291  1.00  0.00    -0.283 OA
ENDBRANCH  24  25
BRANCH  24  27
HETATM   27  C11 UNL     1     -21.427 -13.651   5.766  1.00  0.00     0.292 C 
BRANCH  27  28
HETATM   28  O4  UNL     1     -21.472 -12.289   5.413  1.00  0.00    -0.382 OA
ATOM     29  H4  UNL     1     -22.366 -11.990   5.295  1.00  0.00     0.211 HD
ENDBRANCH  27  28
ENDBRANCH  24  27
ENDBRANCH  23  24
ENDBRANCH  22  23
ENDBRANCH  18  22
BRANCH  20  30
HETATM   30  O6  UNL     1     -18.707 -12.693  11.692  1.00  0.00    -0.353 OA
ATOM     31  H6  UNL     1     -18.215 -11.942  12.001  1.00  0.00     0.214 HD
ENDBRANCH  20  30
BRANCH  21  32
HETATM   32  O7  UNL     1     -16.271 -12.347  12.160  1.00  0.00    -0.281 OA
ATOM     33  H7  UNL     1     -17.021 -11.995  12.625  1.00  0.00     0.245 HD
ENDBRANCH  21  32
BRANCH   1  34
HETATM   34  N1  UNL     1     -11.117 -16.228  14.856  1.00  0.00    -0.233 N 
ATOM     35  H12 UNL     1     -11.151 -16.217  15.875  1.00  0.00     0.174 HD
ATOM     36  H11 UNL     1     -10.172 -16.507  14.593  1.00  0.00     0.174 HD
ENDBRANCH   1  34
TORSDOF 9
ENDMDL
MODEL 5
REMARK VINA RESULT: -7.142706455      4.624      7.231
REMARK  9 active torsions:
REMARK  status: ('A' for Active; 'I' for Inactive)
REMARK    1  A    between atoms: N1_1  and  C1_4 
REMARK    2  A    between atoms: C7_21  and  C8_22 
REMARK    3  A    between atoms: C8_22  and  C9_23 
REMARK    4  A    between atoms: C9_23  and  N7_24 
REMARK    5  A    between atoms: N7_24  and  C10_25 
REMARK    6  A    between atoms: N7_24  and  C11_27 
REMARK    7  A    between atoms: C11_27  and  O4_28 
REMARK    8  A    between atoms: C12_31  and  O6_32 
REMARK    9  A    between atoms: N8_34  and  O7_35 
ROOT
HETATM    1  C1  UNL     1     -15.963 -11.879  13.572  1.00  0.00     0.706 A 
HETATM    2  N2  UNL     1     -14.832 -12.347  14.095  1.00  0.00    -0.019 N 
ATOM      3  H2  UNL     1     -14.345 -11.942  14.895  1.00  0.00     0.203 HD
HETATM    4  C2  UNL     1     -14.425 -13.436  13.409  1.00  0.00     0.723 A 
HETATM    5  N3  UNL     1     -13.349 -14.256  13.549  1.00  0.00    -0.170 N 
ATOM      6  H3  UNL     1     -12.655 -14.109  14.281  1.00  0.00     0.186 HD
HETATM    7  C3  UNL     1     -13.249 -15.257  12.686  1.00  0.00     0.180 A 
HETATM    8  C4  UNL     1     -14.170 -15.485  11.683  1.00  0.00     0.153 A 
HETATM    9  C5  UNL     1     -15.252 -14.641  11.557  1.00  0.00     0.313 A 
HETATM   10  O1  UNL     1     -16.102 -14.829  10.651  1.00  0.00    -0.263 OA
HETATM   11  N4  UNL     1     -15.347 -13.618  12.447  1.00  0.00    -0.030 N 
HETATM   12  N5  UNL     1     -16.282 -12.686  12.533  1.00  0.00    -0.108 N 
ATOM     13  H5  UNL     1     -17.096 -12.592  11.926  1.00  0.00     0.207 HD
HETATM   14  N6  UNL     1     -14.334 -16.452  10.623  1.00  0.00    -0.317 N 
ATOM     15  H6  UNL     1     -15.206 -16.379  10.098  1.00  0.00     0.169 HD
HETATM   16  C6  UNL     1     -13.466 -17.484  10.208  1.00  0.00     0.251 C 
HETATM   17  O2  UNL     1     -14.079 -18.387   9.556  1.00  0.00    -0.270 OA
HETATM   18  C7  UNL     1     -12.005 -17.845  10.303  1.00  0.00     0.220 C 
HETATM   19  O5  UNL     1     -11.274 -16.970  10.997  1.00  0.00    -0.328 OA
HETATM   20  C12 UNL     1     -11.201 -16.970  12.325  1.00  0.00     0.399 C 
HETATM   21  N8  UNL     1     -12.060 -15.991  13.005  1.00  0.00    -0.188 N 
ENDROOT
BRANCH  18  22
HETATM   22  C8  UNL     1     -11.911 -19.284  10.641  1.00  0.00     0.062 C 
BRANCH  22  23
HETATM   23  C9  UNL     1     -10.552 -19.687  11.176  1.00  0.00     0.130 C 
BRANCH  23  24
HETATM   24  N7  UNL     1     -10.640 -20.650  12.230  1.00  0.00    -0.338 N 
BRANCH  24  25
HETATM   25  C10 UNL     1     -11.504 -20.472  13.348  1.00  0.00     0.352 C 
HETATM   26  O3  UNL     1     -11.048 -19.928  14.375  1.00  0.00    -0.283 OA
ENDBRANCH  24  25
BRANCH  24  27
HETATM   27  C11 UNL     1      -9.840 -21.859  12.193  1.00  0.00     0.292 C 
BRANCH  27  28
HETATM   28  O4  UNL     1      -9.973 -22.527  10.962  1.00  0.00    -0.382 OA
ATOM     29  H4  UNL     1     -10.604 -22.094  10.398  1.00  0.00     0.211 HD
ENDBRANCH  27  28
ENDBRANCH  24  27
ENDBRANCH  23  24
ENDBRANCH  22  23
ENDBRANCH  18  22
BRANCH  20  30
HETATM   30  O6  UNL     1      -9.887 -16.559  12.678  1.00  0.00    -0.353 OA
ATOM     31  H6  UNL     1      -9.927 -16.206  13.559  1.00  0.00     0.214 HD
ENDBRANCH  20  30
BRANCH  21  32
HETATM   32  O7  UNL     1     -11.633 -15.696  14.255  1.00  0.00    -0.281 OA
ATOM     33  H7  UNL     1     -10.846 -16.184  14.467  1.00  0.00     0.245 HD
ENDBRANCH  21  32
BRANCH   1  34
HETATM   34  N1  UNL     1     -16.665 -10.851  13.948  1.00  0.00    -0.233 N 
ATOM     35  H12 UNL     1     -16.913 -10.644  14.915  1.00  0.00     0.174 HD
ATOM     36  H11 UNL     1     -17.067 -10.111  13.372  1.00  0.00     0.174 HD
ENDBRANCH   1  34
TORSDOF 9
ENDMDL
