MODEL 1
REMARK VINA RESULT: -6.582409225      0.000      0.000
REMARK  7 active torsions:
REMARK  status: ('A' for Active; 'I' for Inactive)
REMARK    1  A    between atoms: S1_2  and  C2_3 
REMARK    2  A    between atoms: N4_15  and  C5_16 
REMARK    3  A    between atoms: C5_16  and  O4_17 
REMARK    4  A    between atoms: C5_16  and  C6_19 
REMARK    5  A    between atoms: C6_19  and  N5_20 
REMARK    6  A    between atoms: C6_19  and  C7_24 
REMARK    7  A    between atoms: C8_26  and  C9_27 
ROOT
HETATM    1  C2  UNL     1     -12.875 -15.428  10.699  1.00  0.00     0.239 C 
HETATM    2  O1  UNL     1     -12.497 -16.582  10.093  1.00  0.00    -0.265 OA
HETATM    3  N1  UNL     1     -13.471 -17.551  10.173  1.00  0.00    -0.056 NA
HETATM    4  C3  UNL     1     -12.852 -18.537  11.081  1.00  0.00     0.347 C 
HETATM    5  N2  UNL     1     -12.567 -17.856  12.272  1.00  0.00    -0.352 N 
ATOM      6  H2  UNL     1     -13.222 -17.836  13.053  1.00  0.00     0.159 HD
HETATM    7  C4  UNL     1     -11.339 -17.209  12.325  1.00  0.00     0.296 C 
HETATM    8  N3  UNL     1     -10.477 -17.511  11.241  1.00  0.00    -0.278 N 
ATOM      9  H3  UNL     1      -9.595 -17.051  11.016  1.00  0.00     0.176 HD
HETATM   10  S2  UNL     1     -11.210 -18.795  10.387  1.00  0.00     0.268 S 
HETATM   11  O2  UNL     1     -10.690 -20.114  10.820  1.00  0.00    -0.202 OA
HETATM   12  O3  UNL     1     -11.210 -18.599   8.911  1.00  0.00    -0.202 OA
HETATM   13  N4  UNL     1     -11.432 -15.829  12.684  1.00  0.00    -0.332 N 
HETATM   14  C8  UNL     1     -12.061 -14.932  11.821  1.00  0.00     0.215 C 
ENDROOT
BRANCH  13  15
HETATM   15  C5  UNL     1     -11.812 -15.582  14.044  1.00  0.00     0.257 C 
BRANCH  15  16
HETATM   16  O4  UNL     1     -13.139 -15.937  14.266  1.00  0.00    -0.374 OA
ATOM     17  H4  UNL     1     -13.202 -16.650  14.891  1.00  0.00     0.212 HD
ENDBRANCH  15  16
BRANCH  15  18
HETATM   18  C6  UNL     1     -10.958 -16.213  15.086  1.00  0.00     0.292 C 
BRANCH  18  19
HETATM   19  N5  UNL     1     -11.750 -16.280  16.309  1.00  0.00    -0.065 N 
ATOM     20  H53 UNL     1     -11.263 -15.901  17.122  1.00  0.00     0.275 HD
ATOM     21  H52 UNL     1     -12.535 -15.630  16.313  1.00  0.00     0.275 HD
ATOM     22  H51 UNL     1     -12.035 -17.252  16.431  1.00  0.00     0.275 HD
ENDBRANCH  18  19
BRANCH  18  23
HETATM   23  C7  UNL     1      -9.724 -15.473  15.380  1.00  0.00     0.268 C 
HETATM   24  O5  UNL     1      -9.627 -14.764  16.341  1.00  0.00    -0.304 OA
ENDBRANCH  18  23
ENDBRANCH  15  18
ENDBRANCH  13  15
BRANCH  14  25
HETATM   25  C9  UNL     1     -11.021 -13.968  11.300  1.00  0.00     0.257 C 
HETATM   26  N6  UNL     1     -10.146 -14.303  10.230  1.00  0.00    -0.060 NA
HETATM   27  O6  UNL     1     -10.876 -12.815  11.790  1.00  0.00    -0.274 OA
ENDBRANCH  14  25
BRANCH   1  28
HETATM   28  S1  UNL     1     -14.649 -15.591  11.151  1.00  0.00    -0.137 SA
HETATM   29  C1  UNL     1     -15.230 -14.181  12.086  1.00  0.00     0.092 C 
ENDBRANCH   1  28
TORSDOF 7
ENDMDL
MODEL 2
REMARK VINA RESULT: -6.477914518      2.199      4.385
REMARK  7 active torsions:
REMARK  status: ('A' for Active; 'I' for Inactive)
REMARK    1  A    between atoms: S1_2  and  C2_3 
REMARK    2  A    between atoms: N4_15  and  C5_16 
REMARK    3  A    between atoms: C5_16  and  O4_17 
REMARK    4  A    between atoms: C5_16  and  C6_19 
REMARK    5  A    between atoms: C6_19  and  N5_20 
REMARK    6  A    between atoms: C6_19  and  C7_24 
REMARK    7  A    between atoms: C8_26  and  C9_27 
ROOT
HETATM    1  C2  UNL     1     -12.974 -18.434  11.797  1.00  0.00     0.239 C 
HETATM    2  O1  UNL     1     -12.788 -18.450  13.141  1.00  0.00    -0.265 OA
HETATM    3  N1  UNL     1     -13.950 -18.184  13.827  1.00  0.00    -0.056 NA
HETATM    4  C3  UNL     1     -13.665 -16.859  14.415  1.00  0.00     0.347 C 
HETATM    5  N2  UNL     1     -13.377 -16.004  13.344  1.00  0.00    -0.352 N 
ATOM      6  H2  UNL     1     -14.097 -15.436  12.897  1.00  0.00     0.159 HD
HETATM    7  C4  UNL     1     -12.053 -15.975  12.927  1.00  0.00     0.296 C 
HETATM    8  N3  UNL     1     -11.159 -16.664  13.784  1.00  0.00    -0.278 N 
ATOM      9  H3  UNL     1     -10.178 -16.877  13.601  1.00  0.00     0.176 HD
HETATM   10  S2  UNL     1     -12.049 -17.065  15.184  1.00  0.00     0.268 S 
HETATM   11  O2  UNL     1     -11.878 -16.056  16.256  1.00  0.00    -0.202 OA
HETATM   12  O3  UNL     1     -11.840 -18.469  15.635  1.00  0.00    -0.202 OA
HETATM   13  N4  UNL     1     -11.886 -16.214  11.527  1.00  0.00    -0.332 N 
HETATM   14  C8  UNL     1     -12.205 -17.465  10.999  1.00  0.00     0.215 C 
ENDROOT
BRANCH  13  15
HETATM   15  C5  UNL     1     -12.355 -15.163  10.673  1.00  0.00     0.257 C 
BRANCH  15  16
HETATM   16  O4  UNL     1     -13.270 -14.350  11.337  1.00  0.00    -0.374 OA
ATOM     17  H4  UNL     1     -14.013 -14.147  10.780  1.00  0.00     0.212 HD
ENDBRANCH  15  16
BRANCH  15  18
HETATM   18  C6  UNL     1     -11.307 -14.310  10.051  1.00  0.00     0.292 C 
BRANCH  18  19
HETATM   19  N5  UNL     1     -10.495 -15.176   9.202  1.00  0.00    -0.065 N 
ATOM     20  H53 UNL     1      -9.839 -14.660   8.616  1.00  0.00     0.275 HD
ATOM     21  H52 UNL     1      -9.807 -15.717   9.726  1.00  0.00     0.275 HD
ATOM     22  H51 UNL     1     -11.137 -15.759   8.665  1.00  0.00     0.275 HD
ENDBRANCH  18  19
BRANCH  18  23
HETATM   23  C7  UNL     1     -10.418 -13.652  11.016  1.00  0.00     0.268 C 
HETATM   24  O5  UNL     1     -10.796 -12.753  11.712  1.00  0.00    -0.304 OA
ENDBRANCH  18  23
ENDBRANCH  15  18
ENDBRANCH  13  15
BRANCH  14  25
HETATM   25  C9  UNL     1     -10.929 -18.113  10.513  1.00  0.00     0.257 C 
HETATM   26  N6  UNL     1     -10.659 -18.314   9.132  1.00  0.00    -0.060 NA
HETATM   27  O6  UNL     1     -10.038 -18.510  11.313  1.00  0.00    -0.274 OA
ENDBRANCH  14  25
BRANCH   1  28
HETATM   28  S1  UNL     1     -14.781 -18.306  11.486  1.00  0.00    -0.137 SA
HETATM   29  C1  UNL     1     -15.134 -17.479   9.940  1.00  0.00     0.092 C 
ENDBRANCH   1  28
TORSDOF 7
ENDMDL
MODEL 3
REMARK VINA RESULT: -6.343929577      2.069      3.991
REMARK  7 active torsions:
REMARK  status: ('A' for Active; 'I' for Inactive)
REMARK    1  A    between atoms: S1_2  and  C2_3 
REMARK    2  A    between atoms: N4_15  and  C5_16 
REMARK    3  A    between atoms: C5_16  and  O4_17 
REMARK    4  A    between atoms: C5_16  and  C6_19 
REMARK    5  A    between atoms: C6_19  and  N5_20 
REMARK    6  A    between atoms: C6_19  and  C7_24 
REMARK    7  A    between atoms: C8_26  and  C9_27 
ROOT
HETATM    1  C2  UNL     1     -12.140 -17.456  10.964  1.00  0.00     0.239 C 
HETATM    2  O1  UNL     1     -11.878 -16.263  10.374  1.00  0.00    -0.265 OA
HETATM    3  N1  UNL     1     -10.640 -16.243   9.774  1.00  0.00    -0.056 NA
HETATM    4  C3  UNL     1      -9.898 -15.294  10.630  1.00  0.00     0.347 C 
HETATM    5  N2  UNL     1      -9.941 -15.815  11.929  1.00  0.00    -0.352 N 
ATOM      6  H2  UNL     1      -9.204 -16.419  12.294  1.00  0.00     0.159 HD
HETATM    7  C4  UNL     1     -11.045 -15.459  12.692  1.00  0.00     0.296 C 
HETATM    8  N3  UNL     1     -11.857 -14.456  12.105  1.00  0.00    -0.278 N 
ATOM      9  H3  UNL     1     -12.774 -14.147  12.427  1.00  0.00     0.176 HD
HETATM   10  S2  UNL     1     -10.995 -13.871  10.752  1.00  0.00     0.268 S 
HETATM   11  O2  UNL     1     -10.205 -12.662  11.082  1.00  0.00    -0.202 OA
HETATM   12  O3  UNL     1     -11.837 -13.731   9.531  1.00  0.00    -0.202 OA
HETATM   13  N4  UNL     1     -11.738 -16.575  13.255  1.00  0.00    -0.332 N 
HETATM   14  C8  UNL     1     -12.393 -17.475  12.414  1.00  0.00     0.215 C 
ENDROOT
BRANCH  13  15
HETATM   15  C5  UNL     1     -11.032 -17.266  14.293  1.00  0.00     0.257 C 
BRANCH  15  16
HETATM   16  O4  UNL     1      -9.659 -17.064  14.184  1.00  0.00    -0.374 OA
ATOM     17  H4  UNL     1      -9.380 -16.325  14.712  1.00  0.00     0.212 HD
ENDBRANCH  15  16
BRANCH  15  18
HETATM   18  C6  UNL     1     -11.460 -16.965  15.686  1.00  0.00     0.292 C 
BRANCH  18  19
HETATM   19  N5  UNL     1     -12.575 -16.029  15.601  1.00  0.00    -0.065 N 
ATOM     20  H53 UNL     1     -12.729 -15.675  14.657  1.00  0.00     0.275 HD
ATOM     21  H52 UNL     1     -13.483 -16.478  15.723  1.00  0.00     0.275 HD
ATOM     22  H51 UNL     1     -12.401 -15.290  16.282  1.00  0.00     0.275 HD
ENDBRANCH  18  19
BRANCH  18  23
HETATM   23  C7  UNL     1     -10.413 -16.355  16.516  1.00  0.00     0.268 C 
HETATM   24  O5  UNL     1     -10.019 -15.240  16.318  1.00  0.00    -0.304 OA
ENDBRANCH  18  23
ENDBRANCH  15  18
ENDBRANCH  13  15
BRANCH  14  25
HETATM   25  C9  UNL     1     -13.880 -17.363  12.666  1.00  0.00     0.257 C 
HETATM   26  N6  UNL     1     -14.775 -18.434  12.401  1.00  0.00    -0.060 NA
HETATM   27  O6  UNL     1     -14.399 -16.309  13.125  1.00  0.00    -0.274 OA
ENDBRANCH  14  25
BRANCH   1  28
HETATM   28  S1  UNL     1     -10.803 -18.622  10.481  1.00  0.00    -0.137 SA
HETATM   29  C1  UNL     1     -10.688 -20.006  11.608  1.00  0.00     0.092 C 
ENDBRANCH   1  28
TORSDOF 7
ENDMDL
MODEL 4
REMARK VINA RESULT: -6.331457779      2.241      3.926
REMARK  7 active torsions:
REMARK  status: ('A' for Active; 'I' for Inactive)
REMARK    1  A    between atoms: S1_2  and  C2_3 
REMARK    2  A    between atoms: N4_15  and  C5_16 
REMARK    3  A    between atoms: C5_16  and  O4_17 
REMARK    4  A    between atoms: C5_16  and  C6_19 
REMARK    5  A    between atoms: C6_19  and  N5_20 
REMARK    6  A    between atoms: C6_19  and  C7_24 
REMARK    7  A    between atoms: C8_26  and  C9_27 
ROOT
HETATM    1  C2  UNL     1     -10.390 -15.858  12.230  1.00  0.00     0.239 C 
HETATM    2  O1  UNL     1     -10.469 -17.041  11.570  1.00  0.00    -0.265 OA
HETATM    3  N1  UNL     1     -10.135 -16.916  10.241  1.00  0.00    -0.056 NA
HETATM    4  C3  UNL     1     -11.431 -17.151   9.573  1.00  0.00     0.347 C 
HETATM    5  N2  UNL     1     -12.316 -16.189  10.076  1.00  0.00    -0.352 N 
ATOM      6  H2  UNL     1     -12.459 -15.292   9.612  1.00  0.00     0.159 HD
HETATM    7  C4  UNL     1     -12.988 -16.528  11.242  1.00  0.00     0.296 C 
HETATM    8  N3  UNL     1     -12.825 -17.881  11.633  1.00  0.00    -0.278 N 
ATOM      9  H3  UNL     1     -13.117 -18.303  12.514  1.00  0.00     0.176 HD
HETATM   10  S2  UNL     1     -12.043 -18.665  10.333  1.00  0.00     0.268 S 
HETATM   11  O2  UNL     1     -13.009 -19.323   9.422  1.00  0.00    -0.202 OA
HETATM   12  O3  UNL     1     -10.920 -19.545  10.764  1.00  0.00    -0.202 OA
HETATM   13  N4  UNL     1     -12.858 -15.558  12.283  1.00  0.00    -0.332 N 
HETATM   14  C8  UNL     1     -11.610 -15.331  12.863  1.00  0.00     0.215 C 
ENDROOT
BRANCH  13  15
HETATM   15  C5  UNL     1     -13.545 -14.322  12.048  1.00  0.00     0.257 C 
BRANCH  15  16
HETATM   16  O4  UNL     1     -13.823 -14.154  10.694  1.00  0.00    -0.374 OA
ATOM     17  H4  UNL     1     -13.847 -13.233  10.462  1.00  0.00     0.212 HD
ENDBRANCH  15  16
BRANCH  15  18
HETATM   18  C6  UNL     1     -14.791 -14.107  12.832  1.00  0.00     0.292 C 
BRANCH  18  19
HETATM   19  N5  UNL     1     -15.864 -13.861  11.875  1.00  0.00    -0.065 N 
ATOM     20  H53 UNL     1     -15.556 -13.340  11.054  1.00  0.00     0.275 HD
ATOM     21  H52 UNL     1     -16.167 -14.704  11.389  1.00  0.00     0.275 HD
ATOM     22  H51 UNL     1     -16.619 -13.399  12.381  1.00  0.00     0.275 HD
ENDBRANCH  18  19
BRANCH  18  23
HETATM   23  C7  UNL     1     -14.730 -12.966  13.754  1.00  0.00     0.268 C 
HETATM   24  O5  UNL     1     -15.538 -12.082  13.720  1.00  0.00    -0.304 OA
ENDBRANCH  18  23
ENDBRANCH  15  18
ENDBRANCH  13  15
BRANCH  14  25
HETATM   25  C9  UNL     1     -11.667 -15.789  14.303  1.00  0.00     0.257 C 
HETATM   26  N6  UNL     1     -10.529 -16.313  14.976  1.00  0.00    -0.060 NA
HETATM   27  O6  UNL     1     -12.729 -15.728  14.979  1.00  0.00    -0.274 OA
ENDBRANCH  14  25
BRANCH   1  28
HETATM   28  S1  UNL     1      -9.618 -14.637  11.093  1.00  0.00    -0.137 SA
HETATM   29  C1  UNL     1     -10.505 -13.083  11.085  1.00  0.00     0.092 C 
ENDBRANCH   1  28
TORSDOF 7
ENDMDL
MODEL 5
REMARK VINA RESULT: -6.253909222      2.431      5.303
REMARK  7 active torsions:
REMARK  status: ('A' for Active; 'I' for Inactive)
REMARK    1  A    between atoms: S1_2  and  C2_3 
REMARK    2  A    between atoms: N4_15  and  C5_16 
REMARK    3  A    between atoms: C5_16  and  O4_17 
REMARK    4  A    between atoms: C5_16  and  C6_19 
REMARK    5  A    between atoms: C6_19  and  N5_20 
REMARK    6  A    between atoms: C6_19  and  C7_24 
REMARK    7  A    between atoms: C8_26  and  C9_27 
ROOT
HETATM    1  C2  UNL     1     -12.581 -19.009  13.208  1.00  0.00     0.239 C 
HETATM    2  O1  UNL     1     -12.160 -18.611  14.435  1.00  0.00    -0.265 OA
HETATM    3  N1  UNL     1     -13.103 -17.845  15.082  1.00  0.00    -0.056 NA
HETATM    4  C3  UNL     1     -12.460 -16.515  15.100  1.00  0.00     0.347 C 
HETATM    5  N2  UNL     1     -12.209 -16.178  13.764  1.00  0.00    -0.352 N 
ATOM      6  H2  UNL     1     -12.873 -15.636  13.210  1.00  0.00     0.159 HD
HETATM    7  C4  UNL     1     -11.004 -16.624  13.239  1.00  0.00     0.296 C 
HETATM    8  N3  UNL     1     -10.122 -17.179  14.200  1.00  0.00    -0.278 N 
ATOM      9  H3  UNL     1      -9.253 -17.679  14.015  1.00  0.00     0.176 HD
HETATM   10  S2  UNL     1     -10.804 -16.842  15.728  1.00  0.00     0.268 S 
HETATM   11  O2  UNL     1     -10.245 -15.604  16.322  1.00  0.00    -0.202 OA
HETATM   12  O3  UNL     1     -10.796 -18.012  16.650  1.00  0.00    -0.202 OA
HETATM   13  N4  UNL     1     -11.146 -17.361  12.022  1.00  0.00    -0.332 N 
HETATM   14  C8  UNL     1     -11.795 -18.595  12.035  1.00  0.00     0.215 C 
ENDROOT
BRANCH  13  15
HETATM   15  C5  UNL     1     -11.546 -16.583  10.887  1.00  0.00     0.257 C 
BRANCH  15  16
HETATM   16  O4  UNL     1     -12.020 -15.334  11.278  1.00  0.00    -0.374 OA
ATOM     17  H4  UNL     1     -11.523 -14.995  12.012  1.00  0.00     0.212 HD
ENDBRANCH  15  16
BRANCH  15  18
HETATM   18  C6  UNL     1     -10.522 -16.404   9.823  1.00  0.00     0.292 C 
BRANCH  18  19
HETATM   19  N5  UNL     1     -10.420 -14.973   9.560  1.00  0.00    -0.065 N 
ATOM     20  H53 UNL     1     -10.979 -14.672   8.762  1.00  0.00     0.275 HD
ATOM     21  H52 UNL     1     -10.883 -14.403  10.267  1.00  0.00     0.275 HD
ATOM     22  H51 UNL     1      -9.429 -14.755   9.458  1.00  0.00     0.275 HD
ENDBRANCH  18  19
BRANCH  18  23
HETATM   23  C7  UNL     1     -10.845 -17.079   8.559  1.00  0.00     0.268 C 
HETATM   24  O5  UNL     1     -10.456 -18.187   8.317  1.00  0.00    -0.304 OA
ENDBRANCH  18  23
ENDBRANCH  15  18
ENDBRANCH  13  15
BRANCH  14  25
HETATM   25  C9  UNL     1     -10.782 -19.667  11.705  1.00  0.00     0.257 C 
HETATM   26  N6  UNL     1      -9.646 -19.912  12.524  1.00  0.00    -0.060 NA
HETATM   27  O6  UNL     1     -10.894 -20.398  10.684  1.00  0.00    -0.274 OA
ENDBRANCH  14  25
BRANCH   1  28
HETATM   28  S1  UNL     1     -14.354 -18.548  13.051  1.00  0.00    -0.137 SA
HETATM   29  C1  UNL     1     -14.823 -18.284  11.345  1.00  0.00     0.092 C 
ENDBRANCH   1  28
TORSDOF 7
ENDMDL
