MODEL 1
REMARK VINA RESULT: -9.174985158      0.000      0.000
REMARK  8 active torsions:
REMARK  status: ('A' for Active; 'I' for Inactive)
REMARK    1  A    between atoms: N1_1  and  N2_4 
REMARK       I    between atoms: N2_4  and  C1_6 
REMARK    2  A    between atoms: C1_6  and  C2_8 
REMARK    3  A    between atoms: C2_8  and  N3_9 
REMARK    4  A    between atoms: C4_13  and  N5_14 
REMARK    5  A    between atoms: N5_14  and  C5_16 
REMARK    6  A    between atoms: C8_25  and  N8_26 
REMARK    7  A    between atoms: N8_26  and  C9_28 
REMARK    8  A    between atoms: C9_28  and  C10_29 
ROOT
HETATM    1  C5  UNL     1     -18.736 -14.956   7.494  1.00  0.00     0.689 C 
HETATM    2  N6  UNL     1     -18.681 -13.849   6.730  1.00  0.00    -0.141 N 
ATOM      3  H6  UNL     1     -18.980 -12.993   7.199  1.00  0.00     0.189 HD
HETATM    4  C6  UNL     1     -18.291 -13.679   5.434  1.00  0.00     0.341 C 
HETATM    5  O2  UNL     1     -18.410 -12.515   5.010  1.00  0.00    -0.246 OA
HETATM    6  N7  UNL     1     -17.811 -14.634   4.618  1.00  0.00    -0.272 N 
ATOM      7  H7  UNL     1     -17.792 -14.404   3.625  1.00  0.00     0.174 HD
HETATM    8  C7  UNL     1     -17.347 -15.875   4.952  1.00  0.00     0.293 C 
HETATM    9  O3  UNL     1     -16.761 -16.485   4.047  1.00  0.00    -0.264 OA
HETATM   10  C8  UNL     1     -17.435 -16.548   6.153  1.00  0.00     0.185 C 
HETATM   11  N9  UNL     1     -18.070 -16.107   7.252  1.00  0.00    -0.171 N 
ATOM     12  H9  UNL     1     -18.044 -16.753   8.041  1.00  0.00     0.186 HD
ENDROOT
BRANCH   1  13
HETATM   13  N5  UNL     1     -19.484 -14.932   8.545  1.00  0.00    -0.175 N 
ATOM     14  H5  UNL     1     -20.418 -15.340   8.534  1.00  0.00     0.186 HD
BRANCH  13  15
HETATM   15  C4  UNL     1     -18.966 -14.318   9.721  1.00  0.00     0.137 A 
HETATM   16  N4  UNL     1     -19.670 -13.620  10.651  1.00  0.00    -0.337 N 
HETATM   17  C3  UNL     1     -18.884 -13.181  11.621  1.00  0.00     0.184 A 
ATOM     18  H4  UNL     1     -20.675 -13.457  10.606  1.00  0.00     0.168 HD
HETATM   19  N3  UNL     1     -17.637 -13.599  11.324  1.00  0.00    -0.341 N 
HETATM   20  C13 UNL     1     -17.661 -14.293  10.172  1.00  0.00     0.141 A 
BRANCH  19  21
HETATM   21  C2  UNL     1     -16.485 -13.316  12.152  1.00  0.00     0.233 C 
BRANCH  21  22
HETATM   22  C1  UNL     1     -16.387 -11.871  12.470  1.00  0.00     0.253 C 
HETATM   23  N2  UNL     1     -16.619 -10.908  11.454  1.00  0.00    -0.275 N 
ATOM     24  H2  UNL     1     -16.852 -11.215  10.510  1.00  0.00     0.189 HD
HETATM   25  O1  UNL     1     -16.097 -11.540  13.643  1.00  0.00    -0.270 OA
BRANCH  23  26
HETATM   26  N1  UNL     1     -16.529  -9.539  11.738  1.00  0.00    -0.343 N 
ATOM     27  H12 UNL     1     -16.020  -9.243  12.570  1.00  0.00     0.176 HD
ATOM     28  H11 UNL     1     -16.968  -8.854  11.123  1.00  0.00     0.176 HD
ENDBRANCH  23  26
ENDBRANCH  21  22
ENDBRANCH  19  21
ENDBRANCH  13  15
ENDBRANCH   1  13
BRANCH  10  29
HETATM   29  N8  UNL     1     -16.843 -17.681   6.156  1.00  0.00    -0.367 N 
ATOM     30  H8  UNL     1     -15.880 -17.695   5.821  1.00  0.00     0.161 HD
BRANCH  29  31
HETATM   31  C9  UNL     1     -17.390 -18.925   6.578  1.00  0.00     0.182 C 
BRANCH  31  32
HETATM   32  C10 UNL     1     -18.082 -19.585   5.391  1.00  0.00     0.277 C 
HETATM   33  O4  UNL     1     -18.611 -20.808   5.707  1.00  0.00    -0.358 OA
HETATM   34  C11 UNL     1     -17.951 -21.768   4.943  1.00  0.00     0.197 C 
HETATM   35  C12 UNL     1     -17.351 -20.979   3.801  1.00  0.00     0.197 C 
HETATM   36  O5  UNL     1     -17.180 -19.728   4.371  1.00  0.00    -0.358 OA
ENDBRANCH  31  32
ENDBRANCH  29  31
ENDBRANCH  10  29
TORSDOF 8
ENDMDL
MODEL 2
REMARK VINA RESULT: -8.826477509      1.683      2.514
REMARK  8 active torsions:
REMARK  status: ('A' for Active; 'I' for Inactive)
REMARK    1  A    between atoms: N1_1  and  N2_4 
REMARK       I    between atoms: N2_4  and  C1_6 
REMARK    2  A    between atoms: C1_6  and  C2_8 
REMARK    3  A    between atoms: C2_8  and  N3_9 
REMARK    4  A    between atoms: C4_13  and  N5_14 
REMARK    5  A    between atoms: N5_14  and  C5_16 
REMARK    6  A    between atoms: C8_25  and  N8_26 
REMARK    7  A    between atoms: N8_26  and  C9_28 
REMARK    8  A    between atoms: C9_28  and  C10_29 
ROOT
HETATM    1  C5  UNL     1     -17.169 -16.837   6.145  1.00  0.00     0.689 C 
HETATM    2  N6  UNL     1     -17.102 -15.595   5.630  1.00  0.00    -0.141 N 
ATOM      3  H6  UNL     1     -16.838 -14.871   6.298  1.00  0.00     0.189 HD
HETATM    4  C6  UNL     1     -17.328 -15.143   4.363  1.00  0.00     0.341 C 
HETATM    5  O2  UNL     1     -17.227 -13.910   4.232  1.00  0.00    -0.246 OA
HETATM    6  N7  UNL     1     -17.640 -15.898   3.295  1.00  0.00    -0.272 N 
ATOM      7  H7  UNL     1     -18.007 -15.397   2.487  1.00  0.00     0.174 HD
HETATM    8  C7  UNL     1     -17.526 -17.252   3.156  1.00  0.00     0.293 C 
HETATM    9  O3  UNL     1     -17.674 -17.684   2.004  1.00  0.00    -0.264 OA
HETATM   10  C8  UNL     1     -17.269 -18.212   4.114  1.00  0.00     0.185 C 
HETATM   11  N9  UNL     1     -17.127 -17.984   5.431  1.00  0.00    -0.171 N 
ATOM     12  H9  UNL     1     -16.959 -18.822   5.987  1.00  0.00     0.186 HD
ENDROOT
BRANCH   1  13
HETATM   13  N5  UNL     1     -17.283 -16.958   7.425  1.00  0.00    -0.175 N 
ATOM     14  H5  UNL     1     -16.800 -17.703   7.926  1.00  0.00     0.186 HD
BRANCH  13  15
HETATM   15  C4  UNL     1     -18.103 -16.022   8.115  1.00  0.00     0.137 A 
HETATM   16  N4  UNL     1     -19.333 -15.584   7.737  1.00  0.00    -0.337 N 
HETATM   17  C3  UNL     1     -19.823 -14.714   8.605  1.00  0.00     0.184 A 
ATOM     18  H4  UNL     1     -19.816 -15.888   6.892  1.00  0.00     0.168 HD
HETATM   19  N3  UNL     1     -18.897 -14.576   9.576  1.00  0.00    -0.341 N 
HETATM   20  C13 UNL     1     -17.841 -15.363   9.300  1.00  0.00     0.141 A 
BRANCH  19  21
HETATM   21  C2  UNL     1     -19.064 -13.702  10.717  1.00  0.00     0.233 C 
BRANCH  21  22
HETATM   22  C1  UNL     1     -17.860 -12.865  10.940  1.00  0.00     0.253 C 
HETATM   23  N2  UNL     1     -17.966 -11.450  10.888  1.00  0.00    -0.275 N 
ATOM     24  H2  UNL     1     -18.869 -11.017  10.697  1.00  0.00     0.189 HD
HETATM   25  O1  UNL     1     -16.773 -13.440  11.171  1.00  0.00    -0.270 OA
BRANCH  23  26
HETATM   26  N1  UNL     1     -16.838 -10.646  11.096  1.00  0.00    -0.343 N 
ATOM     27  H12 UNL     1     -16.650  -9.885  10.444  1.00  0.00     0.176 HD
ATOM     28  H11 UNL     1     -16.218 -10.822  11.887  1.00  0.00     0.176 HD
ENDBRANCH  23  26
ENDBRANCH  21  22
ENDBRANCH  19  21
ENDBRANCH  13  15
ENDBRANCH   1  13
BRANCH  10  29
HETATM   29  N8  UNL     1     -17.168 -19.397   3.645  1.00  0.00    -0.367 N 
ATOM     30  H8  UNL     1     -16.254 -19.671   3.286  1.00  0.00     0.161 HD
BRANCH  29  31
HETATM   31  C9  UNL     1     -18.201 -20.373   3.574  1.00  0.00     0.182 C 
BRANCH  31  32
HETATM   32  C10 UNL     1     -17.918 -21.463   4.602  1.00  0.00     0.277 C 
HETATM   33  O4  UNL     1     -18.315 -21.108   5.863  1.00  0.00    -0.358 OA
HETATM   34  C11 UNL     1     -17.178 -21.049   6.667  1.00  0.00     0.197 C 
HETATM   35  C12 UNL     1     -16.157 -21.875   5.918  1.00  0.00     0.197 C 
HETATM   36  O5  UNL     1     -16.576 -21.736   4.605  1.00  0.00    -0.358 OA
ENDBRANCH  31  32
ENDBRANCH  29  31
ENDBRANCH  10  29
TORSDOF 8
ENDMDL
MODEL 3
REMARK VINA RESULT: -8.786382754      2.068      3.045
REMARK  8 active torsions:
REMARK  status: ('A' for Active; 'I' for Inactive)
REMARK    1  A    between atoms: N1_1  and  N2_4 
REMARK       I    between atoms: N2_4  and  C1_6 
REMARK    2  A    between atoms: C1_6  and  C2_8 
REMARK    3  A    between atoms: C2_8  and  N3_9 
REMARK    4  A    between atoms: C4_13  and  N5_14 
REMARK    5  A    between atoms: N5_14  and  C5_16 
REMARK    6  A    between atoms: C8_25  and  N8_26 
REMARK    7  A    between atoms: N8_26  and  C9_28 
REMARK    8  A    between atoms: C9_28  and  C10_29 
ROOT
HETATM    1  C5  UNL     1     -17.543 -14.630   4.688  1.00  0.00     0.689 C 
HETATM    2  N6  UNL     1     -17.297 -14.371   3.390  1.00  0.00    -0.141 N 
ATOM      3  H6  UNL     1     -17.251 -13.379   3.155  1.00  0.00     0.189 HD
HETATM    4  C6  UNL     1     -17.097 -15.213   2.336  1.00  0.00     0.341 C 
HETATM    5  O2  UNL     1     -16.942 -14.640   1.243  1.00  0.00    -0.246 OA
HETATM    6  N7  UNL     1     -17.060 -16.557   2.390  1.00  0.00    -0.272 N 
ATOM      7  H7  UNL     1     -17.141 -17.041   1.496  1.00  0.00     0.174 HD
HETATM    8  C7  UNL     1     -16.928 -17.355   3.490  1.00  0.00     0.293 C 
HETATM    9  O3  UNL     1     -16.704 -18.550   3.258  1.00  0.00    -0.264 OA
HETATM   10  C8  UNL     1     -17.006 -17.021   4.827  1.00  0.00     0.185 C 
HETATM   11  N9  UNL     1     -17.291 -15.801   5.314  1.00  0.00    -0.171 N 
ATOM     12  H9  UNL     1     -17.324 -15.751   6.332  1.00  0.00     0.186 HD
ENDROOT
BRANCH   1  13
HETATM   13  N5  UNL     1     -18.065 -13.693   5.406  1.00  0.00    -0.175 N 
ATOM     14  H5  UNL     1     -17.904 -12.710   5.184  1.00  0.00     0.186 HD
BRANCH  13  15
HETATM   15  C4  UNL     1     -18.870 -14.070   6.517  1.00  0.00     0.137 A 
HETATM   16  N4  UNL     1     -20.130 -14.578   6.472  1.00  0.00    -0.337 N 
HETATM   17  C3  UNL     1     -20.596 -14.822   7.687  1.00  0.00     0.184 A 
ATOM     18  H4  UNL     1     -20.650 -14.749   5.612  1.00  0.00     0.168 HD
HETATM   19  N3  UNL     1     -19.621 -14.468   8.549  1.00  0.00    -0.341 N 
HETATM   20  C13 UNL     1     -18.561 -14.008   7.861  1.00  0.00     0.141 A 
BRANCH  19  21
HETATM   21  C2  UNL     1     -19.748 -14.586   9.986  1.00  0.00     0.233 C 
BRANCH  21  22
HETATM   22  C1  UNL     1     -19.150 -13.421  10.681  1.00  0.00     0.253 C 
HETATM   23  N2  UNL     1     -17.870 -13.541  11.284  1.00  0.00    -0.275 N 
ATOM     24  H2  UNL     1     -17.369 -14.427  11.235  1.00  0.00     0.189 HD
HETATM   25  O1  UNL     1     -19.801 -12.353  10.717  1.00  0.00    -0.270 OA
BRANCH  23  26
HETATM   26  N1  UNL     1     -17.291 -12.449  11.945  1.00  0.00    -0.343 N 
ATOM     27  H12 UNL     1     -16.663 -11.837  11.425  1.00  0.00     0.176 HD
ATOM     28  H11 UNL     1     -17.497 -12.273  12.928  1.00  0.00     0.176 HD
ENDBRANCH  23  26
ENDBRANCH  21  22
ENDBRANCH  19  21
ENDBRANCH  13  15
ENDBRANCH   1  13
BRANCH  10  29
HETATM   29  N8  UNL     1     -16.778 -17.999   5.619  1.00  0.00    -0.367 N 
ATOM     30  H8  UNL     1     -15.953 -18.564   5.422  1.00  0.00     0.161 HD
BRANCH  29  31
HETATM   31  C9  UNL     1     -17.557 -18.379   6.747  1.00  0.00     0.182 C 
BRANCH  31  32
HETATM   32  C10 UNL     1     -17.817 -19.880   6.680  1.00  0.00     0.277 C 
HETATM   33  O4  UNL     1     -16.678 -20.597   6.429  1.00  0.00    -0.358 OA
HETATM   34  C11 UNL     1     -16.840 -21.237   5.202  1.00  0.00     0.197 C 
HETATM   35  C12 UNL     1     -18.337 -21.248   4.989  1.00  0.00     0.197 C 
HETATM   36  O5  UNL     1     -18.740 -20.130   5.701  1.00  0.00    -0.358 OA
ENDBRANCH  31  32
ENDBRANCH  29  31
ENDBRANCH  10  29
TORSDOF 8
ENDMDL
MODEL 4
REMARK VINA RESULT: -8.578919114      2.116      3.327
REMARK  8 active torsions:
REMARK  status: ('A' for Active; 'I' for Inactive)
REMARK    1  A    between atoms: N1_1  and  N2_4 
REMARK       I    between atoms: N2_4  and  C1_6 
REMARK    2  A    between atoms: C1_6  and  C2_8 
REMARK    3  A    between atoms: C2_8  and  N3_9 
REMARK    4  A    between atoms: C4_13  and  N5_14 
REMARK    5  A    between atoms: N5_14  and  C5_16 
REMARK    6  A    between atoms: C8_25  and  N8_26 
REMARK    7  A    between atoms: N8_26  and  C9_28 
REMARK    8  A    between atoms: C9_28  and  C10_29 
ROOT
HETATM    1  C5  UNL     1     -17.593 -13.900   4.114  1.00  0.00     0.689 C 
HETATM    2  N6  UNL     1     -16.848 -13.085   3.344  1.00  0.00    -0.141 N 
ATOM      3  H6  UNL     1     -16.925 -12.095   3.574  1.00  0.00     0.189 HD
HETATM    4  C6  UNL     1     -16.006 -13.363   2.308  1.00  0.00     0.341 C 
HETATM    5  O2  UNL     1     -15.503 -12.360   1.771  1.00  0.00    -0.246 OA
HETATM    6  N7  UNL     1     -15.696 -14.587   1.843  1.00  0.00    -0.272 N 
ATOM      7  H7  UNL     1     -15.249 -14.615   0.928  1.00  0.00     0.174 HD
HETATM    8  C7  UNL     1     -15.903 -15.796   2.444  1.00  0.00     0.293 C 
HETATM    9  O3  UNL     1     -15.336 -16.759   1.912  1.00  0.00    -0.264 OA
HETATM   10  C8  UNL     1     -16.654 -16.100   3.561  1.00  0.00     0.185 C 
HETATM   11  N9  UNL     1     -17.397 -15.229   4.265  1.00  0.00    -0.171 N 
ATOM     12  H9  UNL     1     -17.900 -15.643   5.050  1.00  0.00     0.186 HD
ENDROOT
BRANCH   1  13
HETATM   13  N5  UNL     1     -18.580 -13.385   4.766  1.00  0.00    -0.175 N 
ATOM     14  H5  UNL     1     -19.038 -12.534   4.439  1.00  0.00     0.186 HD
BRANCH  13  15
HETATM   15  C4  UNL     1     -19.011 -14.038   5.955  1.00  0.00     0.137 A 
HETATM   16  N4  UNL     1     -20.267 -14.474   6.234  1.00  0.00    -0.337 N 
HETATM   17  C3  UNL     1     -20.328 -15.039   7.429  1.00  0.00     0.184 A 
ATOM     18  H4  UNL     1     -21.062 -14.379   5.601  1.00  0.00     0.168 HD
HETATM   19  N3  UNL     1     -19.085 -14.974   7.948  1.00  0.00    -0.341 N 
HETATM   20  C13 UNL     1     -18.266 -14.369   7.070  1.00  0.00     0.141 A 
BRANCH  19  21
HETATM   21  C2  UNL     1     -18.741 -15.491   9.255  1.00  0.00     0.233 C 
BRANCH  21  22
HETATM   22  C1  UNL     1     -18.188 -14.429  10.130  1.00  0.00     0.253 C 
HETATM   23  N2  UNL     1     -18.945 -13.254  10.378  1.00  0.00    -0.275 N 
ATOM     24  H2  UNL     1     -19.865 -13.146   9.953  1.00  0.00     0.189 HD
HETATM   25  O1  UNL     1     -17.053 -14.604  10.630  1.00  0.00    -0.270 OA
BRANCH  23  26
HETATM   26  N1  UNL     1     -18.435 -12.242  11.201  1.00  0.00    -0.343 N 
ATOM     27  H12 UNL     1     -18.941 -11.359  11.264  1.00  0.00     0.176 HD
ATOM     28  H11 UNL     1     -17.574 -12.389  11.728  1.00  0.00     0.176 HD
ENDBRANCH  23  26
ENDBRANCH  21  22
ENDBRANCH  19  21
ENDBRANCH  13  15
ENDBRANCH   1  13
BRANCH  10  29
HETATM   29  N8  UNL     1     -16.598 -17.331   3.903  1.00  0.00    -0.367 N 
ATOM     30  H8  UNL     1     -16.213 -17.979   3.217  1.00  0.00     0.161 HD
BRANCH  29  31
HETATM   31  C9  UNL     1     -17.019 -17.889   5.142  1.00  0.00     0.182 C 
BRANCH  31  32
HETATM   32  C10 UNL     1     -17.663 -19.245   4.876  1.00  0.00     0.277 C 
HETATM   33  O4  UNL     1     -17.479 -20.123   5.910  1.00  0.00    -0.358 OA
HETATM   34  C11 UNL     1     -16.720 -21.190   5.433  1.00  0.00     0.197 C 
HETATM   35  C12 UNL     1     -16.896 -21.122   3.933  1.00  0.00     0.197 C 
HETATM   36  O5  UNL     1     -17.135 -19.773   3.729  1.00  0.00    -0.358 OA
ENDBRANCH  31  32
ENDBRANCH  29  31
ENDBRANCH  10  29
TORSDOF 8
ENDMDL
MODEL 5
REMARK VINA RESULT: -8.570571977      1.895      4.279
REMARK  8 active torsions:
REMARK  status: ('A' for Active; 'I' for Inactive)
REMARK    1  A    between atoms: N1_1  and  N2_4 
REMARK       I    between atoms: N2_4  and  C1_6 
REMARK    2  A    between atoms: C1_6  and  C2_8 
REMARK    3  A    between atoms: C2_8  and  N3_9 
REMARK    4  A    between atoms: C4_13  and  N5_14 
REMARK    5  A    between atoms: N5_14  and  C5_16 
REMARK    6  A    between atoms: C8_25  and  N8_26 
REMARK    7  A    between atoms: N8_26  and  C9_28 
REMARK    8  A    between atoms: C9_28  and  C10_29 
ROOT
HETATM    1  C5  UNL     1     -19.258 -15.500   7.771  1.00  0.00     0.689 C 
HETATM    2  N6  UNL     1     -19.105 -16.804   8.067  1.00  0.00    -0.141 N 
ATOM      3  H6  UNL     1     -19.788 -17.173   8.729  1.00  0.00     0.189 HD
HETATM    4  C6  UNL     1     -18.189 -17.715   7.629  1.00  0.00     0.341 C 
HETATM    5  O2  UNL     1     -18.298 -18.842   8.145  1.00  0.00    -0.246 OA
HETATM    6  N7  UNL     1     -17.220 -17.493   6.723  1.00  0.00    -0.272 N 
ATOM      7  H7  UNL     1     -16.480 -18.194   6.682  1.00  0.00     0.174 HD
HETATM    8  C7  UNL     1     -17.101 -16.449   5.852  1.00  0.00     0.293 C 
HETATM    9  O3  UNL     1     -16.238 -16.583   4.974  1.00  0.00    -0.264 OA
HETATM   10  C8  UNL     1     -17.806 -15.263   5.806  1.00  0.00     0.185 C 
HETATM   11  N9  UNL     1     -18.747 -14.878   6.684  1.00  0.00    -0.171 N 
ATOM     12  H9  UNL     1     -19.146 -13.958   6.498  1.00  0.00     0.186 HD
ENDROOT
BRANCH   1  13
HETATM   13  N5  UNL     1     -19.945 -14.769   8.583  1.00  0.00    -0.175 N 
ATOM     14  H5  UNL     1     -20.932 -14.580   8.413  1.00  0.00     0.186 HD
BRANCH  13  15
HETATM   15  C4  UNL     1     -19.283 -14.234   9.725  1.00  0.00     0.137 A 
HETATM   16  N4  UNL     1     -19.866 -13.622  10.789  1.00  0.00    -0.337 N 
HETATM   17  C3  UNL     1     -18.964 -13.240  11.679  1.00  0.00     0.184 A 
ATOM     18  H4  UNL     1     -20.870 -13.477  10.889  1.00  0.00     0.168 HD
HETATM   19  N3  UNL     1     -17.762 -13.609  11.191  1.00  0.00    -0.341 N 
HETATM   20  C13 UNL     1     -17.931 -14.216  10.002  1.00  0.00     0.141 A 
BRANCH  19  21
HETATM   21  C2  UNL     1     -16.514 -13.364  11.881  1.00  0.00     0.233 C 
BRANCH  21  22
HETATM   22  C1  UNL     1     -16.406 -11.952  12.322  1.00  0.00     0.253 C 
HETATM   23  N2  UNL     1     -16.629 -10.904  11.392  1.00  0.00    -0.275 N 
ATOM     24  H2  UNL     1     -16.863 -11.127  10.425  1.00  0.00     0.189 HD
HETATM   25  O1  UNL     1     -16.115 -11.726  13.519  1.00  0.00    -0.270 OA
BRANCH  23  26
HETATM   26  N1  UNL     1     -16.530  -9.565  11.794  1.00  0.00    -0.343 N 
ATOM     27  H12 UNL     1     -15.612  -9.192  12.036  1.00  0.00     0.176 HD
ATOM     28  H11 UNL     1     -17.362  -8.978  11.842  1.00  0.00     0.176 HD
ENDBRANCH  23  26
ENDBRANCH  21  22
ENDBRANCH  19  21
ENDBRANCH  13  15
ENDBRANCH   1  13
BRANCH  10  29
HETATM   29  N8  UNL     1     -17.489 -14.510   4.822  1.00  0.00    -0.367 N 
ATOM     30  H8  UNL     1     -16.780 -14.867   4.183  1.00  0.00     0.161 HD
BRANCH  29  31
HETATM   31  C9  UNL     1     -18.025 -13.226   4.527  1.00  0.00     0.182 C 
BRANCH  31  32
HETATM   32  C10 UNL     1     -17.748 -12.902   3.064  1.00  0.00     0.277 C 
HETATM   33  O4  UNL     1     -17.140 -13.937   2.406  1.00  0.00    -0.358 OA
HETATM   34  C11 UNL     1     -15.880 -13.502   2.000  1.00  0.00     0.197 C 
HETATM   35  C12 UNL     1     -15.987 -11.994   2.026  1.00  0.00     0.197 C 
HETATM   36  O5  UNL     1     -16.955 -11.788   2.995  1.00  0.00    -0.358 OA
ENDBRANCH  31  32
ENDBRANCH  29  31
ENDBRANCH  10  29
TORSDOF 8
ENDMDL
