MODEL 1
REMARK VINA RESULT: -8.447901428      0.000      0.000
REMARK  7 active torsions:
REMARK  status: ('A' for Active; 'I' for Inactive)
REMARK    1  A    between atoms: N1_1  and  S1_4 
REMARK    2  A    between atoms: S1_4  and  N2_7 
REMARK    3  A    between atoms: N2_7  and  N3_9 
REMARK    4  A    between atoms: C3_15  and  N4_16 
REMARK    5  A    between atoms: N4_16  and  C4_18 
REMARK    6  A    between atoms: C4_18  and  C5_19 
REMARK    7  A    between atoms: C9_32  and  O8_33 
ROOT
HETATM    1  N3  UNL     1     -17.056 -17.867   5.177  1.00  0.00    -0.270 N 
ATOM      2  H3  UNL     1     -16.858 -17.441   4.272  1.00  0.00     0.189 HD
HETATM    3  C1  UNL     1     -17.468 -17.102   6.162  1.00  0.00     0.178 C 
HETATM    4  O3  UNL     1     -17.624 -15.746   5.954  1.00  0.00    -0.259 OA
HETATM    5  C2  UNL     1     -18.213 -14.945   6.911  1.00  0.00     0.295 C 
HETATM    6  O4  UNL     1     -19.010 -14.013   6.627  1.00  0.00    -0.262 OA
HETATM    7  C3  UNL     1     -17.830 -15.269   8.335  1.00  0.00     0.252 C 
HETATM    8  C8  UNL     1     -18.117 -16.693   8.529  1.00  0.00     0.195 C 
HETATM    9  O7  UNL     1     -18.653 -17.168   9.538  1.00  0.00    -0.292 OA
HETATM   10  C9  UNL     1     -17.766 -17.679   7.483  1.00  0.00     0.266 C 
ENDROOT
BRANCH   7  11
HETATM   11  N4  UNL     1     -18.520 -14.356   9.166  1.00  0.00    -0.398 N 
ATOM     12  H4  UNL     1     -19.174 -13.681   8.772  1.00  0.00     0.154 HD
BRANCH  11  13
HETATM   13  C4  UNL     1     -18.276 -14.406  10.561  1.00  0.00     0.179 C 
BRANCH  13  14
HETATM   14  C5  UNL     1     -17.766 -13.050  10.974  1.00  0.00     0.111 A 
HETATM   15  N5  UNL     1     -18.379 -11.915  10.597  1.00  0.00    -0.294 N 
HETATM   16  N6  UNL     1     -17.962 -10.708  10.940  1.00  0.00    -0.251 N 
ATOM     17  H5  UNL     1     -19.213 -11.989  10.015  1.00  0.00     0.187 HD
HETATM   18  C6  UNL     1     -16.875 -10.569  11.702  1.00  0.00     0.341 A 
ATOM     19  H6  UNL     1     -18.471  -9.883  10.622  1.00  0.00     0.191 HD
HETATM   20  O5  UNL     1     -16.467  -9.405  12.038  1.00  0.00    -0.245 OA
HETATM   21  N7  UNL     1     -16.229 -11.683  12.103  1.00  0.00    -0.273 N 
HETATM   22  C7  UNL     1     -16.642 -12.918  11.762  1.00  0.00     0.275 A 
ATOM     23  H7  UNL     1     -15.398 -11.587  12.685  1.00  0.00     0.173 HD
HETATM   24  O6  UNL     1     -16.008 -13.949  12.158  1.00  0.00    -0.266 OA
ENDBRANCH  13  14
ENDBRANCH  11  13
ENDBRANCH   7  11
BRANCH  10  25
HETATM   25  O8  UNL     1     -16.646 -18.442   7.845  1.00  0.00    -0.380 OA
ATOM     26  H8  UNL     1     -16.952 -19.091   8.467  1.00  0.00     0.211 HD
ENDBRANCH  10  25
BRANCH   1  27
HETATM   27  N2  UNL     1     -16.880 -19.228   5.323  1.00  0.00    -0.208 N 
ATOM     28  H2  UNL     1     -16.032 -19.556   5.783  1.00  0.00     0.201 HD
BRANCH  27  29
HETATM   29  S1  UNL     1     -18.019 -20.408   4.770  1.00  0.00     0.330 S 
HETATM   30  O1  UNL     1     -19.263 -20.237   5.624  1.00  0.00    -0.181 OA
HETATM   31  O2  UNL     1     -17.512 -21.790   5.013  1.00  0.00    -0.181 OA
BRANCH  29  32
HETATM   32  N1  UNL     1     -18.452 -20.161   3.125  1.00  0.00    -0.310 N 
ATOM     33  H12 UNL     1     -19.284 -19.665   2.808  1.00  0.00     0.170 HD
ATOM     34  H11 UNL     1     -17.738 -20.591   2.536  1.00  0.00     0.170 HD
ENDBRANCH  29  32
ENDBRANCH  27  29
ENDBRANCH   1  27
TORSDOF 7
ENDMDL
MODEL 2
REMARK VINA RESULT: -8.157409034      1.409      2.236
REMARK  7 active torsions:
REMARK  status: ('A' for Active; 'I' for Inactive)
REMARK    1  A    between atoms: N1_1  and  S1_4 
REMARK    2  A    between atoms: S1_4  and  N2_7 
REMARK    3  A    between atoms: N2_7  and  N3_9 
REMARK    4  A    between atoms: C3_15  and  N4_16 
REMARK    5  A    between atoms: N4_16  and  C4_18 
REMARK    6  A    between atoms: C4_18  and  C5_19 
REMARK    7  A    between atoms: C9_32  and  O8_33 
ROOT
HETATM    1  N3  UNL     1     -17.080 -19.445   7.136  1.00  0.00    -0.270 N 
ATOM      2  H3  UNL     1     -16.638 -20.248   7.582  1.00  0.00     0.189 HD
HETATM    3  C1  UNL     1     -17.098 -18.297   7.774  1.00  0.00     0.178 C 
HETATM    4  O3  UNL     1     -16.523 -18.201   9.025  1.00  0.00    -0.259 OA
HETATM    5  C2  UNL     1     -16.375 -16.978   9.646  1.00  0.00     0.295 C 
HETATM    6  O4  UNL     1     -15.351 -16.666  10.309  1.00  0.00    -0.262 OA
HETATM    7  C3  UNL     1     -17.539 -16.032   9.474  1.00  0.00     0.252 C 
HETATM    8  C8  UNL     1     -17.768 -15.915   8.031  1.00  0.00     0.195 C 
HETATM    9  O7  UNL     1     -18.008 -14.851   7.445  1.00  0.00    -0.292 OA
HETATM   10  C9  UNL     1     -17.723 -17.112   7.164  1.00  0.00     0.266 C 
ENDROOT
BRANCH   7  11
HETATM   11  N4  UNL     1     -17.214 -14.846  10.171  1.00  0.00    -0.398 N 
ATOM     12  H4  UNL     1     -16.253 -14.508  10.211  1.00  0.00     0.154 HD
BRANCH  11  13
HETATM   13  C4  UNL     1     -18.262 -14.140  10.813  1.00  0.00     0.179 C 
BRANCH  13  14
HETATM   14  C5  UNL     1     -17.725 -12.780  11.178  1.00  0.00     0.111 A 
HETATM   15  N5  UNL     1     -18.296 -11.647  10.734  1.00  0.00    -0.294 N 
HETATM   16  N6  UNL     1     -17.854 -10.438  11.033  1.00  0.00    -0.251 N 
ATOM     17  H5  UNL     1     -19.116 -11.725  10.132  1.00  0.00     0.187 HD
HETATM   18  C6  UNL     1     -16.784 -10.293  11.816  1.00  0.00     0.341 A 
ATOM     19  H6  UNL     1     -18.331  -9.615  10.664  1.00  0.00     0.191 HD
HETATM   20  O5  UNL     1     -16.352  -9.126  12.110  1.00  0.00    -0.245 OA
HETATM   21  N7  UNL     1     -16.180 -11.404  12.285  1.00  0.00    -0.273 N 
HETATM   22  C7  UNL     1     -16.618 -12.641  11.990  1.00  0.00     0.275 A 
ATOM     23  H7  UNL     1     -15.362 -11.303  12.884  1.00  0.00     0.173 HD
HETATM   24  O6  UNL     1     -16.024 -13.670  12.449  1.00  0.00    -0.266 OA
ENDBRANCH  13  14
ENDBRANCH  11  13
ENDBRANCH   7  11
BRANCH  10  25
HETATM   25  O8  UNL     1     -19.007 -17.506   6.757  1.00  0.00    -0.380 OA
ATOM     26  H8  UNL     1     -18.944 -17.712   5.831  1.00  0.00     0.211 HD
ENDBRANCH  10  25
BRANCH   1  27
HETATM   27  N2  UNL     1     -17.638 -19.602   5.884  1.00  0.00    -0.208 N 
ATOM     28  H2  UNL     1     -18.283 -18.886   5.552  1.00  0.00     0.201 HD
BRANCH  27  29
HETATM   29  S1  UNL     1     -17.305 -20.947   4.846  1.00  0.00     0.330 S 
HETATM   30  O1  UNL     1     -16.191 -21.737   5.511  1.00  0.00    -0.181 OA
HETATM   31  O2  UNL     1     -16.781 -20.484   3.528  1.00  0.00    -0.181 OA
BRANCH  29  32
HETATM   32  N1  UNL     1     -18.670 -21.976   4.671  1.00  0.00    -0.310 N 
ATOM     33  H12 UNL     1     -18.628 -22.982   4.512  1.00  0.00     0.170 HD
ATOM     34  H11 UNL     1     -19.514 -21.408   4.753  1.00  0.00     0.170 HD
ENDBRANCH  29  32
ENDBRANCH  27  29
ENDBRANCH   1  27
TORSDOF 7
ENDMDL
MODEL 3
REMARK VINA RESULT: -8.096231204      1.511      1.971
REMARK  7 active torsions:
REMARK  status: ('A' for Active; 'I' for Inactive)
REMARK    1  A    between atoms: N1_1  and  S1_4 
REMARK    2  A    between atoms: S1_4  and  N2_7 
REMARK    3  A    between atoms: N2_7  and  N3_9 
REMARK    4  A    between atoms: C3_15  and  N4_16 
REMARK    5  A    between atoms: N4_16  and  C4_18 
REMARK    6  A    between atoms: C4_18  and  C5_19 
REMARK    7  A    between atoms: C9_32  and  O8_33 
ROOT
HETATM    1  N3  UNL     1     -16.663 -18.576   4.875  1.00  0.00    -0.270 N 
ATOM      2  H3  UNL     1     -16.144 -18.305   4.040  1.00  0.00     0.189 HD
HETATM    3  C1  UNL     1     -17.183 -17.635   5.631  1.00  0.00     0.178 C 
HETATM    4  O3  UNL     1     -17.020 -16.310   5.282  1.00  0.00    -0.259 OA
HETATM    5  C2  UNL     1     -17.692 -15.311   5.955  1.00  0.00     0.295 C 
HETATM    6  O4  UNL     1     -18.189 -14.310   5.377  1.00  0.00    -0.262 OA
HETATM    7  C3  UNL     1     -17.790 -15.506   7.450  1.00  0.00     0.252 C 
HETATM    8  C8  UNL     1     -18.380 -16.831   7.658  1.00  0.00     0.195 C 
HETATM    9  O7  UNL     1     -19.256 -17.083   8.496  1.00  0.00    -0.292 OA
HETATM   10  C9  UNL     1     -17.941 -17.985   6.843  1.00  0.00     0.266 C 
ENDROOT
BRANCH   7  11
HETATM   11  N4  UNL     1     -18.501 -14.398   7.965  1.00  0.00    -0.398 N 
ATOM     12  H4  UNL     1     -18.530 -13.513   7.459  1.00  0.00     0.154 HD
BRANCH  11  13
HETATM   13  C4  UNL     1     -19.172 -14.551   9.203  1.00  0.00     0.179 C 
BRANCH  13  14
HETATM   14  C5  UNL     1     -18.269 -13.991  10.272  1.00  0.00     0.111 A 
HETATM   15  N5  UNL     1     -17.099 -14.570  10.589  1.00  0.00    -0.294 N 
HETATM   16  N6  UNL     1     -16.281 -14.109  11.520  1.00  0.00    -0.251 N 
ATOM     17  H5  UNL     1     -16.825 -15.413  10.083  1.00  0.00     0.187 HD
HETATM   18  C6  UNL     1     -16.602 -13.010  12.204  1.00  0.00     0.341 A 
ATOM     19  H6  UNL     1     -15.405 -14.593  11.715  1.00  0.00     0.191 HD
HETATM   20  O5  UNL     1     -15.816 -12.557  13.105  1.00  0.00    -0.245 OA
HETATM   21  N7  UNL     1     -17.768 -12.396  11.918  1.00  0.00    -0.273 N 
HETATM   22  C7  UNL     1     -18.610 -12.854  10.974  1.00  0.00     0.275 A 
ATOM     23  H7  UNL     1     -18.022 -11.555  12.436  1.00  0.00     0.173 HD
HETATM   24  O6  UNL     1     -19.705 -12.250  10.729  1.00  0.00    -0.266 OA
ENDBRANCH  13  14
ENDBRANCH  11  13
ENDBRANCH   7  11
BRANCH  10  25
HETATM   25  O8  UNL     1     -17.130 -18.861   7.580  1.00  0.00    -0.380 OA
ATOM     26  H8  UNL     1     -16.273 -18.454   7.632  1.00  0.00     0.211 HD
ENDBRANCH  10  25
BRANCH   1  27
HETATM   27  N2  UNL     1     -16.793 -19.917   5.171  1.00  0.00    -0.208 N 
ATOM     28  H2  UNL     1     -16.524 -20.231   6.103  1.00  0.00     0.201 HD
BRANCH  27  29
HETATM   29  S1  UNL     1     -17.386 -21.095   4.051  1.00  0.00     0.330 S 
HETATM   30  O1  UNL     1     -17.843 -22.283   4.879  1.00  0.00    -0.181 OA
HETATM   31  O2  UNL     1     -16.291 -21.582   3.161  1.00  0.00    -0.181 OA
BRANCH  29  32
HETATM   32  N1  UNL     1     -18.730 -20.509   3.155  1.00  0.00    -0.310 N 
ATOM     33  H12 UNL     1     -19.558 -20.072   3.560  1.00  0.00     0.170 HD
ATOM     34  H11 UNL     1     -18.554 -20.674   2.164  1.00  0.00     0.170 HD
ENDBRANCH  29  32
ENDBRANCH  27  29
ENDBRANCH   1  27
TORSDOF 7
ENDMDL
MODEL 4
REMARK VINA RESULT: -8.090004583      1.632      2.670
REMARK  7 active torsions:
REMARK  status: ('A' for Active; 'I' for Inactive)
REMARK    1  A    between atoms: N1_1  and  S1_4 
REMARK    2  A    between atoms: S1_4  and  N2_7 
REMARK    3  A    between atoms: N2_7  and  N3_9 
REMARK    4  A    between atoms: C3_15  and  N4_16 
REMARK    5  A    between atoms: N4_16  and  C4_18 
REMARK    6  A    between atoms: C4_18  and  C5_19 
REMARK    7  A    between atoms: C9_32  and  O8_33 
ROOT
HETATM    1  N3  UNL     1     -17.118 -20.015   6.313  1.00  0.00    -0.270 N 
ATOM      2  H3  UNL     1     -17.315 -20.770   6.968  1.00  0.00     0.189 HD
HETATM    3  C1  UNL     1     -17.322 -18.775   6.696  1.00  0.00     0.178 C 
HETATM    4  O3  UNL     1     -17.794 -18.521   7.969  1.00  0.00    -0.259 OA
HETATM    5  C2  UNL     1     -17.858 -17.234   8.458  1.00  0.00     0.295 C 
HETATM    6  O4  UNL     1     -17.565 -16.937   9.646  1.00  0.00    -0.262 OA
HETATM    7  C3  UNL     1     -18.308 -16.195   7.459  1.00  0.00     0.252 C 
HETATM    8  C8  UNL     1     -17.421 -16.321   6.300  1.00  0.00     0.195 C 
HETATM    9  O7  UNL     1     -16.931 -15.364   5.686  1.00  0.00    -0.292 OA
HETATM   10  C9  UNL     1     -17.048 -17.655   5.781  1.00  0.00     0.266 C 
ENDROOT
BRANCH   7  11
HETATM   11  N4  UNL     1     -18.315 -14.951   8.131  1.00  0.00    -0.398 N 
ATOM     12  H4  UNL     1     -17.737 -14.176   7.805  1.00  0.00     0.154 HD
BRANCH  11  13
HETATM   13  C4  UNL     1     -19.146 -14.810   9.270  1.00  0.00     0.179 C 
BRANCH  13  14
HETATM   14  C5  UNL     1     -18.357 -14.056  10.308  1.00  0.00     0.111 A 
HETATM   15  N5  UNL     1     -17.124 -14.440  10.683  1.00  0.00    -0.294 N 
HETATM   16  N6  UNL     1     -16.402 -13.804  11.589  1.00  0.00    -0.251 N 
ATOM     17  H5  UNL     1     -16.724 -15.269  10.242  1.00  0.00     0.187 HD
HETATM   18  C6  UNL     1     -16.889 -12.717  12.188  1.00  0.00     0.341 A 
ATOM     19  H6  UNL     1     -15.472 -14.146  11.831  1.00  0.00     0.191 HD
HETATM   20  O5  UNL     1     -16.196 -12.096  13.065  1.00  0.00    -0.245 OA
HETATM   21  N7  UNL     1     -18.124 -12.296  11.842  1.00  0.00    -0.273 N 
HETATM   22  C7  UNL     1     -18.870 -12.932  10.921  1.00  0.00     0.275 A 
ATOM     23  H7  UNL     1     -18.505 -11.465  12.294  1.00  0.00     0.173 HD
HETATM   24  O6  UNL     1     -20.032 -12.507  10.618  1.00  0.00    -0.266 OA
ENDBRANCH  13  14
ENDBRANCH  11  13
ENDBRANCH   7  11
BRANCH  10  25
HETATM   25  O8  UNL     1     -17.714 -17.950   4.582  1.00  0.00    -0.380 OA
ATOM     26  H8  UNL     1     -17.698 -17.154   4.063  1.00  0.00     0.211 HD
ENDBRANCH  10  25
BRANCH   1  27
HETATM   27  N2  UNL     1     -16.648 -20.331   5.055  1.00  0.00    -0.208 N 
ATOM     28  H2  UNL     1     -15.722 -19.994   4.790  1.00  0.00     0.201 HD
BRANCH  27  29
HETATM   29  S1  UNL     1     -17.538 -21.266   3.903  1.00  0.00     0.330 S 
HETATM   30  O1  UNL     1     -18.083 -22.467   4.654  1.00  0.00    -0.181 OA
HETATM   31  O2  UNL     1     -16.639 -21.792   2.836  1.00  0.00    -0.181 OA
BRANCH  29  32
HETATM   32  N1  UNL     1     -18.864 -20.387   3.251  1.00  0.00    -0.310 N 
ATOM     33  H12 UNL     1     -19.585 -20.779   2.647  1.00  0.00     0.170 HD
ATOM     34  H11 UNL     1     -18.799 -19.420   3.573  1.00  0.00     0.170 HD
ENDBRANCH  29  32
ENDBRANCH  27  29
ENDBRANCH   1  27
TORSDOF 7
ENDMDL
MODEL 5
REMARK VINA RESULT: -8.009921552      5.711      8.795
REMARK  7 active torsions:
REMARK  status: ('A' for Active; 'I' for Inactive)
REMARK    1  A    between atoms: N1_1  and  S1_4 
REMARK    2  A    between atoms: S1_4  and  N2_7 
REMARK    3  A    between atoms: N2_7  and  N3_9 
REMARK    4  A    between atoms: C3_15  and  N4_16 
REMARK    5  A    between atoms: N4_16  and  C4_18 
REMARK    6  A    between atoms: C4_18  and  C5_19 
REMARK    7  A    between atoms: C9_32  and  O8_33 
ROOT
HETATM    1  N3  UNL     1     -15.634 -12.942  12.751  1.00  0.00    -0.270 N 
ATOM      2  H3  UNL     1     -15.837 -12.307  13.522  1.00  0.00     0.189 HD
HETATM    3  C1  UNL     1     -14.804 -13.940  12.955  1.00  0.00     0.178 C 
HETATM    4  O3  UNL     1     -14.228 -14.108  14.198  1.00  0.00    -0.259 OA
HETATM    5  C2  UNL     1     -13.490 -15.235  14.492  1.00  0.00     0.295 C 
HETATM    6  O4  UNL     1     -13.549 -15.821  15.604  1.00  0.00    -0.262 OA
HETATM    7  C3  UNL     1     -12.597 -15.719  13.375  1.00  0.00     0.252 C 
HETATM    8  C8  UNL     1     -13.458 -15.892  12.201  1.00  0.00     0.195 C 
HETATM    9  O7  UNL     1     -13.399 -16.854  11.425  1.00  0.00    -0.292 OA
HETATM   10  C9  UNL     1     -14.486 -14.881  11.868  1.00  0.00     0.266 C 
ENDROOT
BRANCH   7  11
HETATM   11  N4  UNL     1     -11.925 -16.868  13.852  1.00  0.00    -0.398 N 
ATOM     12  H4  UNL     1     -12.405 -17.550  14.439  1.00  0.00     0.154 HD
BRANCH  11  13
HETATM   13  C4  UNL     1     -10.566 -17.045  13.492  1.00  0.00     0.179 C 
BRANCH  13  14
HETATM   14  C5  UNL     1     -10.531 -17.352  12.018  1.00  0.00     0.111 A 
HETATM   15  N5  UNL     1     -10.155 -16.436  11.109  1.00  0.00    -0.294 N 
HETATM   16  N6  UNL     1     -10.111 -16.669   9.808  1.00  0.00    -0.251 N 
ATOM     17  H5  UNL     1      -9.888 -15.509  11.441  1.00  0.00     0.187 HD
HETATM   18  C6  UNL     1     -10.452 -17.868   9.333  1.00  0.00     0.341 A 
ATOM     19  H6  UNL     1      -9.817 -15.932   9.168  1.00  0.00     0.191 HD
HETATM   20  O5  UNL     1     -10.411 -18.101   8.077  1.00  0.00    -0.245 OA
HETATM   21  N7  UNL     1     -10.835 -18.818  10.211  1.00  0.00    -0.273 N 
HETATM   22  C7  UNL     1     -10.885 -18.596  11.537  1.00  0.00     0.275 A 
ATOM     23  H7  UNL     1     -11.098 -19.737   9.858  1.00  0.00     0.173 HD
HETATM   24  O6  UNL     1     -11.252 -19.515  12.339  1.00  0.00    -0.266 OA
ENDBRANCH  13  14
ENDBRANCH  11  13
ENDBRANCH   7  11
BRANCH  10  25
HETATM   25  O8  UNL     1     -14.108 -14.101  10.765  1.00  0.00    -0.380 OA
ATOM     26  H8  UNL     1     -13.274 -14.444  10.466  1.00  0.00     0.211 HD
ENDBRANCH  10  25
BRANCH   1  27
HETATM   27  N2  UNL     1     -16.240 -12.723  11.531  1.00  0.00    -0.208 N 
ATOM     28  H2  UNL     1     -15.707 -12.237  10.810  1.00  0.00     0.201 HD
BRANCH  27  29
HETATM   29  S1  UNL     1     -17.853 -13.227  11.155  1.00  0.00     0.330 S 
HETATM   30  O1  UNL     1     -17.757 -14.673  10.704  1.00  0.00    -0.181 OA
HETATM   31  O2  UNL     1     -18.398 -12.449  10.005  1.00  0.00    -0.181 OA
BRANCH  29  32
HETATM   32  N1  UNL     1     -18.884 -13.154  12.529  1.00  0.00    -0.310 N 
ATOM     33  H12 UNL     1     -19.732 -13.706  12.653  1.00  0.00     0.170 HD
ATOM     34  H11 UNL     1     -18.501 -12.472  13.184  1.00  0.00     0.170 HD
ENDBRANCH  29  32
ENDBRANCH  27  29
ENDBRANCH   1  27
TORSDOF 7
ENDMDL
