MODEL 1
REMARK VINA RESULT: -7.750536008      0.000      0.000
REMARK  14 active torsions:
REMARK  status: ('A' for Active; 'I' for Inactive)
REMARK    1  A    between atoms: C3_5  and  C4_6 
REMARK    2  A    between atoms: N2_8  and  C6_9 
REMARK    3  A    between atoms: C6_9  and  C7_10 
REMARK    4  A    between atoms: C7_10  and  C8_11 
REMARK    5  A    between atoms: C8_11  and  N3_12 
REMARK    6  A    between atoms: N3_12  and  C9_13 
REMARK    7  A    between atoms: C10_16  and  N5_17 
REMARK    8  A    between atoms: C14_27  and  O2_28 
REMARK    9  A    between atoms: C15_30  and  O3_31 
REMARK   10  A    between atoms: N11_39  and  C17_40 
REMARK   11  A    between atoms: C17_40  and  C18_41 
REMARK   12  A    between atoms: C18_41  and  O4_42 
REMARK   13  A    between atoms: C18_41  and  C19_44 
REMARK   14  A    between atoms: C19_44  and  O5_45 
ROOT
HETATM    1  C7  UNL     1       8.329  19.491  38.944  1.00  0.00     0.081 C 
ENDROOT
BRANCH   1   2
HETATM    2  C6  UNL     1       6.963  19.563  38.342  1.00  0.00     0.152 C 
BRANCH   2   3
HETATM    3  N2  UNL     1       6.863  18.722  37.182  1.00  0.00    -0.284 N 
HETATM    4  C5  UNL     1       7.656  18.648  36.082  1.00  0.00     0.142 A 
HETATM    5  C4  UNL     1       7.183  17.677  35.227  1.00  0.00     0.108 A 
HETATM    6  N9  UNL     1       6.107  17.180  35.835  1.00  0.00    -0.279 N 
HETATM    7  N8  UNL     1       5.902  17.798  37.010  1.00  0.00    -0.020 NA
ATOM      8  H9  UNL     1       5.520  16.434  35.460  1.00  0.00     0.184 HD
BRANCH   5   9
HETATM    9  C3  UNL     1       7.775  17.318  33.948  1.00  0.00     0.151 A 
HETATM   10  N1  UNL     1       8.875  17.791  33.351  1.00  0.00    -0.328 N 
HETATM   11  C2  UNL     1       9.110  17.206  32.165  1.00  0.00     0.096 A 
ATOM     12  H1  UNL     1       9.471  18.515  33.752  1.00  0.00     0.169 HD
HETATM   13  C1  UNL     1      10.227  17.481  31.208  1.00  0.00     0.091 C 
HETATM   14  N11 UNL     1       8.106  16.320  32.006  1.00  0.00    -0.276 N 
HETATM   15  N10 UNL     1       7.294  16.379  33.075  1.00  0.00    -0.280 N 
ATOM     16  H10 UNL     1       6.456  15.815  33.215  1.00  0.00     0.189 HD
BRANCH  14  17
HETATM   17  C17 UNL     1       7.854  15.398  30.927  1.00  0.00     0.184 C 
BRANCH  17  18
HETATM   18  C18 UNL     1       7.551  13.998  31.343  1.00  0.00     0.161 C 
BRANCH  18  19
HETATM   19  O4  UNL     1       6.180  13.973  31.692  1.00  0.00    -0.392 OA
ATOM     20  H4  UNL     1       5.696  14.001  30.875  1.00  0.00     0.210 HD
ENDBRANCH  18  19
BRANCH  18  21
HETATM   21  C19 UNL     1       7.738  12.983  30.265  1.00  0.00     0.197 C 
BRANCH  21  22
HETATM   22  O5  UNL     1       8.965  12.324  30.449  1.00  0.00    -0.398 OA
ATOM     23  H5  UNL     1       9.214  12.367  31.364  1.00  0.00     0.209 HD
ENDBRANCH  21  22
ENDBRANCH  18  21
ENDBRANCH  17  18
ENDBRANCH  14  17
ENDBRANCH   5   9
ENDBRANCH   2   3
ENDBRANCH   1   2
BRANCH   1  24
HETATM   24  C8  UNL     1       8.457  18.185  39.722  1.00  0.00     0.159 C 
BRANCH  24  25
HETATM   25  N3  UNL     1       9.284  17.246  39.188  1.00  0.00    -0.402 NA
BRANCH  25  26
HETATM   26  C9  UNL     1      10.069  16.513  38.705  1.00  0.00     0.208 A 
HETATM   27  N4  UNL     1      11.433  16.770  38.891  1.00  0.00    -0.164 N 
HETATM   28  C10 UNL     1      12.390  16.016  38.381  1.00  0.00     0.678 A 
ATOM     29  H4  UNL     1      11.702  17.581  39.448  1.00  0.00     0.187 HD
HETATM   30  N6  UNL     1      12.127  14.933  37.636  1.00  0.00    -0.185 N 
HETATM   31  C11 UNL     1      10.824  14.616  37.408  1.00  0.00     0.135 A 
ATOM     32  H6  UNL     1      12.882  14.365  37.252  1.00  0.00     0.184 HD
HETATM   33  C12 UNL     1      10.554  13.486  36.627  1.00  0.00     0.277 A 
HETATM   34  C16 UNL     1       9.811  15.377  37.923  1.00  0.00     0.093 A 
HETATM   35  O1  UNL     1      11.524  12.827  36.182  1.00  0.00    -0.265 OA
HETATM   36  N7  UNL     1       9.274  13.142  36.381  1.00  0.00    -0.295 N 
HETATM   37  C13 UNL     1       8.965  11.974  35.570  1.00  0.00     0.162 C 
HETATM   38  C14 UNL     1       8.274  13.874  36.877  1.00  0.00     0.180 A 
HETATM   39  C15 UNL     1       8.517  14.987  37.646  1.00  0.00     0.134 A 
BRANCH  28  40
HETATM   40  N5  UNL     1      13.663  16.282  38.570  1.00  0.00    -0.234 N 
ATOM     41  H52 UNL     1      14.003  16.164  39.524  1.00  0.00     0.174 HD
ATOM     42  H51 UNL     1      14.272  16.586  37.810  1.00  0.00     0.174 HD
ENDBRANCH  28  40
BRANCH  38  43
HETATM   43  O2  UNL     1       6.957  13.462  36.584  1.00  0.00    -0.344 OA
ATOM     44  H2  UNL     1       6.370  13.317  37.317  1.00  0.00     0.219 HD
ENDBRANCH  38  43
BRANCH  39  45
HETATM   45  O3  UNL     1       7.470  15.701  38.130  1.00  0.00    -0.356 OA
ATOM     46  H3  UNL     1       7.567  16.638  38.260  1.00  0.00     0.218 HD
ENDBRANCH  39  45
ENDBRANCH  25  26
ENDBRANCH  24  25
ENDBRANCH   1  24
TORSDOF 14
ENDMDL
MODEL 2
REMARK VINA RESULT: -7.462836300      4.828      7.788
REMARK  14 active torsions:
REMARK  status: ('A' for Active; 'I' for Inactive)
REMARK    1  A    between atoms: C3_5  and  C4_6 
REMARK    2  A    between atoms: N2_8  and  C6_9 
REMARK    3  A    between atoms: C6_9  and  C7_10 
REMARK    4  A    between atoms: C7_10  and  C8_11 
REMARK    5  A    between atoms: C8_11  and  N3_12 
REMARK    6  A    between atoms: N3_12  and  C9_13 
REMARK    7  A    between atoms: C10_16  and  N5_17 
REMARK    8  A    between atoms: C14_27  and  O2_28 
REMARK    9  A    between atoms: C15_30  and  O3_31 
REMARK   10  A    between atoms: N11_39  and  C17_40 
REMARK   11  A    between atoms: C17_40  and  C18_41 
REMARK   12  A    between atoms: C18_41  and  O4_42 
REMARK   13  A    between atoms: C18_41  and  C19_44 
REMARK   14  A    between atoms: C19_44  and  O5_45 
ROOT
HETATM    1  C7  UNL     1       9.297  16.601  37.201  1.00  0.00     0.081 C 
ENDROOT
BRANCH   1   2
HETATM    2  C6  UNL     1      10.407  16.081  38.055  1.00  0.00     0.152 C 
BRANCH   2   3
HETATM    3  N2  UNL     1      11.423  17.078  38.246  1.00  0.00    -0.284 N 
HETATM    4  C5  UNL     1      11.339  18.433  38.217  1.00  0.00     0.142 A 
HETATM    5  C4  UNL     1      12.575  18.985  38.473  1.00  0.00     0.108 A 
HETATM    6  N9  UNL     1      13.386  17.943  38.653  1.00  0.00    -0.279 N 
HETATM    7  N8  UNL     1      12.709  16.791  38.519  1.00  0.00    -0.020 NA
ATOM      8  H9  UNL     1      14.381  18.012  38.863  1.00  0.00     0.184 HD
BRANCH   5   9
HETATM    9  C3  UNL     1      12.869  20.409  38.521  1.00  0.00     0.151 A 
HETATM   10  N1  UNL     1      12.716  21.281  39.524  1.00  0.00    -0.328 N 
HETATM   11  C2  UNL     1      13.107  22.523  39.191  1.00  0.00     0.096 A 
ATOM     12  H1  UNL     1      12.345  21.032  40.441  1.00  0.00     0.169 HD
HETATM   13  C1  UNL     1      13.072  23.756  40.038  1.00  0.00     0.091 C 
HETATM   14  N11 UNL     1      13.525  22.427  37.913  1.00  0.00    -0.276 N 
HETATM   15  N10 UNL     1      13.387  21.157  37.498  1.00  0.00    -0.280 N 
ATOM     16  H10 UNL     1      13.629  20.807  36.571  1.00  0.00     0.189 HD
BRANCH  14  17
HETATM   17  C17 UNL     1      14.071  23.442  37.046  1.00  0.00     0.184 C 
BRANCH  17  18
HETATM   18  C18 UNL     1      15.553  23.408  36.879  1.00  0.00     0.161 C 
BRANCH  18  19
HETATM   19  O4  UNL     1      15.838  22.274  36.082  1.00  0.00    -0.392 OA
ATOM     20  H4  UNL     1      15.674  22.531  35.182  1.00  0.00     0.210 HD
ENDBRANCH  18  19
BRANCH  18  21
HETATM   21  C19 UNL     1      16.117  24.589  36.162  1.00  0.00     0.197 C 
BRANCH  21  22
HETATM   22  O5  UNL     1      17.207  24.183  35.375  1.00  0.00    -0.398 OA
ATOM     23  H5  UNL     1      17.852  24.880  35.341  1.00  0.00     0.209 HD
ENDBRANCH  21  22
ENDBRANCH  18  21
ENDBRANCH  17  18
ENDBRANCH  14  17
ENDBRANCH   5   9
ENDBRANCH   2   3
ENDBRANCH   1   2
BRANCH   1  24
HETATM   24  C8  UNL     1       9.374  15.932  35.832  1.00  0.00     0.159 C 
BRANCH  24  25
HETATM   25  N3  UNL     1       9.138  14.593  35.803  1.00  0.00    -0.402 NA
BRANCH  25  26
HETATM   26  C9  UNL     1       8.907  13.441  35.882  1.00  0.00     0.208 A 
HETATM   27  N4  UNL     1       9.971  12.554  36.095  1.00  0.00    -0.164 N 
HETATM   28  C10 UNL     1       9.819  11.246  36.185  1.00  0.00     0.678 A 
ATOM     29  H4  UNL     1      10.911  12.939  36.185  1.00  0.00     0.187 HD
HETATM   30  N6  UNL     1       8.620  10.656  36.079  1.00  0.00    -0.185 N 
HETATM   31  C11 UNL     1       7.534  11.449  35.870  1.00  0.00     0.135 A 
ATOM     32  H6  UNL     1       8.525   9.643  36.152  1.00  0.00     0.184 HD
HETATM   33  C12 UNL     1       6.284  10.829  35.756  1.00  0.00     0.277 A 
HETATM   34  C16 UNL     1       7.660  12.808  35.772  1.00  0.00     0.093 A 
HETATM   35  O1  UNL     1       6.231   9.579  35.854  1.00  0.00    -0.265 OA
HETATM   36  N7  UNL     1       5.187  11.583  35.549  1.00  0.00    -0.295 N 
HETATM   37  C13 UNL     1       3.876  10.964  35.425  1.00  0.00     0.162 C 
HETATM   38  C14 UNL     1       5.293  12.911  35.452  1.00  0.00     0.180 A 
HETATM   39  C15 UNL     1       6.510  13.540  35.560  1.00  0.00     0.134 A 
BRANCH  28  40
HETATM   40  N5  UNL     1      10.835  10.437  36.384  1.00  0.00    -0.234 N 
ATOM     41  H52 UNL     1      11.581  10.801  36.977  1.00  0.00     0.174 HD
ATOM     42  H51 UNL     1      10.875   9.505  35.972  1.00  0.00     0.174 HD
ENDBRANCH  28  40
BRANCH  38  43
HETATM   43  O2  UNL     1       4.109  13.645  35.235  1.00  0.00    -0.344 OA
ATOM     44  H2  UNL     1       3.642  13.495  34.421  1.00  0.00     0.219 HD
ENDBRANCH  38  43
BRANCH  39  45
HETATM   45  O3  UNL     1       6.571  14.891  35.456  1.00  0.00    -0.356 OA
ATOM     46  H3  UNL     1       6.879  15.281  34.646  1.00  0.00     0.218 HD
ENDBRANCH  39  45
ENDBRANCH  25  26
ENDBRANCH  24  25
ENDBRANCH   1  24
TORSDOF 14
ENDMDL
MODEL 3
REMARK VINA RESULT: -7.192224695      2.647      7.404
REMARK  14 active torsions:
REMARK  status: ('A' for Active; 'I' for Inactive)
REMARK    1  A    between atoms: C3_5  and  C4_6 
REMARK    2  A    between atoms: N2_8  and  C6_9 
REMARK    3  A    between atoms: C6_9  and  C7_10 
REMARK    4  A    between atoms: C7_10  and  C8_11 
REMARK    5  A    between atoms: C8_11  and  N3_12 
REMARK    6  A    between atoms: N3_12  and  C9_13 
REMARK    7  A    between atoms: C10_16  and  N5_17 
REMARK    8  A    between atoms: C14_27  and  O2_28 
REMARK    9  A    between atoms: C15_30  and  O3_31 
REMARK   10  A    between atoms: N11_39  and  C17_40 
REMARK   11  A    between atoms: C17_40  and  C18_41 
REMARK   12  A    between atoms: C18_41  and  O4_42 
REMARK   13  A    between atoms: C18_41  and  C19_44 
REMARK   14  A    between atoms: C19_44  and  O5_45 
ROOT
HETATM    1  C7  UNL     1       8.285  11.539  36.703  1.00  0.00     0.081 C 
ENDROOT
BRANCH   1   2
HETATM    2  C6  UNL     1       9.650  11.533  36.099  1.00  0.00     0.152 C 
BRANCH   2   3
HETATM    3  N2  UNL     1      10.388  12.707  36.474  1.00  0.00    -0.284 N 
HETATM    4  C5  UNL     1      10.058  13.716  37.322  1.00  0.00     0.142 A 
HETATM    5  C4  UNL     1      11.088  14.629  37.388  1.00  0.00     0.108 A 
HETATM    6  N9  UNL     1      12.025  14.148  36.573  1.00  0.00    -0.279 N 
HETATM    7  N8  UNL     1      11.619  12.995  36.016  1.00  0.00    -0.020 NA
ATOM      8  H9  UNL     1      12.925  14.593  36.397  1.00  0.00     0.184 HD
BRANCH   5   9
HETATM    9  C3  UNL     1      11.090  15.841  38.193  1.00  0.00     0.151 A 
HETATM   10  N1  UNL     1      10.166  16.307  39.040  1.00  0.00    -0.328 N 
HETATM   11  C2  UNL     1      10.529  17.468  39.610  1.00  0.00     0.096 A 
ATOM     12  H1  UNL     1       9.283  15.834  39.233  1.00  0.00     0.169 HD
HETATM   13  C1  UNL     1       9.755  18.294  40.590  1.00  0.00     0.091 C 
HETATM   14  N11 UNL     1      11.743  17.747  39.095  1.00  0.00    -0.276 N 
HETATM   15  N10 UNL     1      12.092  16.772  38.239  1.00  0.00    -0.280 N 
ATOM     16  H10 UNL     1      12.963  16.733  37.709  1.00  0.00     0.189 HD
BRANCH  14  17
HETATM   17  C17 UNL     1      12.621  18.860  39.359  1.00  0.00     0.184 C 
BRANCH  17  18
HETATM   18  C18 UNL     1      13.014  19.660  38.163  1.00  0.00     0.161 C 
BRANCH  18  19
HETATM   19  O4  UNL     1      12.078  19.347  37.149  1.00  0.00    -0.392 OA
ATOM     20  H4  UNL     1      12.280  19.913  36.414  1.00  0.00     0.210 HD
ENDBRANCH  18  19
BRANCH  18  21
HETATM   21  C19 UNL     1      12.950  21.137  38.365  1.00  0.00     0.197 C 
BRANCH  21  22
HETATM   22  O5  UNL     1      12.951  21.781  37.117  1.00  0.00    -0.398 OA
ATOM     23  H5  UNL     1      13.844  21.863  36.803  1.00  0.00     0.209 HD
ENDBRANCH  21  22
ENDBRANCH  18  21
ENDBRANCH  17  18
ENDBRANCH  14  17
ENDBRANCH   5   9
ENDBRANCH   2   3
ENDBRANCH   1   2
BRANCH   1  24
HETATM   24  C8  UNL     1       7.260  11.809  35.606  1.00  0.00     0.159 C 
BRANCH  24  25
HETATM   25  N3  UNL     1       7.318  13.034  35.018  1.00  0.00    -0.402 NA
BRANCH  25  26
HETATM   26  C9  UNL     1       7.437  14.052  34.438  1.00  0.00     0.208 A 
HETATM   27  N4  UNL     1       7.625  14.019  33.050  1.00  0.00    -0.164 N 
HETATM   28  C10 UNL     1       7.780  15.102  32.312  1.00  0.00     0.678 A 
ATOM     29  H4  UNL     1       7.643  13.111  32.586  1.00  0.00     0.187 HD
HETATM   30  N6  UNL     1       7.770  16.335  32.839  1.00  0.00    -0.185 N 
HETATM   31  C11 UNL     1       7.593  16.453  34.184  1.00  0.00     0.135 A 
ATOM     32  H6  UNL     1       7.891  17.159  32.250  1.00  0.00     0.184 HD
HETATM   33  C12 UNL     1       7.586  17.741  34.730  1.00  0.00     0.277 A 
HETATM   34  C16 UNL     1       7.429  15.349  34.974  1.00  0.00     0.093 A 
HETATM   35  O1  UNL     1       7.741  18.715  33.955  1.00  0.00    -0.265 OA
HETATM   36  N7  UNL     1       7.413  17.896  36.058  1.00  0.00    -0.295 N 
HETATM   37  C13 UNL     1       7.404  19.224  36.653  1.00  0.00     0.162 C 
HETATM   38  C14 UNL     1       7.251  16.829  36.843  1.00  0.00     0.180 A 
HETATM   39  C15 UNL     1       7.256  15.555  36.327  1.00  0.00     0.134 A 
BRANCH  28  40
HETATM   40  N5  UNL     1       7.956  15.041  31.011  1.00  0.00    -0.234 N 
ATOM     41  H52 UNL     1       8.601  14.321  30.685  1.00  0.00     0.174 HD
ATOM     42  H51 UNL     1       7.478  15.673  30.369  1.00  0.00     0.174 HD
ENDBRANCH  28  40
BRANCH  38  43
HETATM   43  O2  UNL     1       7.075  17.056  38.224  1.00  0.00    -0.344 OA
ATOM     44  H2  UNL     1       7.824  16.916  38.791  1.00  0.00     0.219 HD
ENDBRANCH  38  43
BRANCH  39  45
HETATM   45  O3  UNL     1       7.087  14.499  37.163  1.00  0.00    -0.356 OA
ATOM     46  H3  UNL     1       7.764  13.835  37.214  1.00  0.00     0.218 HD
ENDBRANCH  39  45
ENDBRANCH  25  26
ENDBRANCH  24  25
ENDBRANCH   1  24
TORSDOF 14
ENDMDL
MODEL 4
REMARK VINA RESULT: -7.011222573      1.506      2.185
REMARK  14 active torsions:
REMARK  status: ('A' for Active; 'I' for Inactive)
REMARK    1  A    between atoms: C3_5  and  C4_6 
REMARK    2  A    between atoms: N2_8  and  C6_9 
REMARK    3  A    between atoms: C6_9  and  C7_10 
REMARK    4  A    between atoms: C7_10  and  C8_11 
REMARK    5  A    between atoms: C8_11  and  N3_12 
REMARK    6  A    between atoms: N3_12  and  C9_13 
REMARK    7  A    between atoms: C10_16  and  N5_17 
REMARK    8  A    between atoms: C14_27  and  O2_28 
REMARK    9  A    between atoms: C15_30  and  O3_31 
REMARK   10  A    between atoms: N11_39  and  C17_40 
REMARK   11  A    between atoms: C17_40  and  C18_41 
REMARK   12  A    between atoms: C18_41  and  O4_42 
REMARK   13  A    between atoms: C18_41  and  C19_44 
REMARK   14  A    between atoms: C19_44  and  O5_45 
ROOT
HETATM    1  C7  UNL     1       6.713  17.327  39.191  1.00  0.00     0.081 C 
ENDROOT
BRANCH   1   2
HETATM    2  C6  UNL     1       5.621  17.468  38.182  1.00  0.00     0.152 C 
BRANCH   2   3
HETATM    3  N2  UNL     1       6.147  17.855  36.902  1.00  0.00    -0.284 N 
HETATM    4  C5  UNL     1       6.748  17.110  35.939  1.00  0.00     0.142 A 
HETATM    5  C4  UNL     1       7.076  17.907  34.865  1.00  0.00     0.108 A 
HETATM    6  N9  UNL     1       6.662  19.127  35.204  1.00  0.00    -0.279 N 
HETATM    7  N8  UNL     1       6.103  19.112  36.426  1.00  0.00    -0.020 NA
ATOM      8  H9  UNL     1       6.757  19.956  34.619  1.00  0.00     0.184 HD
BRANCH   5   9
HETATM    9  C3  UNL     1       7.735  17.455  33.649  1.00  0.00     0.151 A 
HETATM   10  N1  UNL     1       8.883  17.864  33.095  1.00  0.00    -0.328 N 
HETATM   11  C2  UNL     1       9.173  17.200  31.964  1.00  0.00     0.096 A 
ATOM     12  H1  UNL     1       9.472  18.598  33.488  1.00  0.00     0.169 HD
HETATM   13  C1  UNL     1      10.354  17.389  31.064  1.00  0.00     0.091 C 
HETATM   14  N11 UNL     1       8.157  16.331  31.797  1.00  0.00    -0.276 N 
HETATM   15  N10 UNL     1       7.284  16.475  32.808  1.00  0.00    -0.280 N 
ATOM     16  H10 UNL     1       6.423  15.940  32.928  1.00  0.00     0.189 HD
BRANCH  14  17
HETATM   17  C17 UNL     1       7.947  15.349  30.762  1.00  0.00     0.184 C 
BRANCH  17  18
HETATM   18  C18 UNL     1       7.551  13.992  31.242  1.00  0.00     0.161 C 
BRANCH  18  19
HETATM   19  O4  UNL     1       6.189  14.082  31.613  1.00  0.00    -0.392 OA
ATOM     20  H4  UNL     1       5.842  13.199  31.574  1.00  0.00     0.210 HD
ENDBRANCH  18  19
BRANCH  18  21
HETATM   21  C19 UNL     1       7.644  12.923  30.205  1.00  0.00     0.197 C 
BRANCH  21  22
HETATM   22  O5  UNL     1       8.907  12.314  30.271  1.00  0.00    -0.398 OA
ATOM     23  H5  UNL     1       8.803  11.369  30.279  1.00  0.00     0.209 HD
ENDBRANCH  21  22
ENDBRANCH  18  21
ENDBRANCH  17  18
ENDBRANCH  14  17
ENDBRANCH   5   9
ENDBRANCH   2   3
ENDBRANCH   1   2
BRANCH   1  24
HETATM   24  C8  UNL     1       7.485  16.043  38.908  1.00  0.00     0.159 C 
BRANCH  24  25
HETATM   25  N3  UNL     1       8.832  16.169  38.773  1.00  0.00    -0.402 NA
BRANCH  25  26
HETATM   26  C9  UNL     1       9.999  16.328  38.751  1.00  0.00     0.208 A 
HETATM   27  N4  UNL     1      10.543  17.419  39.440  1.00  0.00    -0.164 N 
HETATM   28  C10 UNL     1      11.835  17.691  39.466  1.00  0.00     0.678 A 
ATOM     29  H4  UNL     1       9.909  18.037  39.947  1.00  0.00     0.187 HD
HETATM   30  N6  UNL     1      12.738  16.933  38.828  1.00  0.00    -0.185 N 
HETATM   31  C11 UNL     1      12.289  15.852  38.133  1.00  0.00     0.135 A 
ATOM     32  H6  UNL     1      13.732  17.160  38.862  1.00  0.00     0.184 HD
HETATM   33  C12 UNL     1      13.235  15.066  37.465  1.00  0.00     0.277 A 
HETATM   34  C16 UNL     1      10.957  15.546  38.088  1.00  0.00     0.093 A 
HETATM   35  O1  UNL     1      14.443  15.397  37.543  1.00  0.00    -0.265 OA
HETATM   36  N7  UNL     1      12.826  13.988  36.768  1.00  0.00    -0.295 N 
HETATM   37  C13 UNL     1      13.788  13.155  36.062  1.00  0.00     0.162 C 
HETATM   38  C14 UNL     1      11.529  13.675  36.715  1.00  0.00     0.180 A 
HETATM   39  C15 UNL     1      10.584  14.434  37.362  1.00  0.00     0.134 A 
BRANCH  28  40
HETATM   40  N5  UNL     1      12.318  18.723  40.120  1.00  0.00    -0.234 N 
ATOM     41  H52 UNL     1      13.028  18.511  40.820  1.00  0.00     0.174 HD
ATOM     42  H51 UNL     1      12.003  19.676  39.937  1.00  0.00     0.174 HD
ENDBRANCH  28  40
BRANCH  38  43
HETATM   43  O2  UNL     1      11.164  12.535  35.968  1.00  0.00    -0.344 OA
ATOM     44  H2  UNL     1      11.209  12.597  35.021  1.00  0.00     0.219 HD
ENDBRANCH  38  43
BRANCH  39  45
HETATM   45  O3  UNL     1       9.277  14.078  37.281  1.00  0.00    -0.356 OA
ATOM     46  H3  UNL     1       8.685  14.319  37.984  1.00  0.00     0.218 HD
ENDBRANCH  39  45
ENDBRANCH  25  26
ENDBRANCH  24  25
ENDBRANCH   1  24
TORSDOF 14
ENDMDL
MODEL 5
REMARK VINA RESULT: -6.947146397      1.294      1.746
REMARK  14 active torsions:
REMARK  status: ('A' for Active; 'I' for Inactive)
REMARK    1  A    between atoms: C3_5  and  C4_6 
REMARK    2  A    between atoms: N2_8  and  C6_9 
REMARK    3  A    between atoms: C6_9  and  C7_10 
REMARK    4  A    between atoms: C7_10  and  C8_11 
REMARK    5  A    between atoms: C8_11  and  N3_12 
REMARK    6  A    between atoms: N3_12  and  C9_13 
REMARK    7  A    between atoms: C10_16  and  N5_17 
REMARK    8  A    between atoms: C14_27  and  O2_28 
REMARK    9  A    between atoms: C15_30  and  O3_31 
REMARK   10  A    between atoms: N11_39  and  C17_40 
REMARK   11  A    between atoms: C17_40  and  C18_41 
REMARK   12  A    between atoms: C18_41  and  O4_42 
REMARK   13  A    between atoms: C18_41  and  C19_44 
REMARK   14  A    between atoms: C19_44  and  O5_45 
ROOT
HETATM    1  C7  UNL     1       9.484  18.618  38.986  1.00  0.00     0.081 C 
ENDROOT
BRANCH   1   2
HETATM    2  C6  UNL     1       8.129  19.135  38.629  1.00  0.00     0.152 C 
BRANCH   2   3
HETATM    3  N2  UNL     1       7.692  18.612  37.364  1.00  0.00    -0.284 N 
HETATM    4  C5  UNL     1       8.403  18.316  36.246  1.00  0.00     0.142 A 
HETATM    5  C4  UNL     1       7.563  17.819  35.274  1.00  0.00     0.108 A 
HETATM    6  N9  UNL     1       6.352  17.826  35.831  1.00  0.00    -0.279 N 
HETATM    7  N8  UNL     1       6.414  18.300  37.086  1.00  0.00    -0.020 NA
ATOM      8  H9  UNL     1       5.499  17.514  35.368  1.00  0.00     0.184 HD
BRANCH   5   9
HETATM    9  C3  UNL     1       7.970  17.397  33.942  1.00  0.00     0.151 A 
HETATM   10  N1  UNL     1       9.005  17.799  33.196  1.00  0.00    -0.328 N 
HETATM   11  C2  UNL     1       9.059  17.170  32.010  1.00  0.00     0.096 A 
ATOM     12  H1  UNL     1       9.678  18.505  33.494  1.00  0.00     0.169 HD
HETATM   13  C1  UNL     1      10.056  17.365  30.911  1.00  0.00     0.091 C 
HETATM   14  N11 UNL     1       8.005  16.331  32.010  1.00  0.00    -0.276 N 
HETATM   15  N10 UNL     1       7.340  16.458  33.170  1.00  0.00    -0.280 N 
ATOM     16  H10 UNL     1       6.502  15.939  33.433  1.00  0.00     0.189 HD
BRANCH  14  17
HETATM   17  C17 UNL     1       7.576  15.392  31.002  1.00  0.00     0.184 C 
BRANCH  17  18
HETATM   18  C18 UNL     1       7.605  13.958  31.415  1.00  0.00     0.161 C 
BRANCH  18  19
HETATM   19  O4  UNL     1       6.378  13.709  32.075  1.00  0.00    -0.392 OA
ATOM     20  H4  UNL     1       6.599  13.476  32.969  1.00  0.00     0.210 HD
ENDBRANCH  18  19
BRANCH  18  21
HETATM   21  C19 UNL     1       7.683  12.994  30.278  1.00  0.00     0.197 C 
BRANCH  21  22
HETATM   22  O5  UNL     1       8.914  12.321  30.319  1.00  0.00    -0.398 OA
ATOM     23  H5  UNL     1       9.418  12.533  29.542  1.00  0.00     0.209 HD
ENDBRANCH  21  22
ENDBRANCH  18  21
ENDBRANCH  17  18
ENDBRANCH  14  17
ENDBRANCH   5   9
ENDBRANCH   2   3
ENDBRANCH   1   2
BRANCH   1  24
HETATM   24  C8  UNL     1       9.338  17.222  39.583  1.00  0.00     0.159 C 
BRANCH  24  25
HETATM   25  N3  UNL     1       9.437  16.183  38.712  1.00  0.00    -0.402 NA
BRANCH  25  26
HETATM   26  C9  UNL     1       9.596  15.340  37.905  1.00  0.00     0.208 A 
HETATM   27  N4  UNL     1      10.903  14.992  37.543  1.00  0.00    -0.164 N 
HETATM   28  C10 UNL     1      11.186  14.071  36.640  1.00  0.00     0.678 A 
ATOM     29  H4  UNL     1      11.677  15.476  37.999  1.00  0.00     0.187 HD
HETATM   30  N6  UNL     1      10.233  13.388  35.992  1.00  0.00    -0.185 N 
HETATM   31  C11 UNL     1       8.934  13.668  36.286  1.00  0.00     0.135 A 
ATOM     32  H6  UNL     1      10.474  12.679  35.299  1.00  0.00     0.184 HD
HETATM   33  C12 UNL     1       7.941  12.954  35.604  1.00  0.00     0.277 A 
HETATM   34  C16 UNL     1       8.610  14.617  37.217  1.00  0.00     0.093 A 
HETATM   35  O1  UNL     1       8.300  12.097  34.762  1.00  0.00    -0.265 OA
HETATM   36  N7  UNL     1       6.644  13.206  35.871  1.00  0.00    -0.295 N 
HETATM   37  C13 UNL     1       5.592  12.481  35.175  1.00  0.00     0.162 C 
HETATM   38  C14 UNL     1       6.311  14.128  36.776  1.00  0.00     0.180 A 
HETATM   39  C15 UNL     1       7.270  14.840  37.457  1.00  0.00     0.134 A 
BRANCH  28  40
HETATM   40  N5  UNL     1      12.424  13.765  36.319  1.00  0.00    -0.234 N 
ATOM     41  H52 UNL     1      12.955  13.265  37.031  1.00  0.00     0.174 HD
ATOM     42  H51 UNL     1      12.825  14.012  35.415  1.00  0.00     0.174 HD
ENDBRANCH  28  40
BRANCH  38  43
HETATM   43  O2  UNL     1       4.937  14.346  37.011  1.00  0.00    -0.344 OA
ATOM     44  H2  UNL     1       4.446  14.809  36.342  1.00  0.00     0.219 HD
ENDBRANCH  38  43
BRANCH  39  45
HETATM   45  O3  UNL     1       6.885  15.768  38.369  1.00  0.00    -0.356 OA
ATOM     46  H3  UNL     1       6.028  15.694  38.774  1.00  0.00     0.218 HD
ENDBRANCH  39  45
ENDBRANCH  25  26
ENDBRANCH  24  25
ENDBRANCH   1  24
TORSDOF 14
ENDMDL
