MODEL 1
REMARK VINA RESULT: -7.570779221      0.000      0.000
REMARK  10 active torsions:
REMARK  status: ('A' for Active; 'I' for Inactive)
REMARK    1  A    between atoms: C2_2  and  N1_3 
REMARK    2  A    between atoms: N1_3  and  C3_4 
REMARK    3  A    between atoms: N1_3  and  C5_10 
REMARK    4  A    between atoms: C3_4  and  C4_5 
REMARK    5  A    between atoms: C4_5  and  N2_6 
REMARK    6  A    between atoms: C5_10  and  C6_11 
REMARK    7  A    between atoms: C8_13  and  N3_14 
REMARK    8  A    between atoms: C9_15  and  C10_16 
REMARK    9  A    between atoms: C11_22  and  N6_23 
REMARK       I    between atoms: N6_23  and  C12_25 
REMARK       I    between atoms: C12_25  and  N7_26 
REMARK       I    between atoms: C12_25  and  N8_30 
REMARK   10  A    between atoms: C15_36  and  N9_37 
REMARK       I    between atoms: N9_37  and  C16_39 
REMARK       I    between atoms: C16_39  and  N10_40 
REMARK       I    between atoms: C16_39  and  N11_44 
ROOT
HETATM    1  N3  UNL     1       9.263  16.423  38.357  1.00  0.00    -0.302 N 
HETATM    2  C9  UNL     1      10.351  16.861  38.997  1.00  0.00     0.072 A 
HETATM    3  C13 UNL     1       9.951  17.529  40.130  1.00  0.00     0.051 A 
HETATM    4  C14 UNL     1       8.552  17.503  40.195  1.00  0.00     0.054 A 
HETATM    5  C15 UNL     1       7.625  18.002  41.090  1.00  0.00     0.119 A 
HETATM    6  N12 UNL     1       6.310  17.818  40.886  1.00  0.00    -0.338 N 
ATOM      7  H12 UNL     1       5.619  18.183  41.541  1.00  0.00     0.168 HD
HETATM    8  C17 UNL     1       5.933  17.132  39.782  1.00  0.00     0.183 A 
HETATM    9  N13 UNL     1       6.839  16.650  38.917  1.00  0.00    -0.338 N 
ATOM     10  H13 UNL     1       6.504  16.140  38.100  1.00  0.00     0.168 HD
HETATM   11  C18 UNL     1       8.158  16.805  39.072  1.00  0.00     0.125 A 
ENDROOT
BRANCH   2  12
HETATM   12  C10 UNL     1      11.743  16.689  38.603  1.00  0.00     0.129 A 
HETATM   13  N4  UNL     1      12.463  15.554  38.563  1.00  0.00    -0.236 N 
HETATM   14  O1  UNL     1      13.654  15.842  38.157  1.00  0.00    -0.155 OA
ATOM     15  H4  UNL     1      12.125  14.624  38.812  1.00  0.00     0.197 HD
HETATM   16  N5  UNL     1      13.765  17.112  37.923  1.00  0.00    -0.223 N 
HETATM   17  C11 UNL     1      12.598  17.696  38.183  1.00  0.00     0.157 A 
ATOM     18  H5  UNL     1      14.607  17.584  37.593  1.00  0.00     0.198 HD
BRANCH  17  19
HETATM   19  N6  UNL     1      12.265  18.958  38.084  1.00  0.00    -0.324 N 
HETATM   20  C12 UNL     1      13.051  19.891  38.869  1.00  0.00     0.481 C 
HETATM   21  N7  UNL     1      12.951  21.248  38.362  1.00  0.00    -0.033 N 
HETATM   22  N8  UNL     1      12.658  19.927  40.261  1.00  0.00    -0.033 N 
ATOM     23  H73 UNL     1      13.200  21.294  37.374  1.00  0.00     0.278 HD
ATOM     24  H72 UNL     1      11.979  21.548  38.297  1.00  0.00     0.278 HD
ATOM     25  H71 UNL     1      13.504  21.903  38.914  1.00  0.00     0.278 HD
ATOM     26  H83 UNL     1      11.661  20.122  40.353  1.00  0.00     0.278 HD
ATOM     27  H82 UNL     1      12.682  18.993  40.671  1.00  0.00     0.278 HD
ATOM     28  H81 UNL     1      13.210  20.582  40.813  1.00  0.00     0.278 HD
ATOM     29  H6  UNL     1      11.497  19.268  37.489  1.00  0.00     0.165 HD
ENDBRANCH  17  19
ENDBRANCH   2  12
BRANCH   1  30
HETATM   30  C8  UNL     1       9.281  15.690  37.148  1.00  0.00     0.230 C 
HETATM   31  C7  UNL     1       8.998  16.417  35.888  1.00  0.00     0.063 C 
HETATM   32  C6  UNL     1       8.852  15.252  34.896  1.00  0.00     0.036 C 
HETATM   33  C19 UNL     1       8.483  14.129  35.795  1.00  0.00     0.126 C 
HETATM   34  O2  UNL     1       8.400  14.608  37.097  1.00  0.00    -0.361 OA
HETATM   35  C20 UNL     1       7.174  13.452  35.462  1.00  0.00     0.040 C 
BRANCH  32  36
HETATM   36  C5  UNL     1       7.719  15.570  33.917  1.00  0.00     0.124 C 
BRANCH  36  37
HETATM   37  N1  UNL     1       8.003  15.208  32.597  1.00  0.00    -0.411 N 
BRANCH  37  38
HETATM   38  C2  UNL     1       7.999  16.260  31.621  1.00  0.00     0.112 C 
HETATM   39  C1  UNL     1       9.238  17.117  31.743  1.00  0.00     0.026 C 
ENDBRANCH  37  38
BRANCH  37  40
HETATM   40  C3  UNL     1       7.386  14.054  32.033  1.00  0.00     0.144 C 
BRANCH  40  41
HETATM   41  C4  UNL     1       7.770  13.704  30.636  1.00  0.00     0.248 C 
BRANCH  41  42
HETATM   42  N2  UNL     1       8.546  12.519  30.536  1.00  0.00    -0.078 N 
ATOM     43  H23 UNL     1       9.483  12.671  30.908  1.00  0.00     0.274 HD
ATOM     44  H22 UNL     1       8.213  11.814  31.194  1.00  0.00     0.274 HD
ATOM     45  H21 UNL     1       8.593  12.137  29.592  1.00  0.00     0.274 HD
ENDBRANCH  41  42
ENDBRANCH  40  41
ENDBRANCH  37  40
ENDBRANCH  36  37
ENDBRANCH  32  36
ENDBRANCH   1  30
BRANCH   5  46
HETATM   46  N9  UNL     1       8.065  18.630  42.098  1.00  0.00    -0.326 N 
HETATM   47  C16 UNL     1       8.119  20.035  42.326  1.00  0.00     0.481 C 
HETATM   48  N10 UNL     1       6.822  20.692  42.313  1.00  0.00    -0.033 N 
HETATM   49  N11 UNL     1       9.026  20.754  41.465  1.00  0.00    -0.033 N 
ATOM     50 3H10 UNL     1       6.328  20.490  41.444  1.00  0.00     0.278 HD
ATOM     51 2H10 UNL     1       6.190  20.247  42.980  1.00  0.00     0.278 HD
ATOM     52 1H10 UNL     1       6.860  21.698  42.477  1.00  0.00     0.278 HD
ATOM     53 3H11 UNL     1       9.961  20.352  41.522  1.00  0.00     0.278 HD
ATOM     54 2H11 UNL     1       8.811  20.563  40.486  1.00  0.00     0.278 HD
ATOM     55 1H11 UNL     1       9.065  21.760  41.628  1.00  0.00     0.278 HD
ATOM     56  H9  UNL     1       8.432  18.049  42.852  1.00  0.00     0.164 HD
ENDBRANCH   5  46
TORSDOF 10
ENDMDL
MODEL 2
REMARK VINA RESULT: -7.499788201      2.667      8.764
REMARK  10 active torsions:
REMARK  status: ('A' for Active; 'I' for Inactive)
REMARK    1  A    between atoms: C2_2  and  N1_3 
REMARK    2  A    between atoms: N1_3  and  C3_4 
REMARK    3  A    between atoms: N1_3  and  C5_10 
REMARK    4  A    between atoms: C3_4  and  C4_5 
REMARK    5  A    between atoms: C4_5  and  N2_6 
REMARK    6  A    between atoms: C5_10  and  C6_11 
REMARK    7  A    between atoms: C8_13  and  N3_14 
REMARK    8  A    between atoms: C9_15  and  C10_16 
REMARK    9  A    between atoms: C11_22  and  N6_23 
REMARK       I    between atoms: N6_23  and  C12_25 
REMARK       I    between atoms: C12_25  and  N7_26 
REMARK       I    between atoms: C12_25  and  N8_30 
REMARK   10  A    between atoms: C15_36  and  N9_37 
REMARK       I    between atoms: N9_37  and  C16_39 
REMARK       I    between atoms: C16_39  and  N10_40 
REMARK       I    between atoms: C16_39  and  N11_44 
ROOT
HETATM    1  N3  UNL     1       8.019  14.454  35.543  1.00  0.00    -0.302 N 
HETATM    2  C9  UNL     1       7.424  13.266  35.403  1.00  0.00     0.072 A 
HETATM    3  C13 UNL     1       7.098  13.096  34.079  1.00  0.00     0.051 A 
HETATM    4  C14 UNL     1       7.509  14.229  33.366  1.00  0.00     0.054 A 
HETATM    5  C15 UNL     1       7.443  14.602  32.038  1.00  0.00     0.119 A 
HETATM    6  N12 UNL     1       7.934  15.786  31.634  1.00  0.00    -0.338 N 
ATOM      7  H12 UNL     1       7.889  16.070  30.655  1.00  0.00     0.168 HD
HETATM    8  C17 UNL     1       8.491  16.589  32.570  1.00  0.00     0.183 A 
HETATM    9  N13 UNL     1       8.552  16.221  33.859  1.00  0.00    -0.338 N 
ATOM     10  H13 UNL     1       8.982  16.862  34.526  1.00  0.00     0.168 HD
HETATM   11  C18 UNL     1       8.079  15.055  34.313  1.00  0.00     0.125 A 
ENDROOT
BRANCH   2  12
HETATM   12  C10 UNL     1       7.144  12.285  36.442  1.00  0.00     0.129 A 
HETATM   13  N4  UNL     1       6.119  12.263  37.313  1.00  0.00    -0.236 N 
HETATM   14  O1  UNL     1       6.246  11.221  38.065  1.00  0.00    -0.155 OA
ATOM     15  H4  UNL     1       5.370  12.953  37.370  1.00  0.00     0.197 HD
HETATM   16  N5  UNL     1       7.304  10.545  37.739  1.00  0.00    -0.223 N 
HETATM   17  C11 UNL     1       7.908  11.163  36.727  1.00  0.00     0.157 A 
ATOM     18  H5  UNL     1       7.620   9.684  38.185  1.00  0.00     0.198 HD
BRANCH  17  19
HETATM   19  N6  UNL     1       9.002  10.830  36.089  1.00  0.00    -0.324 N 
HETATM   20  C12 UNL     1      10.250  11.093  36.779  1.00  0.00     0.481 C 
HETATM   21  N7  UNL     1      11.342  10.294  36.252  1.00  0.00    -0.033 N 
HETATM   22  N8  UNL     1      10.659  12.479  36.696  1.00  0.00    -0.033 N 
ATOM     23  H73 UNL     1      11.114   9.300  36.266  1.00  0.00     0.278 HD
ATOM     24  H72 UNL     1      11.442  10.422  35.245  1.00  0.00     0.278 HD
ATOM     25  H71 UNL     1      12.219  10.479  36.738  1.00  0.00     0.278 HD
ATOM     26  H83 UNL     1      10.707  12.787  35.725  1.00  0.00     0.278 HD
ATOM     27  H82 UNL     1       9.919  13.098  37.029  1.00  0.00     0.278 HD
ATOM     28  H81 UNL     1      11.536  12.663  37.181  1.00  0.00     0.278 HD
ATOM     29  H6  UNL     1       8.977  10.410  35.160  1.00  0.00     0.165 HD
ENDBRANCH  17  19
ENDBRANCH   2  12
BRANCH   1  30
HETATM   30  C8  UNL     1       8.495  14.976  36.768  1.00  0.00     0.230 C 
HETATM   31  C7  UNL     1       7.620  15.908  37.517  1.00  0.00     0.063 C 
HETATM   32  C6  UNL     1       8.585  16.427  38.594  1.00  0.00     0.036 C 
HETATM   33  C19 UNL     1       9.906  16.203  37.954  1.00  0.00     0.126 C 
HETATM   34  O2  UNL     1       9.704  15.671  36.687  1.00  0.00    -0.361 OA
HETATM   35  C20 UNL     1      10.759  17.442  37.809  1.00  0.00     0.040 C 
BRANCH  32  36
HETATM   36  C5  UNL     1       8.326  17.918  38.820  1.00  0.00     0.124 C 
BRANCH  36  37
HETATM   37  N1  UNL     1       8.252  18.275  40.169  1.00  0.00    -0.411 N 
BRANCH  37  38
HETATM   38  C2  UNL     1       6.939  18.420  40.730  1.00  0.00     0.112 C 
HETATM   39  C1  UNL     1       6.542  17.185  41.506  1.00  0.00     0.026 C 
ENDBRANCH  37  38
BRANCH  37  40
HETATM   40  C3  UNL     1       9.085  19.316  40.671  1.00  0.00     0.144 C 
BRANCH  40  41
HETATM   41  C4  UNL     1      10.128  18.923  41.659  1.00  0.00     0.248 C 
BRANCH  41  42
HETATM   42  N2  UNL     1      10.651  17.619  41.450  1.00  0.00    -0.078 N 
ATOM     43  H23 UNL     1      10.618  17.372  40.461  1.00  0.00     0.274 HD
ATOM     44  H22 UNL     1      11.661  17.608  41.596  1.00  0.00     0.274 HD
ATOM     45  H21 UNL     1      10.198  16.900  42.013  1.00  0.00     0.274 HD
ENDBRANCH  41  42
ENDBRANCH  40  41
ENDBRANCH  37  40
ENDBRANCH  36  37
ENDBRANCH  32  36
ENDBRANCH   1  30
BRANCH   5  46
HETATM   46  N9  UNL     1       6.907  13.788  31.228  1.00  0.00    -0.326 N 
HETATM   47  C16 UNL     1       7.497  13.093  30.133  1.00  0.00     0.481 C 
HETATM   48  N10 UNL     1       8.591  12.211  30.508  1.00  0.00    -0.033 N 
HETATM   49  N11 UNL     1       7.915  13.932  29.036  1.00  0.00    -0.033 N 
ATOM     50 3H10 UNL     1       9.302  12.724  31.029  1.00  0.00     0.278 HD
ATOM     51 2H10 UNL     1       8.289  11.553  31.226  1.00  0.00     0.278 HD
ATOM     52 1H10 UNL     1       9.014  11.713  29.724  1.00  0.00     0.278 HD
ATOM     53 3H11 UNL     1       7.134  14.503  28.712  1.00  0.00     0.278 HD
ATOM     54 2H11 UNL     1       8.542  14.663  29.370  1.00  0.00     0.278 HD
ATOM     55 1H11 UNL     1       8.337  13.434  28.253  1.00  0.00     0.278 HD
ATOM     56  H9  UNL     1       5.915  13.605  31.381  1.00  0.00     0.164 HD
ENDBRANCH   5  46
TORSDOF 10
ENDMDL
MODEL 3
REMARK VINA RESULT: -7.427910195      0.928      1.483
REMARK  10 active torsions:
REMARK  status: ('A' for Active; 'I' for Inactive)
REMARK    1  A    between atoms: C2_2  and  N1_3 
REMARK    2  A    between atoms: N1_3  and  C3_4 
REMARK    3  A    between atoms: N1_3  and  C5_10 
REMARK    4  A    between atoms: C3_4  and  C4_5 
REMARK    5  A    between atoms: C4_5  and  N2_6 
REMARK    6  A    between atoms: C5_10  and  C6_11 
REMARK    7  A    between atoms: C8_13  and  N3_14 
REMARK    8  A    between atoms: C9_15  and  C10_16 
REMARK    9  A    between atoms: C11_22  and  N6_23 
REMARK       I    between atoms: N6_23  and  C12_25 
REMARK       I    between atoms: C12_25  and  N7_26 
REMARK       I    between atoms: C12_25  and  N8_30 
REMARK   10  A    between atoms: C15_36  and  N9_37 
REMARK       I    between atoms: N9_37  and  C16_39 
REMARK       I    between atoms: C16_39  and  N10_40 
REMARK       I    between atoms: C16_39  and  N11_44 
ROOT
HETATM    1  N3  UNL     1       9.263  16.670  38.409  1.00  0.00    -0.302 N 
HETATM    2  C9  UNL     1      10.365  17.007  39.087  1.00  0.00     0.072 A 
HETATM    3  C13 UNL     1       9.986  17.592  40.271  1.00  0.00     0.051 A 
HETATM    4  C14 UNL     1       8.587  17.619  40.331  1.00  0.00     0.054 A 
HETATM    5  C15 UNL     1       7.676  18.079  41.262  1.00  0.00     0.119 A 
HETATM    6  N12 UNL     1       6.355  17.968  41.040  1.00  0.00    -0.338 N 
ATOM      7  H12 UNL     1       5.676  18.305  41.723  1.00  0.00     0.168 HD
HETATM    8  C17 UNL     1       5.957  17.395  39.881  1.00  0.00     0.183 A 
HETATM    9  N13 UNL     1       6.847  16.951  38.981  1.00  0.00    -0.338 N 
ATOM     10  H13 UNL     1       6.496  16.526  38.122  1.00  0.00     0.168 HD
HETATM   11  C18 UNL     1       8.171  17.036  39.152  1.00  0.00     0.125 A 
ENDROOT
BRANCH   2  12
HETATM   12  C10 UNL     1      11.750  16.810  38.682  1.00  0.00     0.129 A 
HETATM   13  N4  UNL     1      12.456  15.666  38.658  1.00  0.00    -0.236 N 
HETATM   14  O1  UNL     1      13.647  15.932  38.235  1.00  0.00    -0.155 OA
ATOM     15  H4  UNL     1      12.110  14.745  38.928  1.00  0.00     0.197 HD
HETATM   16  N5  UNL     1      13.771  17.196  37.975  1.00  0.00    -0.223 N 
HETATM   17  C11 UNL     1      12.613  17.799  38.236  1.00  0.00     0.157 A 
ATOM     18  H5  UNL     1      14.614  17.652  37.628  1.00  0.00     0.198 HD
BRANCH  17  19
HETATM   19  N6  UNL     1      12.294  19.063  38.115  1.00  0.00    -0.324 N 
HETATM   20  C12 UNL     1      13.075  19.997  38.903  1.00  0.00     0.481 C 
HETATM   21  N7  UNL     1      12.997  21.349  38.379  1.00  0.00    -0.033 N 
HETATM   22  N8  UNL     1      12.656  20.054  40.288  1.00  0.00    -0.033 N 
ATOM     23  H73 UNL     1      13.264  21.381  37.395  1.00  0.00     0.278 HD
ATOM     24  H72 UNL     1      12.028  21.658  38.293  1.00  0.00     0.278 HD
ATOM     25  H71 UNL     1      13.545  22.006  38.933  1.00  0.00     0.278 HD
ATOM     26  H83 UNL     1      11.660  20.259  40.360  1.00  0.00     0.278 HD
ATOM     27  H82 UNL     1      12.664  19.125  40.709  1.00  0.00     0.278 HD
ATOM     28  H81 UNL     1      13.205  20.711  40.842  1.00  0.00     0.278 HD
ATOM     29  H6  UNL     1      11.539  19.372  37.503  1.00  0.00     0.165 HD
ENDBRANCH  17  19
ENDBRANCH   2  12
BRANCH   1  30
HETATM   30  C8  UNL     1       9.257  16.043  37.142  1.00  0.00     0.230 C 
HETATM   31  C7  UNL     1       8.973  16.878  35.951  1.00  0.00     0.063 C 
HETATM   32  C6  UNL     1       8.799  15.804  34.866  1.00  0.00     0.036 C 
HETATM   33  C19 UNL     1       8.422  14.614  35.671  1.00  0.00     0.126 C 
HETATM   34  O2  UNL     1       8.359  14.981  37.009  1.00  0.00    -0.361 OA
HETATM   35  C20 UNL     1       7.100  13.987  35.296  1.00  0.00     0.040 C 
BRANCH  32  36
HETATM   36  C5  UNL     1       7.661  16.220  33.930  1.00  0.00     0.124 C 
BRANCH  36  37
HETATM   37  N1  UNL     1       8.100  16.648  32.673  1.00  0.00    -0.411 N 
BRANCH  37  38
HETATM   38  C2  UNL     1       7.440  16.084  31.531  1.00  0.00     0.112 C 
HETATM   39  C1  UNL     1       7.450  14.574  31.590  1.00  0.00     0.026 C 
ENDBRANCH  37  38
BRANCH  37  40
HETATM   40  C3  UNL     1       9.496  16.731  32.404  1.00  0.00     0.144 C 
BRANCH  40  41
HETATM   41  C4  UNL     1       9.903  17.534  31.216  1.00  0.00     0.248 C 
BRANCH  41  42
HETATM   42  N2  UNL     1      11.253  17.330  30.824  1.00  0.00    -0.078 N 
ATOM     43  H23 UNL     1      11.728  16.709  31.478  1.00  0.00     0.274 HD
ATOM     44  H22 UNL     1      11.300  16.759  29.980  1.00  0.00     0.274 HD
ATOM     45  H21 UNL     1      11.780  18.195  30.703  1.00  0.00     0.274 HD
ENDBRANCH  41  42
ENDBRANCH  40  41
ENDBRANCH  37  40
ENDBRANCH  36  37
ENDBRANCH  32  36
ENDBRANCH   1  30
BRANCH   5  46
HETATM   46  N9  UNL     1       8.136  18.600  42.322  1.00  0.00    -0.326 N 
HETATM   47  C16 UNL     1       8.248  19.977  42.667  1.00  0.00     0.481 C 
HETATM   48  N10 UNL     1       6.979  20.687  42.707  1.00  0.00    -0.033 N 
HETATM   49  N11 UNL     1       9.190  20.727  41.873  1.00  0.00    -0.033 N 
ATOM     50 3H10 UNL     1       6.482  20.581  41.823  1.00  0.00     0.278 HD
ATOM     51 2H10 UNL     1       6.325  20.215  43.332  1.00  0.00     0.278 HD
ATOM     52 1H10 UNL     1       7.059  21.673  42.955  1.00  0.00     0.278 HD
ATOM     53 3H11 UNL     1      10.106  20.282  41.898  1.00  0.00     0.278 HD
ATOM     54 2H11 UNL     1       8.972  20.629  40.881  1.00  0.00     0.278 HD
ATOM     55 1H11 UNL     1       9.270  21.713  42.121  1.00  0.00     0.278 HD
ATOM     56  H9  UNL     1       8.473  17.942  43.025  1.00  0.00     0.164 HD
ENDBRANCH   5  46
TORSDOF 10
ENDMDL
MODEL 4
REMARK VINA RESULT: -7.311989498      2.628      8.783
REMARK  10 active torsions:
REMARK  status: ('A' for Active; 'I' for Inactive)
REMARK    1  A    between atoms: C2_2  and  N1_3 
REMARK    2  A    between atoms: N1_3  and  C3_4 
REMARK    3  A    between atoms: N1_3  and  C5_10 
REMARK    4  A    between atoms: C3_4  and  C4_5 
REMARK    5  A    between atoms: C4_5  and  N2_6 
REMARK    6  A    between atoms: C5_10  and  C6_11 
REMARK    7  A    between atoms: C8_13  and  N3_14 
REMARK    8  A    between atoms: C9_15  and  C10_16 
REMARK    9  A    between atoms: C11_22  and  N6_23 
REMARK       I    between atoms: N6_23  and  C12_25 
REMARK       I    between atoms: C12_25  and  N7_26 
REMARK       I    between atoms: C12_25  and  N8_30 
REMARK   10  A    between atoms: C15_36  and  N9_37 
REMARK       I    between atoms: N9_37  and  C16_39 
REMARK       I    between atoms: C16_39  and  N10_40 
REMARK       I    between atoms: C16_39  and  N11_44 
ROOT
HETATM    1  N3  UNL     1       7.992  14.448  35.549  1.00  0.00    -0.302 N 
HETATM    2  C9  UNL     1       7.403  13.256  35.413  1.00  0.00     0.072 A 
HETATM    3  C13 UNL     1       7.088  13.075  34.087  1.00  0.00     0.051 A 
HETATM    4  C14 UNL     1       7.499  14.205  33.370  1.00  0.00     0.054 A 
HETATM    5  C15 UNL     1       7.441  14.569  32.038  1.00  0.00     0.119 A 
HETATM    6  N12 UNL     1       7.931  15.752  31.630  1.00  0.00    -0.338 N 
ATOM      7  H12 UNL     1       7.892  16.029  30.649  1.00  0.00     0.168 HD
HETATM    8  C17 UNL     1       8.477  16.564  32.565  1.00  0.00     0.183 A 
HETATM    9  N13 UNL     1       8.531  16.205  33.856  1.00  0.00    -0.338 N 
ATOM     10  H13 UNL     1       8.953  16.852  34.522  1.00  0.00     0.168 HD
HETATM   11  C18 UNL     1       8.059  15.040  34.315  1.00  0.00     0.125 A 
ENDROOT
BRANCH   2  12
HETATM   12  C10 UNL     1       7.120  12.281  36.457  1.00  0.00     0.129 A 
HETATM   13  N4  UNL     1       6.095  12.267  37.328  1.00  0.00    -0.236 N 
HETATM   14  O1  UNL     1       6.219  11.229  38.084  1.00  0.00    -0.155 OA
ATOM     15  H4  UNL     1       5.348  12.960  37.381  1.00  0.00     0.197 HD
HETATM   16  N5  UNL     1       7.274  10.548  37.762  1.00  0.00    -0.223 N 
HETATM   17  C11 UNL     1       7.880  11.159  36.747  1.00  0.00     0.157 A 
ATOM     18  H5  UNL     1       7.587   9.687  38.212  1.00  0.00     0.198 HD
BRANCH  17  19
HETATM   19  N6  UNL     1       8.972  10.818  36.111  1.00  0.00    -0.324 N 
HETATM   20  C12 UNL     1      10.221  11.067  36.805  1.00  0.00     0.481 C 
HETATM   21  N7  UNL     1      11.308  10.261  36.278  1.00  0.00    -0.033 N 
HETATM   22  N8  UNL     1      10.642  12.450  36.728  1.00  0.00    -0.033 N 
ATOM     23  H73 UNL     1      11.071   9.269  36.287  1.00  0.00     0.278 HD
ATOM     24  H72 UNL     1      11.412  10.392  35.272  1.00  0.00     0.278 HD
ATOM     25  H71 UNL     1      12.185  10.437  36.767  1.00  0.00     0.278 HD
ATOM     26  H83 UNL     1      10.696  12.762  35.759  1.00  0.00     0.278 HD
ATOM     27  H82 UNL     1       9.907  13.074  37.062  1.00  0.00     0.278 HD
ATOM     28  H81 UNL     1      11.519  12.625  37.217  1.00  0.00     0.278 HD
ATOM     29  H6  UNL     1       8.947  10.402  35.180  1.00  0.00     0.165 HD
ENDBRANCH  17  19
ENDBRANCH   2  12
BRANCH   1  30
HETATM   30  C8  UNL     1       8.457  14.981  36.773  1.00  0.00     0.230 C 
HETATM   31  C7  UNL     1       7.670  16.064  37.407  1.00  0.00     0.063 C 
HETATM   32  C6  UNL     1       8.627  16.520  38.519  1.00  0.00     0.036 C 
HETATM   33  C19 UNL     1       9.944  16.086  37.986  1.00  0.00     0.126 C 
HETATM   34  O2  UNL     1       9.752  15.505  36.739  1.00  0.00    -0.361 OA
HETATM   35  C20 UNL     1      10.963  17.191  37.833  1.00  0.00     0.040 C 
BRANCH  32  36
HETATM   36  C5  UNL     1       8.558  18.044  38.643  1.00  0.00     0.124 C 
BRANCH  36  37
HETATM   37  N1  UNL     1       8.268  18.487  39.937  1.00  0.00    -0.411 N 
BRANCH  37  38
HETATM   38  C2  UNL     1       9.275  19.268  40.596  1.00  0.00     0.112 C 
HETATM   39  C1  UNL     1      10.266  18.379  41.313  1.00  0.00     0.026 C 
ENDBRANCH  37  38
BRANCH  37  40
HETATM   40  C3  UNL     1       7.696  17.585  40.880  1.00  0.00     0.144 C 
BRANCH  40  41
HETATM   41  C4  UNL     1       6.583  18.110  41.720  1.00  0.00     0.248 C 
BRANCH  41  42
HETATM   42  N2  UNL     1       6.807  17.973  43.116  1.00  0.00    -0.078 N 
ATOM     43  H23 UNL     1       6.757  16.994  43.394  1.00  0.00     0.274 HD
ATOM     44  H22 UNL     1       7.782  18.167  43.345  1.00  0.00     0.274 HD
ATOM     45  H21 UNL     1       6.183  18.541  43.689  1.00  0.00     0.274 HD
ENDBRANCH  41  42
ENDBRANCH  40  41
ENDBRANCH  37  40
ENDBRANCH  36  37
ENDBRANCH  32  36
ENDBRANCH   1  30
BRANCH   5  46
HETATM   46  N9  UNL     1       6.915  13.747  31.230  1.00  0.00    -0.326 N 
HETATM   47  C16 UNL     1       7.512  13.059  30.135  1.00  0.00     0.481 C 
HETATM   48  N10 UNL     1       8.619  12.192  30.508  1.00  0.00    -0.033 N 
HETATM   49  N11 UNL     1       7.916  13.903  29.037  1.00  0.00    -0.033 N 
ATOM     50 3H10 UNL     1       9.323  12.716  31.027  1.00  0.00     0.278 HD
ATOM     51 2H10 UNL     1       8.327  11.531  31.228  1.00  0.00     0.278 HD
ATOM     52 1H10 UNL     1       9.046  11.699  29.724  1.00  0.00     0.278 HD
ATOM     53 3H11 UNL     1       7.127  14.463  28.714  1.00  0.00     0.278 HD
ATOM     54 2H11 UNL     1       8.534  14.643  29.369  1.00  0.00     0.278 HD
ATOM     55 1H11 UNL     1       8.343  13.410  28.253  1.00  0.00     0.278 HD
ATOM     56  H9  UNL     1       5.926  13.551  31.385  1.00  0.00     0.164 HD
ENDBRANCH   5  46
TORSDOF 10
ENDMDL
MODEL 5
REMARK VINA RESULT: -7.285978898      2.845      5.980
REMARK  10 active torsions:
REMARK  status: ('A' for Active; 'I' for Inactive)
REMARK    1  A    between atoms: C2_2  and  N1_3 
REMARK    2  A    between atoms: N1_3  and  C3_4 
REMARK    3  A    between atoms: N1_3  and  C5_10 
REMARK    4  A    between atoms: C3_4  and  C4_5 
REMARK    5  A    between atoms: C4_5  and  N2_6 
REMARK    6  A    between atoms: C5_10  and  C6_11 
REMARK    7  A    between atoms: C8_13  and  N3_14 
REMARK    8  A    between atoms: C9_15  and  C10_16 
REMARK    9  A    between atoms: C11_22  and  N6_23 
REMARK       I    between atoms: N6_23  and  C12_25 
REMARK       I    between atoms: C12_25  and  N7_26 
REMARK       I    between atoms: C12_25  and  N8_30 
REMARK   10  A    between atoms: C15_36  and  N9_37 
REMARK       I    between atoms: N9_37  and  C16_39 
REMARK       I    between atoms: C16_39  and  N10_40 
REMARK       I    between atoms: C16_39  and  N11_44 
ROOT
HETATM    1  N3  UNL     1       9.693  15.836  36.583  1.00  0.00    -0.302 N 
HETATM    2  C9  UNL     1       8.964  16.918  36.292  1.00  0.00     0.072 A 
HETATM    3  C13 UNL     1       9.473  17.986  36.990  1.00  0.00     0.051 A 
HETATM    4  C14 UNL     1      10.566  17.548  37.748  1.00  0.00     0.054 A 
HETATM    5  C15 UNL     1      11.441  18.170  38.618  1.00  0.00     0.119 A 
HETATM    6  N12 UNL     1      12.422  17.473  39.216  1.00  0.00    -0.338 N 
ATOM      7  H12 UNL     1      13.072  17.925  39.860  1.00  0.00     0.168 HD
HETATM    8  C17 UNL     1      12.518  16.153  38.936  1.00  0.00     0.183 A 
HETATM    9  N13 UNL     1      11.666  15.555  38.090  1.00  0.00    -0.338 N 
ATOM     10  H13 UNL     1      11.780  14.557  37.912  1.00  0.00     0.168 HD
HETATM   11  C18 UNL     1      10.673  16.201  37.468  1.00  0.00     0.125 A 
ENDROOT
BRANCH   2  12
HETATM   12  C10 UNL     1       7.818  17.002  35.398  1.00  0.00     0.129 A 
HETATM   13  N4  UNL     1       6.516  17.103  35.720  1.00  0.00    -0.236 N 
HETATM   14  O1  UNL     1       5.829  17.150  34.627  1.00  0.00    -0.155 OA
ATOM     15  H4  UNL     1       6.135  17.137  36.666  1.00  0.00     0.197 HD
HETATM   16  N5  UNL     1       6.607  17.086  33.592  1.00  0.00    -0.223 N 
HETATM   17  C11 UNL     1       7.867  16.992  34.012  1.00  0.00     0.157 A 
ATOM     18  H5  UNL     1       6.305  17.104  32.618  1.00  0.00     0.198 HD
BRANCH  17  19
HETATM   19  N6  UNL     1       8.968  16.906  33.310  1.00  0.00    -0.324 N 
HETATM   20  C12 UNL     1       8.804  16.822  31.872  1.00  0.00     0.481 C 
HETATM   21  N7  UNL     1      10.013  17.202  31.163  1.00  0.00    -0.033 N 
HETATM   22  N8  UNL     1       8.448  15.493  31.422  1.00  0.00    -0.033 N 
ATOM     23  H73 UNL     1      10.333  18.128  31.446  1.00  0.00     0.278 HD
ATOM     24  H72 UNL     1      10.814  16.653  31.476  1.00  0.00     0.278 HD
ATOM     25  H71 UNL     1       9.898  17.143  30.152  1.00  0.00     0.278 HD
ATOM     26  H83 UNL     1       9.122  14.803  31.752  1.00  0.00     0.278 HD
ATOM     27  H82 UNL     1       7.615  15.156  31.904  1.00  0.00     0.278 HD
ATOM     28  H81 UNL     1       8.333  15.435  30.410  1.00  0.00     0.278 HD
ATOM     29  H6  UNL     1       9.888  16.897  33.750  1.00  0.00     0.165 HD
ENDBRANCH  17  19
ENDBRANCH   2  12
BRANCH   1  30
HETATM   30  C8  UNL     1       9.466  14.546  36.051  1.00  0.00     0.230 C 
HETATM   31  C7  UNL     1       8.197  13.862  36.394  1.00  0.00     0.063 C 
HETATM   32  C6  UNL     1       8.466  12.446  35.862  1.00  0.00     0.036 C 
HETATM   33  C19 UNL     1       9.950  12.393  35.869  1.00  0.00     0.126 C 
HETATM   34  O2  UNL     1      10.438  13.594  36.369  1.00  0.00    -0.361 OA
HETATM   35  C20 UNL     1      10.541  11.272  36.691  1.00  0.00     0.040 C 
BRANCH  32  36
HETATM   36  C5  UNL     1       7.872  11.426  36.836  1.00  0.00     0.124 C 
BRANCH  36  37
HETATM   37  N1  UNL     1       6.484  11.300  36.735  1.00  0.00    -0.411 N 
BRANCH  37  38
HETATM   38  C2  UNL     1       5.762  11.094  37.958  1.00  0.00     0.112 C 
HETATM   39  C1  UNL     1       6.261   9.864  38.681  1.00  0.00     0.026 C 
ENDBRANCH  37  38
BRANCH  37  40
HETATM   40  C3  UNL     1       5.922  10.469  35.724  1.00  0.00     0.144 C 
BRANCH  40  41
HETATM   41  C4  UNL     1       4.541  10.801  35.273  1.00  0.00     0.248 C 
BRANCH  41  42
HETATM   42  N2  UNL     1       4.500  11.664  34.146  1.00  0.00    -0.078 N 
ATOM     43  H23 UNL     1       4.207  12.601  34.421  1.00  0.00     0.274 HD
ATOM     44  H22 UNL     1       5.443  11.870  33.815  1.00  0.00     0.274 HD
ATOM     45  H21 UNL     1       3.919  11.316  33.383  1.00  0.00     0.274 HD
ENDBRANCH  41  42
ENDBRANCH  40  41
ENDBRANCH  37  40
ENDBRANCH  36  37
ENDBRANCH  32  36
ENDBRANCH   1  30
BRANCH   5  46
HETATM   46  N9  UNL     1      11.280  19.410  38.822  1.00  0.00    -0.326 N 
HETATM   47  C16 UNL     1      12.259  20.408  39.096  1.00  0.00     0.481 C 
HETATM   48  N10 UNL     1      13.253  20.572  38.047  1.00  0.00    -0.033 N 
HETATM   49  N11 UNL     1      12.924  20.271  40.368  1.00  0.00    -0.033 N 
ATOM     50 3H10 UNL     1      13.702  19.680  37.839  1.00  0.00     0.278 HD
ATOM     51 2H10 UNL     1      12.801  20.753  37.151  1.00  0.00     0.278 HD
ATOM     52 1H10 UNL     1      13.954  21.286  38.243  1.00  0.00     0.278 HD
ATOM     53 3H11 UNL     1      12.239  20.233  41.122  1.00  0.00     0.278 HD
ATOM     54 2H11 UNL     1      13.334  19.341  40.454  1.00  0.00     0.278 HD
ATOM     55 1H11 UNL     1      13.625  20.986  40.564  1.00  0.00     0.278 HD
ATOM     56  H9  UNL     1      10.315  19.740  38.784  1.00  0.00     0.164 HD
ENDBRANCH   5  46
TORSDOF 10
ENDMDL
