MODEL 1
REMARK VINA RESULT: -7.038291400      0.000      0.000
REMARK  12 active torsions:
REMARK  status: ('A' for Active; 'I' for Inactive)
REMARK    1  A    between atoms: S1_2  and  C2_3 
REMARK    2  A    between atoms: C4_7  and  C5_8 
REMARK    3  A    between atoms: C7_14  and  N4_15 
REMARK    4  A    between atoms: N6_22  and  C10_24 
REMARK    5  A    between atoms: C10_24  and  C11_25 
REMARK    6  A    between atoms: C11_25  and  C12_26 
REMARK    7  A    between atoms: C12_26  and  O1_27 
REMARK    8  A    between atoms: N7_29  and  C13_30 
REMARK    9  A    between atoms: C13_30  and  C14_31 
REMARK   10  A    between atoms: C14_31  and  O2_32 
REMARK   11  A    between atoms: C14_31  and  C15_34 
REMARK       I    between atoms: C15_34  and  N8_36 
REMARK   12  A    between atoms: N8_36  and  N9_38 
ROOT
HETATM    1  C5  UNL     1      10.507  19.235  40.003  1.00  0.00     0.121 A 
HETATM    2  N2  UNL     1       9.447  19.592  39.259  1.00  0.00    -0.325 N 
ATOM      3  H2  UNL     1       8.984  20.499  39.315  1.00  0.00     0.169 HD
HETATM    4  C6  UNL     1       9.074  18.602  38.434  1.00  0.00     0.153 A 
HETATM    5  N3  UNL     1       8.038  18.625  37.545  1.00  0.00    -0.324 N 
ATOM      6  H3  UNL     1       7.722  19.556  37.272  1.00  0.00     0.169 HD
HETATM    7  C7  UNL     1       7.371  17.608  36.977  1.00  0.00     0.132 C 
HETATM    8  C8  UNL     1       7.767  16.282  36.855  1.00  0.00     0.137 A 
HETATM    9  N5  UNL     1       7.102  15.320  36.233  1.00  0.00    -0.184 N 
ATOM     10  H5  UNL     1       6.205  15.442  35.764  1.00  0.00     0.184 HD
HETATM   11  C9  UNL     1       7.798  14.122  36.311  1.00  0.00     0.682 A 
HETATM   12  N6  UNL     1       7.372  13.053  35.778  1.00  0.00    -0.226 N 
ATOM     13  H6  UNL     1       6.478  13.194  35.305  1.00  0.00     0.177 HD
HETATM   14  N7  UNL     1       8.906  14.423  37.010  1.00  0.00    -0.163 N 
HETATM   15  C16 UNL     1       8.919  15.749  37.360  1.00  0.00     0.156 A 
HETATM   16  N10 UNL     1       9.917  16.370  38.041  1.00  0.00    -0.323 N 
ATOM     17  H10 UNL     1      10.792  15.846  38.084  1.00  0.00     0.169 HD
HETATM   18  C17 UNL     1       9.946  17.558  38.668  1.00  0.00     0.153 A 
HETATM   19  N11 UNL     1      10.806  17.971  39.625  1.00  0.00    -0.325 N 
ATOM     20  H11 UNL     1      11.569  17.412  40.006  1.00  0.00     0.169 HD
ENDROOT
BRANCH  14  21
HETATM   21  C13 UNL     1       9.989  13.568  37.373  1.00  0.00     0.191 C 
BRANCH  21  22
HETATM   22  C14 UNL     1      11.130  13.459  36.423  1.00  0.00     0.230 C 
BRANCH  22  23
HETATM   23  O2  UNL     1      12.098  14.391  36.897  1.00  0.00    -0.384 OA
ATOM     24  H2  UNL     1      11.604  15.176  37.105  1.00  0.00     0.210 HD
ENDBRANCH  22  23
BRANCH  22  25
HETATM   25  C15 UNL     1      11.778  12.166  36.273  1.00  0.00     0.266 C 
HETATM   26  O3  UNL     1      13.028  12.113  36.005  1.00  0.00    -0.269 OA
HETATM   27  N8  UNL     1      11.118  10.892  36.395  1.00  0.00    -0.274 N 
ATOM     28  H8  UNL     1      10.121  10.873  36.607  1.00  0.00     0.189 HD
BRANCH  27  29
HETATM   29  N9  UNL     1      11.794   9.685  36.234  1.00  0.00    -0.343 N 
ATOM     30  H92 UNL     1      12.813   9.703  36.259  1.00  0.00     0.176 HD
ATOM     31  H91 UNL     1      11.305   8.801  36.095  1.00  0.00     0.176 HD
ENDBRANCH  27  29
ENDBRANCH  22  25
ENDBRANCH  21  22
ENDBRANCH  14  21
BRANCH  12  32
HETATM   32  C10 UNL     1       7.807  11.749  35.675  1.00  0.00     0.140 C 
BRANCH  32  33
HETATM   33  C11 UNL     1       6.880  10.742  36.374  1.00  0.00     0.046 C 
BRANCH  33  34
HETATM   34  C12 UNL     1       5.989  10.017  35.421  1.00  0.00     0.165 C 
BRANCH  34  35
HETATM   35  O1  UNL     1       6.688   9.309  34.451  1.00  0.00    -0.401 OA
ATOM     36  H1  UNL     1       6.845   9.813  33.661  1.00  0.00     0.209 HD
ENDBRANCH  34  35
ENDBRANCH  33  34
ENDBRANCH  32  33
ENDBRANCH  12  32
BRANCH   7  37
HETATM   37  N4  UNL     1       6.216  17.880  36.478  1.00  0.00    -0.383 N 
ATOM     38  H42 UNL     1       5.614  18.452  37.069  1.00  0.00     0.157 HD
ATOM     39  H41 UNL     1       6.017  17.503  35.552  1.00  0.00     0.157 HD
ENDBRANCH   7  37
BRANCH   1  40
HETATM   40  C4  UNL     1      11.213  20.010  41.015  1.00  0.00     0.039 A 
HETATM   41  C3  UNL     1      12.410  20.624  40.711  1.00  0.00     0.106 A 
HETATM   42  N1  UNL     1      13.057  21.341  41.653  1.00  0.00    -0.346 N 
HETATM   43  C2  UNL     1      12.595  21.501  42.906  1.00  0.00     0.143 A 
ATOM     44  H1  UNL     1      13.940  21.784  41.402  1.00  0.00     0.167 HD
HETATM   45  N12 UNL     1      11.426  20.905  43.212  1.00  0.00    -0.346 N 
HETATM   46  C18 UNL     1      10.741  20.174  42.297  1.00  0.00     0.106 A 
ATOM     47  H12 UNL     1      11.047  21.007  44.153  1.00  0.00     0.167 HD
BRANCH  43  48
HETATM   48  S1  UNL     1      13.493  22.462  44.125  1.00  0.00    -0.098 SA
HETATM   49  C1  UNL     1      15.272  22.277  43.774  1.00  0.00     0.099 C 
ENDBRANCH  43  48
ENDBRANCH   1  40
TORSDOF 12
ENDMDL
MODEL 2
REMARK VINA RESULT: -6.995116186      2.513      4.087
REMARK  12 active torsions:
REMARK  status: ('A' for Active; 'I' for Inactive)
REMARK    1  A    between atoms: S1_2  and  C2_3 
REMARK    2  A    between atoms: C4_7  and  C5_8 
REMARK    3  A    between atoms: C7_14  and  N4_15 
REMARK    4  A    between atoms: N6_22  and  C10_24 
REMARK    5  A    between atoms: C10_24  and  C11_25 
REMARK    6  A    between atoms: C11_25  and  C12_26 
REMARK    7  A    between atoms: C12_26  and  O1_27 
REMARK    8  A    between atoms: N7_29  and  C13_30 
REMARK    9  A    between atoms: C13_30  and  C14_31 
REMARK   10  A    between atoms: C14_31  and  O2_32 
REMARK   11  A    between atoms: C14_31  and  C15_34 
REMARK       I    between atoms: C15_34  and  N8_36 
REMARK   12  A    between atoms: N8_36  and  N9_38 
ROOT
HETATM    1  C5  UNL     1      12.346  18.383  38.854  1.00  0.00     0.121 A 
HETATM    2  N2  UNL     1      13.281  17.502  38.460  1.00  0.00    -0.325 N 
ATOM      3  H2  UNL     1      14.283  17.696  38.442  1.00  0.00     0.169 HD
HETATM    4  C6  UNL     1      12.729  16.334  38.095  1.00  0.00     0.153 A 
HETATM    5  N3  UNL     1      13.385  15.226  37.643  1.00  0.00    -0.324 N 
ATOM      6  H3  UNL     1      14.374  15.176  37.892  1.00  0.00     0.169 HD
HETATM    7  C7  UNL     1      12.927  14.191  36.922  1.00  0.00     0.132 C 
HETATM    8  C8  UNL     1      11.610  13.786  36.741  1.00  0.00     0.137 A 
HETATM    9  N5  UNL     1      11.204  12.721  36.065  1.00  0.00    -0.184 N 
ATOM     10  H5  UNL     1      11.822  12.063  35.590  1.00  0.00     0.184 HD
HETATM   11  C9  UNL     1       9.820  12.628  36.095  1.00  0.00     0.682 A 
HETATM   12  N6  UNL     1       9.191  11.682  35.531  1.00  0.00    -0.226 N 
ATOM     13  H6  UNL     1       9.823  11.028  35.068  1.00  0.00     0.177 HD
HETATM   14  N7  UNL     1       9.428  13.690  36.820  1.00  0.00    -0.163 N 
HETATM   15  C16 UNL     1      10.509  14.425  37.235  1.00  0.00     0.156 A 
HETATM   16  N10 UNL     1      10.447  15.538  38.012  1.00  0.00    -0.323 N 
ATOM     17  H10 UNL     1       9.553  15.680  38.480  1.00  0.00     0.169 HD
HETATM   18  C17 UNL     1      11.368  16.484  38.266  1.00  0.00     0.153 A 
HETATM   19  N11 UNL     1      11.164  17.737  38.728  1.00  0.00    -0.325 N 
ATOM     20  H11 UNL     1      10.253  18.138  38.950  1.00  0.00     0.169 HD
ENDROOT
BRANCH  14  21
HETATM   21  C13 UNL     1       8.105  14.080  37.185  1.00  0.00     0.191 C 
BRANCH  21  22
HETATM   22  C14 UNL     1       7.459  15.158  36.388  1.00  0.00     0.230 C 
BRANCH  22  23
HETATM   23  O2  UNL     1       7.749  16.363  37.089  1.00  0.00    -0.384 OA
ATOM     24  H2  UNL     1       7.717  16.127  38.009  1.00  0.00     0.210 HD
ENDBRANCH  22  23
BRANCH  22  25
HETATM   25  C15 UNL     1       7.867  15.327  35.002  1.00  0.00     0.266 C 
HETATM   26  O3  UNL     1       7.392  14.548  34.104  1.00  0.00    -0.269 OA
HETATM   27  N8  UNL     1       8.795  16.321  34.529  1.00  0.00    -0.274 N 
ATOM     28  H8  UNL     1       9.207  16.968  35.201  1.00  0.00     0.189 HD
BRANCH  27  29
HETATM   29  N9  UNL     1       9.150  16.429  33.187  1.00  0.00    -0.343 N 
ATOM     30  H92 UNL     1       8.526  16.016  32.494  1.00  0.00     0.176 HD
ATOM     31  H91 UNL     1      10.003  16.900  32.884  1.00  0.00     0.176 HD
ENDBRANCH  27  29
ENDBRANCH  22  25
ENDBRANCH  21  22
ENDBRANCH  14  21
BRANCH  12  32
HETATM   32  C10 UNL     1       7.871  11.312  35.383  1.00  0.00     0.140 C 
BRANCH  32  33
HETATM   33  C11 UNL     1       7.273  10.677  36.647  1.00  0.00     0.046 C 
BRANCH  33  34
HETATM   34  C12 UNL     1       5.923  10.084  36.414  1.00  0.00     0.165 C 
BRANCH  34  35
HETATM   35  O1  UNL     1       5.817   9.433  35.190  1.00  0.00    -0.401 OA
ATOM     36  H1  UNL     1       6.160   8.548  35.208  1.00  0.00     0.209 HD
ENDBRANCH  34  35
ENDBRANCH  33  34
ENDBRANCH  32  33
ENDBRANCH  12  32
BRANCH   7  37
HETATM   37  N4  UNL     1      13.806  13.474  36.314  1.00  0.00    -0.383 N 
ATOM     38  H42 UNL     1      14.131  12.658  36.832  1.00  0.00     0.157 HD
ATOM     39  H41 UNL     1      14.089  13.786  35.385  1.00  0.00     0.157 HD
ENDBRANCH   7  37
BRANCH   1  40
HETATM   40  C4  UNL     1      12.523  19.753  39.320  1.00  0.00     0.039 A 
HETATM   41  C3  UNL     1      12.923  20.738  38.443  1.00  0.00     0.106 A 
HETATM   42  N1  UNL     1      13.083  22.004  38.882  1.00  0.00    -0.346 N 
HETATM   43  C2  UNL     1      12.870  22.376  40.156  1.00  0.00     0.143 A 
ATOM     44  H1  UNL     1      13.380  22.714  38.213  1.00  0.00     0.167 HD
HETATM   45  N12 UNL     1      12.478  21.419  41.020  1.00  0.00    -0.346 N 
HETATM   46  C18 UNL     1      12.305  20.133  40.624  1.00  0.00     0.106 A 
ATOM     47  H12 UNL     1      12.308  21.668  41.994  1.00  0.00     0.167 HD
BRANCH  43  48
HETATM   48  S1  UNL     1      13.099  24.072  40.693  1.00  0.00    -0.098 SA
HETATM   49  C1  UNL     1      13.627  25.044  39.243  1.00  0.00     0.099 C 
ENDBRANCH  43  48
ENDBRANCH   1  40
TORSDOF 12
ENDMDL
MODEL 3
REMARK VINA RESULT: -6.917747618      3.223      4.363
REMARK  12 active torsions:
REMARK  status: ('A' for Active; 'I' for Inactive)
REMARK    1  A    between atoms: S1_2  and  C2_3 
REMARK    2  A    between atoms: C4_7  and  C5_8 
REMARK    3  A    between atoms: C7_14  and  N4_15 
REMARK    4  A    between atoms: N6_22  and  C10_24 
REMARK    5  A    between atoms: C10_24  and  C11_25 
REMARK    6  A    between atoms: C11_25  and  C12_26 
REMARK    7  A    between atoms: C12_26  and  O1_27 
REMARK    8  A    between atoms: N7_29  and  C13_30 
REMARK    9  A    between atoms: C13_30  and  C14_31 
REMARK   10  A    between atoms: C14_31  and  O2_32 
REMARK   11  A    between atoms: C14_31  and  C15_34 
REMARK       I    between atoms: C15_34  and  N8_36 
REMARK   12  A    between atoms: N8_36  and  N9_38 
ROOT
HETATM    1  C5  UNL     1      10.630  18.071  39.465  1.00  0.00     0.121 A 
HETATM    2  N2  UNL     1      10.942  16.764  39.492  1.00  0.00    -0.325 N 
ATOM      3  H2  UNL     1      11.606  16.344  40.143  1.00  0.00     0.169 HD
HETATM    4  C6  UNL     1      10.268  16.081  38.554  1.00  0.00     0.153 A 
HETATM    5  N3  UNL     1      10.346  14.741  38.304  1.00  0.00    -0.324 N 
ATOM      6  H3  UNL     1      10.702  14.177  39.075  1.00  0.00     0.169 HD
HETATM    7  C7  UNL     1      10.025  14.055  37.195  1.00  0.00     0.132 C 
HETATM    8  C8  UNL     1       9.208  14.452  36.145  1.00  0.00     0.137 A 
HETATM    9  N5  UNL     1       8.870  13.719  35.095  1.00  0.00    -0.184 N 
ATOM     10  H5  UNL     1       9.176  12.760  34.932  1.00  0.00     0.184 HD
HETATM   11  C9  UNL     1       8.040  14.440  34.248  1.00  0.00     0.682 A 
HETATM   12  N6  UNL     1       7.569  13.947  33.178  1.00  0.00    -0.226 N 
ATOM     13  H6  UNL     1       7.878  12.986  33.034  1.00  0.00     0.177 HD
HETATM   14  N7  UNL     1       7.906  15.635  34.848  1.00  0.00    -0.163 N 
HETATM   15  C16 UNL     1       8.613  15.676  36.022  1.00  0.00     0.156 A 
HETATM   16  N10 UNL     1       8.652  16.731  36.876  1.00  0.00    -0.323 N 
ATOM     17  H10 UNL     1       7.929  17.432  36.719  1.00  0.00     0.169 HD
HETATM   18  C17 UNL     1       9.486  17.007  37.894  1.00  0.00     0.153 A 
HETATM   19  N11 UNL     1       9.726  18.206  38.469  1.00  0.00    -0.325 N 
ATOM     20  H11 UNL     1       9.289  19.085  38.192  1.00  0.00     0.169 HD
ENDROOT
BRANCH  14  21
HETATM   21  C13 UNL     1       7.143  16.764  34.423  1.00  0.00     0.191 C 
BRANCH  21  22
HETATM   22  C14 UNL     1       7.861  17.851  33.704  1.00  0.00     0.230 C 
BRANCH  22  23
HETATM   23  O2  UNL     1       8.811  18.351  34.640  1.00  0.00    -0.384 OA
ATOM     24  H2  UNL     1       8.789  19.295  34.535  1.00  0.00     0.210 HD
ENDBRANCH  22  23
BRANCH  22  25
HETATM   25  C15 UNL     1       8.565  17.514  32.476  1.00  0.00     0.266 C 
HETATM   26  O3  UNL     1       7.921  17.474  31.370  1.00  0.00    -0.269 OA
HETATM   27  N8  UNL     1       9.968  17.205  32.386  1.00  0.00    -0.274 N 
ATOM     28  H8  UNL     1      10.531  17.221  33.236  1.00  0.00     0.189 HD
BRANCH  27  29
HETATM   29  N9  UNL     1      10.584  16.885  31.178  1.00  0.00    -0.343 N 
ATOM     30  H92 UNL     1      11.579  16.662  31.195  1.00  0.00     0.176 HD
ATOM     31  H91 UNL     1      10.075  16.869  30.294  1.00  0.00     0.176 HD
ENDBRANCH  27  29
ENDBRANCH  22  25
ENDBRANCH  21  22
ENDBRANCH  14  21
BRANCH  12  32
HETATM   32  C10 UNL     1       6.747  14.380  32.159  1.00  0.00     0.140 C 
BRANCH  32  33
HETATM   33  C11 UNL     1       7.391  14.265  30.769  1.00  0.00     0.046 C 
BRANCH  33  34
HETATM   34  C12 UNL     1       7.645  12.852  30.364  1.00  0.00     0.165 C 
BRANCH  34  35
HETATM   35  O1  UNL     1       8.935  12.423  30.658  1.00  0.00    -0.401 OA
ATOM     36  H1  UNL     1       9.539  13.138  30.812  1.00  0.00     0.209 HD
ENDBRANCH  34  35
ENDBRANCH  33  34
ENDBRANCH  32  33
ENDBRANCH  12  32
BRANCH   7  37
HETATM   37  N4  UNL     1      10.532  12.878  37.077  1.00  0.00    -0.383 N 
ATOM     38  H42 UNL     1       9.972  12.219  36.535  1.00  0.00     0.157 HD
ATOM     39  H41 UNL     1      11.432  12.719  37.528  1.00  0.00     0.157 HD
ENDBRANCH   7  37
BRANCH   1  40
HETATM   40  C4  UNL     1      11.138  19.147  40.307  1.00  0.00     0.039 A 
HETATM   41  C3  UNL     1      12.358  19.727  40.032  1.00  0.00     0.106 A 
HETATM   42  N1  UNL     1      12.820  20.724  40.816  1.00  0.00    -0.346 N 
HETATM   43  C2  UNL     1      12.146  21.201  41.878  1.00  0.00     0.143 A 
ATOM     44  H1  UNL     1      13.725  21.135  40.591  1.00  0.00     0.167 HD
HETATM   45  N12 UNL     1      10.953  20.640  42.153  1.00  0.00    -0.346 N 
HETATM   46  C18 UNL     1      10.448  19.635  41.394  1.00  0.00     0.106 A 
ATOM     47  H12 UNL     1      10.416  20.978  42.951  1.00  0.00     0.167 HD
BRANCH  43  48
HETATM   48  S1  UNL     1      12.803  22.526  42.892  1.00  0.00    -0.098 SA
HETATM   49  C1  UNL     1      14.461  22.019  43.458  1.00  0.00     0.099 C 
ENDBRANCH  43  48
ENDBRANCH   1  40
TORSDOF 12
ENDMDL
MODEL 4
REMARK VINA RESULT: -6.769787352      4.524     10.009
REMARK  12 active torsions:
REMARK  status: ('A' for Active; 'I' for Inactive)
REMARK    1  A    between atoms: S1_2  and  C2_3 
REMARK    2  A    between atoms: C4_7  and  C5_8 
REMARK    3  A    between atoms: C7_14  and  N4_15 
REMARK    4  A    between atoms: N6_22  and  C10_24 
REMARK    5  A    between atoms: C10_24  and  C11_25 
REMARK    6  A    between atoms: C11_25  and  C12_26 
REMARK    7  A    between atoms: C12_26  and  O1_27 
REMARK    8  A    between atoms: N7_29  and  C13_30 
REMARK    9  A    between atoms: C13_30  and  C14_31 
REMARK   10  A    between atoms: C14_31  and  O2_32 
REMARK   11  A    between atoms: C14_31  and  C15_34 
REMARK       I    between atoms: C15_34  and  N8_36 
REMARK   12  A    between atoms: N8_36  and  N9_38 
ROOT
HETATM    1  C5  UNL     1       8.281  14.636  36.941  1.00  0.00     0.121 A 
HETATM    2  N2  UNL     1       9.590  14.337  37.002  1.00  0.00    -0.325 N 
ATOM      3  H2  UNL     1       9.986  13.433  36.746  1.00  0.00     0.169 HD
HETATM    4  C6  UNL     1      10.310  15.381  37.441  1.00  0.00     0.153 A 
HETATM    5  N3  UNL     1      11.662  15.423  37.624  1.00  0.00    -0.324 N 
ATOM      6  H3  UNL     1      12.191  14.724  37.103  1.00  0.00     0.169 HD
HETATM    7  C7  UNL     1      12.400  16.246  38.386  1.00  0.00     0.132 C 
HETATM    8  C8  UNL     1      12.044  17.483  38.910  1.00  0.00     0.137 A 
HETATM    9  N5  UNL     1      12.826  18.291  39.611  1.00  0.00    -0.184 N 
ATOM     10  H5  UNL     1      13.797  18.095  39.853  1.00  0.00     0.184 HD
HETATM   11  C9  UNL     1      12.136  19.440  39.970  1.00  0.00     0.682 A 
HETATM   12  N6  UNL     1      12.676  20.375  40.635  1.00  0.00    -0.226 N 
ATOM     13  H6  UNL     1      13.649  20.169  40.861  1.00  0.00     0.177 HD
HETATM   14  N7  UNL     1      10.909  19.271  39.449  1.00  0.00    -0.163 N 
HETATM   15  C16 UNL     1      10.819  18.073  38.787  1.00  0.00     0.156 A 
HETATM   16  N10 UNL     1       9.720  17.625  38.124  1.00  0.00    -0.323 N 
ATOM     17  H10 UNL     1       9.016  18.339  37.938  1.00  0.00     0.169 HD
HETATM   18  C17 UNL     1       9.406  16.399  37.673  1.00  0.00     0.153 A 
HETATM   19  N11 UNL     1       8.183  15.918  37.360  1.00  0.00    -0.325 N 
ATOM     20  H11 UNL     1       7.312  16.444  37.429  1.00  0.00     0.169 HD
ENDROOT
BRANCH  14  21
HETATM   21  C13 UNL     1       9.791  20.156  39.498  1.00  0.00     0.191 C 
BRANCH  21  22
HETATM   22  C14 UNL     1       8.938  20.123  40.717  1.00  0.00     0.230 C 
BRANCH  22  23
HETATM   23  O2  UNL     1       8.200  21.341  40.686  1.00  0.00    -0.384 OA
ATOM     24  H2  UNL     1       7.417  21.168  41.196  1.00  0.00     0.210 HD
ENDBRANCH  22  23
BRANCH  22  25
HETATM   25  C15 UNL     1       7.999  19.023  40.868  1.00  0.00     0.266 C 
HETATM   26  O3  UNL     1       7.345  18.606  39.850  1.00  0.00    -0.269 OA
HETATM   27  N8  UNL     1       7.721  18.338  42.103  1.00  0.00    -0.274 N 
ATOM     28  H8  UNL     1       8.212  18.628  42.948  1.00  0.00     0.189 HD
BRANCH  27  29
HETATM   29  N9  UNL     1       6.804  17.292  42.184  1.00  0.00    -0.343 N 
ATOM     30  H92 UNL     1       7.017  16.431  41.680  1.00  0.00     0.176 HD
ATOM     31  H91 UNL     1       5.941  17.364  42.724  1.00  0.00     0.176 HD
ENDBRANCH  27  29
ENDBRANCH  22  25
ENDBRANCH  21  22
ENDBRANCH  14  21
BRANCH  12  32
HETATM   32  C10 UNL     1      12.283  21.600  41.131  1.00  0.00     0.140 C 
BRANCH  32  33
HETATM   33  C11 UNL     1      11.953  21.570  42.632  1.00  0.00     0.046 C 
BRANCH  33  34
HETATM   34  C12 UNL     1      13.166  21.679  43.494  1.00  0.00     0.165 C 
BRANCH  34  35
HETATM   35  O1  UNL     1      14.351  21.475  42.796  1.00  0.00    -0.401 OA
ATOM     36  H1  UNL     1      14.737  22.281  42.474  1.00  0.00     0.209 HD
ENDBRANCH  34  35
ENDBRANCH  33  34
ENDBRANCH  32  33
ENDBRANCH  12  32
BRANCH   7  37
HETATM   37  N4  UNL     1      13.590  15.853  38.677  1.00  0.00    -0.383 N 
ATOM     38  H42 UNL     1      13.741  14.846  38.612  1.00  0.00     0.157 HD
ATOM     39  H41 UNL     1      14.260  16.575  38.941  1.00  0.00     0.157 HD
ENDBRANCH   7  37
BRANCH   1  40
HETATM   40  C4  UNL     1       7.171  13.789  36.523  1.00  0.00     0.039 A 
HETATM   41  C3  UNL     1       5.874  14.248  36.615  1.00  0.00     0.106 A 
HETATM   42  N1  UNL     1       4.853  13.458  36.225  1.00  0.00    -0.346 N 
HETATM   43  C2  UNL     1       5.024  12.216  35.736  1.00  0.00     0.143 A 
ATOM     44  H1  UNL     1       3.903  13.821  36.304  1.00  0.00     0.167 HD
HETATM   45  N12 UNL     1       6.288  11.760  35.642  1.00  0.00    -0.346 N 
HETATM   46  C18 UNL     1       7.347  12.519  36.023  1.00  0.00     0.106 A 
ATOM     47  H12 UNL     1       6.453  10.823  35.275  1.00  0.00     0.167 HD
BRANCH  43  48
HETATM   48  S1  UNL     1       3.633  11.203  35.233  1.00  0.00    -0.098 SA
HETATM   49  C1  UNL     1       2.367  12.311  34.528  1.00  0.00     0.099 C 
ENDBRANCH  43  48
ENDBRANCH   1  40
TORSDOF 12
ENDMDL
MODEL 5
REMARK VINA RESULT: -6.727301111      4.599      9.952
REMARK  12 active torsions:
REMARK  status: ('A' for Active; 'I' for Inactive)
REMARK    1  A    between atoms: S1_2  and  C2_3 
REMARK    2  A    between atoms: C4_7  and  C5_8 
REMARK    3  A    between atoms: C7_14  and  N4_15 
REMARK    4  A    between atoms: N6_22  and  C10_24 
REMARK    5  A    between atoms: C10_24  and  C11_25 
REMARK    6  A    between atoms: C11_25  and  C12_26 
REMARK    7  A    between atoms: C12_26  and  O1_27 
REMARK    8  A    between atoms: N7_29  and  C13_30 
REMARK    9  A    between atoms: C13_30  and  C14_31 
REMARK   10  A    between atoms: C14_31  and  O2_32 
REMARK   11  A    between atoms: C14_31  and  C15_34 
REMARK       I    between atoms: C15_34  and  N8_36 
REMARK   12  A    between atoms: N8_36  and  N9_38 
ROOT
HETATM    1  C5  UNL     1       8.372  14.716  36.974  1.00  0.00     0.121 A 
HETATM    2  N2  UNL     1       9.679  14.419  37.064  1.00  0.00    -0.325 N 
ATOM      3  H2  UNL     1      10.079  13.507  36.842  1.00  0.00     0.169 HD
HETATM    4  C6  UNL     1      10.393  15.476  37.483  1.00  0.00     0.153 A 
HETATM    5  N3  UNL     1      11.742  15.523  37.685  1.00  0.00    -0.324 N 
ATOM      6  H3  UNL     1      12.279  14.808  37.193  1.00  0.00     0.169 HD
HETATM    7  C7  UNL     1      12.469  16.368  38.434  1.00  0.00     0.132 C 
HETATM    8  C8  UNL     1      12.106  17.620  38.915  1.00  0.00     0.137 A 
HETATM    9  N5  UNL     1      12.878  18.448  39.603  1.00  0.00    -0.184 N 
ATOM     10  H5  UNL     1      13.845  18.259  39.865  1.00  0.00     0.184 HD
HETATM   11  C9  UNL     1      12.184  19.607  39.917  1.00  0.00     0.682 A 
HETATM   12  N6  UNL     1      12.714  20.563  40.562  1.00  0.00    -0.226 N 
ATOM     13  H6  UNL     1      13.683  20.363  40.808  1.00  0.00     0.177 HD
HETATM   14  N7  UNL     1      10.964  19.423  39.382  1.00  0.00    -0.163 N 
HETATM   15  C16 UNL     1      10.884  18.206  38.755  1.00  0.00     0.156 A 
HETATM   16  N10 UNL     1       9.795  17.739  38.089  1.00  0.00    -0.323 N 
ATOM     17  H10 UNL     1       9.094  18.447  37.871  1.00  0.00     0.169 HD
HETATM   18  C17 UNL     1       9.487  16.500  37.671  1.00  0.00     0.153 A 
HETATM   19  N11 UNL     1       8.268  16.010  37.353  1.00  0.00    -0.325 N 
ATOM     20  H11 UNL     1       7.396  16.539  37.393  1.00  0.00     0.169 HD
ENDROOT
BRANCH  14  21
HETATM   21  C13 UNL     1       9.847  20.310  39.387  1.00  0.00     0.191 C 
BRANCH  21  22
HETATM   22  C14 UNL     1       8.842  20.147  40.473  1.00  0.00     0.230 C 
BRANCH  22  23
HETATM   23  O2  UNL     1       8.063  19.018  40.091  1.00  0.00    -0.384 OA
ATOM     24  H2  UNL     1       7.160  19.287  40.212  1.00  0.00     0.210 HD
ENDBRANCH  22  23
BRANCH  22  25
HETATM   25  C15 UNL     1       9.324  19.933  41.828  1.00  0.00     0.266 C 
HETATM   26  O3  UNL     1       9.423  20.928  42.628  1.00  0.00    -0.269 OA
HETATM   27  N8  UNL     1       9.720  18.661  42.373  1.00  0.00    -0.274 N 
ATOM     28  H8  UNL     1       9.662  17.833  41.781  1.00  0.00     0.189 HD
BRANCH  27  29
HETATM   29  N9  UNL     1      10.178  18.521  43.681  1.00  0.00    -0.343 N 
ATOM     30  H92 UNL     1       9.622  18.938  44.428  1.00  0.00     0.176 HD
ATOM     31  H91 UNL     1      11.039  18.023  43.907  1.00  0.00     0.176 HD
ENDBRANCH  27  29
ENDBRANCH  22  25
ENDBRANCH  21  22
ENDBRANCH  14  21
BRANCH  12  32
HETATM   32  C10 UNL     1      12.314  21.802  41.014  1.00  0.00     0.140 C 
BRANCH  32  33
HETATM   33  C11 UNL     1      12.877  22.963  40.180  1.00  0.00     0.046 C 
BRANCH  33  34
HETATM   34  C12 UNL     1      12.079  23.231  38.949  1.00  0.00     0.165 C 
BRANCH  34  35
HETATM   35  O1  UNL     1      12.391  22.375  37.899  1.00  0.00    -0.401 OA
ATOM     36  H1  UNL     1      12.061  22.677  37.061  1.00  0.00     0.209 HD
ENDBRANCH  34  35
ENDBRANCH  33  34
ENDBRANCH  32  33
ENDBRANCH  12  32
BRANCH   7  37
HETATM   37  N4  UNL     1      13.654  15.983  38.754  1.00  0.00    -0.383 N 
ATOM     38  H42 UNL     1      14.219  15.632  37.981  1.00  0.00     0.157 HD
ATOM     39  H41 UNL     1      13.913  16.065  39.738  1.00  0.00     0.157 HD
ENDBRANCH   7  37
BRANCH   1  40
HETATM   40  C4  UNL     1       7.268  13.857  36.565  1.00  0.00     0.039 A 
HETATM   41  C3  UNL     1       5.967  14.301  36.670  1.00  0.00     0.106 A 
HETATM   42  N1  UNL     1       4.951  13.500  36.287  1.00  0.00    -0.346 N 
HETATM   43  C2  UNL     1       5.131  12.262  35.796  1.00  0.00     0.143 A 
ATOM     44  H1  UNL     1       3.997  13.853  36.375  1.00  0.00     0.167 HD
HETATM   45  N12 UNL     1       6.399  11.820  35.689  1.00  0.00    -0.346 N 
HETATM   46  C18 UNL     1       7.453  12.590  36.062  1.00  0.00     0.106 A 
ATOM     47  H12 UNL     1       6.571  10.885  35.320  1.00  0.00     0.167 HD
BRANCH  43  48
HETATM   48  S1  UNL     1       3.747  11.233  35.303  1.00  0.00    -0.098 SA
HETATM   49  C1  UNL     1       2.520  12.309  34.490  1.00  0.00     0.099 C 
ENDBRANCH  43  48
ENDBRANCH   1  40
TORSDOF 12
ENDMDL
