MODEL 1
REMARK VINA RESULT: -7.399516692      0.000      0.000
REMARK  11 active torsions:
REMARK  status: ('A' for Active; 'I' for Inactive)
REMARK    1  A    between atoms: C5_8  and  O1_9 
REMARK    2  A    between atoms: N3_12  and  C7_13 
REMARK    3  A    between atoms: C7_13  and  C8_14 
REMARK    4  A    between atoms: C8_14  and  N4_15 
REMARK    5  A    between atoms: N7_23  and  C12_25 
REMARK    6  A    between atoms: C12_25  and  C13_26 
REMARK    7  A    between atoms: C13_26  and  O2_27 
REMARK    8  A    between atoms: O2_27  and  N8_28 
REMARK    9  A    between atoms: C17_36  and  N11_37 
REMARK   10  A    between atoms: C19_41  and  C20_42 
REMARK   11  A    between atoms: C20_42  and  O3_43 
ROOT
HETATM    1  N1  UNL     1      11.619  11.099  36.480  1.00  0.00    -0.188 NA
HETATM    2  C1  UNL     1      10.543  11.518  36.461  1.00  0.00     0.137 C 
HETATM    3  C2  UNL     1       9.210  12.038  36.412  1.00  0.00     0.191 A 
HETATM    4  N2  UNL     1       8.203  11.319  36.922  1.00  0.00    -0.319 N 
ATOM      5  H2  UNL     1       8.403  10.410  37.338  1.00  0.00     0.169 HD
HETATM    6  C3  UNL     1       6.934  11.763  36.901  1.00  0.00     0.126 A 
HETATM    7  C4  UNL     1       6.672  12.988  36.338  1.00  0.00     0.086 A 
HETATM    8  C5  UNL     1       5.321  13.231  36.429  1.00  0.00     0.099 A 
HETATM    9  C6  UNL     1       4.802  12.106  37.062  1.00  0.00     0.130 A 
HETATM   10  N3  UNL     1       5.762  11.233  37.344  1.00  0.00    -0.338 N 
HETATM   11  C11 UNL     1       7.733  13.727  35.810  1.00  0.00     0.120 A 
HETATM   12  N7  UNL     1       7.437  14.848  35.296  1.00  0.00    -0.373 N 
ATOM     13  H7  UNL     1       6.462  15.146  35.294  1.00  0.00     0.161 HD
HETATM   14  N12 UNL     1       8.983  13.235  35.857  1.00  0.00    -0.319 N 
ATOM     15  H12 UNL     1       9.758  13.774  35.471  1.00  0.00     0.169 HD
ENDROOT
BRANCH  10  16
HETATM   16  C7  UNL     1       5.682   9.949  37.991  1.00  0.00     0.152 C 
BRANCH  16  17
HETATM   17  C8  UNL     1       5.317  10.074  39.453  1.00  0.00     0.170 C 
BRANCH  17  18
HETATM   18  N4  UNL     1       4.227   9.200  39.808  1.00  0.00    -0.285 N 
HETATM   19  C9  UNL     1       2.932   9.441  39.974  1.00  0.00     0.201 A 
HETATM   20  N5  UNL     1       2.257   8.313  40.312  1.00  0.00    -0.346 N 
HETATM   21  C10 UNL     1       3.188   7.354  40.349  1.00  0.00     0.198 A 
ATOM     22  H5  UNL     1       1.259   8.219  40.498  1.00  0.00     0.167 HD
HETATM   23  N6  UNL     1       4.394   7.898  40.040  1.00  0.00    -0.293 N 
ATOM     24  H6  UNL     1       5.279   7.395  39.994  1.00  0.00     0.188 HD
ENDBRANCH  17  18
ENDBRANCH  16  17
ENDBRANCH  10  16
BRANCH  12  25
HETATM   25  C12 UNL     1       8.425  15.712  34.718  1.00  0.00     0.149 C 
BRANCH  25  26
HETATM   26  C13 UNL     1       8.756  16.826  35.722  1.00  0.00     0.213 C 
BRANCH  26  27
HETATM   27  O2  UNL     1       9.875  16.469  36.449  1.00  0.00    -0.301 OA
BRANCH  27  28
HETATM   28  N8  UNL     1       9.504  16.057  37.692  1.00  0.00    -0.186 NA
HETATM   29  C14 UNL     1      10.620  15.307  38.288  1.00  0.00     0.165 C 
HETATM   30  C15 UNL     1      11.723  16.272  38.530  1.00  0.00     0.026 A 
HETATM   31  C16 UNL     1      11.355  17.401  39.253  1.00  0.00     0.038 A 
HETATM   32  C17 UNL     1      13.053  16.335  38.201  1.00  0.00     0.123 A 
HETATM   33  N9  UNL     1      12.475  18.128  39.347  1.00  0.00    -0.303 N 
HETATM   34  C18 UNL     1       9.941  17.440  39.668  1.00  0.00     0.083 C 
HETATM   35  N10 UNL     1      13.479  17.514  38.735  1.00  0.00    -0.285 N 
ATOM     36  H9  UNL     1      12.546  19.028  39.822  1.00  0.00     0.186 HD
ATOM     37  H10 UNL     1      14.432  17.872  38.672  1.00  0.00     0.188 HD
HETATM   38  C19 UNL     1       9.094  17.184  38.445  1.00  0.00     0.115 C 
BRANCH  38  39
HETATM   39  C20 UNL     1       7.634  17.010  38.823  1.00  0.00     0.186 C 
BRANCH  39  40
HETATM   40  O3  UNL     1       7.253  15.742  38.359  1.00  0.00    -0.399 OA
ATOM     41  H3  UNL     1       7.444  15.729  37.428  1.00  0.00     0.209 HD
ENDBRANCH  39  40
ENDBRANCH  38  39
BRANCH  32  42
HETATM   42  N11 UNL     1      13.752  15.463  37.529  1.00  0.00    -0.384 N 
ATOM     43 2H11 UNL     1      14.001  15.489  36.540  1.00  0.00     0.157 HD
ATOM     44 1H11 UNL     1      14.172  14.600  37.873  1.00  0.00     0.157 HD
ENDBRANCH  32  42
ENDBRANCH  27  28
ENDBRANCH  26  27
ENDBRANCH  25  26
ENDBRANCH  12  25
BRANCH   8  45
HETATM   45  O1  UNL     1       4.589  14.308  36.012  1.00  0.00    -0.358 OA
ATOM     46  H1  UNL     1       3.663  14.498  36.117  1.00  0.00     0.217 HD
ENDBRANCH   8  45
TORSDOF 11
ENDMDL
MODEL 2
REMARK VINA RESULT: -7.394086581      2.931      8.579
REMARK  11 active torsions:
REMARK  status: ('A' for Active; 'I' for Inactive)
REMARK    1  A    between atoms: C5_8  and  O1_9 
REMARK    2  A    between atoms: N3_12  and  C7_13 
REMARK    3  A    between atoms: C7_13  and  C8_14 
REMARK    4  A    between atoms: C8_14  and  N4_15 
REMARK    5  A    between atoms: N7_23  and  C12_25 
REMARK    6  A    between atoms: C12_25  and  C13_26 
REMARK    7  A    between atoms: C13_26  and  O2_27 
REMARK    8  A    between atoms: O2_27  and  N8_28 
REMARK    9  A    between atoms: C17_36  and  N11_37 
REMARK   10  A    between atoms: C19_41  and  C20_42 
REMARK   11  A    between atoms: C20_42  and  O3_43 
ROOT
HETATM    1  N1  UNL     1      14.006  15.670  38.213  1.00  0.00    -0.188 NA
HETATM    2  C1  UNL     1      12.929  16.083  38.243  1.00  0.00     0.137 C 
HETATM    3  C2  UNL     1      11.583  16.573  38.276  1.00  0.00     0.191 A 
HETATM    4  N2  UNL     1      11.129  17.179  39.380  1.00  0.00    -0.319 N 
ATOM      5  H2  UNL     1      11.752  17.283  40.181  1.00  0.00     0.169 HD
HETATM    6  C3  UNL     1       9.875  17.656  39.460  1.00  0.00     0.126 A 
HETATM    7  C4  UNL     1       9.042  17.513  38.378  1.00  0.00     0.086 A 
HETATM    8  C5  UNL     1       7.823  18.069  38.686  1.00  0.00     0.099 A 
HETATM    9  C6  UNL     1       7.970  18.542  39.987  1.00  0.00     0.130 A 
HETATM   10  N3  UNL     1       9.192  18.297  40.448  1.00  0.00    -0.338 N 
HETATM   11  C11 UNL     1       9.530  16.878  37.233  1.00  0.00     0.120 A 
HETATM   12  N7  UNL     1       8.719  16.766  36.263  1.00  0.00    -0.373 N 
ATOM     13  H7  UNL     1       7.775  17.135  36.367  1.00  0.00     0.161 HD
HETATM   14  N12 UNL     1      10.793  16.420  37.206  1.00  0.00    -0.319 N 
ATOM     15  H12 UNL     1      11.149  15.955  36.370  1.00  0.00     0.169 HD
ENDROOT
BRANCH  10  16
HETATM   16  C7  UNL     1       9.777  18.609  41.725  1.00  0.00     0.152 C 
BRANCH  16  17
HETATM   17  C8  UNL     1       9.942  20.099  41.924  1.00  0.00     0.170 C 
BRANCH  17  18
HETATM   18  N4  UNL     1      10.926  20.651  41.028  1.00  0.00    -0.285 N 
HETATM   19  C9  UNL     1      12.217  20.381  40.875  1.00  0.00     0.201 A 
HETATM   20  N5  UNL     1      12.772  21.149  39.904  1.00  0.00    -0.346 N 
HETATM   21  C10 UNL     1      11.771  21.913  39.455  1.00  0.00     0.198 A 
ATOM     22  H5  UNL     1      13.741  21.146  39.587  1.00  0.00     0.167 HD
HETATM   23  N6  UNL     1      10.641  21.607  40.145  1.00  0.00    -0.293 N 
ATOM     24  H6  UNL     1       9.726  22.038  40.010  1.00  0.00     0.188 HD
ENDBRANCH  17  18
ENDBRANCH  16  17
ENDBRANCH  10  16
BRANCH  12  25
HETATM   25  C12 UNL     1       9.085  16.137  35.027  1.00  0.00     0.149 C 
BRANCH  25  26
HETATM   26  C13 UNL     1       7.913  15.265  34.552  1.00  0.00     0.213 C 
BRANCH  26  27
HETATM   27  O2  UNL     1       8.272  13.933  34.631  1.00  0.00    -0.301 OA
BRANCH  27  28
HETATM   28  N8  UNL     1       8.483  13.591  35.932  1.00  0.00    -0.186 NA
HETATM   29  C14 UNL     1       7.177  13.383  36.576  1.00  0.00     0.165 C 
HETATM   30  C15 UNL     1       6.570  12.173  35.967  1.00  0.00     0.026 A 
HETATM   31  C16 UNL     1       7.387  11.048  35.977  1.00  0.00     0.038 A 
HETATM   32  C17 UNL     1       5.370  11.878  35.370  1.00  0.00     0.123 A 
HETATM   33  N9  UNL     1       6.663  10.092  35.383  1.00  0.00    -0.303 N 
HETATM   34  C18 UNL     1       8.707  11.244  36.604  1.00  0.00     0.083 C 
HETATM   35  N10 UNL     1       5.478  10.566  35.022  1.00  0.00    -0.285 N 
ATOM     36  H9  UNL     1       6.979   9.134  35.229  1.00  0.00     0.186 HD
ATOM     37  H10 UNL     1       4.751  10.026  34.552  1.00  0.00     0.188 HD
HETATM   38  C19 UNL     1       9.339  12.464  35.977  1.00  0.00     0.115 C 
BRANCH  38  39
HETATM   39  C20 UNL     1      10.613  12.850  36.705  1.00  0.00     0.186 C 
BRANCH  39  40
HETATM   40  O3  UNL     1      11.238  13.830  35.918  1.00  0.00    -0.399 OA
ATOM     41  H3  UNL     1      12.158  13.595  35.879  1.00  0.00     0.209 HD
ENDBRANCH  39  40
ENDBRANCH  38  39
BRANCH  32  42
HETATM   42  N11 UNL     1       4.357  12.677  35.178  1.00  0.00    -0.384 N 
ATOM     43 2H11 UNL     1       4.332  13.691  35.280  1.00  0.00     0.157 HD
ATOM     44 1H11 UNL     1       3.411  12.427  34.892  1.00  0.00     0.157 HD
ENDBRANCH  32  42
ENDBRANCH  27  28
ENDBRANCH  26  27
ENDBRANCH  25  26
ENDBRANCH  12  25
BRANCH   8  45
HETATM   45  O1  UNL     1       6.684  18.169  37.937  1.00  0.00    -0.358 OA
ATOM     46  H1  UNL     1       5.927  17.596  37.892  1.00  0.00     0.217 HD
ENDBRANCH   8  45
TORSDOF 11
ENDMDL
MODEL 3
REMARK VINA RESULT: -7.300192548      3.029      7.715
REMARK  11 active torsions:
REMARK  status: ('A' for Active; 'I' for Inactive)
REMARK    1  A    between atoms: C5_8  and  O1_9 
REMARK    2  A    between atoms: N3_12  and  C7_13 
REMARK    3  A    between atoms: C7_13  and  C8_14 
REMARK    4  A    between atoms: C8_14  and  N4_15 
REMARK    5  A    between atoms: N7_23  and  C12_25 
REMARK    6  A    between atoms: C12_25  and  C13_26 
REMARK    7  A    between atoms: C13_26  and  O2_27 
REMARK    8  A    between atoms: O2_27  and  N8_28 
REMARK    9  A    between atoms: C17_36  and  N11_37 
REMARK   10  A    between atoms: C19_41  and  C20_42 
REMARK   11  A    between atoms: C20_42  and  O3_43 
ROOT
HETATM    1  N1  UNL     1       8.384  18.124  33.350  1.00  0.00    -0.188 NA
HETATM    2  C1  UNL     1       8.157  17.934  34.466  1.00  0.00     0.137 C 
HETATM    3  C2  UNL     1       7.881  17.673  35.847  1.00  0.00     0.191 A 
HETATM    4  N2  UNL     1       8.607  18.284  36.791  1.00  0.00    -0.319 N 
ATOM      5  H2  UNL     1       9.347  18.926  36.510  1.00  0.00     0.169 HD
HETATM    6  C3  UNL     1       8.387  18.073  38.101  1.00  0.00     0.126 A 
HETATM    7  C4  UNL     1       7.388  17.206  38.472  1.00  0.00     0.086 A 
HETATM    8  C5  UNL     1       7.347  17.149  39.845  1.00  0.00     0.099 A 
HETATM    9  C6  UNL     1       8.356  18.010  40.265  1.00  0.00     0.130 A 
HETATM   10  N3  UNL     1       8.975  18.561  39.227  1.00  0.00    -0.338 N 
HETATM   11  C11 UNL     1       6.639  16.577  37.475  1.00  0.00     0.120 A 
HETATM   12  N7  UNL     1       5.733  15.781  37.871  1.00  0.00    -0.373 N 
ATOM     13  H7  UNL     1       5.602  15.644  38.873  1.00  0.00     0.161 HD
HETATM   14  N12 UNL     1       6.901  16.823  36.181  1.00  0.00    -0.319 N 
ATOM     15  H12 UNL     1       6.355  16.363  35.453  1.00  0.00     0.169 HD
ENDROOT
BRANCH  10  16
HETATM   16  C7  UNL     1      10.063  19.503  39.193  1.00  0.00     0.152 C 
BRANCH  16  17
HETATM   17  C8  UNL     1      11.260  19.013  39.976  1.00  0.00     0.170 C 
BRANCH  17  18
HETATM   18  N4  UNL     1      12.064  18.098  39.206  1.00  0.00    -0.285 N 
HETATM   19  C9  UNL     1      12.939  18.312  38.231  1.00  0.00     0.201 A 
HETATM   20  N5  UNL     1      13.472  17.149  37.779  1.00  0.00    -0.346 N 
HETATM   21  C10 UNL     1      12.893  16.196  38.517  1.00  0.00     0.198 A 
ATOM     22  H5  UNL     1      14.163  17.028  37.040  1.00  0.00     0.167 HD
HETATM   23  N6  UNL     1      12.030  16.778  39.390  1.00  0.00    -0.293 N 
ATOM     24  H6  UNL     1      11.453  16.288  40.072  1.00  0.00     0.188 HD
ENDBRANCH  17  18
ENDBRANCH  16  17
ENDBRANCH  10  16
BRANCH  12  25
HETATM   25  C12 UNL     1       4.887  15.068  36.959  1.00  0.00     0.149 C 
BRANCH  25  26
HETATM   26  C13 UNL     1       5.091  13.560  37.172  1.00  0.00     0.213 C 
BRANCH  26  27
HETATM   27  O2  UNL     1       6.434  13.260  37.061  1.00  0.00    -0.301 OA
BRANCH  27  28
HETATM   28  N8  UNL     1       6.667  12.627  35.879  1.00  0.00    -0.186 NA
HETATM   29  C14 UNL     1       7.774  13.311  35.194  1.00  0.00     0.165 C 
HETATM   30  C15 UNL     1       9.004  13.073  35.992  1.00  0.00     0.026 A 
HETATM   31  C16 UNL     1       9.259  11.736  36.276  1.00  0.00     0.038 A 
HETATM   32  C17 UNL     1       9.977  13.866  36.544  1.00  0.00     0.123 A 
HETATM   33  N9  UNL     1      10.386  11.747  36.998  1.00  0.00    -0.303 N 
HETATM   34  C18 UNL     1       8.277  10.785  35.724  1.00  0.00     0.083 C 
HETATM   35  N10 UNL     1      10.818  12.991  37.162  1.00  0.00    -0.285 N 
ATOM     36  H9  UNL     1      10.847  10.917  37.369  1.00  0.00     0.186 HD
ATOM     37  H10 UNL     1      11.659  13.254  37.677  1.00  0.00     0.188 HD
HETATM   38  C19 UNL     1       6.901  11.253  36.133  1.00  0.00     0.115 C 
BRANCH  38  39
HETATM   39  C20 UNL     1       5.823  10.441  35.439  1.00  0.00     0.186 C 
BRANCH  39  40
HETATM   40  O3  UNL     1       6.489   9.473  34.672  1.00  0.00    -0.399 OA
ATOM     41  H3  UNL     1       5.918   8.714  34.644  1.00  0.00     0.209 HD
ENDBRANCH  39  40
ENDBRANCH  38  39
BRANCH  32  42
HETATM   42  N11 UNL     1      10.074  15.165  36.490  1.00  0.00    -0.384 N 
ATOM     43 2H11 UNL     1      10.795  15.758  36.904  1.00  0.00     0.157 HD
ATOM     44 1H11 UNL     1       9.445  15.819  36.025  1.00  0.00     0.157 HD
ENDBRANCH  32  42
ENDBRANCH  27  28
ENDBRANCH  26  27
ENDBRANCH  25  26
ENDBRANCH  12  25
BRANCH   8  45
HETATM   45  O1  UNL     1       6.530  16.431  40.674  1.00  0.00    -0.358 OA
ATOM     46  H1  UNL     1       6.244  16.613  41.562  1.00  0.00     0.217 HD
ENDBRANCH   8  45
TORSDOF 11
ENDMDL
MODEL 4
REMARK VINA RESULT: -7.272127850      3.740      8.521
REMARK  11 active torsions:
REMARK  status: ('A' for Active; 'I' for Inactive)
REMARK    1  A    between atoms: C5_8  and  O1_9 
REMARK    2  A    between atoms: N3_12  and  C7_13 
REMARK    3  A    between atoms: C7_13  and  C8_14 
REMARK    4  A    between atoms: C8_14  and  N4_15 
REMARK    5  A    between atoms: N7_23  and  C12_25 
REMARK    6  A    between atoms: C12_25  and  C13_26 
REMARK    7  A    between atoms: C13_26  and  O2_27 
REMARK    8  A    between atoms: O2_27  and  N8_28 
REMARK    9  A    between atoms: C17_36  and  N11_37 
REMARK   10  A    between atoms: C19_41  and  C20_42 
REMARK   11  A    between atoms: C20_42  and  O3_43 
ROOT
HETATM    1  N1  UNL     1      13.738  12.451  35.804  1.00  0.00    -0.188 NA
HETATM    2  C1  UNL     1      12.850  13.091  36.173  1.00  0.00     0.137 C 
HETATM    3  C2  UNL     1      11.741  13.865  36.642  1.00  0.00     0.191 A 
HETATM    4  N2  UNL     1      11.966  14.961  37.377  1.00  0.00    -0.319 N 
ATOM      5  H2  UNL     1      12.927  15.226  37.591  1.00  0.00     0.169 HD
HETATM    6  C3  UNL     1      10.958  15.721  37.842  1.00  0.00     0.126 A 
HETATM    7  C4  UNL     1       9.667  15.356  37.550  1.00  0.00     0.086 A 
HETATM    8  C5  UNL     1       8.814  16.271  38.122  1.00  0.00     0.099 A 
HETATM    9  C6  UNL     1       9.651  17.182  38.760  1.00  0.00     0.130 A 
HETATM   10  N3  UNL     1      10.927  16.856  38.592  1.00  0.00    -0.338 N 
HETATM   11  C11 UNL     1       9.448  14.210  36.781  1.00  0.00     0.120 A 
HETATM   12  N7  UNL     1       8.237  13.914  36.546  1.00  0.00    -0.373 N 
ATOM     13  H7  UNL     1       7.502  14.513  36.921  1.00  0.00     0.161 HD
HETATM   14  N12 UNL     1      10.492  13.487  36.343  1.00  0.00    -0.319 N 
ATOM     15  H12 UNL     1      10.332  12.650  35.783  1.00  0.00     0.169 HD
ENDROOT
BRANCH  10  16
HETATM   16  C7  UNL     1      12.119  17.508  39.069  1.00  0.00     0.152 C 
BRANCH  16  17
HETATM   17  C8  UNL     1      12.697  18.453  38.039  1.00  0.00     0.170 C 
BRANCH  17  18
HETATM   18  N4  UNL     1      12.747  19.808  38.527  1.00  0.00    -0.285 N 
HETATM   19  C9  UNL     1      12.293  20.350  39.650  1.00  0.00     0.201 A 
HETATM   20  N5  UNL     1      12.558  21.679  39.702  1.00  0.00    -0.346 N 
HETATM   21  C10 UNL     1      13.200  21.947  38.560  1.00  0.00     0.198 A 
ATOM     22  H5  UNL     1      12.319  22.332  40.448  1.00  0.00     0.167 HD
HETATM   23  N6  UNL     1      13.315  20.800  37.841  1.00  0.00    -0.293 N 
ATOM     24  H6  UNL     1      13.761  20.712  36.928  1.00  0.00     0.188 HD
ENDBRANCH  17  18
ENDBRANCH  16  17
ENDBRANCH  10  16
BRANCH  12  25
HETATM   25  C12 UNL     1       7.865  12.767  35.770  1.00  0.00     0.149 C 
BRANCH  25  26
HETATM   26  C13 UNL     1       7.038  13.234  34.563  1.00  0.00     0.213 C 
BRANCH  26  27
HETATM   27  O2  UNL     1       7.887  13.529  33.513  1.00  0.00    -0.301 OA
BRANCH  27  28
HETATM   28  N8  UNL     1       7.158  13.846  32.408  1.00  0.00    -0.186 NA
HETATM   29  C14 UNL     1       6.395  15.072  32.689  1.00  0.00     0.165 C 
HETATM   30  C15 UNL     1       7.372  16.182  32.821  1.00  0.00     0.026 A 
HETATM   31  C16 UNL     1       8.258  16.303  31.756  1.00  0.00     0.038 A 
HETATM   32  C17 UNL     1       7.635  17.143  33.764  1.00  0.00     0.123 A 
HETATM   33  N9  UNL     1       9.042  17.339  32.077  1.00  0.00    -0.303 N 
HETATM   34  C18 UNL     1       8.065  15.321  30.673  1.00  0.00     0.083 C 
HETATM   35  N10 UNL     1       8.687  17.841  33.253  1.00  0.00    -0.285 N 
ATOM     36  H9  UNL     1       9.805  17.691  31.500  1.00  0.00     0.186 HD
ATOM     37  H10 UNL     1       9.137  18.635  33.708  1.00  0.00     0.188 HD
HETATM   38  C19 UNL     1       8.030  13.947  31.297  1.00  0.00     0.115 C 
BRANCH  38  39
HETATM   39  C20 UNL     1       7.636  12.896  30.274  1.00  0.00     0.186 C 
BRANCH  39  40
HETATM   40  O3  UNL     1       8.804  12.176  29.977  1.00  0.00    -0.399 OA
ATOM     41  H3  UNL     1       8.604  11.263  30.143  1.00  0.00     0.209 HD
ENDBRANCH  39  40
ENDBRANCH  38  39
BRANCH  32  42
HETATM   42  N11 UNL     1       7.017  17.342  34.895  1.00  0.00    -0.384 N 
ATOM     43 2H11 UNL     1       6.011  17.401  35.057  1.00  0.00     0.157 HD
ATOM     44 1H11 UNL     1       7.431  17.475  35.817  1.00  0.00     0.157 HD
ENDBRANCH  32  42
ENDBRANCH  27  28
ENDBRANCH  26  27
ENDBRANCH  25  26
ENDBRANCH  12  25
BRANCH   8  45
HETATM   45  O1  UNL     1       7.448  16.332  38.110  1.00  0.00    -0.358 OA
ATOM     46  H1  UNL     1       6.820  16.145  38.798  1.00  0.00     0.217 HD
ENDBRANCH   8  45
TORSDOF 11
ENDMDL
MODEL 5
REMARK VINA RESULT: -7.268295245      2.658      4.359
REMARK  11 active torsions:
REMARK  status: ('A' for Active; 'I' for Inactive)
REMARK    1  A    between atoms: C5_8  and  O1_9 
REMARK    2  A    between atoms: N3_12  and  C7_13 
REMARK    3  A    between atoms: C7_13  and  C8_14 
REMARK    4  A    between atoms: C8_14  and  N4_15 
REMARK    5  A    between atoms: N7_23  and  C12_25 
REMARK    6  A    between atoms: C12_25  and  C13_26 
REMARK    7  A    between atoms: C13_26  and  O2_27 
REMARK    8  A    between atoms: O2_27  and  N8_28 
REMARK    9  A    between atoms: C17_36  and  N11_37 
REMARK   10  A    between atoms: C19_41  and  C20_42 
REMARK   11  A    between atoms: C20_42  and  O3_43 
ROOT
HETATM    1  N1  UNL     1       7.452  15.273  32.530  1.00  0.00    -0.188 NA
HETATM    2  C1  UNL     1       7.333  14.465  33.347  1.00  0.00     0.137 C 
HETATM    3  C2  UNL     1       7.195  13.479  34.376  1.00  0.00     0.191 A 
HETATM    4  N2  UNL     1       5.987  12.970  34.643  1.00  0.00    -0.319 N 
ATOM      5  H2  UNL     1       5.182  13.293  34.106  1.00  0.00     0.169 HD
HETATM    6  C3  UNL     1       5.805  12.042  35.599  1.00  0.00     0.126 A 
HETATM    7  C4  UNL     1       6.893  11.611  36.318  1.00  0.00     0.086 A 
HETATM    8  C5  UNL     1       6.471  10.672  37.230  1.00  0.00     0.099 A 
HETATM    9  C6  UNL     1       5.099  10.569  37.021  1.00  0.00     0.130 A 
HETATM   10  N3  UNL     1       4.702  11.384  36.050  1.00  0.00    -0.338 N 
HETATM   11  C11 UNL     1       8.148  12.152  36.028  1.00  0.00     0.120 A 
HETATM   12  N7  UNL     1       9.118  11.725  36.724  1.00  0.00    -0.373 N 
ATOM     13  H7  UNL     1       8.938  11.026  37.444  1.00  0.00     0.161 HD
HETATM   14  N12 UNL     1       8.273  13.077  35.061  1.00  0.00    -0.319 N 
ATOM     15  H12 UNL     1       9.189  13.473  34.850  1.00  0.00     0.169 HD
ENDROOT
BRANCH  10  16
HETATM   16  C7  UNL     1       3.387  11.601  35.505  1.00  0.00     0.152 C 
BRANCH  16  17
HETATM   17  C8  UNL     1       2.765  12.879  36.020  1.00  0.00     0.170 C 
BRANCH  17  18
HETATM   18  N4  UNL     1       2.187  13.658  34.953  1.00  0.00    -0.285 N 
HETATM   19  C9  UNL     1       1.572  13.289  33.836  1.00  0.00     0.201 A 
HETATM   20  N5  UNL     1       1.183  14.364  33.107  1.00  0.00    -0.346 N 
HETATM   21  C10 UNL     1       1.580  15.424  33.817  1.00  0.00     0.198 A 
ATOM     22  H5  UNL     1       0.694  14.364  32.212  1.00  0.00     0.167 HD
HETATM   23  N6  UNL     1       2.196  14.991  34.948  1.00  0.00    -0.293 N 
ATOM     24  H6  UNL     1       2.597  15.585  35.672  1.00  0.00     0.188 HD
ENDBRANCH  17  18
ENDBRANCH  16  17
ENDBRANCH  10  16
BRANCH  12  25
HETATM   25  C12 UNL     1      10.462  12.192  36.535  1.00  0.00     0.149 C 
BRANCH  25  26
HETATM   26  C13 UNL     1      10.684  13.427  37.420  1.00  0.00     0.213 C 
BRANCH  26  27
HETATM   27  O2  UNL     1      10.231  14.552  36.759  1.00  0.00    -0.301 OA
BRANCH  27  28
HETATM   28  N8  UNL     1       9.408  15.266  37.576  1.00  0.00    -0.186 NA
HETATM   29  C14 UNL     1      10.173  15.675  38.764  1.00  0.00     0.165 C 
HETATM   30  C15 UNL     1      11.195  16.656  38.316  1.00  0.00     0.026 A 
HETATM   31  C16 UNL     1      10.691  17.720  37.577  1.00  0.00     0.038 A 
HETATM   32  C17 UNL     1      12.556  16.775  38.445  1.00  0.00     0.123 A 
HETATM   33  N9  UNL     1      11.760  18.464  37.271  1.00  0.00    -0.303 N 
HETATM   34  C18 UNL     1       9.230  17.702  37.378  1.00  0.00     0.083 C 
HETATM   35  N10 UNL     1      12.861  17.921  37.775  1.00  0.00    -0.285 N 
ATOM     36  H9  UNL     1      11.733  19.327  36.728  1.00  0.00     0.186 HD
ATOM     37  H10 UNL     1      13.800  18.305  37.676  1.00  0.00     0.188 HD
HETATM   38  C19 UNL     1       8.854  16.342  36.842  1.00  0.00     0.115 C 
BRANCH  38  39
HETATM   39  C20 UNL     1       7.346  16.174  36.798  1.00  0.00     0.186 C 
BRANCH  39  40
HETATM   40  O3  UNL     1       7.061  14.982  37.483  1.00  0.00    -0.399 OA
ATOM     41  H3  UNL     1       6.114  14.923  37.534  1.00  0.00     0.209 HD
ENDBRANCH  39  40
ENDBRANCH  38  39
BRANCH  32  42
HETATM   42  N11 UNL     1      13.371  15.970  39.067  1.00  0.00    -0.384 N 
ATOM     43 2H11 UNL     1      14.040  15.317  38.658  1.00  0.00     0.157 HD
ATOM     44 1H11 UNL     1      13.484  15.851  40.074  1.00  0.00     0.157 HD
ENDBRANCH  32  42
ENDBRANCH  27  28
ENDBRANCH  26  27
ENDBRANCH  25  26
ENDBRANCH  12  25
BRANCH   8  45
HETATM   45  O1  UNL     1       7.181   9.964  38.159  1.00  0.00    -0.358 OA
ATOM     46  H1  UNL     1       6.899   9.280  38.756  1.00  0.00     0.217 HD
ENDBRANCH   8  45
TORSDOF 11
ENDMDL
