MODEL 1
REMARK VINA RESULT: -6.420593900      0.000      0.000
REMARK  10 active torsions:
REMARK  status: ('A' for Active; 'I' for Inactive)
REMARK    1  A    between atoms: C2_2  and  C3_3 
REMARK    2  A    between atoms: C3_3  and  N1_4 
REMARK    3  A    between atoms: N1_4  and  C4_6 
REMARK    4  A    between atoms: C5_7  and  C6_8 
REMARK    5  A    between atoms: C6_8  and  O1_9 
REMARK    6  A    between atoms: C7_12  and  C8_13 
REMARK    7  A    between atoms: C8_13  and  N2_14 
REMARK    8  A    between atoms: N2_14  and  C9_16 
REMARK    9  A    between atoms: C15_22  and  O3_23 
REMARK   10  A    between atoms: C16_25  and  O4_26 
ROOT
HETATM    1  C4  UNL     1      25.643 -41.065 -56.274  1.00  0.00     0.139 C 
HETATM    2  C5  UNL     1      26.933 -40.247 -56.340  1.00  0.00     0.170 C 
HETATM    3  O2  UNL     1      27.354 -39.764 -55.150  1.00  0.00    -0.372 OA
HETATM    4  C7  UNL     1      26.501 -39.159 -54.298  1.00  0.00     0.170 C 
HETATM    5  C15 UNL     1      25.092 -39.678 -54.304  1.00  0.00     0.179 C 
HETATM    6  C16 UNL     1      24.619 -40.183 -55.639  1.00  0.00     0.174 C 
ENDROOT
BRANCH   4   7
HETATM    7  C8  UNL     1      26.454 -37.648 -54.350  1.00  0.00     0.149 C 
BRANCH   7   8
HETATM    8  N2  UNL     1      26.733 -36.986 -53.122  1.00  0.00    -0.415 N 
ATOM      9  H2  UNL     1      27.327 -37.404 -52.405  1.00  0.00     0.153 HD
BRANCH   8  10
HETATM   10  C9  UNL     1      26.128 -35.692 -52.953  1.00  0.00     0.076 C 
HETATM   11  C10 UNL     1      24.956 -35.614 -53.909  1.00  0.00     0.024 C 
HETATM   12  C11 UNL     1      24.439 -34.177 -53.764  1.00  0.00     0.002 C 
HETATM   13  C12 UNL     1      23.743 -34.083 -52.446  1.00  0.00     0.000 C 
HETATM   14  C13 UNL     1      24.320 -34.900 -51.359  1.00  0.00     0.002 C 
HETATM   15  C14 UNL     1      25.679 -35.434 -51.549  1.00  0.00     0.024 C 
ENDBRANCH   8  10
ENDBRANCH   7   8
ENDBRANCH   4   7
BRANCH   5  16
HETATM   16  O3  UNL     1      24.913 -40.672 -53.348  1.00  0.00    -0.390 OA
ATOM     17  H3  UNL     1      23.996 -40.897 -53.249  1.00  0.00     0.210 HD
ENDBRANCH   5  16
BRANCH   2  18
HETATM   18  C6  UNL     1      26.947 -39.241 -57.452  1.00  0.00     0.198 C 
BRANCH  18  19
HETATM   19  O1  UNL     1      27.519 -39.680 -58.631  1.00  0.00    -0.398 OA
ATOM     20  H1  UNL     1      27.962 -39.009 -59.138  1.00  0.00     0.209 HD
ENDBRANCH  18  19
ENDBRANCH   2  18
BRANCH   6  21
HETATM   21  O4  UNL     1      23.399 -40.833 -55.382  1.00  0.00    -0.391 OA
ATOM     22  H4  UNL     1      22.656 -40.242 -55.335  1.00  0.00     0.210 HD
ENDBRANCH   6  21
BRANCH   1  23
HETATM   23  N1  UNL     1      25.354 -41.527 -57.583  1.00  0.00    -0.409 N 
ATOM     24  H1  UNL     1      24.754 -40.987 -58.206  1.00  0.00     0.154 HD
BRANCH  23  25
HETATM   25  C3  UNL     1      25.921 -42.759 -58.007  1.00  0.00     0.141 C 
BRANCH  25  26
HETATM   26  C2  UNL     1      25.971 -42.947 -59.475  1.00  0.00    -0.018 C 
HETATM   27  C1  UNL     1      24.875 -42.825 -60.200  1.00  0.00     0.008 C 
ENDBRANCH  25  26
ENDBRANCH  23  25
ENDBRANCH   1  23
TORSDOF 10
ENDMDL
MODEL 2
REMARK VINA RESULT: -6.347765527      2.096      3.181
REMARK  10 active torsions:
REMARK  status: ('A' for Active; 'I' for Inactive)
REMARK    1  A    between atoms: C2_2  and  C3_3 
REMARK    2  A    between atoms: C3_3  and  N1_4 
REMARK    3  A    between atoms: N1_4  and  C4_6 
REMARK    4  A    between atoms: C5_7  and  C6_8 
REMARK    5  A    between atoms: C6_8  and  O1_9 
REMARK    6  A    between atoms: C7_12  and  C8_13 
REMARK    7  A    between atoms: C8_13  and  N2_14 
REMARK    8  A    between atoms: N2_14  and  C9_16 
REMARK    9  A    between atoms: C15_22  and  O3_23 
REMARK   10  A    between atoms: C16_25  and  O4_26 
ROOT
HETATM    1  C4  UNL     1      25.662 -41.926 -57.657  1.00  0.00     0.139 C 
HETATM    2  C5  UNL     1      26.117 -42.590 -56.358  1.00  0.00     0.170 C 
HETATM    3  O2  UNL     1      25.220 -42.529 -55.350  1.00  0.00    -0.372 OA
HETATM    4  C7  UNL     1      24.582 -41.379 -55.048  1.00  0.00     0.170 C 
HETATM    5  C15 UNL     1      24.292 -40.468 -56.205  1.00  0.00     0.179 C 
HETATM    6  C16 UNL     1      25.313 -40.516 -57.308  1.00  0.00     0.174 C 
ENDROOT
BRANCH   4   7
HETATM    7  C8  UNL     1      25.175 -40.554 -53.927  1.00  0.00     0.149 C 
BRANCH   7   8
HETATM    8  N2  UNL     1      26.373 -39.857 -54.250  1.00  0.00    -0.415 N 
ATOM      9  H2  UNL     1      27.256 -40.343 -54.407  1.00  0.00     0.153 HD
BRANCH   8  10
HETATM   10  C9  UNL     1      26.263 -38.425 -54.342  1.00  0.00     0.076 C 
HETATM   11  C10 UNL     1      26.766 -37.850 -53.034  1.00  0.00     0.024 C 
HETATM   12  C11 UNL     1      26.507 -36.343 -53.155  1.00  0.00     0.002 C 
HETATM   13  C12 UNL     1      27.508 -35.793 -54.116  1.00  0.00     0.000 C 
HETATM   14  C13 UNL     1      27.887 -36.689 -55.228  1.00  0.00     0.002 C 
HETATM   15  C14 UNL     1      27.025 -37.852 -55.496  1.00  0.00     0.024 C 
ENDBRANCH   8  10
ENDBRANCH   7   8
ENDBRANCH   4   7
BRANCH   5  16
HETATM   16  O3  UNL     1      23.031 -40.710 -56.738  1.00  0.00    -0.390 OA
ATOM     17  H3  UNL     1      22.987 -40.459 -57.653  1.00  0.00     0.210 HD
ENDBRANCH   5  16
BRANCH   2  18
HETATM   18  C6  UNL     1      27.517 -42.224 -55.958  1.00  0.00     0.198 C 
BRANCH  18  19
HETATM   19  O1  UNL     1      28.514 -42.885 -56.650  1.00  0.00    -0.398 OA
ATOM     20  H1  UNL     1      29.387 -42.789 -56.287  1.00  0.00     0.209 HD
ENDBRANCH  18  19
ENDBRANCH   2  18
BRANCH   6  21
HETATM   21  O4  UNL     1      24.746 -39.797 -58.375  1.00  0.00    -0.391 OA
ATOM     22  H4  UNL     1      25.221 -39.894 -59.193  1.00  0.00     0.210 HD
ENDBRANCH   6  21
BRANCH   1  23
HETATM   23  N1  UNL     1      26.688 -42.103 -58.619  1.00  0.00    -0.409 N 
ATOM     24  H1  UNL     1      27.624 -41.729 -58.458  1.00  0.00     0.154 HD
BRANCH  23  25
HETATM   25  C3  UNL     1      26.384 -42.813 -59.812  1.00  0.00     0.141 C 
BRANCH  25  26
HETATM   26  C2  UNL     1      24.952 -43.146 -59.988  1.00  0.00    -0.018 C 
HETATM   27  C1  UNL     1      24.143 -42.304 -60.603  1.00  0.00     0.008 C 
ENDBRANCH  25  26
ENDBRANCH  23  25
ENDBRANCH   1  23
TORSDOF 10
ENDMDL
MODEL 3
REMARK VINA RESULT: -6.283260573      1.903      2.697
REMARK  10 active torsions:
REMARK  status: ('A' for Active; 'I' for Inactive)
REMARK    1  A    between atoms: C2_2  and  C3_3 
REMARK    2  A    between atoms: C3_3  and  N1_4 
REMARK    3  A    between atoms: N1_4  and  C4_6 
REMARK    4  A    between atoms: C5_7  and  C6_8 
REMARK    5  A    between atoms: C6_8  and  O1_9 
REMARK    6  A    between atoms: C7_12  and  C8_13 
REMARK    7  A    between atoms: C8_13  and  N2_14 
REMARK    8  A    between atoms: N2_14  and  C9_16 
REMARK    9  A    between atoms: C15_22  and  O3_23 
REMARK   10  A    between atoms: C16_25  and  O4_26 
ROOT
HETATM    1  C4  UNL     1      25.234 -41.312 -57.765  1.00  0.00     0.139 C 
HETATM    2  C5  UNL     1      26.739 -41.188 -57.531  1.00  0.00     0.170 C 
HETATM    3  O2  UNL     1      27.176 -41.734 -56.375  1.00  0.00    -0.372 OA
HETATM    4  C7  UNL     1      26.536 -41.510 -55.209  1.00  0.00     0.170 C 
HETATM    5  C15 UNL     1      25.048 -41.336 -55.301  1.00  0.00     0.179 C 
HETATM    6  C16 UNL     1      24.573 -40.697 -56.576  1.00  0.00     0.174 C 
ENDROOT
BRANCH   4   7
HETATM    7  C8  UNL     1      27.093 -40.406 -54.336  1.00  0.00     0.149 C 
BRANCH   7   8
HETATM    8  N2  UNL     1      26.122 -39.613 -53.663  1.00  0.00    -0.415 N 
ATOM      9  H2  UNL     1      25.445 -40.019 -53.017  1.00  0.00     0.153 HD
BRANCH   8  10
HETATM   10  C9  UNL     1      26.154 -38.203 -53.948  1.00  0.00     0.076 C 
HETATM   11  C10 UNL     1      26.860 -37.525 -52.793  1.00  0.00     0.024 C 
HETATM   12  C11 UNL     1      26.750 -36.026 -53.103  1.00  0.00     0.002 C 
HETATM   13  C12 UNL     1      27.689 -35.733 -54.227  1.00  0.00     0.000 C 
HETATM   14  C13 UNL     1      27.841 -36.807 -55.230  1.00  0.00     0.002 C 
HETATM   15  C14 UNL     1      26.836 -37.882 -55.242  1.00  0.00     0.024 C 
ENDBRANCH   8  10
ENDBRANCH   7   8
ENDBRANCH   4   7
BRANCH   5  16
HETATM   16  O3  UNL     1      24.385 -42.545 -55.118  1.00  0.00    -0.390 OA
ATOM     17  H3  UNL     1      23.615 -42.604 -55.671  1.00  0.00     0.210 HD
ENDBRANCH   5  16
BRANCH   2  18
HETATM   18  C6  UNL     1      27.276 -39.813 -57.803  1.00  0.00     0.198 C 
BRANCH  18  19
HETATM   19  O1  UNL     1      27.474 -39.516 -59.138  1.00  0.00    -0.398 OA
ATOM     20  H1  UNL     1      28.014 -40.138 -59.612  1.00  0.00     0.209 HD
ENDBRANCH  18  19
ENDBRANCH   2  18
BRANCH   6  21
HETATM   21  O4  UNL     1      23.174 -40.847 -56.571  1.00  0.00    -0.391 OA
ATOM     22  H4  UNL     1      22.855 -41.409 -55.873  1.00  0.00     0.210 HD
ENDBRANCH   6  21
BRANCH   1  23
HETATM   23  N1  UNL     1      24.940 -40.727 -59.023  1.00  0.00    -0.409 N 
ATOM     24  H1  UNL     1      25.332 -39.822 -59.283  1.00  0.00     0.154 HD
BRANCH  23  25
HETATM   25  C3  UNL     1      24.087 -41.432 -59.915  1.00  0.00     0.141 C 
BRANCH  25  26
HETATM   26  C2  UNL     1      24.497 -42.827 -60.194  1.00  0.00    -0.018 C 
HETATM   27  C1  UNL     1      25.776 -43.146 -60.255  1.00  0.00     0.008 C 
ENDBRANCH  25  26
ENDBRANCH  23  25
ENDBRANCH   1  23
TORSDOF 10
ENDMDL
MODEL 4
REMARK VINA RESULT: -6.117885929      1.831      6.664
REMARK  10 active torsions:
REMARK  status: ('A' for Active; 'I' for Inactive)
REMARK    1  A    between atoms: C2_2  and  C3_3 
REMARK    2  A    between atoms: C3_3  and  N1_4 
REMARK    3  A    between atoms: N1_4  and  C4_6 
REMARK    4  A    between atoms: C5_7  and  C6_8 
REMARK    5  A    between atoms: C6_8  and  O1_9 
REMARK    6  A    between atoms: C7_12  and  C8_13 
REMARK    7  A    between atoms: C8_13  and  N2_14 
REMARK    8  A    between atoms: N2_14  and  C9_16 
REMARK    9  A    between atoms: C15_22  and  O3_23 
REMARK   10  A    between atoms: C16_25  and  O4_26 
ROOT
HETATM    1  C4  UNL     1      27.577 -38.918 -55.822  1.00  0.00     0.139 C 
HETATM    2  C5  UNL     1      27.097 -39.743 -54.628  1.00  0.00     0.170 C 
HETATM    3  O2  UNL     1      27.659 -40.968 -54.528  1.00  0.00    -0.372 OA
HETATM    4  C7  UNL     1      27.765 -41.780 -55.600  1.00  0.00     0.170 C 
HETATM    5  C15 UNL     1      27.975 -41.097 -56.920  1.00  0.00     0.179 C 
HETATM    6  C16 UNL     1      27.318 -39.749 -57.035  1.00  0.00     0.174 C 
ENDROOT
BRANCH   4   7
HETATM    7  C8  UNL     1      26.680 -42.820 -55.767  1.00  0.00     0.149 C 
BRANCH   7   8
HETATM    8  N2  UNL     1      25.347 -42.322 -55.737  1.00  0.00    -0.415 N 
ATOM      9  H2  UNL     1      24.924 -41.961 -54.882  1.00  0.00     0.153 HD
BRANCH   8  10
HETATM   10  C9  UNL     1      24.633 -42.359 -56.986  1.00  0.00     0.076 C 
HETATM   11  C10 UNL     1      24.351 -40.926 -57.386  1.00  0.00     0.024 C 
HETATM   12  C11 UNL     1      23.490 -41.045 -58.650  1.00  0.00     0.002 C 
HETATM   13  C12 UNL     1      24.385 -41.484 -59.761  1.00  0.00     0.000 C 
HETATM   14  C13 UNL     1      25.476 -42.403 -59.378  1.00  0.00     0.002 C 
HETATM   15  C14 UNL     1      25.384 -43.069 -58.069  1.00  0.00     0.024 C 
ENDBRANCH   8  10
ENDBRANCH   7   8
ENDBRANCH   4   7
BRANCH   5  16
HETATM   16  O3  UNL     1      29.327 -40.976 -57.219  1.00  0.00    -0.390 OA
ATOM     17  H3  UNL     1      29.460 -40.535 -58.050  1.00  0.00     0.210 HD
ENDBRANCH   5  16
BRANCH   2  18
HETATM   18  C6  UNL     1      25.607 -39.734 -54.454  1.00  0.00     0.198 C 
BRANCH  18  19
HETATM   19  O1  UNL     1      25.144 -40.398 -53.334  1.00  0.00    -0.398 OA
ATOM     20  H1  UNL     1      25.387 -41.316 -53.283  1.00  0.00     0.209 HD
ENDBRANCH  18  19
ENDBRANCH   2  18
BRANCH   6  21
HETATM   21  O4  UNL     1      27.827 -39.186 -58.220  1.00  0.00    -0.391 OA
ATOM     22  H4  UNL     1      27.189 -39.141 -58.923  1.00  0.00     0.210 HD
ENDBRANCH   6  21
BRANCH   1  23
HETATM   23  N1  UNL     1      26.928 -37.659 -55.769  1.00  0.00    -0.409 N 
ATOM     24  H1  UNL     1      25.950 -37.563 -56.042  1.00  0.00     0.154 HD
BRANCH  23  25
HETATM   25  C3  UNL     1      27.672 -36.532 -55.326  1.00  0.00     0.141 C 
BRANCH  25  26
HETATM   26  C2  UNL     1      27.635 -36.300 -53.863  1.00  0.00    -0.018 C 
HETATM   27  C1  UNL     1      26.480 -36.201 -53.233  1.00  0.00     0.008 C 
ENDBRANCH  25  26
ENDBRANCH  23  25
ENDBRANCH   1  23
TORSDOF 10
ENDMDL
MODEL 5
REMARK VINA RESULT: -6.020996179      1.691      3.208
REMARK  10 active torsions:
REMARK  status: ('A' for Active; 'I' for Inactive)
REMARK    1  A    between atoms: C2_2  and  C3_3 
REMARK    2  A    between atoms: C3_3  and  N1_4 
REMARK    3  A    between atoms: N1_4  and  C4_6 
REMARK    4  A    between atoms: C5_7  and  C6_8 
REMARK    5  A    between atoms: C6_8  and  O1_9 
REMARK    6  A    between atoms: C7_12  and  C8_13 
REMARK    7  A    between atoms: C8_13  and  N2_14 
REMARK    8  A    between atoms: N2_14  and  C9_16 
REMARK    9  A    between atoms: C15_22  and  O3_23 
REMARK   10  A    between atoms: C16_25  and  O4_26 
ROOT
HETATM    1  C4  UNL     1      26.325 -39.404 -56.168  1.00  0.00     0.139 C 
HETATM    2  C5  UNL     1      25.398 -39.385 -54.953  1.00  0.00     0.170 C 
HETATM    3  O2  UNL     1      25.145 -38.154 -54.457  1.00  0.00    -0.372 OA
HETATM    4  C7  UNL     1      26.137 -37.261 -54.259  1.00  0.00     0.170 C 
HETATM    5  C15 UNL     1      27.280 -37.326 -55.229  1.00  0.00     0.179 C 
HETATM    6  C16 UNL     1      27.577 -38.705 -55.751  1.00  0.00     0.174 C 
ENDROOT
BRANCH   4   7
HETATM    7  C8  UNL     1      26.703 -37.183 -52.858  1.00  0.00     0.149 C 
BRANCH   7   8
HETATM    8  N2  UNL     1      26.507 -35.942 -52.190  1.00  0.00    -0.415 N 
ATOM      9  H2  UNL     1      27.269 -35.279 -52.044  1.00  0.00     0.153 HD
BRANCH   8  10
HETATM   10  C9  UNL     1      25.169 -35.678 -51.732  1.00  0.00     0.076 C 
HETATM   11  C10 UNL     1      25.276 -35.085 -50.343  1.00  0.00     0.024 C 
HETATM   12  C11 UNL     1      23.822 -34.945 -49.873  1.00  0.00     0.002 C 
HETATM   13  C12 UNL     1      23.217 -33.807 -50.627  1.00  0.00     0.000 C 
HETATM   14  C13 UNL     1      23.689 -33.637 -52.016  1.00  0.00     0.002 C 
HETATM   15  C14 UNL     1      24.410 -34.759 -52.638  1.00  0.00     0.024 C 
ENDBRANCH   8  10
ENDBRANCH   7   8
ENDBRANCH   4   7
BRANCH   5  16
HETATM   16  O3  UNL     1      27.085 -36.462 -56.301  1.00  0.00    -0.390 OA
ATOM     17  H3  UNL     1      27.549 -35.643 -56.175  1.00  0.00     0.210 HD
ENDBRANCH   5  16
BRANCH   2  18
HETATM   18  C6  UNL     1      25.755 -40.406 -53.913  1.00  0.00     0.198 C 
BRANCH  18  19
HETATM   19  O1  UNL     1      24.923 -40.431 -52.809  1.00  0.00    -0.398 OA
ATOM     20  H1  UNL     1      25.232 -40.965 -52.086  1.00  0.00     0.209 HD
ENDBRANCH  18  19
ENDBRANCH   2  18
BRANCH   6  21
HETATM   21  O4  UNL     1      28.493 -38.518 -56.802  1.00  0.00    -0.391 OA
ATOM     22  H4  UNL     1      28.854 -39.329 -57.139  1.00  0.00     0.210 HD
ENDBRANCH   6  21
BRANCH   1  23
HETATM   23  N1  UNL     1      26.464 -40.751 -56.588  1.00  0.00    -0.409 N 
ATOM     24  H1  UNL     1      26.703 -41.484 -55.920  1.00  0.00     0.154 HD
BRANCH  23  25
HETATM   25  C3  UNL     1      26.262 -41.057 -57.961  1.00  0.00     0.141 C 
BRANCH  25  26
HETATM   26  C2  UNL     1      24.929 -41.615 -58.283  1.00  0.00    -0.018 C 
HETATM   27  C1  UNL     1      23.913 -40.812 -58.535  1.00  0.00     0.008 C 
ENDBRANCH  25  26
ENDBRANCH  23  25
ENDBRANCH   1  23
TORSDOF 10
ENDMDL
