MODEL 1
REMARK VINA RESULT: -4.849535460      0.000      0.000
REMARK  5 active torsions:
REMARK  status: ('A' for Active; 'I' for Inactive)
REMARK    1  A    between atoms: C2_2  and  N1_4 
REMARK    2  A    between atoms: N1_4  and  C4_6 
REMARK    3  A    between atoms: C4_6  and  N2_8 
REMARK    4  A    between atoms: N2_8  and  C5_10 
REMARK    5  A    between atoms: C5_10  and  C6_11 
ROOT
HETATM    1  C4  UNL     1     100.507  69.829  11.690  1.00  0.00     0.167 C 
HETATM    2  S1  UNL     1     100.809  71.213  10.850  1.00  0.00    -0.041 SA
ENDROOT
BRANCH   1   3
HETATM    3  N1  UNL     1      99.361  69.044  11.423  1.00  0.00    -0.363 N 
ATOM      4  H1  UNL     1      98.489  69.310  11.881  1.00  0.00     0.162 HD
BRANCH   3   5
HETATM    5  C2  UNL     1      99.332  67.907  10.561  1.00  0.00     0.075 C 
HETATM    6  C1  UNL     1      99.890  66.659  11.202  1.00  0.00     0.032 C 
HETATM    7  C3  UNL     1     100.145  68.253   9.324  1.00  0.00     0.032 C 
ENDBRANCH   3   5
ENDBRANCH   1   3
BRANCH   1   8
HETATM    8  N2  UNL     1     101.449  69.468  12.689  1.00  0.00    -0.367 N 
ATOM      9  H2  UNL     1     101.561  68.495  12.974  1.00  0.00     0.161 HD
BRANCH   8  10
HETATM   10  C5  UNL     1     102.240  70.505  13.289  1.00  0.00     0.130 C 
BRANCH  10  11
HETATM   11  C6  UNL     1     103.706  70.259  13.240  1.00  0.00    -0.035 C 
HETATM   12  C7  UNL     1     103.986  68.780  13.525  1.00  0.00     0.016 C 
HETATM   13  C8  UNL     1     104.189  70.546  11.832  1.00  0.00     0.016 C 
HETATM   14  C9  UNL     1     104.472  71.079  14.231  1.00  0.00     0.016 C 
ENDBRANCH  10  11
ENDBRANCH   8  10
ENDBRANCH   1   8
TORSDOF 5
ENDMDL
MODEL 2
REMARK VINA RESULT: -4.846334184      0.038      1.230
REMARK  5 active torsions:
REMARK  status: ('A' for Active; 'I' for Inactive)
REMARK    1  A    between atoms: C2_2  and  N1_4 
REMARK    2  A    between atoms: N1_4  and  C4_6 
REMARK    3  A    between atoms: C4_6  and  N2_8 
REMARK    4  A    between atoms: N2_8  and  C5_10 
REMARK    5  A    between atoms: C5_10  and  C6_11 
ROOT
HETATM    1  C4  UNL     1     100.516  69.830  11.708  1.00  0.00     0.167 C 
HETATM    2  S1  UNL     1     100.855  71.215  10.884  1.00  0.00    -0.041 SA
ENDROOT
BRANCH   1   3
HETATM    3  N1  UNL     1      99.364  69.064  11.415  1.00  0.00    -0.363 N 
ATOM      4  H1  UNL     1      98.486  69.346  11.852  1.00  0.00     0.162 HD
BRANCH   3   5
HETATM    5  C2  UNL     1      99.335  67.927  10.554  1.00  0.00     0.075 C 
HETATM    6  C1  UNL     1      99.893  66.679  11.196  1.00  0.00     0.032 C 
HETATM    7  C3  UNL     1     100.150  68.272   9.317  1.00  0.00     0.032 C 
ENDBRANCH   3   5
ENDBRANCH   1   3
BRANCH   1   8
HETATM    8  N2  UNL     1     101.434  69.447  12.722  1.00  0.00    -0.367 N 
ATOM      9  H2  UNL     1     101.512  68.474  13.016  1.00  0.00     0.161 HD
BRANCH   8  10
HETATM   10  C5  UNL     1     102.252  70.464  13.323  1.00  0.00     0.130 C 
BRANCH  10  11
HETATM   11  C6  UNL     1     103.714  70.225  13.197  1.00  0.00    -0.035 C 
HETATM   12  C7  UNL     1     104.462  71.079  14.226  1.00  0.00     0.016 C 
HETATM   13  C8  UNL     1     103.989  68.772  13.531  1.00  0.00     0.016 C 
HETATM   14  C9  UNL     1     104.247  70.557  11.838  1.00  0.00     0.016 C 
ENDBRANCH  10  11
ENDBRANCH   8  10
ENDBRANCH   1   8
TORSDOF 5
ENDMDL
MODEL 3
REMARK VINA RESULT: -4.760450014      0.051      1.229
REMARK  5 active torsions:
REMARK  status: ('A' for Active; 'I' for Inactive)
REMARK    1  A    between atoms: C2_2  and  N1_4 
REMARK    2  A    between atoms: N1_4  and  C4_6 
REMARK    3  A    between atoms: C4_6  and  N2_8 
REMARK    4  A    between atoms: N2_8  and  C5_10 
REMARK    5  A    between atoms: C5_10  and  C6_11 
ROOT
HETATM    1  C4  UNL     1     100.490  69.846  11.702  1.00  0.00     0.167 C 
HETATM    2  S1  UNL     1     100.846  71.221  10.869  1.00  0.00    -0.041 SA
ENDROOT
BRANCH   1   3
HETATM    3  N1  UNL     1      99.345  69.076  11.394  1.00  0.00    -0.363 N 
ATOM      4  H1  UNL     1      98.459  69.361  11.812  1.00  0.00     0.162 HD
BRANCH   3   5
HETATM    5  C2  UNL     1      99.334  67.931  10.544  1.00  0.00     0.075 C 
HETATM    6  C1  UNL     1      99.893  66.693  11.203  1.00  0.00     0.032 C 
HETATM    7  C3  UNL     1     100.159  68.270   9.313  1.00  0.00     0.032 C 
ENDBRANCH   3   5
ENDBRANCH   1   3
BRANCH   1   8
HETATM    8  N2  UNL     1     101.388  69.476  12.739  1.00  0.00    -0.367 N 
ATOM      9  H2  UNL     1     101.427  68.515  13.077  1.00  0.00     0.161 HD
BRANCH   8  10
HETATM   10  C5  UNL     1     102.238  70.488  13.300  1.00  0.00     0.130 C 
BRANCH  10  11
HETATM   11  C6  UNL     1     103.689  70.171  13.234  1.00  0.00    -0.035 C 
HETATM   12  C7  UNL     1     104.220  70.495  11.834  1.00  0.00     0.016 C 
HETATM   13  C8  UNL     1     104.418  71.071  14.212  1.00  0.00     0.016 C 
HETATM   14  C9  UNL     1     103.989  68.733  13.526  1.00  0.00     0.016 C 
ENDBRANCH  10  11
ENDBRANCH   8  10
ENDBRANCH   1   8
TORSDOF 5
ENDMDL
MODEL 4
REMARK VINA RESULT: -4.620624452      0.503      1.126
REMARK  5 active torsions:
REMARK  status: ('A' for Active; 'I' for Inactive)
REMARK    1  A    between atoms: C2_2  and  N1_4 
REMARK    2  A    between atoms: N1_4  and  C4_6 
REMARK    3  A    between atoms: C4_6  and  N2_8 
REMARK    4  A    between atoms: N2_8  and  C5_10 
REMARK    5  A    between atoms: C5_10  and  C6_11 
ROOT
HETATM    1  C4  UNL     1     100.619  69.552  11.955  1.00  0.00     0.167 C 
HETATM    2  S1  UNL     1     100.705  70.855  10.953  1.00  0.00    -0.041 SA
ENDROOT
BRANCH   1   3
HETATM    3  N1  UNL     1      99.801  68.440  11.645  1.00  0.00    -0.363 N 
ATOM      4  H1  UNL     1      98.937  68.327  12.176  1.00  0.00     0.162 HD
BRANCH   3   5
HETATM    5  C2  UNL     1     100.093  67.464  10.647  1.00  0.00     0.075 C 
HETATM    6  C1  UNL     1      99.503  67.797   9.297  1.00  0.00     0.032 C 
HETATM    7  C3  UNL     1      99.537  66.135  11.132  1.00  0.00     0.032 C 
ENDBRANCH   3   5
ENDBRANCH   1   3
BRANCH   1   8
HETATM    8  N2  UNL     1     101.401  69.602  13.139  1.00  0.00    -0.367 N 
ATOM      9  H2  UNL     1     101.331  68.867  13.843  1.00  0.00     0.161 HD
BRANCH   8  10
HETATM   10  C5  UNL     1     102.295  70.711  13.322  1.00  0.00     0.130 C 
BRANCH  10  11
HETATM   11  C6  UNL     1     103.736  70.354  13.240  1.00  0.00    -0.035 C 
HETATM   12  C7  UNL     1     103.907  68.857  13.517  1.00  0.00     0.016 C 
HETATM   13  C8  UNL     1     104.209  70.607  11.822  1.00  0.00     0.016 C 
HETATM   14  C9  UNL     1     104.584  71.110  14.216  1.00  0.00     0.016 C 
ENDBRANCH  10  11
ENDBRANCH   8  10
ENDBRANCH   1   8
TORSDOF 5
ENDMDL
MODEL 5
REMARK VINA RESULT: -4.199279309      1.318      1.746
REMARK  5 active torsions:
REMARK  status: ('A' for Active; 'I' for Inactive)
REMARK    1  A    between atoms: C2_2  and  N1_4 
REMARK    2  A    between atoms: N1_4  and  C4_6 
REMARK    3  A    between atoms: C4_6  and  N2_8 
REMARK    4  A    between atoms: N2_8  and  C5_10 
REMARK    5  A    between atoms: C5_10  and  C6_11 
ROOT
HETATM    1  C4  UNL     1     101.701  70.560  10.694  1.00  0.00     0.167 C 
HETATM    2  S1  UNL     1     101.140  72.026  11.191  1.00  0.00    -0.041 SA
ENDROOT
BRANCH   1   3
HETATM    3  N1  UNL     1     100.928  69.723   9.857  1.00  0.00    -0.363 N 
ATOM      4  H1  UNL     1     101.179  69.682   8.869  1.00  0.00     0.162 HD
BRANCH   3   5
HETATM    5  C2  UNL     1      99.823  68.931  10.289  1.00  0.00     0.075 C 
HETATM    6  C1  UNL     1      99.974  68.416  11.701  1.00  0.00     0.032 C 
HETATM    7  C3  UNL     1      99.700  67.758   9.329  1.00  0.00     0.032 C 
ENDBRANCH   3   5
ENDBRANCH   1   3
BRANCH   1   8
HETATM    8  N2  UNL     1     102.992  70.182  11.148  1.00  0.00    -0.367 N 
ATOM      9  H2  UNL     1     103.501  69.419  10.701  1.00  0.00     0.161 HD
BRANCH   8  10
HETATM   10  C5  UNL     1     103.566  70.900  12.252  1.00  0.00     0.130 C 
BRANCH  10  11
HETATM   11  C6  UNL     1     103.528  70.165  13.543  1.00  0.00    -0.035 C 
HETATM   12  C7  UNL     1     104.063  68.743  13.338  1.00  0.00     0.016 C 
HETATM   13  C8  UNL     1     104.460  70.861  14.515  1.00  0.00     0.016 C 
HETATM   14  C9  UNL     1     102.151  70.066  14.122  1.00  0.00     0.016 C 
ENDBRANCH  10  11
ENDBRANCH   8  10
ENDBRANCH   1   8
TORSDOF 5
ENDMDL
