MODEL 1
REMARK VINA RESULT: -5.893514937      0.000      0.000
REMARK  11 active torsions:
REMARK  status: ('A' for Active; 'I' for Inactive)
REMARK    1  A    between atoms: C2_2  and  C3_3 
REMARK    2  A    between atoms: C5_5  and  O1_6 
REMARK    3  A    between atoms: C7_8  and  O2_9 
REMARK    4  A    between atoms: C9_11  and  C10_12 
REMARK    5  A    between atoms: C10_12  and  O3_13 
REMARK    6  A    between atoms: N1_15  and  C11_17 
REMARK    7  A    between atoms: C11_17  and  C12_18 
REMARK    8  A    between atoms: C11_17  and  C22_31 
REMARK    9  A    between atoms: C12_18  and  C13_19 
REMARK   10  A    between atoms: C15_21  and  O4_22 
REMARK   11  A    between atoms: C17_24  and  O5_25 
ROOT
HETATM    1  C13 UNL     1       8.851  -1.410  28.087  1.00  0.00    -0.032 A 
HETATM    2  C14 UNL     1       9.579  -0.936  29.155  1.00  0.00     0.048 A 
HETATM    3  C15 UNL     1      10.167  -1.789  30.045  1.00  0.00     0.102 A 
HETATM    4  C17 UNL     1       9.992  -3.174  29.814  1.00  0.00     0.102 A 
HETATM    5  C19 UNL     1       9.280  -3.638  28.766  1.00  0.00     0.062 A 
HETATM    6  C20 UNL     1       8.685  -2.742  27.869  1.00  0.00     0.053 A 
HETATM    7  C21 UNL     1       7.938  -3.255  26.756  1.00  0.00     0.100 C 
HETATM    8  N2  UNL     1       7.357  -3.668  25.844  1.00  0.00    -0.191 NA
ENDROOT
BRANCH   1   9
HETATM    9  C12 UNL     1       8.197  -0.429  27.170  1.00  0.00     0.076 C 
BRANCH   9  10
HETATM   10  C11 UNL     1       9.149   0.193  26.231  1.00  0.00     0.194 C 
BRANCH  10  11
HETATM   11  N1  UNL     1       8.838   1.618  25.974  1.00  0.00    -0.355 N 
HETATM   12  C10 UNL     1       9.819   2.451  25.576  1.00  0.00     0.149 C 
ATOM     13  H1  UNL     1       7.888   1.966  26.099  1.00  0.00     0.162 HD
BRANCH  12  14
HETATM   14  C9  UNL     1       9.845   3.869  25.209  1.00  0.00     0.051 A 
HETATM   15  C7  UNL     1       9.183   4.355  24.097  1.00  0.00     0.116 A 
HETATM   16  C5  UNL     1       9.097   5.701  23.828  1.00  0.00     0.103 A 
HETATM   17  C4  UNL     1       9.692   6.589  24.686  1.00  0.00     0.051 A 
HETATM   18  C3  UNL     1      10.379   6.171  25.824  1.00  0.00    -0.033 A 
HETATM   19  C24 UNL     1      10.440   4.799  26.063  1.00  0.00     0.030 A 
BRANCH  15  20
HETATM   20  O2  UNL     1       8.566   3.490  23.179  1.00  0.00    -0.352 OA
HETATM   21  C8  UNL     1       9.501   2.959  22.214  1.00  0.00     0.210 C 
ENDBRANCH  15  20
BRANCH  16  22
HETATM   22  O1  UNL     1       8.403   6.114  22.689  1.00  0.00    -0.353 OA
HETATM   23  C6  UNL     1       8.467   7.461  22.235  1.00  0.00     0.210 C 
ENDBRANCH  16  22
BRANCH  18  24
HETATM   24  C2  UNL     1      11.009   7.108  26.760  1.00  0.00     0.001 C 
HETATM   25  C1  UNL     1      10.263   7.896  27.508  1.00  0.00     0.012 C 
ENDBRANCH  18  24
ENDBRANCH  12  14
BRANCH  12  26
HETATM   26  O3  UNL     1      11.032   1.908  25.473  1.00  0.00    -0.346 OA
ATOM     27  H3  UNL     1      11.548   2.075  26.253  1.00  0.00     0.219 HD
ENDBRANCH  12  26
ENDBRANCH  10  11
BRANCH  10  28
HETATM   28  C22 UNL     1       9.007  -0.517  24.848  1.00  0.00     0.309 C 
HETATM   29  O6  UNL     1      10.095  -1.034  24.501  1.00  0.00    -0.255 OA
HETATM   30  N3  UNL     1       7.792  -0.466  24.277  1.00  0.00    -0.419 NA
HETATM   31  C23 UNL     1       6.548  -0.415  23.690  1.00  0.00     0.264 C 
ENDBRANCH  10  28
ENDBRANCH   9  10
ENDBRANCH   1   9
BRANCH   4  32
HETATM   32  O5  UNL     1      10.605  -4.002  30.740  1.00  0.00    -0.353 OA
HETATM   33  C18 UNL     1      11.648  -4.899  30.479  1.00  0.00     0.210 C 
ENDBRANCH   4  32
BRANCH   3  34
HETATM   34  O4  UNL     1      10.901  -1.400  31.131  1.00  0.00    -0.353 OA
HETATM   35  C16 UNL     1      10.354  -0.882  32.295  1.00  0.00     0.210 C 
ENDBRANCH   3  34
TORSDOF 10
ENDMDL
MODEL 2
REMARK VINA RESULT: -5.721681112      1.193      2.175
REMARK  11 active torsions:
REMARK  status: ('A' for Active; 'I' for Inactive)
REMARK    1  A    between atoms: C2_2  and  C3_3 
REMARK    2  A    between atoms: C5_5  and  O1_6 
REMARK    3  A    between atoms: C7_8  and  O2_9 
REMARK    4  A    between atoms: C9_11  and  C10_12 
REMARK    5  A    between atoms: C10_12  and  O3_13 
REMARK    6  A    between atoms: N1_15  and  C11_17 
REMARK    7  A    between atoms: C11_17  and  C12_18 
REMARK    8  A    between atoms: C11_17  and  C22_31 
REMARK    9  A    between atoms: C12_18  and  C13_19 
REMARK   10  A    between atoms: C15_21  and  O4_22 
REMARK   11  A    between atoms: C17_24  and  O5_25 
ROOT
HETATM    1  C13 UNL     1       8.950  -1.331  28.412  1.00  0.00    -0.032 A 
HETATM    2  C14 UNL     1       9.469  -2.597  28.269  1.00  0.00     0.048 A 
HETATM    3  C15 UNL     1      10.171  -3.193  29.279  1.00  0.00     0.102 A 
HETATM    4  C17 UNL     1      10.333  -2.447  30.470  1.00  0.00     0.102 A 
HETATM    5  C19 UNL     1       9.821  -1.206  30.611  1.00  0.00     0.062 A 
HETATM    6  C20 UNL     1       9.108  -0.618  29.560  1.00  0.00     0.053 A 
HETATM    7  C21 UNL     1       8.565   0.700  29.731  1.00  0.00     0.100 C 
HETATM    8  N2  UNL     1       8.104   1.751  29.878  1.00  0.00    -0.191 NA
ENDROOT
BRANCH   1   9
HETATM    9  C12 UNL     1       8.226  -0.716  27.259  1.00  0.00     0.076 C 
BRANCH   9  10
HETATM   10  C11 UNL     1       9.141  -0.144  26.253  1.00  0.00     0.194 C 
BRANCH  10  11
HETATM   11  N1  UNL     1       8.812   1.262  25.927  1.00  0.00    -0.355 N 
HETATM   12  C10 UNL     1       9.787   2.093  25.509  1.00  0.00     0.149 C 
ATOM     13  H1  UNL     1       7.854   1.600  26.018  1.00  0.00     0.162 HD
BRANCH  12  14
HETATM   14  C9  UNL     1       9.796   3.493  25.079  1.00  0.00     0.051 A 
HETATM   15  C7  UNL     1       9.066   3.936  23.991  1.00  0.00     0.116 A 
HETATM   16  C5  UNL     1       8.970   5.270  23.670  1.00  0.00     0.103 A 
HETATM   17  C4  UNL     1       9.625   6.190  24.446  1.00  0.00     0.051 A 
HETATM   18  C3  UNL     1      10.383   5.816  25.555  1.00  0.00    -0.033 A 
HETATM   19  C24 UNL     1      10.451   4.455  25.850  1.00  0.00     0.030 A 
BRANCH  15  20
HETATM   20  O2  UNL     1       8.384   3.037  23.155  1.00  0.00    -0.352 OA
HETATM   21  C8  UNL     1       9.265   2.406  22.200  1.00  0.00     0.210 C 
ENDBRANCH  15  20
BRANCH  16  22
HETATM   22  O1  UNL     1       8.205   5.638  22.562  1.00  0.00    -0.353 OA
HETATM   23  C6  UNL     1       6.953   6.296  22.716  1.00  0.00     0.210 C 
ENDBRANCH  16  22
BRANCH  18  24
HETATM   24  C2  UNL     1      11.078   6.787  26.405  1.00  0.00     0.001 C 
HETATM   25  C1  UNL     1      10.387   7.608  27.170  1.00  0.00     0.012 C 
ENDBRANCH  18  24
ENDBRANCH  12  14
BRANCH  12  26
HETATM   26  O3  UNL     1      11.010   1.567  25.452  1.00  0.00    -0.346 OA
ATOM     27  H3  UNL     1      11.267   1.209  26.294  1.00  0.00     0.219 HD
ENDBRANCH  12  26
ENDBRANCH  10  11
BRANCH  10  28
HETATM   28  C22 UNL     1       8.956  -0.932  24.919  1.00  0.00     0.309 C 
HETATM   29  O6  UNL     1      10.066  -1.265  24.443  1.00  0.00    -0.255 OA
HETATM   30  N3  UNL     1       7.690  -1.124  24.514  1.00  0.00    -0.419 NA
HETATM   31  C23 UNL     1       6.393  -1.322  24.097  1.00  0.00     0.264 C 
ENDBRANCH  10  28
ENDBRANCH   9  10
ENDBRANCH   1   9
BRANCH   4  32
HETATM   32  O5  UNL     1      11.050  -3.088  31.466  1.00  0.00    -0.353 OA
HETATM   33  C18 UNL     1      12.323  -2.730  31.926  1.00  0.00     0.210 C 
ENDBRANCH   4  32
BRANCH   3  34
HETATM   34  O4  UNL     1      10.723  -4.442  29.215  1.00  0.00    -0.353 OA
HETATM   35  C16 UNL     1      10.046  -5.609  29.536  1.00  0.00     0.210 C 
ENDBRANCH   3  34
TORSDOF 10
ENDMDL
MODEL 3
REMARK VINA RESULT: -5.695285025      3.947      6.812
REMARK  11 active torsions:
REMARK  status: ('A' for Active; 'I' for Inactive)
REMARK    1  A    between atoms: C2_2  and  C3_3 
REMARK    2  A    between atoms: C5_5  and  O1_6 
REMARK    3  A    between atoms: C7_8  and  O2_9 
REMARK    4  A    between atoms: C9_11  and  C10_12 
REMARK    5  A    between atoms: C10_12  and  O3_13 
REMARK    6  A    between atoms: N1_15  and  C11_17 
REMARK    7  A    between atoms: C11_17  and  C12_18 
REMARK    8  A    between atoms: C11_17  and  C22_31 
REMARK    9  A    between atoms: C12_18  and  C13_19 
REMARK   10  A    between atoms: C15_21  and  O4_22 
REMARK   11  A    between atoms: C17_24  and  O5_25 
ROOT
HETATM    1  C13 UNL     1       8.651   2.944  22.357  1.00  0.00    -0.032 A 
HETATM    2  C14 UNL     1       9.389   1.935  22.933  1.00  0.00     0.048 A 
HETATM    3  C15 UNL     1       8.785   0.829  23.461  1.00  0.00     0.102 A 
HETATM    4  C17 UNL     1       7.374   0.774  23.385  1.00  0.00     0.102 A 
HETATM    5  C19 UNL     1       6.651   1.763  22.818  1.00  0.00     0.062 A 
HETATM    6  C20 UNL     1       7.294   2.887  22.286  1.00  0.00     0.053 A 
HETATM    7  C21 UNL     1       6.508   3.925  21.681  1.00  0.00     0.100 C 
HETATM    8  N2  UNL     1       5.877   4.749  21.170  1.00  0.00    -0.191 NA
ENDROOT
BRANCH   1   9
HETATM    9  C12 UNL     1       9.364   4.147  21.833  1.00  0.00     0.076 C 
BRANCH   9  10
HETATM   10  C11 UNL     1      10.031   4.922  22.896  1.00  0.00     0.194 C 
BRANCH  10  11
HETATM   11  N1  UNL     1       9.127   5.216  24.031  1.00  0.00    -0.355 N 
HETATM   12  C10 UNL     1       9.471   4.822  25.273  1.00  0.00     0.149 C 
ATOM     13  H1  UNL     1       8.251   5.713  23.874  1.00  0.00     0.162 HD
BRANCH  12  14
HETATM   14  C9  UNL     1       8.843   4.982  26.586  1.00  0.00     0.051 A 
HETATM   15  C7  UNL     1       8.689   6.219  27.186  1.00  0.00     0.116 A 
HETATM   16  C5  UNL     1       7.982   6.382  28.354  1.00  0.00     0.103 A 
HETATM   17  C4  UNL     1       7.417   5.284  28.948  1.00  0.00     0.051 A 
HETATM   18  C3  UNL     1       7.534   4.006  28.403  1.00  0.00    -0.033 A 
HETATM   19  C24 UNL     1       8.254   3.883  27.216  1.00  0.00     0.030 A 
BRANCH  15  20
HETATM   20  O2  UNL     1       9.256   7.375  26.627  1.00  0.00    -0.352 OA
HETATM   21  C8  UNL     1      10.643   7.539  27.000  1.00  0.00     0.210 C 
ENDBRANCH  15  20
BRANCH  16  22
HETATM   22  O1  UNL     1       7.865   7.665  28.891  1.00  0.00    -0.353 OA
HETATM   23  C6  UNL     1       8.547   8.030  30.086  1.00  0.00     0.210 C 
ENDBRANCH  16  22
BRANCH  18  24
HETATM   24  C2  UNL     1       6.924   2.823  29.017  1.00  0.00     0.001 C 
HETATM   25  C1  UNL     1       7.676   1.954  29.663  1.00  0.00     0.012 C 
ENDBRANCH  18  24
ENDBRANCH  12  14
BRANCH  12  26
HETATM   26  O3  UNL     1      10.620   4.153  25.370  1.00  0.00    -0.346 OA
ATOM     27  H3  UNL     1      10.555   3.302  24.954  1.00  0.00     0.219 HD
ENDBRANCH  12  26
ENDBRANCH  10  11
BRANCH  10  28
HETATM   28  C22 UNL     1      10.428   6.314  22.312  1.00  0.00     0.309 C 
HETATM   29  O6  UNL     1      11.660   6.366  22.087  1.00  0.00    -0.255 OA
HETATM   30  N3  UNL     1       9.427   7.195  22.146  1.00  0.00    -0.419 NA
HETATM   31  C23 UNL     1       8.403   8.099  21.974  1.00  0.00     0.264 C 
ENDBRANCH  10  28
ENDBRANCH   9  10
ENDBRANCH   1   9
BRANCH   4  32
HETATM   32  O5  UNL     1       6.804  -0.363  23.932  1.00  0.00    -0.353 OA
HETATM   33  C18 UNL     1       5.802  -1.146  23.345  1.00  0.00     0.210 C 
ENDBRANCH   4  32
BRANCH   3  34
HETATM   34  O4  UNL     1       9.445  -0.212  24.053  1.00  0.00    -0.353 OA
HETATM   35  C16 UNL     1      10.065  -0.138  25.290  1.00  0.00     0.210 C 
ENDBRANCH   3  34
TORSDOF 10
ENDMDL
MODEL 4
REMARK VINA RESULT: -5.662389867      3.412      8.258
REMARK  11 active torsions:
REMARK  status: ('A' for Active; 'I' for Inactive)
REMARK    1  A    between atoms: C2_2  and  C3_3 
REMARK    2  A    between atoms: C5_5  and  O1_6 
REMARK    3  A    between atoms: C7_8  and  O2_9 
REMARK    4  A    between atoms: C9_11  and  C10_12 
REMARK    5  A    between atoms: C10_12  and  O3_13 
REMARK    6  A    between atoms: N1_15  and  C11_17 
REMARK    7  A    between atoms: C11_17  and  C12_18 
REMARK    8  A    between atoms: C11_17  and  C22_31 
REMARK    9  A    between atoms: C12_18  and  C13_19 
REMARK   10  A    between atoms: C15_21  and  O4_22 
REMARK   11  A    between atoms: C17_24  and  O5_25 
ROOT
HETATM    1  C13 UNL     1      10.132   4.150  24.428  1.00  0.00    -0.032 A 
HETATM    2  C14 UNL     1      10.680   4.187  23.166  1.00  0.00     0.048 A 
HETATM    3  C15 UNL     1      10.500   5.266  22.347  1.00  0.00     0.102 A 
HETATM    4  C17 UNL     1       9.730   6.336  22.861  1.00  0.00     0.102 A 
HETATM    5  C19 UNL     1       9.196   6.301  24.100  1.00  0.00     0.062 A 
HETATM    6  C20 UNL     1       9.393   5.182  24.918  1.00  0.00     0.053 A 
HETATM    7  C21 UNL     1       8.822   5.165  26.235  1.00  0.00     0.100 C 
HETATM    8  N2  UNL     1       8.385   5.163  27.307  1.00  0.00    -0.191 NA
ENDROOT
BRANCH   1   9
HETATM    9  C12 UNL     1      10.329   2.927  25.262  1.00  0.00     0.076 C 
BRANCH   9  10
HETATM   10  C11 UNL     1       9.796   1.710  24.621  1.00  0.00     0.194 C 
BRANCH  10  11
HETATM   11  N1  UNL     1       8.366   1.843  24.260  1.00  0.00    -0.355 N 
HETATM   12  C10 UNL     1       7.977   1.607  22.992  1.00  0.00     0.149 C 
ATOM     13  H1  UNL     1       7.681   2.111  24.966  1.00  0.00     0.162 HD
BRANCH  12  14
HETATM   14  C9  UNL     1       6.672   1.610  22.326  1.00  0.00     0.051 A 
HETATM   15  C7  UNL     1       6.280   2.629  21.477  1.00  0.00     0.116 A 
HETATM   16  C5  UNL     1       5.114   2.566  20.750  1.00  0.00     0.103 A 
HETATM   17  C4  UNL     1       4.311   1.462  20.876  1.00  0.00     0.051 A 
HETATM   18  C3  UNL     1       4.641   0.399  21.714  1.00  0.00    -0.033 A 
HETATM   19  C24 UNL     1       5.833   0.499  22.431  1.00  0.00     0.030 A 
BRANCH  15  20
HETATM   20  O2  UNL     1       7.057   3.787  21.319  1.00  0.00    -0.352 OA
HETATM   21  C8  UNL     1       6.615   4.863  22.176  1.00  0.00     0.210 C 
ENDBRANCH  15  20
BRANCH  16  22
HETATM   22  O1  UNL     1       4.792   3.631  19.908  1.00  0.00    -0.353 OA
HETATM   23  C6  UNL     1       4.896   3.511  18.494  1.00  0.00     0.210 C 
ENDBRANCH  16  22
BRANCH  18  24
HETATM   24  C2  UNL     1       3.802  -0.796  21.850  1.00  0.00     0.001 C 
HETATM   25  C1  UNL     1       4.335  -1.935  22.244  1.00  0.00     0.012 C 
ENDBRANCH  18  24
ENDBRANCH  12  14
BRANCH  12  26
HETATM   26  O3  UNL     1       8.950   1.292  22.137  1.00  0.00    -0.346 OA
ATOM     27  H3  UNL     1       9.338   0.453  22.356  1.00  0.00     0.219 HD
ENDBRANCH  12  26
ENDBRANCH  10  11
BRANCH  10  28
HETATM   28  C22 UNL     1       9.854   0.545  25.658  1.00  0.00     0.309 C 
HETATM   29  O6  UNL     1       9.410   0.917  26.769  1.00  0.00    -0.255 OA
HETATM   30  N3  UNL     1      10.346  -0.623  25.212  1.00  0.00    -0.419 NA
HETATM   31  C23 UNL     1      10.849  -1.821  24.756  1.00  0.00     0.264 C 
ENDBRANCH  10  28
ENDBRANCH   9  10
ENDBRANCH   1   9
BRANCH   4  32
HETATM   32  O5  UNL     1       9.574   7.408  21.999  1.00  0.00    -0.353 OA
HETATM   33  C18 UNL     1       8.454   8.245  21.919  1.00  0.00     0.210 C 
ENDBRANCH   4  32
BRANCH   3  34
HETATM   34  O4  UNL     1      11.005   5.379  21.082  1.00  0.00    -0.353 OA
HETATM   35  C16 UNL     1      11.188   4.309  20.219  1.00  0.00     0.210 C 
ENDBRANCH   3  34
TORSDOF 10
ENDMDL
MODEL 5
REMARK VINA RESULT: -5.638804325      3.952      6.976
REMARK  11 active torsions:
REMARK  status: ('A' for Active; 'I' for Inactive)
REMARK    1  A    between atoms: C2_2  and  C3_3 
REMARK    2  A    between atoms: C5_5  and  O1_6 
REMARK    3  A    between atoms: C7_8  and  O2_9 
REMARK    4  A    between atoms: C9_11  and  C10_12 
REMARK    5  A    between atoms: C10_12  and  O3_13 
REMARK    6  A    between atoms: N1_15  and  C11_17 
REMARK    7  A    between atoms: C11_17  and  C12_18 
REMARK    8  A    between atoms: C11_17  and  C22_31 
REMARK    9  A    between atoms: C12_18  and  C13_19 
REMARK   10  A    between atoms: C15_21  and  O4_22 
REMARK   11  A    between atoms: C17_24  and  O5_25 
ROOT
HETATM    1  C13 UNL     1       8.888   4.243  22.866  1.00  0.00    -0.032 A 
HETATM    2  C14 UNL     1      10.082   4.164  23.546  1.00  0.00     0.048 A 
HETATM    3  C15 UNL     1      10.504   2.990  24.102  1.00  0.00     0.102 A 
HETATM    4  C17 UNL     1       9.658   1.867  23.943  1.00  0.00     0.102 A 
HETATM    5  C19 UNL     1       8.488   1.944  23.273  1.00  0.00     0.062 A 
HETATM    6  C20 UNL     1       8.078   3.160  22.715  1.00  0.00     0.053 A 
HETATM    7  C21 UNL     1       6.834   3.221  22.000  1.00  0.00     0.100 C 
HETATM    8  N2  UNL     1       5.844   3.264  21.401  1.00  0.00    -0.191 NA
ENDROOT
BRANCH   1   9
HETATM    9  C12 UNL     1       8.459   5.563  22.314  1.00  0.00     0.076 C 
BRANCH   9  10
HETATM   10  C11 UNL     1       8.801   6.689  23.203  1.00  0.00     0.194 C 
BRANCH  10  11
HETATM   11  N1  UNL     1       8.136   6.588  24.522  1.00  0.00    -0.355 N 
HETATM   12  C10 UNL     1       8.851   6.799  25.645  1.00  0.00     0.149 C 
ATOM     13  H1  UNL     1       7.144   6.360  24.580  1.00  0.00     0.162 HD
BRANCH  12  14
HETATM   14  C9  UNL     1       8.503   6.815  27.067  1.00  0.00     0.051 A 
HETATM   15  C7  UNL     1       7.653   5.880  27.630  1.00  0.00     0.116 A 
HETATM   16  C5  UNL     1       7.433   5.815  28.986  1.00  0.00     0.103 A 
HETATM   17  C4  UNL     1       8.071   6.709  29.806  1.00  0.00     0.051 A 
HETATM   18  C3  UNL     1       8.939   7.680  29.309  1.00  0.00    -0.033 A 
HETATM   19  C24 UNL     1       9.138   7.711  27.930  1.00  0.00     0.030 A 
BRANCH  15  20
HETATM   20  O2  UNL     1       6.966   4.949  26.836  1.00  0.00    -0.352 OA
HETATM   21  C8  UNL     1       7.709   3.720  26.669  1.00  0.00     0.210 C 
ENDBRANCH  15  20
BRANCH  16  22
HETATM   22  O1  UNL     1       6.568   4.837  29.478  1.00  0.00    -0.353 OA
HETATM   23  C6  UNL     1       7.016   3.854  30.404  1.00  0.00     0.210 C 
ENDBRANCH  16  22
BRANCH  18  24
HETATM   24  C2  UNL     1       9.640   8.635  30.173  1.00  0.00     0.001 C 
HETATM   25  C1  UNL     1       9.757   8.395  31.464  1.00  0.00     0.012 C 
ENDBRANCH  18  24
ENDBRANCH  12  14
BRANCH  12  26
HETATM   26  O3  UNL     1      10.145   7.060  25.465  1.00  0.00    -0.346 OA
ATOM     27  H3  UNL     1      10.286   7.984  25.291  1.00  0.00     0.219 HD
ENDBRANCH  12  26
ENDBRANCH  10  11
BRANCH  10  28
HETATM   28  C22 UNL     1       8.252   8.003  22.563  1.00  0.00     0.309 C 
HETATM   29  O6  UNL     1       8.997   8.387  21.631  1.00  0.00    -0.255 OA
HETATM   30  N3  UNL     1       7.114   8.488  23.087  1.00  0.00    -0.419 NA
HETATM   31  C23 UNL     1       5.948   8.987  23.623  1.00  0.00     0.264 C 
ENDBRANCH  10  28
ENDBRANCH   9  10
ENDBRANCH   1   9
BRANCH   4  32
HETATM   32  O5  UNL     1      10.124   0.699  24.521  1.00  0.00    -0.353 OA
HETATM   33  C18 UNL     1       9.600   0.078  25.661  1.00  0.00     0.210 C 
ENDBRANCH   4  32
BRANCH   3  34
HETATM   34  O4  UNL     1      11.671   2.830  24.796  1.00  0.00    -0.353 OA
HETATM   35  C16 UNL     1      12.581   3.848  25.033  1.00  0.00     0.210 C 
ENDBRANCH   3  34
TORSDOF 10
ENDMDL
