MODEL 1
REMARK VINA RESULT: -5.508963997      0.000      0.000
REMARK  13 active torsions:
REMARK  status: ('A' for Active; 'I' for Inactive)
REMARK    1  A    between atoms: C2_2  and  C3_3 
REMARK    2  A    between atoms: C3_3  and  C4_4 
REMARK    3  A    between atoms: C4_4  and  C5_5 
REMARK    4  A    between atoms: C5_5  and  C6_6 
REMARK    5  A    between atoms: C6_6  and  C7_7 
REMARK    6  A    between atoms: C7_7  and  N1_8 
REMARK    7  A    between atoms: C9_11  and  N3_12 
REMARK       I    between atoms: N3_12  and  C11_14 
REMARK    8  A    between atoms: C11_14  and  C12_16 
REMARK    9  A    between atoms: C12_16  and  C13_17 
REMARK   10  A    between atoms: N4_21  and  C16_22 
REMARK   11  A    between atoms: C16_22  and  C17_23 
REMARK       I    between atoms: C17_23  and  N5_25 
REMARK   12  A    between atoms: C19_28  and  N6_29 
REMARK   13  A    between atoms: N6_29  and  C20_30 
ROOT
HETATM    1  N1  UNL     1       8.087   3.805  27.040  1.00  0.00    -0.293 N 
HETATM    2  C8  UNL     1       7.984   2.503  26.745  1.00  0.00     0.154 A 
HETATM    3  N2  UNL     1       6.862   1.780  27.252  1.00  0.00    -0.080 NA
HETATM    4  C9  UNL     1       8.891   1.826  25.987  1.00  0.00     0.147 A 
HETATM    5  C15 UNL     1       9.950   2.541  25.518  1.00  0.00     0.282 A 
HETATM    6  O2  UNL     1      10.836   1.981  24.806  1.00  0.00    -0.265 OA
HETATM    7  N4  UNL     1      10.118   3.882  25.783  1.00  0.00    -0.263 N 
HETATM    8  C19 UNL     1       9.183   4.485  26.541  1.00  0.00     0.263 A 
ENDROOT
BRANCH   1   9
HETATM    9  C7  UNL     1       7.067   4.423  27.848  1.00  0.00     0.134 C 
BRANCH   9  10
HETATM   10  C6  UNL     1       7.101   4.102  29.281  1.00  0.00     0.020 C 
BRANCH  10  11
HETATM   11  C5  UNL     1       6.947   5.423  30.074  1.00  0.00     0.002 C 
BRANCH  11  12
HETATM   12  C4  UNL     1       7.781   5.470  31.286  1.00  0.00     0.000 C 
BRANCH  12  13
HETATM   13  C3  UNL     1       7.937   6.829  31.865  1.00  0.00    -0.000 C 
BRANCH  13  14
HETATM   14  C2  UNL     1       9.247   7.235  32.400  1.00  0.00    -0.005 C 
HETATM   15  C1  UNL     1       9.950   8.353  31.718  1.00  0.00     0.005 C 
ENDBRANCH  13  14
ENDBRANCH  12  13
ENDBRANCH  11  12
ENDBRANCH  10  11
ENDBRANCH   9  10
ENDBRANCH   1   9
BRANCH   8  16
HETATM   16  N6  UNL     1       9.263   5.656  26.878  1.00  0.00    -0.405 NA
BRANCH  16  17
HETATM   17  C20 UNL     1       9.354   6.982  26.957  1.00  0.00     0.086 C 
HETATM   18  C21 UNL     1      10.773   7.587  26.953  1.00  0.00     0.053 C 
HETATM   19  C22 UNL     1       8.799   7.611  28.290  1.00  0.00     0.053 C 
HETATM   20  C23 UNL     1       8.498   7.769  25.937  1.00  0.00     0.053 C 
ENDBRANCH  16  17
ENDBRANCH   8  16
BRANCH   4  21
HETATM   21  N3  UNL     1       8.794   0.448  25.671  1.00  0.00    -0.315 N 
HETATM   22  C10 UNL     1       8.229   0.046  24.369  1.00  0.00     0.159 C 
HETATM   23  C11 UNL     1       9.213  -0.583  26.534  1.00  0.00     0.224 C 
HETATM   24  O1  UNL     1       9.723  -0.309  27.631  1.00  0.00    -0.273 OA
BRANCH  23  25
HETATM   25  C12 UNL     1       9.048  -1.994  26.146  1.00  0.00     0.103 C 
BRANCH  25  26
HETATM   26  C13 UNL     1      10.346  -2.758  26.178  1.00  0.00     0.005 C 
HETATM   27  C14 UNL     1      11.294  -2.113  25.188  1.00  0.00     0.005 C 
ENDBRANCH  25  26
ENDBRANCH  23  25
ENDBRANCH   4  21
BRANCH   7  28
HETATM   28  C16 UNL     1      11.294   4.503  25.212  1.00  0.00     0.239 C 
BRANCH  28  29
HETATM   29  C17 UNL     1      10.894   5.008  23.848  1.00  0.00     0.235 C 
HETATM   30  O3  UNL     1      10.597   6.209  23.685  1.00  0.00    -0.272 OA
HETATM   31  N5  UNL     1      10.855   4.123  22.745  1.00  0.00    -0.364 N 
HETATM   32  C18 UNL     1      10.476   4.614  21.455  1.00  0.00     0.149 C 
ATOM     33  H5  UNL     1      11.095   3.139  22.868  1.00  0.00     0.161 HD
ENDBRANCH  28  29
ENDBRANCH   7  28
TORSDOF 13
ENDMDL
MODEL 2
REMARK VINA RESULT: -5.485066692      1.456      3.216
REMARK  13 active torsions:
REMARK  status: ('A' for Active; 'I' for Inactive)
REMARK    1  A    between atoms: C2_2  and  C3_3 
REMARK    2  A    between atoms: C3_3  and  C4_4 
REMARK    3  A    between atoms: C4_4  and  C5_5 
REMARK    4  A    between atoms: C5_5  and  C6_6 
REMARK    5  A    between atoms: C6_6  and  C7_7 
REMARK    6  A    between atoms: C7_7  and  N1_8 
REMARK    7  A    between atoms: C9_11  and  N3_12 
REMARK       I    between atoms: N3_12  and  C11_14 
REMARK    8  A    between atoms: C11_14  and  C12_16 
REMARK    9  A    between atoms: C12_16  and  C13_17 
REMARK   10  A    between atoms: N4_21  and  C16_22 
REMARK   11  A    between atoms: C16_22  and  C17_23 
REMARK       I    between atoms: C17_23  and  N5_25 
REMARK   12  A    between atoms: C19_28  and  N6_29 
REMARK   13  A    between atoms: N6_29  and  C20_30 
ROOT
HETATM    1  N1  UNL     1       7.994   3.793  26.976  1.00  0.00    -0.293 N 
HETATM    2  C8  UNL     1       7.920   2.492  26.672  1.00  0.00     0.154 A 
HETATM    3  N2  UNL     1       6.789   1.751  27.130  1.00  0.00    -0.080 NA
HETATM    4  C9  UNL     1       8.866   1.831  25.946  1.00  0.00     0.147 A 
HETATM    5  C15 UNL     1       9.932   2.562  25.522  1.00  0.00     0.282 A 
HETATM    6  O2  UNL     1      10.852   2.017  24.843  1.00  0.00    -0.265 OA
HETATM    7  N4  UNL     1      10.071   3.903  25.800  1.00  0.00    -0.263 N 
HETATM    8  C19 UNL     1       9.100   4.490  26.524  1.00  0.00     0.263 A 
ENDROOT
BRANCH   1   9
HETATM    9  C7  UNL     1       6.936   4.393  27.747  1.00  0.00     0.134 C 
BRANCH   9  10
HETATM   10  C6  UNL     1       6.070   5.333  27.024  1.00  0.00     0.020 C 
BRANCH  10  11
HETATM   11  C5  UNL     1       4.970   4.517  26.301  1.00  0.00     0.002 C 
BRANCH  11  12
HETATM   12  C4  UNL     1       5.137   4.491  24.838  1.00  0.00     0.000 C 
BRANCH  12  13
HETATM   13  C3  UNL     1       6.073   5.518  24.314  1.00  0.00    -0.000 C 
BRANCH  13  14
HETATM   14  C2  UNL     1       7.182   5.099  23.440  1.00  0.00    -0.005 C 
HETATM   15  C1  UNL     1       7.288   3.653  23.114  1.00  0.00     0.005 C 
ENDBRANCH  13  14
ENDBRANCH  12  13
ENDBRANCH  11  12
ENDBRANCH  10  11
ENDBRANCH   9  10
ENDBRANCH   1   9
BRANCH   8  16
HETATM   16  N6  UNL     1       9.151   5.661  26.869  1.00  0.00    -0.405 NA
BRANCH  16  17
HETATM   17  C20 UNL     1       9.311   6.978  26.976  1.00  0.00     0.086 C 
HETATM   18  C21 UNL     1      10.761   7.507  26.986  1.00  0.00     0.053 C 
HETATM   19  C22 UNL     1       8.787   7.607  28.321  1.00  0.00     0.053 C 
HETATM   20  C23 UNL     1       8.500   7.829  25.971  1.00  0.00     0.053 C 
ENDBRANCH  16  17
ENDBRANCH   8  16
BRANCH   4  21
HETATM   21  N3  UNL     1       8.800   0.453  25.620  1.00  0.00    -0.315 N 
HETATM   22  C10 UNL     1       8.278   0.050  24.300  1.00  0.00     0.159 C 
HETATM   23  C11 UNL     1       9.209  -0.576  26.488  1.00  0.00     0.224 C 
HETATM   24  O1  UNL     1       9.683  -0.301  27.601  1.00  0.00    -0.273 OA
BRANCH  23  25
HETATM   25  C12 UNL     1       9.078  -1.987  26.089  1.00  0.00     0.103 C 
BRANCH  25  26
HETATM   26  C13 UNL     1      10.386  -2.731  26.155  1.00  0.00     0.005 C 
HETATM   27  C14 UNL     1      11.339  -2.094  25.165  1.00  0.00     0.005 C 
ENDBRANCH  25  26
ENDBRANCH  23  25
ENDBRANCH   4  21
BRANCH   7  28
HETATM   28  C16 UNL     1      11.261   4.543  25.278  1.00  0.00     0.239 C 
BRANCH  28  29
HETATM   29  C17 UNL     1      10.908   5.051  23.902  1.00  0.00     0.235 C 
HETATM   30  O3  UNL     1      10.614   6.252  23.733  1.00  0.00    -0.272 OA
HETATM   31  N5  UNL     1      10.908   4.169  22.797  1.00  0.00    -0.364 N 
HETATM   32  C18 UNL     1      10.574   4.662  21.496  1.00  0.00     0.149 C 
ATOM     33  H5  UNL     1      11.146   3.185  22.926  1.00  0.00     0.161 HD
ENDBRANCH  28  29
ENDBRANCH   7  28
TORSDOF 13
ENDMDL
MODEL 3
REMARK VINA RESULT: -5.398779914      1.966      5.085
REMARK  13 active torsions:
REMARK  status: ('A' for Active; 'I' for Inactive)
REMARK    1  A    between atoms: C2_2  and  C3_3 
REMARK    2  A    between atoms: C3_3  and  C4_4 
REMARK    3  A    between atoms: C4_4  and  C5_5 
REMARK    4  A    between atoms: C5_5  and  C6_6 
REMARK    5  A    between atoms: C6_6  and  C7_7 
REMARK    6  A    between atoms: C7_7  and  N1_8 
REMARK    7  A    between atoms: C9_11  and  N3_12 
REMARK       I    between atoms: N3_12  and  C11_14 
REMARK    8  A    between atoms: C11_14  and  C12_16 
REMARK    9  A    between atoms: C12_16  and  C13_17 
REMARK   10  A    between atoms: N4_21  and  C16_22 
REMARK   11  A    between atoms: C16_22  and  C17_23 
REMARK       I    between atoms: C17_23  and  N5_25 
REMARK   12  A    between atoms: C19_28  and  N6_29 
REMARK   13  A    between atoms: N6_29  and  C20_30 
ROOT
HETATM    1  N1  UNL     1       9.945   4.212  25.878  1.00  0.00    -0.293 N 
HETATM    2  C8  UNL     1       9.876   2.913  25.565  1.00  0.00     0.154 A 
HETATM    3  N2  UNL     1      10.947   2.336  24.817  1.00  0.00    -0.080 NA
HETATM    4  C9  UNL     1       8.837   2.104  25.921  1.00  0.00     0.147 A 
HETATM    5  C15 UNL     1       7.831   2.681  26.632  1.00  0.00     0.282 A 
HETATM    6  O2  UNL     1       6.831   1.994  26.998  1.00  0.00    -0.265 OA
HETATM    7  N4  UNL     1       7.839   4.011  26.987  1.00  0.00    -0.263 N 
HETATM    8  C19 UNL     1       8.896   4.750  26.600  1.00  0.00     0.263 A 
ENDROOT
BRANCH   1   9
HETATM    9  C7  UNL     1      11.092   4.973  25.454  1.00  0.00     0.134 C 
BRANCH   9  10
HETATM   10  C6  UNL     1      10.869   5.904  24.340  1.00  0.00     0.020 C 
BRANCH  10  11
HETATM   11  C5  UNL     1      11.336   5.212  23.035  1.00  0.00     0.002 C 
BRANCH  11  12
HETATM   12  C4  UNL     1      10.278   5.131  22.014  1.00  0.00     0.000 C 
BRANCH  12  13
HETATM   13  C3  UNL     1       9.694   3.775  21.849  1.00  0.00    -0.000 C 
BRANCH  13  14
HETATM   14  C2  UNL     1       8.290   3.547  22.231  1.00  0.00    -0.005 C 
HETATM   15  C1  UNL     1       7.625   4.592  23.053  1.00  0.00     0.005 C 
ENDBRANCH  13  14
ENDBRANCH  12  13
ENDBRANCH  11  12
ENDBRANCH  10  11
ENDBRANCH   9  10
ENDBRANCH   1   9
BRANCH   8  16
HETATM   16  N6  UNL     1       8.977   5.949  26.818  1.00  0.00    -0.405 NA
BRANCH  16  17
HETATM   17  C20 UNL     1       8.938   7.186  27.307  1.00  0.00     0.086 C 
HETATM   18  C21 UNL     1       8.218   8.252  26.455  1.00  0.00     0.053 C 
HETATM   19  C22 UNL     1      10.340   7.881  27.479  1.00  0.00     0.053 C 
HETATM   20  C23 UNL     1       8.420   7.309  28.760  1.00  0.00     0.053 C 
ENDBRANCH  16  17
ENDBRANCH   8  16
BRANCH   4  21
HETATM   21  N3  UNL     1       8.751   0.729  25.592  1.00  0.00    -0.315 N 
HETATM   22  C10 UNL     1       8.231   0.336  24.268  1.00  0.00     0.159 C 
HETATM   23  C11 UNL     1       9.139  -0.309  26.461  1.00  0.00     0.224 C 
HETATM   24  O1  UNL     1       9.611  -0.043  27.577  1.00  0.00    -0.273 OA
BRANCH  23  25
HETATM   25  C12 UNL     1       8.987  -1.717  26.058  1.00  0.00     0.103 C 
BRANCH  25  26
HETATM   26  C13 UNL     1      10.257  -2.509  26.235  1.00  0.00     0.005 C 
HETATM   27  C14 UNL     1      11.258  -2.027  25.206  1.00  0.00     0.005 C 
ENDBRANCH  25  26
ENDBRANCH  23  25
ENDBRANCH   4  21
BRANCH   7  28
HETATM   28  C16 UNL     1       6.697   4.476  27.746  1.00  0.00     0.239 C 
BRANCH  28  29
HETATM   29  C17 UNL     1       5.736   5.080  26.752  1.00  0.00     0.235 C 
HETATM   30  O3  UNL     1       5.459   6.295  26.807  1.00  0.00    -0.272 OA
HETATM   31  N5  UNL     1       5.145   4.273  25.753  1.00  0.00    -0.364 N 
HETATM   32  C18 UNL     1       4.237   4.857  24.814  1.00  0.00     0.149 C 
ATOM     33  H5  UNL     1       5.366   3.278  25.701  1.00  0.00     0.161 HD
ENDBRANCH  28  29
ENDBRANCH   7  28
TORSDOF 13
ENDMDL
MODEL 4
REMARK VINA RESULT: -5.398232682      2.036      5.347
REMARK  13 active torsions:
REMARK  status: ('A' for Active; 'I' for Inactive)
REMARK    1  A    between atoms: C2_2  and  C3_3 
REMARK    2  A    between atoms: C3_3  and  C4_4 
REMARK    3  A    between atoms: C4_4  and  C5_5 
REMARK    4  A    between atoms: C5_5  and  C6_6 
REMARK    5  A    between atoms: C6_6  and  C7_7 
REMARK    6  A    between atoms: C7_7  and  N1_8 
REMARK    7  A    between atoms: C9_11  and  N3_12 
REMARK       I    between atoms: N3_12  and  C11_14 
REMARK    8  A    between atoms: C11_14  and  C12_16 
REMARK    9  A    between atoms: C12_16  and  C13_17 
REMARK   10  A    between atoms: N4_21  and  C16_22 
REMARK   11  A    between atoms: C16_22  and  C17_23 
REMARK       I    between atoms: C17_23  and  N5_25 
REMARK   12  A    between atoms: C19_28  and  N6_29 
REMARK   13  A    between atoms: N6_29  and  C20_30 
ROOT
HETATM    1  N1  UNL     1       9.990   4.195  25.949  1.00  0.00    -0.293 N 
HETATM    2  C8  UNL     1       9.910   2.908  25.591  1.00  0.00     0.154 A 
HETATM    3  N2  UNL     1      10.965   2.357  24.801  1.00  0.00    -0.080 NA
HETATM    4  C9  UNL     1       8.878   2.089  25.939  1.00  0.00     0.147 A 
HETATM    5  C15 UNL     1       7.888   2.642  26.692  1.00  0.00     0.282 A 
HETATM    6  O2  UNL     1       6.894   1.943  27.054  1.00  0.00    -0.265 OA
HETATM    7  N4  UNL     1       7.906   3.958  27.094  1.00  0.00    -0.263 N 
HETATM    8  C19 UNL     1       8.957   4.708  26.712  1.00  0.00     0.263 A 
ENDROOT
BRANCH   1   9
HETATM    9  C7  UNL     1      11.129   4.969  25.529  1.00  0.00     0.134 C 
BRANCH   9  10
HETATM   10  C6  UNL     1      10.906   5.878  24.397  1.00  0.00     0.020 C 
BRANCH  10  11
HETATM   11  C5  UNL     1      11.362   5.159  23.104  1.00  0.00     0.002 C 
BRANCH  11  12
HETATM   12  C4  UNL     1      10.326   5.139  22.058  1.00  0.00     0.000 C 
BRANCH  12  13
HETATM   13  C3  UNL     1       9.709   3.806  21.838  1.00  0.00    -0.000 C 
BRANCH  13  14
HETATM   14  C2  UNL     1       8.308   3.590  22.237  1.00  0.00    -0.005 C 
HETATM   15  C1  UNL     1       7.678   4.613  23.111  1.00  0.00     0.005 C 
ENDBRANCH  13  14
ENDBRANCH  12  13
ENDBRANCH  11  12
ENDBRANCH  10  11
ENDBRANCH   9  10
ENDBRANCH   1   9
BRANCH   8  16
HETATM   16  N6  UNL     1       9.045   5.899  26.970  1.00  0.00    -0.405 NA
BRANCH  16  17
HETATM   17  C20 UNL     1       8.950   7.225  27.034  1.00  0.00     0.086 C 
HETATM   18  C21 UNL     1      10.241   8.003  27.364  1.00  0.00     0.053 C 
HETATM   19  C22 UNL     1       8.009   7.773  28.170  1.00  0.00     0.053 C 
HETATM   20  C23 UNL     1       8.285   7.902  25.812  1.00  0.00     0.053 C 
ENDBRANCH  16  17
ENDBRANCH   8  16
BRANCH   4  21
HETATM   21  N3  UNL     1       8.782   0.726  25.564  1.00  0.00    -0.315 N 
HETATM   22  C10 UNL     1       8.246   0.383  24.232  1.00  0.00     0.159 C 
HETATM   23  C11 UNL     1       9.174  -0.343  26.391  1.00  0.00     0.224 C 
HETATM   24  O1  UNL     1       9.659  -0.119  27.511  1.00  0.00    -0.273 OA
BRANCH  23  25
HETATM   25  C12 UNL     1       9.011  -1.735  25.941  1.00  0.00     0.103 C 
BRANCH  25  26
HETATM   26  C13 UNL     1      10.260  -2.555  26.134  1.00  0.00     0.005 C 
HETATM   27  C14 UNL     1      11.311  -2.043  25.171  1.00  0.00     0.005 C 
ENDBRANCH  25  26
ENDBRANCH  23  25
ENDBRANCH   4  21
BRANCH   7  28
HETATM   28  C16 UNL     1       6.781   4.397  27.893  1.00  0.00     0.239 C 
BRANCH  28  29
HETATM   29  C17 UNL     1       7.167   4.182  29.335  1.00  0.00     0.235 C 
HETATM   30  O3  UNL     1       7.558   5.141  30.031  1.00  0.00    -0.272 OA
HETATM   31  N5  UNL     1       7.088   2.891  29.908  1.00  0.00    -0.364 N 
HETATM   32  C18 UNL     1       7.455   2.698  31.277  1.00  0.00     0.149 C 
ATOM     33  H5  UNL     1       6.771   2.100  29.346  1.00  0.00     0.161 HD
ENDBRANCH  28  29
ENDBRANCH   7  28
TORSDOF 13
ENDMDL
MODEL 5
REMARK VINA RESULT: -5.359883918      1.272      2.067
REMARK  13 active torsions:
REMARK  status: ('A' for Active; 'I' for Inactive)
REMARK    1  A    between atoms: C2_2  and  C3_3 
REMARK    2  A    between atoms: C3_3  and  C4_4 
REMARK    3  A    between atoms: C4_4  and  C5_5 
REMARK    4  A    between atoms: C5_5  and  C6_6 
REMARK    5  A    between atoms: C6_6  and  C7_7 
REMARK    6  A    between atoms: C7_7  and  N1_8 
REMARK    7  A    between atoms: C9_11  and  N3_12 
REMARK       I    between atoms: N3_12  and  C11_14 
REMARK    8  A    between atoms: C11_14  and  C12_16 
REMARK    9  A    between atoms: C12_16  and  C13_17 
REMARK   10  A    between atoms: N4_21  and  C16_22 
REMARK   11  A    between atoms: C16_22  and  C17_23 
REMARK       I    between atoms: C17_23  and  N5_25 
REMARK   12  A    between atoms: C19_28  and  N6_29 
REMARK   13  A    between atoms: N6_29  and  C20_30 
ROOT
HETATM    1  N1  UNL     1       8.014   3.793  26.975  1.00  0.00    -0.293 N 
HETATM    2  C8  UNL     1       7.930   2.491  26.679  1.00  0.00     0.154 A 
HETATM    3  N2  UNL     1       6.794   1.761  27.145  1.00  0.00    -0.080 NA
HETATM    4  C9  UNL     1       8.869   1.818  25.956  1.00  0.00     0.147 A 
HETATM    5  C15 UNL     1       9.939   2.538  25.525  1.00  0.00     0.282 A 
HETATM    6  O2  UNL     1      10.854   1.982  24.847  1.00  0.00    -0.265 OA
HETATM    7  N4  UNL     1      10.089   3.880  25.793  1.00  0.00    -0.263 N 
HETATM    8  C19 UNL     1       9.123   4.479  26.515  1.00  0.00     0.263 A 
ENDROOT
BRANCH   1   9
HETATM    9  C7  UNL     1       6.962   4.406  27.743  1.00  0.00     0.134 C 
BRANCH   9  10
HETATM   10  C6  UNL     1       7.188   4.486  29.192  1.00  0.00     0.020 C 
BRANCH  10  11
HETATM   11  C5  UNL     1       5.957   3.875  29.906  1.00  0.00     0.002 C 
BRANCH  11  12
HETATM   12  C4  UNL     1       6.298   2.729  30.766  1.00  0.00     0.000 C 
BRANCH  12  13
HETATM   13  C3  UNL     1       7.755   2.458  30.869  1.00  0.00    -0.000 C 
BRANCH  13  14
HETATM   14  C2  UNL     1       8.267   1.133  30.480  1.00  0.00    -0.005 C 
HETATM   15  C1  UNL     1       9.397   0.576  31.268  1.00  0.00     0.005 C 
ENDBRANCH  13  14
ENDBRANCH  12  13
ENDBRANCH  11  12
ENDBRANCH  10  11
ENDBRANCH   9  10
ENDBRANCH   1   9
BRANCH   8  16
HETATM   16  N6  UNL     1       9.184   5.652  26.852  1.00  0.00    -0.405 NA
BRANCH  16  17
HETATM   17  C20 UNL     1       9.337   6.971  26.945  1.00  0.00     0.086 C 
HETATM   18  C21 UNL     1      10.784   7.508  26.940  1.00  0.00     0.053 C 
HETATM   19  C22 UNL     1       8.818   7.611  28.286  1.00  0.00     0.053 C 
HETATM   20  C23 UNL     1       8.516   7.807  25.936  1.00  0.00     0.053 C 
ENDBRANCH  16  17
ENDBRANCH   8  16
BRANCH   4  21
HETATM   21  N3  UNL     1       8.792   0.438  25.640  1.00  0.00    -0.315 N 
HETATM   22  C10 UNL     1       8.241   0.029  24.333  1.00  0.00     0.159 C 
HETATM   23  C11 UNL     1       9.217  -0.587  26.505  1.00  0.00     0.224 C 
HETATM   24  O1  UNL     1       9.716  -0.307  27.606  1.00  0.00    -0.273 OA
BRANCH  23  25
HETATM   25  C12 UNL     1       9.073  -2.000  26.116  1.00  0.00     0.103 C 
BRANCH  25  26
HETATM   26  C13 UNL     1      10.380  -2.748  26.163  1.00  0.00     0.005 C 
HETATM   27  C14 UNL     1      11.324  -2.108  25.166  1.00  0.00     0.005 C 
ENDBRANCH  25  26
ENDBRANCH  23  25
ENDBRANCH   4  21
BRANCH   7  28
HETATM   28  C16 UNL     1      11.282   4.508  25.264  1.00  0.00     0.239 C 
BRANCH  28  29
HETATM   29  C17 UNL     1      10.925   5.022  23.892  1.00  0.00     0.235 C 
HETATM   30  O3  UNL     1      10.677   6.233  23.720  1.00  0.00    -0.272 OA
HETATM   31  N5  UNL     1      10.871   4.135  22.792  1.00  0.00    -0.364 N 
HETATM   32  C18 UNL     1      10.533   4.634  21.494  1.00  0.00     0.149 C 
ATOM     33  H5  UNL     1      11.071   3.143  22.923  1.00  0.00     0.161 HD
ENDBRANCH  28  29
ENDBRANCH   7  28
TORSDOF 13
ENDMDL
