MODEL 1
REMARK VINA RESULT: -4.765016449      0.000      0.000
REMARK  13 active torsions:
REMARK  status: ('A' for Active; 'I' for Inactive)
REMARK    1  A    between atoms: O1_2  and  C2_3 
REMARK    2  A    between atoms: C2_3  and  C3_5 
REMARK    3  A    between atoms: C3_5  and  C4_6 
REMARK    4  A    between atoms: C4_6  and  C5_7 
REMARK    5  A    between atoms: C5_7  and  C6_8 
REMARK    6  A    between atoms: C6_8  and  C7_9 
REMARK    7  A    between atoms: C7_9  and  C8_10 
REMARK    8  A    between atoms: C8_10  and  N1_11 
REMARK       I    between atoms: N1_11  and  C9_12 
REMARK    9  A    between atoms: N1_11  and  C14_19 
REMARK   10  A    between atoms: C9_12  and  C10_14 
REMARK   11  A    between atoms: C10_14  and  N2_15 
REMARK   12  A    between atoms: C17_22  and  O4_24 
REMARK   13  A    between atoms: C19_26  and  C20_27 
ROOT
HETATM    1  N1  UNL     1       7.949   6.850  25.939  1.00  0.00    -0.324 N 
HETATM    2  C9  UNL     1       7.496   7.267  24.698  1.00  0.00     0.247 C 
HETATM    3  O3  UNL     1       6.652   6.492  24.108  1.00  0.00    -0.271 OA
ENDROOT
BRANCH   1   4
HETATM    4  C8  UNL     1       8.904   7.492  26.791  1.00  0.00     0.128 C 
BRANCH   4   5
HETATM    5  C7  UNL     1      10.267   6.909  26.876  1.00  0.00     0.020 C 
BRANCH   5   6
HETATM    6  C6  UNL     1      10.925   6.465  25.642  1.00  0.00     0.002 C 
BRANCH   6   7
HETATM    7  C5  UNL     1      11.430   5.039  25.641  1.00  0.00     0.001 C 
BRANCH   7   8
HETATM    8  C4  UNL     1      11.387   4.536  24.221  1.00  0.00     0.010 C 
BRANCH   8   9
HETATM    9  C3  UNL     1      10.241   5.085  23.426  1.00  0.00     0.111 C 
BRANCH   9  10
HETATM   10  C2  UNL     1      10.657   5.775  22.190  1.00  0.00     0.258 C 
HETATM   11  O2  UNL     1      10.134   6.889  21.921  1.00  0.00    -0.265 OA
BRANCH  10  12
HETATM   12  O1  UNL     1      11.593   5.272  21.301  1.00  0.00    -0.326 OA
HETATM   13  C1  UNL     1      11.162   4.438  20.219  1.00  0.00     0.213 C 
ENDBRANCH  10  12
ENDBRANCH   9  10
ENDBRANCH   8   9
ENDBRANCH   7   8
ENDBRANCH   6   7
ENDBRANCH   5   6
ENDBRANCH   4   5
ENDBRANCH   1   4
BRANCH   1  14
HETATM   14  C14 UNL     1       7.363   5.557  26.452  1.00  0.00     0.226 C 
HETATM   15  C15 UNL     1       7.087   5.777  27.904  1.00  0.00     0.057 C 
HETATM   16  C16 UNL     1       7.535   4.658  28.795  1.00  0.00     0.044 C 
HETATM   17  C17 UNL     1       7.219   3.377  27.991  1.00  0.00     0.083 C 
HETATM   18  C18 UNL     1       7.395   2.229  28.931  1.00  0.00     0.049 C 
HETATM   19  C19 UNL     1       8.235   3.417  26.881  1.00  0.00     0.186 C 
HETATM   20  O6  UNL     1       8.077   4.488  26.074  1.00  0.00    -0.356 OA
BRANCH  17  21
HETATM   21  O4  UNL     1       5.924   3.554  27.568  1.00  0.00    -0.388 OA
ATOM     22  H4  UNL     1       5.503   2.722  27.749  1.00  0.00     0.210 HD
ENDBRANCH  17  21
BRANCH  19  23
HETATM   23  C20 UNL     1       8.363   2.161  26.102  1.00  0.00     0.153 C 
HETATM   24  C21 UNL     1       8.016   2.189  24.681  1.00  0.00     0.036 C 
HETATM   25  C22 UNL     1       9.108   1.420  23.971  1.00  0.00     0.029 C 
HETATM   26  C23 UNL     1       9.969   0.949  25.104  1.00  0.00     0.168 C 
HETATM   27  O5  UNL     1       9.706   1.760  26.175  1.00  0.00    -0.383 OA
ENDBRANCH  19  23
ENDBRANCH   1  14
BRANCH   2  28
HETATM   28  C10 UNL     1       7.840   8.482  23.959  1.00  0.00     0.338 C 
BRANCH  28  29
HETATM   29  N2  UNL     1       6.829   9.537  24.093  1.00  0.00    -0.070 N 
HETATM   30  C11 UNL     1       7.511  10.842  24.027  1.00  0.00     0.272 C 
HETATM   31  C12 UNL     1       5.850   9.507  23.038  1.00  0.00     0.272 C 
HETATM   32  C13 UNL     1       6.150   9.492  25.365  1.00  0.00     0.272 C 
ENDBRANCH  28  29
ENDBRANCH   2  28
TORSDOF 13
ENDMDL
MODEL 2
REMARK VINA RESULT: -4.658825502      2.250      5.164
REMARK  13 active torsions:
REMARK  status: ('A' for Active; 'I' for Inactive)
REMARK    1  A    between atoms: O1_2  and  C2_3 
REMARK    2  A    between atoms: C2_3  and  C3_5 
REMARK    3  A    between atoms: C3_5  and  C4_6 
REMARK    4  A    between atoms: C4_6  and  C5_7 
REMARK    5  A    between atoms: C5_7  and  C6_8 
REMARK    6  A    between atoms: C6_8  and  C7_9 
REMARK    7  A    between atoms: C7_9  and  C8_10 
REMARK    8  A    between atoms: C8_10  and  N1_11 
REMARK       I    between atoms: N1_11  and  C9_12 
REMARK    9  A    between atoms: N1_11  and  C14_19 
REMARK   10  A    between atoms: C9_12  and  C10_14 
REMARK   11  A    between atoms: C10_14  and  N2_15 
REMARK   12  A    between atoms: C17_22  and  O4_24 
REMARK   13  A    between atoms: C19_26  and  C20_27 
ROOT
HETATM    1  N1  UNL     1       7.591   7.046  22.579  1.00  0.00    -0.324 N 
HETATM    2  C9  UNL     1       7.554   8.099  21.680  1.00  0.00     0.247 C 
HETATM    3  O3  UNL     1       8.655   8.746  21.511  1.00  0.00    -0.271 OA
ENDROOT
BRANCH   1   4
HETATM    4  C8  UNL     1       6.517   6.189  22.979  1.00  0.00     0.128 C 
BRANCH   4   5
HETATM    5  C7  UNL     1       6.315   4.923  22.229  1.00  0.00     0.020 C 
BRANCH   5   6
HETATM    6  C6  UNL     1       6.573   3.648  22.909  1.00  0.00     0.002 C 
BRANCH   6   7
HETATM    7  C5  UNL     1       7.216   2.570  22.065  1.00  0.00     0.001 C 
BRANCH   7   8
HETATM    8  C4  UNL     1       8.018   1.684  22.982  1.00  0.00     0.010 C 
BRANCH   8   9
HETATM    9  C3  UNL     1       7.923   2.075  24.427  1.00  0.00     0.111 C 
BRANCH   9  10
HETATM   10  C2  UNL     1       9.107   1.697  25.220  1.00  0.00     0.258 C 
HETATM   11  O2  UNL     1       9.228   2.173  26.381  1.00  0.00    -0.265 OA
BRANCH  10  12
HETATM   12  O1  UNL     1      10.102   0.845  24.768  1.00  0.00    -0.326 OA
HETATM   13  C1  UNL     1      10.078  -0.535  25.154  1.00  0.00     0.213 C 
ENDBRANCH  10  12
ENDBRANCH   9  10
ENDBRANCH   8   9
ENDBRANCH   7   8
ENDBRANCH   6   7
ENDBRANCH   5   6
ENDBRANCH   4   5
ENDBRANCH   1   4
BRANCH   1  14
HETATM   14  C14 UNL     1       8.933   6.775  23.217  1.00  0.00     0.226 C 
HETATM   15  C15 UNL     1       9.596   5.746  22.359  1.00  0.00     0.057 C 
HETATM   16  C16 UNL     1      10.230   4.622  23.119  1.00  0.00     0.044 C 
HETATM   17  C17 UNL     1      10.840   5.298  24.367  1.00  0.00     0.083 C 
HETATM   18  C18 UNL     1      11.711   4.277  25.024  1.00  0.00     0.049 C 
HETATM   19  C19 UNL     1       9.626   5.674  25.174  1.00  0.00     0.186 C 
HETATM   20  O6  UNL     1       8.837   6.566  24.537  1.00  0.00    -0.356 OA
BRANCH  17  21
HETATM   21  O4  UNL     1      11.530   6.375  23.865  1.00  0.00    -0.388 OA
ATOM     22  H4  UNL     1      11.574   6.209  22.930  1.00  0.00     0.210 HD
ENDBRANCH  17  21
BRANCH  19  23
HETATM   23  C20 UNL     1       9.904   6.092  26.570  1.00  0.00     0.153 C 
HETATM   24  C21 UNL     1      10.725   7.284  26.785  1.00  0.00     0.036 C 
HETATM   25  C22 UNL     1      10.033   8.074  27.876  1.00  0.00     0.029 C 
HETATM   26  C23 UNL     1       8.880   7.189  28.241  1.00  0.00     0.168 C 
HETATM   27  O5  UNL     1       8.668   6.344  27.185  1.00  0.00    -0.383 OA
ENDBRANCH  19  23
ENDBRANCH   1  14
BRANCH   2  28
HETATM   28  C10 UNL     1       6.427   8.579  20.879  1.00  0.00     0.338 C 
BRANCH  28  29
HETATM   29  N2  UNL     1       5.549   9.492  21.620  1.00  0.00    -0.070 N 
HETATM   30  C11 UNL     1       5.302  10.679  20.781  1.00  0.00     0.272 C 
HETATM   31  C12 UNL     1       4.269   8.907  21.927  1.00  0.00     0.272 C 
HETATM   32  C13 UNL     1       6.152   9.969  22.840  1.00  0.00     0.272 C 
ENDBRANCH  28  29
ENDBRANCH   2  28
TORSDOF 13
ENDMDL
MODEL 3
REMARK VINA RESULT: -4.640579841      2.144      5.202
REMARK  13 active torsions:
REMARK  status: ('A' for Active; 'I' for Inactive)
REMARK    1  A    between atoms: O1_2  and  C2_3 
REMARK    2  A    between atoms: C2_3  and  C3_5 
REMARK    3  A    between atoms: C3_5  and  C4_6 
REMARK    4  A    between atoms: C4_6  and  C5_7 
REMARK    5  A    between atoms: C5_7  and  C6_8 
REMARK    6  A    between atoms: C6_8  and  C7_9 
REMARK    7  A    between atoms: C7_9  and  C8_10 
REMARK    8  A    between atoms: C8_10  and  N1_11 
REMARK       I    between atoms: N1_11  and  C9_12 
REMARK    9  A    between atoms: N1_11  and  C14_19 
REMARK   10  A    between atoms: C9_12  and  C10_14 
REMARK   11  A    between atoms: C10_14  and  N2_15 
REMARK   12  A    between atoms: C17_22  and  O4_24 
REMARK   13  A    between atoms: C19_26  and  C20_27 
ROOT
HETATM    1  N1  UNL     1       8.794   4.437  26.883  1.00  0.00    -0.324 N 
HETATM    2  C9  UNL     1       8.182   3.388  27.550  1.00  0.00     0.247 C 
HETATM    3  O3  UNL     1       8.342   2.215  27.041  1.00  0.00    -0.271 OA
ENDROOT
BRANCH   1   4
HETATM    4  C8  UNL     1       8.754   5.831  27.205  1.00  0.00     0.128 C 
BRANCH   4   5
HETATM    5  C7  UNL     1       7.752   6.680  26.511  1.00  0.00     0.020 C 
BRANCH   5   6
HETATM    6  C6  UNL     1       8.139   8.033  26.094  1.00  0.00     0.002 C 
BRANCH   6   7
HETATM    7  C5  UNL     1       7.570   8.504  24.774  1.00  0.00     0.001 C 
BRANCH   7   8
HETATM    8  C4  UNL     1       7.347   7.289  23.910  1.00  0.00     0.010 C 
BRANCH   8   9
HETATM    9  C3  UNL     1       7.148   7.615  22.460  1.00  0.00     0.111 C 
BRANCH   9  10
HETATM   10  C2  UNL     1       8.330   8.226  21.823  1.00  0.00     0.258 C 
HETATM   11  O2  UNL     1       9.424   7.604  21.868  1.00  0.00    -0.265 OA
BRANCH  10  12
HETATM   12  O1  UNL     1       8.312   9.450  21.174  1.00  0.00    -0.326 OA
HETATM   13  C1  UNL     1       7.247  10.373  21.435  1.00  0.00     0.213 C 
ENDBRANCH  10  12
ENDBRANCH   9  10
ENDBRANCH   8   9
ENDBRANCH   7   8
ENDBRANCH   6   7
ENDBRANCH   5   6
ENDBRANCH   4   5
ENDBRANCH   1   4
BRANCH   1  14
HETATM   14  C14 UNL     1       9.599   4.058  25.664  1.00  0.00     0.226 C 
HETATM   15  C15 UNL     1      10.810   4.935  25.682  1.00  0.00     0.057 C 
HETATM   16  C16 UNL     1      11.141   5.559  24.361  1.00  0.00     0.044 C 
HETATM   17  C17 UNL     1      10.830   4.455  23.325  1.00  0.00     0.083 C 
HETATM   18  C18 UNL     1      11.389   4.923  22.021  1.00  0.00     0.049 C 
HETATM   19  C19 UNL     1       9.327   4.382  23.352  1.00  0.00     0.186 C 
HETATM   20  O6  UNL     1       8.849   3.998  24.556  1.00  0.00    -0.356 OA
BRANCH  17  21
HETATM   21  O4  UNL     1      11.452   3.337  23.826  1.00  0.00    -0.388 OA
ATOM     22  H4  UNL     1      10.944   2.613  23.481  1.00  0.00     0.210 HD
ENDBRANCH  17  21
BRANCH  19  23
HETATM   23  C20 UNL     1       8.716   3.601  22.249  1.00  0.00     0.153 C 
HETATM   24  C21 UNL     1       8.653   2.145  22.383  1.00  0.00     0.036 C 
HETATM   25  C22 UNL     1       7.265   1.746  21.929  1.00  0.00     0.029 C 
HETATM   26  C23 UNL     1       6.672   3.053  21.496  1.00  0.00     0.168 C 
HETATM   27  O5  UNL     1       7.393   4.045  22.104  1.00  0.00    -0.383 OA
ENDBRANCH  19  23
ENDBRANCH   1  14
BRANCH   2  28
HETATM   28  C10 UNL     1       7.376   3.426  28.771  1.00  0.00     0.338 C 
BRANCH  28  29
HETATM   29  N2  UNL     1       5.949   3.639  28.507  1.00  0.00    -0.070 N 
HETATM   30  C11 UNL     1       5.565   4.949  29.063  1.00  0.00     0.272 C 
HETATM   31  C12 UNL     1       5.640   3.659  27.101  1.00  0.00     0.272 C 
HETATM   32  C13 UNL     1       5.115   2.657  29.156  1.00  0.00     0.272 C 
ENDBRANCH  28  29
ENDBRANCH   2  28
TORSDOF 13
ENDMDL
MODEL 4
REMARK VINA RESULT: -4.600433657      2.853      7.013
REMARK  13 active torsions:
REMARK  status: ('A' for Active; 'I' for Inactive)
REMARK    1  A    between atoms: O1_2  and  C2_3 
REMARK    2  A    between atoms: C2_3  and  C3_5 
REMARK    3  A    between atoms: C3_5  and  C4_6 
REMARK    4  A    between atoms: C4_6  and  C5_7 
REMARK    5  A    between atoms: C5_7  and  C6_8 
REMARK    6  A    between atoms: C6_8  and  C7_9 
REMARK    7  A    between atoms: C7_9  and  C8_10 
REMARK    8  A    between atoms: C8_10  and  N1_11 
REMARK       I    between atoms: N1_11  and  C9_12 
REMARK    9  A    between atoms: N1_11  and  C14_19 
REMARK   10  A    between atoms: C9_12  and  C10_14 
REMARK   11  A    between atoms: C10_14  and  N2_15 
REMARK   12  A    between atoms: C17_22  and  O4_24 
REMARK   13  A    between atoms: C19_26  and  C20_27 
ROOT
HETATM    1  N1  UNL     1       8.375   2.004  24.692  1.00  0.00    -0.324 N 
HETATM    2  C9  UNL     1       7.627   0.936  24.225  1.00  0.00     0.247 C 
HETATM    3  O3  UNL     1       7.497   0.845  22.947  1.00  0.00    -0.271 OA
ENDROOT
BRANCH   1   4
HETATM    4  C8  UNL     1       8.650   2.363  26.050  1.00  0.00     0.128 C 
BRANCH   4   5
HETATM    5  C7  UNL     1       7.688   3.255  26.747  1.00  0.00     0.020 C 
BRANCH   5   6
HETATM    6  C6  UNL     1       8.208   4.382  27.530  1.00  0.00     0.002 C 
BRANCH   6   7
HETATM    7  C5  UNL     1       8.573   5.619  26.741  1.00  0.00     0.001 C 
BRANCH   7   8
HETATM    8  C4  UNL     1      10.076   5.733  26.730  1.00  0.00     0.010 C 
BRANCH   8   9
HETATM    9  C3  UNL     1      10.569   7.116  26.430  1.00  0.00     0.111 C 
BRANCH   9  10
HETATM   10  C2  UNL     1       9.933   8.162  27.253  1.00  0.00     0.258 C 
HETATM   11  O2  UNL     1       9.190   9.004  26.683  1.00  0.00    -0.265 OA
BRANCH  10  12
HETATM   12  O1  UNL     1      10.102   8.277  28.623  1.00  0.00    -0.326 OA
HETATM   13  C1  UNL     1       8.976   8.098  29.491  1.00  0.00     0.213 C 
ENDBRANCH  10  12
ENDBRANCH   9  10
ENDBRANCH   8   9
ENDBRANCH   7   8
ENDBRANCH   6   7
ENDBRANCH   5   6
ENDBRANCH   4   5
ENDBRANCH   1   4
BRANCH   1  14
HETATM   14  C14 UNL     1       8.970   2.901  23.634  1.00  0.00     0.226 C 
HETATM   15  C15 UNL     1      10.453   2.794  23.789  1.00  0.00     0.057 C 
HETATM   16  C16 UNL     1      11.174   4.107  23.756  1.00  0.00     0.044 C 
HETATM   17  C17 UNL     1      10.427   4.930  22.683  1.00  0.00     0.083 C 
HETATM   18  C18 UNL     1      11.260   6.141  22.418  1.00  0.00     0.049 C 
HETATM   19  C19 UNL     1       9.109   5.230  23.346  1.00  0.00     0.186 C 
HETATM   20  O6  UNL     1       8.398   4.113  23.612  1.00  0.00    -0.356 OA
BRANCH  17  21
HETATM   21  O4  UNL     1      10.330   4.077  21.610  1.00  0.00    -0.388 OA
ATOM     22  H4  UNL     1       9.404   4.067  21.403  1.00  0.00     0.210 HD
ENDBRANCH  17  21
BRANCH  19  23
HETATM   23  C20 UNL     1       8.281   6.253  22.663  1.00  0.00     0.153 C 
HETATM   24  C21 UNL     1       6.911   5.901  22.291  1.00  0.00     0.036 C 
HETATM   25  C22 UNL     1       6.057   7.089  22.677  1.00  0.00     0.029 C 
HETATM   26  C23 UNL     1       7.069   8.070  23.186  1.00  0.00     0.168 C 
HETATM   27  O5  UNL     1       8.189   7.358  23.523  1.00  0.00    -0.383 OA
ENDBRANCH  19  23
ENDBRANCH   1  14
BRANCH   2  28
HETATM   28  C10 UNL     1       6.963  -0.120  24.991  1.00  0.00     0.338 C 
BRANCH  28  29
HETATM   29  N2  UNL     1       7.877  -1.199  25.385  1.00  0.00    -0.070 N 
HETATM   30  C11 UNL     1       7.273  -2.484  24.991  1.00  0.00     0.272 C 
HETATM   31  C12 UNL     1       9.160  -1.107  24.738  1.00  0.00     0.272 C 
HETATM   32  C13 UNL     1       8.075  -1.259  26.813  1.00  0.00     0.272 C 
ENDBRANCH  28  29
ENDBRANCH   2  28
TORSDOF 13
ENDMDL
MODEL 5
REMARK VINA RESULT: -4.599837788      3.095      6.133
REMARK  13 active torsions:
REMARK  status: ('A' for Active; 'I' for Inactive)
REMARK    1  A    between atoms: O1_2  and  C2_3 
REMARK    2  A    between atoms: C2_3  and  C3_5 
REMARK    3  A    between atoms: C3_5  and  C4_6 
REMARK    4  A    between atoms: C4_6  and  C5_7 
REMARK    5  A    between atoms: C5_7  and  C6_8 
REMARK    6  A    between atoms: C6_8  and  C7_9 
REMARK    7  A    between atoms: C7_9  and  C8_10 
REMARK    8  A    between atoms: C8_10  and  N1_11 
REMARK       I    between atoms: N1_11  and  C9_12 
REMARK    9  A    between atoms: N1_11  and  C14_19 
REMARK   10  A    between atoms: C9_12  and  C10_14 
REMARK   11  A    between atoms: C10_14  and  N2_15 
REMARK   12  A    between atoms: C17_22  and  O4_24 
REMARK   13  A    between atoms: C19_26  and  C20_27 
ROOT
HETATM    1  N1  UNL     1       7.992   4.412  22.299  1.00  0.00    -0.324 N 
HETATM    2  C9  UNL     1       6.675   4.570  21.901  1.00  0.00     0.247 C 
HETATM    3  O3  UNL     1       5.973   5.416  22.574  1.00  0.00    -0.271 OA
ENDROOT
BRANCH   1   4
HETATM    4  C8  UNL     1       8.977   3.526  21.758  1.00  0.00     0.128 C 
BRANCH   4   5
HETATM    5  C7  UNL     1       8.943   2.101  22.177  1.00  0.00     0.020 C 
BRANCH   5   6
HETATM    6  C6  UNL     1       9.671   1.702  23.387  1.00  0.00     0.002 C 
BRANCH   6   7
HETATM    7  C5  UNL     1       8.834   1.089  24.488  1.00  0.00     0.001 C 
BRANCH   7   8
HETATM    8  C4  UNL     1       9.723   0.172  25.288  1.00  0.00     0.010 C 
BRANCH   8   9
HETATM    9  C3  UNL     1       9.738  -1.239  24.780  1.00  0.00     0.111 C 
BRANCH   9  10
HETATM   10  C2  UNL     1      10.775  -2.080  25.407  1.00  0.00     0.258 C 
HETATM   11  O2  UNL     1      11.966  -1.954  25.016  1.00  0.00    -0.265 OA
BRANCH  10  12
HETATM   12  O1  UNL     1      10.520  -3.006  26.405  1.00  0.00    -0.326 OA
HETATM   13  C1  UNL     1       9.279  -2.951  27.120  1.00  0.00     0.213 C 
ENDBRANCH  10  12
ENDBRANCH   9  10
ENDBRANCH   8   9
ENDBRANCH   7   8
ENDBRANCH   6   7
ENDBRANCH   5   6
ENDBRANCH   4   5
ENDBRANCH   1   4
BRANCH   1  14
HETATM   14  C14 UNL     1       8.439   5.281  23.450  1.00  0.00     0.226 C 
HETATM   15  C15 UNL     1       9.697   5.950  22.996  1.00  0.00     0.057 C 
HETATM   16  C16 UNL     1      10.805   5.933  24.005  1.00  0.00     0.044 C 
HETATM   17  C17 UNL     1      10.095   6.149  25.359  1.00  0.00     0.083 C 
HETATM   18  C18 UNL     1      11.167   6.408  26.367  1.00  0.00     0.049 C 
HETATM   19  C19 UNL     1       9.363   4.850  25.568  1.00  0.00     0.186 C 
HETATM   20  O6  UNL     1       8.430   4.624  24.618  1.00  0.00    -0.356 OA
BRANCH  17  21
HETATM   21  O4  UNL     1       9.269   7.226  25.140  1.00  0.00    -0.388 OA
ATOM     22  H4  UNL     1       9.286   7.704  25.960  1.00  0.00     0.210 HD
ENDBRANCH  17  21
BRANCH  19  23
HETATM   23  C20 UNL     1       8.813   4.651  26.931  1.00  0.00     0.153 C 
HETATM   24  C21 UNL     1       7.518   5.253  27.250  1.00  0.00     0.036 C 
HETATM   25  C22 UNL     1       6.740   4.193  27.999  1.00  0.00     0.029 C 
HETATM   26  C23 UNL     1       7.728   3.070  28.100  1.00  0.00     0.168 C 
HETATM   27  O5  UNL     1       8.668   3.269  27.125  1.00  0.00    -0.383 OA
ENDBRANCH  19  23
ENDBRANCH   1  14
BRANCH   2  28
HETATM   28  C10 UNL     1       5.965   3.911  20.805  1.00  0.00     0.338 C 
BRANCH  28  29
HETATM   29  N2  UNL     1       5.051   2.860  21.268  1.00  0.00    -0.070 N 
HETATM   30  C11 UNL     1       5.184   1.701  20.368  1.00  0.00     0.272 C 
HETATM   31  C12 UNL     1       5.352   2.408  22.602  1.00  0.00     0.272 C 
HETATM   32  C13 UNL     1       3.668   3.267  21.212  1.00  0.00     0.272 C 
ENDBRANCH  28  29
ENDBRANCH   2  28
TORSDOF 13
ENDMDL
