MODEL 1
REMARK VINA RESULT: -6.134488457      0.000      0.000
REMARK  12 active torsions:
REMARK  status: ('A' for Active; 'I' for Inactive)
REMARK    1  A    between atoms: C3_3  and  C5_5 
REMARK    2  A    between atoms: C5_5  and  C6_6 
REMARK    3  A    between atoms: C6_6  and  N1_7 
REMARK       I    between atoms: N1_7  and  C7_9 
REMARK       I    between atoms: C7_9  and  N2_11 
REMARK       I    between atoms: N2_11  and  C8_13 
REMARK    4  A    between atoms: C8_13  and  C9_15 
REMARK    5  A    between atoms: C9_15  and  C10_16 
REMARK    6  A    between atoms: C9_15  and  C14_22 
REMARK    7  A    between atoms: C10_16  and  C11_17 
REMARK    8  A    between atoms: C11_17  and  C12_18 
REMARK    9  A    between atoms: C12_18  and  O4_20 
REMARK   10  A    between atoms: C14_22  and  C15_23 
REMARK   11  A    between atoms: C15_23  and  S1_24 
REMARK   12  A    between atoms: S1_24  and  C16_26 
ROOT
HETATM    1  C1  UNL     1       9.369   8.297  29.224  1.00  0.00     0.012 C 
HETATM    2  C2  UNL     1       9.321   7.494  28.313  1.00  0.00    -0.113 C 
HETATM    3  C3  UNL     1       9.288   6.505  27.204  1.00  0.00     0.061 C 
HETATM    4  C4  UNL     1       7.946   6.513  26.543  1.00  0.00     0.023 C 
ENDROOT
BRANCH   3   5
HETATM    5  C5  UNL     1      10.434   6.857  26.271  1.00  0.00     0.036 C 
BRANCH   5   6
HETATM    6  C6  UNL     1      11.362   5.728  25.988  1.00  0.00     0.125 C 
BRANCH   6   7
HETATM    7  N1  UNL     1      10.583   4.532  25.687  1.00  0.00    -0.343 N 
HETATM    8  C7  UNL     1      11.154   3.388  25.099  1.00  0.00     0.322 C 
HETATM    9  O1  UNL     1      12.411   3.416  24.773  1.00  0.00    -0.247 OA
HETATM   10  N2  UNL     1      10.469   2.206  24.837  1.00  0.00    -0.279 N 
HETATM   11  C8  UNL     1       9.128   1.930  25.127  1.00  0.00     0.229 C 
ATOM     12  H2  UNL     1      11.001   1.461  24.385  1.00  0.00     0.173 HD
HETATM   13  O2  UNL     1       8.292   2.705  25.626  1.00  0.00    -0.273 OA
ATOM     14  H1  UNL     1       9.588   4.525  25.910  1.00  0.00     0.164 HD
BRANCH  11  15
HETATM   15  C9  UNL     1       8.589   0.545  24.819  1.00  0.00     0.079 C 
BRANCH  15  16
HETATM   16  C10 UNL     1       9.694  -0.390  24.478  1.00  0.00     0.024 C 
BRANCH  16  17
HETATM   17  C11 UNL     1       9.441  -1.838  24.830  1.00  0.00     0.112 C 
BRANCH  17  18
HETATM   18  C12 UNL     1      10.707  -2.293  25.518  1.00  0.00     0.258 C 
HETATM   19  O3  UNL     1      11.783  -1.855  25.113  1.00  0.00    -0.265 OA
BRANCH  18  20
HETATM   20  O4  UNL     1      10.672  -3.193  26.603  1.00  0.00    -0.326 OA
HETATM   21  C13 UNL     1       9.670  -3.107  27.602  1.00  0.00     0.213 C 
ENDBRANCH  18  20
ENDBRANCH  17  18
ENDBRANCH  16  17
ENDBRANCH  15  16
BRANCH  15  22
HETATM   22  C14 UNL     1       7.514   0.646  23.777  1.00  0.00     0.027 C 
BRANCH  22  23
HETATM   23  C15 UNL     1       7.911   1.528  22.661  1.00  0.00     0.118 C 
BRANCH  23  24
HETATM   24  S1  UNL     1       6.957   2.932  22.327  1.00  0.00     0.084 S 
HETATM   25  O5  UNL     1       6.172   2.839  20.879  1.00  0.00    -0.250 OA
BRANCH  24  26
HETATM   26  C16 UNL     1       7.993   4.346  22.391  1.00  0.00     0.175 A 
HETATM   27  N3  UNL     1       9.310   4.271  22.099  1.00  0.00    -0.339 N 
HETATM   28  C17 UNL     1      10.123   5.334  22.143  1.00  0.00     0.009 A 
ATOM     29  H3  UNL     1       9.701   3.368  21.834  1.00  0.00     0.168 HD
HETATM   30  C18 UNL     1      11.557   5.209  21.811  1.00  0.00     0.068 C 
HETATM   31  C19 UNL     1       9.626   6.567  22.496  1.00  0.00     0.049 A 
HETATM   32  C20 UNL     1       8.266   6.650  22.800  1.00  0.00     0.009 A 
HETATM   33  C21 UNL     1       7.735   7.972  23.189  1.00  0.00     0.068 C 
HETATM   34  N4  UNL     1       7.504   5.549  22.737  1.00  0.00    -0.339 N 
ATOM     35  H4  UNL     1       6.512   5.627  22.962  1.00  0.00     0.168 HD
ENDBRANCH  24  26
ENDBRANCH  23  24
ENDBRANCH  22  23
ENDBRANCH  15  22
ENDBRANCH  11  15
ENDBRANCH   6   7
ENDBRANCH   5   6
ENDBRANCH   3   5
TORSDOF 12
ENDMDL
MODEL 2
REMARK VINA RESULT: -5.955095522      2.424      6.900
REMARK  12 active torsions:
REMARK  status: ('A' for Active; 'I' for Inactive)
REMARK    1  A    between atoms: C3_3  and  C5_5 
REMARK    2  A    between atoms: C5_5  and  C6_6 
REMARK    3  A    between atoms: C6_6  and  N1_7 
REMARK       I    between atoms: N1_7  and  C7_9 
REMARK       I    between atoms: C7_9  and  N2_11 
REMARK       I    between atoms: N2_11  and  C8_13 
REMARK    4  A    between atoms: C8_13  and  C9_15 
REMARK    5  A    between atoms: C9_15  and  C10_16 
REMARK    6  A    between atoms: C9_15  and  C14_22 
REMARK    7  A    between atoms: C10_16  and  C11_17 
REMARK    8  A    between atoms: C11_17  and  C12_18 
REMARK    9  A    between atoms: C12_18  and  O4_20 
REMARK   10  A    between atoms: C14_22  and  C15_23 
REMARK   11  A    between atoms: C15_23  and  S1_24 
REMARK   12  A    between atoms: S1_24  and  C16_26 
ROOT
HETATM    1  C1  UNL     1       8.232  -3.304  24.469  1.00  0.00     0.012 C 
HETATM    2  C2  UNL     1       8.641  -2.894  25.538  1.00  0.00    -0.113 C 
HETATM    3  C3  UNL     1       9.126  -2.370  26.841  1.00  0.00     0.061 C 
HETATM    4  C4  UNL     1      10.061  -3.349  27.476  1.00  0.00     0.023 C 
ENDROOT
BRANCH   3   5
HETATM    5  C5  UNL     1       9.752  -1.015  26.561  1.00  0.00     0.036 C 
BRANCH   5   6
HETATM    6  C6  UNL     1       8.866   0.144  26.862  1.00  0.00     0.125 C 
BRANCH   6   7
HETATM    7  N1  UNL     1       9.483   1.363  26.353  1.00  0.00    -0.343 N 
HETATM    8  C7  UNL     1       8.852   2.618  26.431  1.00  0.00     0.322 C 
HETATM    9  O1  UNL     1       7.657   2.683  26.936  1.00  0.00    -0.247 OA
HETATM   10  N2  UNL     1       9.415   3.817  26.007  1.00  0.00    -0.279 N 
HETATM   11  C8  UNL     1      10.693   3.999  25.465  1.00  0.00     0.229 C 
ATOM     12  H2  UNL     1       8.836   4.651  26.102  1.00  0.00     0.173 HD
HETATM   13  O2  UNL     1      11.537   3.119  25.218  1.00  0.00    -0.273 OA
ATOM     14  H1  UNL     1      10.407   1.303  25.924  1.00  0.00     0.164 HD
BRANCH  11  15
HETATM   15  C9  UNL     1      11.143   5.408  25.127  1.00  0.00     0.079 C 
BRANCH  15  16
HETATM   16  C10 UNL     1      11.278   6.231  26.359  1.00  0.00     0.024 C 
BRANCH  16  17
HETATM   17  C11 UNL     1      10.375   7.443  26.422  1.00  0.00     0.112 C 
BRANCH  17  18
HETATM   18  C12 UNL     1       9.496   7.203  27.628  1.00  0.00     0.258 C 
HETATM   19  O3  UNL     1       8.718   6.250  27.605  1.00  0.00    -0.265 OA
BRANCH  18  20
HETATM   20  O4  UNL     1       9.557   8.040  28.760  1.00  0.00    -0.326 OA
HETATM   21  C13 UNL     1       8.571   7.982  29.777  1.00  0.00     0.213 C 
ENDBRANCH  18  20
ENDBRANCH  17  18
ENDBRANCH  16  17
ENDBRANCH  15  16
BRANCH  15  22
HETATM   22  C14 UNL     1      10.234   5.989  24.085  1.00  0.00     0.027 C 
BRANCH  22  23
HETATM   23  C15 UNL     1      10.903   6.103  22.773  1.00  0.00     0.118 C 
BRANCH  23  24
HETATM   24  S1  UNL     1      11.096   4.680  21.809  1.00  0.00     0.084 S 
HETATM   25  O5  UNL     1      11.310   5.019  20.208  1.00  0.00    -0.250 OA
BRANCH  24  26
HETATM   26  C16 UNL     1       9.703   3.641  22.052  1.00  0.00     0.175 A 
HETATM   27  N3  UNL     1       9.834   2.384  22.530  1.00  0.00    -0.339 N 
HETATM   28  C17 UNL     1       8.788   1.571  22.721  1.00  0.00     0.009 A 
ATOM     29  H3  UNL     1      10.767   2.042  22.755  1.00  0.00     0.168 HD
HETATM   30  C18 UNL     1       8.975   0.205  23.252  1.00  0.00     0.068 C 
HETATM   31  C19 UNL     1       7.516   2.003  22.429  1.00  0.00     0.049 A 
HETATM   32  C20 UNL     1       7.376   3.301  21.933  1.00  0.00     0.009 A 
HETATM   33  C21 UNL     1       6.010   3.761  21.610  1.00  0.00     0.068 C 
HETATM   34  N4  UNL     1       8.462   4.068  21.763  1.00  0.00    -0.339 N 
ATOM     35  H4  UNL     1       8.341   5.013  21.401  1.00  0.00     0.168 HD
ENDBRANCH  24  26
ENDBRANCH  23  24
ENDBRANCH  22  23
ENDBRANCH  15  22
ENDBRANCH  11  15
ENDBRANCH   6   7
ENDBRANCH   5   6
ENDBRANCH   3   5
TORSDOF 12
ENDMDL
MODEL 3
REMARK VINA RESULT: -5.946669624      3.709      8.187
REMARK  12 active torsions:
REMARK  status: ('A' for Active; 'I' for Inactive)
REMARK    1  A    between atoms: C3_3  and  C5_5 
REMARK    2  A    between atoms: C5_5  and  C6_6 
REMARK    3  A    between atoms: C6_6  and  N1_7 
REMARK       I    between atoms: N1_7  and  C7_9 
REMARK       I    between atoms: C7_9  and  N2_11 
REMARK       I    between atoms: N2_11  and  C8_13 
REMARK    4  A    between atoms: C8_13  and  C9_15 
REMARK    5  A    between atoms: C9_15  and  C10_16 
REMARK    6  A    between atoms: C9_15  and  C14_22 
REMARK    7  A    between atoms: C10_16  and  C11_17 
REMARK    8  A    between atoms: C11_17  and  C12_18 
REMARK    9  A    between atoms: C12_18  and  O4_20 
REMARK   10  A    between atoms: C14_22  and  C15_23 
REMARK   11  A    between atoms: C15_23  and  S1_24 
REMARK   12  A    between atoms: S1_24  and  C16_26 
ROOT
HETATM    1  C1  UNL     1       5.965   2.491  21.123  1.00  0.00     0.012 C 
HETATM    2  C2  UNL     1       6.953   2.445  21.831  1.00  0.00    -0.113 C 
HETATM    3  C3  UNL     1       8.168   2.412  22.685  1.00  0.00     0.061 C 
HETATM    4  C4  UNL     1       8.161   1.191  23.549  1.00  0.00     0.023 C 
ENDROOT
BRANCH   3   5
HETATM    5  C5  UNL     1       9.361   2.495  21.750  1.00  0.00     0.036 C 
BRANCH   5   6
HETATM    6  C6  UNL     1      10.141   3.760  21.861  1.00  0.00     0.125 C 
BRANCH   6   7
HETATM    7  N1  UNL     1       9.343   4.752  22.573  1.00  0.00    -0.343 N 
HETATM    8  C7  UNL     1       9.716   6.107  22.647  1.00  0.00     0.322 C 
HETATM    9  O1  UNL     1      10.833   6.476  22.099  1.00  0.00    -0.247 OA
HETATM   10  N2  UNL     1       8.969   7.102  23.269  1.00  0.00    -0.279 N 
HETATM   11  C8  UNL     1       7.725   6.951  23.895  1.00  0.00     0.229 C 
ATOM     12  H2  UNL     1       9.369   8.040  23.268  1.00  0.00     0.173 HD
HETATM   13  O2  UNL     1       7.086   5.895  24.053  1.00  0.00    -0.273 OA
ATOM     14  H1  UNL     1       8.484   4.453  23.034  1.00  0.00     0.164 HD
BRANCH  11  15
HETATM   15  C9  UNL     1       7.042   8.185  24.457  1.00  0.00     0.079 C 
BRANCH  15  16
HETATM   16  C10 UNL     1       6.475   9.020  23.365  1.00  0.00     0.024 C 
BRANCH  16  17
HETATM   17  C11 UNL     1       7.373  10.136  22.879  1.00  0.00     0.112 C 
BRANCH  17  18
HETATM   18  C12 UNL     1       7.651   9.801  21.432  1.00  0.00     0.258 C 
HETATM   19  O3  UNL     1       8.593   9.054  21.174  1.00  0.00    -0.265 OA
BRANCH  18  20
HETATM   20  O4  UNL     1       6.855  10.322  20.391  1.00  0.00    -0.326 OA
HETATM   21  C13 UNL     1       7.436  10.932  19.251  1.00  0.00     0.213 C 
ENDBRANCH  18  20
ENDBRANCH  17  18
ENDBRANCH  16  17
ENDBRANCH  15  16
BRANCH  15  22
HETATM   22  C14 UNL     1       7.987   8.909  25.370  1.00  0.00     0.027 C 
BRANCH  22  23
HETATM   23  C15 UNL     1       7.900   8.411  26.757  1.00  0.00     0.118 C 
BRANCH  23  24
HETATM   24  S1  UNL     1       9.301   7.694  27.476  1.00  0.00     0.084 S 
HETATM   25  O5  UNL     1      10.667   8.589  27.241  1.00  0.00    -0.250 OA
BRANCH  24  26
HETATM   26  C16 UNL     1       9.494   6.071  26.837  1.00  0.00     0.175 A 
HETATM   27  N3  UNL     1       8.519   5.144  26.957  1.00  0.00    -0.339 N 
HETATM   28  C17 UNL     1       8.642   3.899  26.481  1.00  0.00     0.009 A 
ATOM     29  H3  UNL     1       7.653   5.404  27.428  1.00  0.00     0.168 HD
HETATM   30  C18 UNL     1       7.548   2.917  26.628  1.00  0.00     0.068 C 
HETATM   31  C19 UNL     1       9.797   3.518  25.840  1.00  0.00     0.049 A 
HETATM   32  C20 UNL     1      10.808   4.472  25.714  1.00  0.00     0.009 A 
HETATM   33  C21 UNL     1      12.053   4.058  25.035  1.00  0.00     0.068 C 
HETATM   34  N4  UNL     1      10.625   5.703  26.212  1.00  0.00    -0.339 N 
ATOM     35  H4  UNL     1      11.374   6.387  26.111  1.00  0.00     0.168 HD
ENDBRANCH  24  26
ENDBRANCH  23  24
ENDBRANCH  22  23
ENDBRANCH  15  22
ENDBRANCH  11  15
ENDBRANCH   6   7
ENDBRANCH   5   6
ENDBRANCH   3   5
TORSDOF 12
ENDMDL
MODEL 4
REMARK VINA RESULT: -5.941761455      2.696      7.144
REMARK  12 active torsions:
REMARK  status: ('A' for Active; 'I' for Inactive)
REMARK    1  A    between atoms: C3_3  and  C5_5 
REMARK    2  A    between atoms: C5_5  and  C6_6 
REMARK    3  A    between atoms: C6_6  and  N1_7 
REMARK       I    between atoms: N1_7  and  C7_9 
REMARK       I    between atoms: C7_9  and  N2_11 
REMARK       I    between atoms: N2_11  and  C8_13 
REMARK    4  A    between atoms: C8_13  and  C9_15 
REMARK    5  A    between atoms: C9_15  and  C10_16 
REMARK    6  A    between atoms: C9_15  and  C14_22 
REMARK    7  A    between atoms: C10_16  and  C11_17 
REMARK    8  A    between atoms: C11_17  and  C12_18 
REMARK    9  A    between atoms: C12_18  and  O4_20 
REMARK   10  A    between atoms: C14_22  and  C15_23 
REMARK   11  A    between atoms: C15_23  and  S1_24 
REMARK   12  A    between atoms: S1_24  and  C16_26 
ROOT
HETATM    1  C1  UNL     1       7.481   5.380  30.573  1.00  0.00     0.012 C 
HETATM    2  C2  UNL     1       7.903   6.479  30.875  1.00  0.00    -0.113 C 
HETATM    3  C3  UNL     1       8.407   7.833  31.221  1.00  0.00     0.061 C 
HETATM    4  C4  UNL     1       9.145   7.794  32.521  1.00  0.00     0.023 C 
ENDROOT
BRANCH   3   5
HETATM    5  C5  UNL     1       9.254   8.296  30.048  1.00  0.00     0.036 C 
BRANCH   5   6
HETATM    6  C6  UNL     1       8.556   8.252  28.733  1.00  0.00     0.125 C 
BRANCH   6   7
HETATM    7  N1  UNL     1       9.317   7.411  27.816  1.00  0.00    -0.343 N 
HETATM    8  C7  UNL     1       8.704   6.460  26.980  1.00  0.00     0.322 C 
HETATM    9  O1  UNL     1       7.419   6.296  27.061  1.00  0.00    -0.247 OA
HETATM   10  N2  UNL     1       9.376   5.668  26.054  1.00  0.00    -0.279 N 
HETATM   11  C8  UNL     1      10.746   5.690  25.767  1.00  0.00     0.229 C 
ATOM     12  H2  UNL     1       8.810   5.002  25.528  1.00  0.00     0.173 HD
HETATM   13  O2  UNL     1      11.619   6.383  26.321  1.00  0.00    -0.273 OA
ATOM     14  H1  UNL     1      10.331   7.516  27.781  1.00  0.00     0.164 HD
BRANCH  11  15
HETATM   15  C9  UNL     1      11.271   4.787  24.666  1.00  0.00     0.079 C 
BRANCH  15  16
HETATM   16  C10 UNL     1      10.427   4.893  23.447  1.00  0.00     0.024 C 
BRANCH  16  17
HETATM   17  C11 UNL     1      10.701   6.101  22.580  1.00  0.00     0.112 C 
BRANCH  17  18
HETATM   18  C12 UNL     1       9.373   6.818  22.491  1.00  0.00     0.258 C 
HETATM   19  O3  UNL     1       8.427   6.380  23.143  1.00  0.00    -0.265 OA
BRANCH  18  20
HETATM   20  O4  UNL     1       9.211   7.966  21.689  1.00  0.00    -0.326 OA
HETATM   21  C13 UNL     1       8.030   8.748  21.749  1.00  0.00     0.213 C 
ENDBRANCH  18  20
ENDBRANCH  17  18
ENDBRANCH  16  17
ENDBRANCH  15  16
BRANCH  15  22
HETATM   22  C14 UNL     1      11.431   3.392  25.196  1.00  0.00     0.027 C 
BRANCH  22  23
HETATM   23  C15 UNL     1      10.425   2.471  24.630  1.00  0.00     0.118 C 
BRANCH  23  24
HETATM   24  S1  UNL     1       9.072   2.013  25.605  1.00  0.00     0.084 S 
HETATM   25  O5  UNL     1       8.886   2.976  26.931  1.00  0.00    -0.250 OA
BRANCH  24  26
HETATM   26  C16 UNL     1       9.256   0.331  26.069  1.00  0.00     0.175 A 
HETATM   27  N3  UNL     1       9.522  -0.025  27.345  1.00  0.00    -0.339 N 
HETATM   28  C17 UNL     1       9.670  -1.300  27.725  1.00  0.00     0.009 A 
ATOM     29  H3  UNL     1       9.614   0.709  28.048  1.00  0.00     0.168 HD
HETATM   30  C18 UNL     1       9.955  -1.645  29.133  1.00  0.00     0.068 C 
HETATM   31  C19 UNL     1       9.551  -2.312  26.802  1.00  0.00     0.049 A 
HETATM   32  C20 UNL     1       9.277  -1.950  25.482  1.00  0.00     0.009 A 
HETATM   33  C21 UNL     1       9.160  -3.037  24.489  1.00  0.00     0.068 C 
HETATM   34  N4  UNL     1       9.140  -0.655  25.164  1.00  0.00    -0.339 N 
ATOM     35  H4  UNL     1       8.940  -0.408  24.195  1.00  0.00     0.168 HD
ENDBRANCH  24  26
ENDBRANCH  23  24
ENDBRANCH  22  23
ENDBRANCH  15  22
ENDBRANCH  11  15
ENDBRANCH   6   7
ENDBRANCH   5   6
ENDBRANCH   3   5
TORSDOF 12
ENDMDL
MODEL 5
REMARK VINA RESULT: -5.705046106      3.361      6.343
REMARK  12 active torsions:
REMARK  status: ('A' for Active; 'I' for Inactive)
REMARK    1  A    between atoms: C3_3  and  C5_5 
REMARK    2  A    between atoms: C5_5  and  C6_6 
REMARK    3  A    between atoms: C6_6  and  N1_7 
REMARK       I    between atoms: N1_7  and  C7_9 
REMARK       I    between atoms: C7_9  and  N2_11 
REMARK       I    between atoms: N2_11  and  C8_13 
REMARK    4  A    between atoms: C8_13  and  C9_15 
REMARK    5  A    between atoms: C9_15  and  C10_16 
REMARK    6  A    between atoms: C9_15  and  C14_22 
REMARK    7  A    between atoms: C10_16  and  C11_17 
REMARK    8  A    between atoms: C11_17  and  C12_18 
REMARK    9  A    between atoms: C12_18  and  O4_20 
REMARK   10  A    between atoms: C14_22  and  C15_23 
REMARK   11  A    between atoms: C15_23  and  S1_24 
REMARK   12  A    between atoms: S1_24  and  C16_26 
ROOT
HETATM    1  C1  UNL     1       3.397   4.603  23.411  1.00  0.00     0.012 C 
HETATM    2  C2  UNL     1       4.326   4.893  22.682  1.00  0.00    -0.113 C 
HETATM    3  C3  UNL     1       5.464   5.272  21.805  1.00  0.00     0.061 C 
HETATM    4  C4  UNL     1       5.720   4.196  20.797  1.00  0.00     0.023 C 
ENDROOT
BRANCH   3   5
HETATM    5  C5  UNL     1       5.115   6.616  21.193  1.00  0.00     0.036 C 
BRANCH   5   6
HETATM    6  C6  UNL     1       6.087   7.702  21.502  1.00  0.00     0.125 C 
BRANCH   6   7
HETATM    7  N1  UNL     1       7.188   7.150  22.283  1.00  0.00    -0.343 N 
HETATM    8  C7  UNL     1       8.493   7.674  22.223  1.00  0.00     0.322 C 
HETATM    9  O1  UNL     1       8.731   8.657  21.409  1.00  0.00    -0.247 OA
HETATM   10  N2  UNL     1       9.566   7.219  22.981  1.00  0.00    -0.279 N 
HETATM   11  C8  UNL     1       9.543   6.200  23.942  1.00  0.00     0.229 C 
ATOM     12  H2  UNL     1      10.464   7.675  22.821  1.00  0.00     0.173 HD
HETATM   13  O2  UNL     1       8.575   5.485  24.256  1.00  0.00    -0.273 OA
ATOM     14  H1  UNL     1       7.006   6.354  22.894  1.00  0.00     0.164 HD
BRANCH  11  15
HETATM   15  C9  UNL     1      10.817   5.900  24.711  1.00  0.00     0.079 C 
BRANCH  15  16
HETATM   16  C10 UNL     1      11.442   4.639  24.230  1.00  0.00     0.024 C 
BRANCH  16  17
HETATM   17  C11 UNL     1      11.615   3.567  25.282  1.00  0.00     0.112 C 
BRANCH  17  18
HETATM   18  C12 UNL     1      10.521   2.566  24.992  1.00  0.00     0.258 C 
HETATM   19  O3  UNL     1       9.980   1.999  25.940  1.00  0.00    -0.265 OA
BRANCH  18  20
HETATM   20  O4  UNL     1      10.117   2.281  23.672  1.00  0.00    -0.326 OA
HETATM   21  C13 UNL     1       8.781   1.912  23.371  1.00  0.00     0.213 C 
ENDBRANCH  18  20
ENDBRANCH  17  18
ENDBRANCH  16  17
ENDBRANCH  15  16
BRANCH  15  22
HETATM   22  C14 UNL     1      10.533   5.934  26.183  1.00  0.00     0.027 C 
BRANCH  22  23
HETATM   23  C15 UNL     1      10.939   7.217  26.792  1.00  0.00     0.118 C 
BRANCH  23  24
HETATM   24  S1  UNL     1       9.767   8.124  27.685  1.00  0.00     0.084 S 
HETATM   25  O5  UNL     1       9.111   7.265  28.931  1.00  0.00    -0.250 OA
BRANCH  24  26
HETATM   26  C16 UNL     1       8.524   8.680  26.580  1.00  0.00     0.175 A 
HETATM   27  N3  UNL     1       8.610   9.880  25.965  1.00  0.00    -0.339 N 
HETATM   28  C17 UNL     1       7.674  10.329  25.120  1.00  0.00     0.009 A 
ATOM     29  H3  UNL     1       9.423  10.468  26.151  1.00  0.00     0.168 HD
HETATM   30  C18 UNL     1       7.811  11.646  24.464  1.00  0.00     0.068 C 
HETATM   31  C19 UNL     1       6.567   9.561  24.846  1.00  0.00     0.049 A 
HETATM   32  C20 UNL     1       6.472   8.320  25.480  1.00  0.00     0.009 A 
HETATM   33  C21 UNL     1       5.278   7.500  25.193  1.00  0.00     0.068 C 
HETATM   34  N4  UNL     1       7.443   7.926  26.316  1.00  0.00    -0.339 N 
ATOM     35  H4  UNL     1       7.358   7.017  26.770  1.00  0.00     0.168 HD
ENDBRANCH  24  26
ENDBRANCH  23  24
ENDBRANCH  22  23
ENDBRANCH  15  22
ENDBRANCH  11  15
ENDBRANCH   6   7
ENDBRANCH   5   6
ENDBRANCH   3   5
TORSDOF 12
ENDMDL
