MODEL 1
REMARK VINA RESULT: -5.843125753      0.000      0.000
REMARK  14 active torsions:
REMARK  status: ('A' for Active; 'I' for Inactive)
REMARK    1  A    between atoms: C2_2  and  C3_3 
REMARK    2  A    between atoms: C3_3  and  C4_4 
REMARK    3  A    between atoms: C4_4  and  C22_35 
REMARK    4  A    between atoms: C5_5  and  O1_6 
REMARK    5  A    between atoms: C5_5  and  N1_8 
REMARK    6  A    between atoms: N1_8  and  C7_10 
REMARK    7  A    between atoms: C7_10  and  C8_11 
REMARK    8  A    between atoms: C9_13  and  C10_14 
REMARK    9  A    between atoms: C10_14  and  C11_15 
REMARK   10  A    between atoms: C12_17  and  O4_18 
REMARK   11  A    between atoms: O4_18  and  C13_19 
REMARK   12  A    between atoms: C14_21  and  C15_22 
REMARK   13  A    between atoms: C20_29  and  O6_30 
REMARK   14  A    between atoms: C21_32  and  O7_33 
ROOT
HETATM    1  C11 UNL     1       8.675  -0.270  24.087  1.00  0.00     0.158 C 
HETATM    2  O3  UNL     1       7.823  -1.304  24.453  1.00  0.00    -0.352 OA
HETATM    3  C12 UNL     1       7.989  -1.670  25.787  1.00  0.00     0.280 C 
HETATM    4  C14 UNL     1       9.320  -2.345  26.018  1.00  0.00     0.106 C 
HETATM    5  C20 UNL     1      10.291  -1.800  25.069  1.00  0.00     0.162 C 
HETATM    6  C21 UNL     1      10.070  -0.392  24.589  1.00  0.00     0.176 C 
ENDROOT
BRANCH   1   7
HETATM    7  C10 UNL     1       8.059   1.086  24.365  1.00  0.00     0.069 C 
BRANCH   7   8
HETATM    8  C9  UNL     1       8.216   2.016  23.182  1.00  0.00     0.155 A 
HETATM    9  C8  UNL     1       7.537   3.334  23.220  1.00  0.00     0.169 A 
HETATM   10  O2  UNL     1       7.087   2.274  22.413  1.00  0.00    -0.374 OA
BRANCH   9  11
HETATM   11  C7  UNL     1       8.111   4.504  22.510  1.00  0.00     0.159 C 
BRANCH  11  12
HETATM   12  N1  UNL     1       8.423   5.652  23.356  1.00  0.00    -0.363 N 
HETATM   13  C6  UNL     1       7.294   6.282  23.985  1.00  0.00     0.152 C 
BRANCH  12  14
HETATM   14  C5  UNL     1       9.742   6.040  23.544  1.00  0.00     0.144 C 
HETATM   15  C4  UNL     1      10.791   5.633  24.437  1.00  0.00    -0.008 C 
BRANCH  15  16
HETATM   16  C3  UNL     1      11.017   6.475  25.608  1.00  0.00    -0.015 C 
BRANCH  16  17
HETATM   17  C2  UNL     1       9.980   7.184  26.348  1.00  0.00     0.023 C 
HETATM   18  C1  UNL     1      10.339   7.917  27.587  1.00  0.00     0.009 C 
ENDBRANCH  16  17
ENDBRANCH  15  16
BRANCH  15  19
HETATM   19  C22 UNL     1      10.929   4.143  24.700  1.00  0.00     0.014 C 
HETATM   20  C23 UNL     1      12.349   3.848  25.112  1.00  0.00     0.015 C 
HETATM   21  C24 UNL     1      10.062   3.813  25.903  1.00  0.00     0.015 C 
ENDBRANCH  15  19
BRANCH  14  22
HETATM   22  O1  UNL     1      10.111   6.998  22.710  1.00  0.00    -0.346 OA
ATOM     23  H1  UNL     1      10.809   6.735  22.123  1.00  0.00     0.219 HD
ENDBRANCH  14  22
ENDBRANCH  12  14
ENDBRANCH  11  12
ENDBRANCH   9  11
ENDBRANCH   7   8
ENDBRANCH   1   7
BRANCH   6  24
HETATM   24  O7  UNL     1      10.475   0.594  25.469  1.00  0.00    -0.390 OA
ATOM     25  H7  UNL     1      10.568   1.463  25.097  1.00  0.00     0.210 HD
ENDBRANCH   6  24
BRANCH   3  26
HETATM   26  O4  UNL     1       6.946  -2.620  26.051  1.00  0.00    -0.296 OA
BRANCH  26  27
HETATM   27  C13 UNL     1       6.880  -3.790  25.335  1.00  0.00     0.400 C 
HETATM   28  O5  UNL     1       6.845  -4.920  25.865  1.00  0.00    -0.276 OA
ENDBRANCH  26  27
ENDBRANCH   3  26
BRANCH   5  29
HETATM   29  O6  UNL     1      11.630  -2.044  25.382  1.00  0.00    -0.392 OA
ATOM     30  H6  UNL     1      12.144  -1.273  25.592  1.00  0.00     0.210 HD
ENDBRANCH   5  29
BRANCH   4  31
HETATM   31  C15 UNL     1       9.605  -2.352  27.431  1.00  0.00    -0.044 A 
HETATM   32  C16 UNL     1       9.865  -3.530  28.092  1.00  0.00     0.025 A 
HETATM   33  C17 UNL     1      10.130  -3.506  29.474  1.00  0.00     0.088 A 
HETATM   34  N2  UNL     1      10.135  -2.358  30.168  1.00  0.00    -0.375 N 
HETATM   35  C18 UNL     1       9.884  -1.193  29.547  1.00  0.00     0.088 A 
ATOM     36  H2  UNL     1      10.331  -2.370  31.169  1.00  0.00     0.164 HD
HETATM   37  C19 UNL     1       9.627  -1.196  28.213  1.00  0.00     0.025 A 
ENDBRANCH   4  31
TORSDOF 14
ENDMDL
MODEL 2
REMARK VINA RESULT: -5.765293656      0.627      1.206
REMARK  14 active torsions:
REMARK  status: ('A' for Active; 'I' for Inactive)
REMARK    1  A    between atoms: C2_2  and  C3_3 
REMARK    2  A    between atoms: C3_3  and  C4_4 
REMARK    3  A    between atoms: C4_4  and  C22_35 
REMARK    4  A    between atoms: C5_5  and  O1_6 
REMARK    5  A    between atoms: C5_5  and  N1_8 
REMARK    6  A    between atoms: N1_8  and  C7_10 
REMARK    7  A    between atoms: C7_10  and  C8_11 
REMARK    8  A    between atoms: C9_13  and  C10_14 
REMARK    9  A    between atoms: C10_14  and  C11_15 
REMARK   10  A    between atoms: C12_17  and  O4_18 
REMARK   11  A    between atoms: O4_18  and  C13_19 
REMARK   12  A    between atoms: C14_21  and  C15_22 
REMARK   13  A    between atoms: C20_29  and  O6_30 
REMARK   14  A    between atoms: C21_32  and  O7_33 
ROOT
HETATM    1  C11 UNL     1       8.642  -0.299  24.079  1.00  0.00     0.158 C 
HETATM    2  O3  UNL     1       7.726  -1.266  24.475  1.00  0.00    -0.352 OA
HETATM    3  C12 UNL     1       7.902  -1.639  25.806  1.00  0.00     0.280 C 
HETATM    4  C14 UNL     1       9.185  -2.411  26.002  1.00  0.00     0.106 C 
HETATM    5  C20 UNL     1      10.166  -1.943  25.023  1.00  0.00     0.162 C 
HETATM    6  C21 UNL     1      10.037  -0.524  24.542  1.00  0.00     0.176 C 
ENDROOT
BRANCH   1   7
HETATM    7  C10 UNL     1       8.137   1.099  24.367  1.00  0.00     0.069 C 
BRANCH   7   8
HETATM    8  C9  UNL     1       8.313   2.007  23.168  1.00  0.00     0.155 A 
HETATM    9  C8  UNL     1       7.629   3.322  23.167  1.00  0.00     0.169 A 
HETATM   10  O2  UNL     1       7.198   2.245  22.373  1.00  0.00    -0.374 OA
BRANCH   9  11
HETATM   11  C7  UNL     1       8.212   4.481  22.445  1.00  0.00     0.159 C 
BRANCH  11  12
HETATM   12  N1  UNL     1       8.505   5.645  23.274  1.00  0.00    -0.363 N 
HETATM   13  C6  UNL     1       7.362   6.299  23.852  1.00  0.00     0.152 C 
BRANCH  12  14
HETATM   14  C5  UNL     1       9.821   6.027  23.497  1.00  0.00     0.144 C 
HETATM   15  C4  UNL     1      10.845   5.612  24.415  1.00  0.00    -0.008 C 
BRANCH  15  16
HETATM   16  C3  UNL     1      11.045   6.448  25.595  1.00  0.00    -0.015 C 
BRANCH  16  17
HETATM   17  C2  UNL     1       9.983   7.083  26.367  1.00  0.00     0.023 C 
HETATM   18  C1  UNL     1      10.335   7.923  27.538  1.00  0.00     0.009 C 
ENDBRANCH  16  17
ENDBRANCH  15  16
BRANCH  15  19
HETATM   19  C22 UNL     1      10.971   4.121  24.675  1.00  0.00     0.014 C 
HETATM   20  C23 UNL     1      12.394   3.809  25.060  1.00  0.00     0.015 C 
HETATM   21  C24 UNL     1      10.123   3.801  25.895  1.00  0.00     0.015 C 
ENDBRANCH  15  19
BRANCH  14  22
HETATM   22  O1  UNL     1      10.214   6.987  22.677  1.00  0.00    -0.346 OA
ATOM     23  H1  UNL     1       9.981   7.856  22.979  1.00  0.00     0.219 HD
ENDBRANCH  14  22
ENDBRANCH  12  14
ENDBRANCH  11  12
ENDBRANCH   9  11
ENDBRANCH   7   8
ENDBRANCH   1   7
BRANCH   6  24
HETATM   24  O7  UNL     1      10.540   0.432  25.405  1.00  0.00    -0.390 OA
ATOM     25  H7  UNL     1      10.383   0.275  26.328  1.00  0.00     0.210 HD
ENDBRANCH   6  24
BRANCH   3  26
HETATM   26  O4  UNL     1       6.799  -2.507  26.104  1.00  0.00    -0.296 OA
BRANCH  26  27
HETATM   27  C13 UNL     1       5.805  -2.093  26.956  1.00  0.00     0.400 C 
HETATM   28  O5  UNL     1       5.884  -1.062  27.656  1.00  0.00    -0.276 OA
ENDBRANCH  26  27
ENDBRANCH   3  26
BRANCH   5  29
HETATM   29  O6  UNL     1      11.492  -2.285  25.300  1.00  0.00    -0.392 OA
ATOM     30  H6  UNL     1      11.901  -2.864  24.668  1.00  0.00     0.210 HD
ENDBRANCH   5  29
BRANCH   4  31
HETATM   31  C15 UNL     1       9.509  -2.434  27.407  1.00  0.00    -0.044 A 
HETATM   32  C16 UNL     1       9.499  -1.279  28.153  1.00  0.00     0.025 A 
HETATM   33  C17 UNL     1       9.828  -1.332  29.519  1.00  0.00     0.088 A 
HETATM   34  N2  UNL     1      10.154  -2.488  30.119  1.00  0.00    -0.375 N 
HETATM   35  C18 UNL     1      10.171  -3.631  29.413  1.00  0.00     0.088 A 
ATOM     36  H2  UNL     1      10.388  -2.497  31.112  1.00  0.00     0.164 HD
HETATM   37  C19 UNL     1       9.856  -3.600  28.093  1.00  0.00     0.025 A 
ENDBRANCH   4  31
TORSDOF 14
ENDMDL
MODEL 3
REMARK VINA RESULT: -5.691051395      1.015      1.381
REMARK  14 active torsions:
REMARK  status: ('A' for Active; 'I' for Inactive)
REMARK    1  A    between atoms: C2_2  and  C3_3 
REMARK    2  A    between atoms: C3_3  and  C4_4 
REMARK    3  A    between atoms: C4_4  and  C22_35 
REMARK    4  A    between atoms: C5_5  and  O1_6 
REMARK    5  A    between atoms: C5_5  and  N1_8 
REMARK    6  A    between atoms: N1_8  and  C7_10 
REMARK    7  A    between atoms: C7_10  and  C8_11 
REMARK    8  A    between atoms: C9_13  and  C10_14 
REMARK    9  A    between atoms: C10_14  and  C11_15 
REMARK   10  A    between atoms: C12_17  and  O4_18 
REMARK   11  A    between atoms: O4_18  and  C13_19 
REMARK   12  A    between atoms: C14_21  and  C15_22 
REMARK   13  A    between atoms: C20_29  and  O6_30 
REMARK   14  A    between atoms: C21_32  and  O7_33 
ROOT
HETATM    1  C11 UNL     1       8.479  -0.017  24.251  1.00  0.00     0.158 C 
HETATM    2  O3  UNL     1       7.764  -1.191  24.460  1.00  0.00    -0.352 OA
HETATM    3  C12 UNL     1       7.959  -1.699  25.743  1.00  0.00     0.280 C 
HETATM    4  C14 UNL     1       9.364  -2.222  25.926  1.00  0.00     0.106 C 
HETATM    5  C20 UNL     1      10.268  -1.440  25.081  1.00  0.00     0.162 C 
HETATM    6  C21 UNL     1       9.871  -0.023  24.775  1.00  0.00     0.176 C 
ENDROOT
BRANCH   1   7
HETATM    7  C10 UNL     1       7.687   1.201  24.677  1.00  0.00     0.069 C 
BRANCH   7   8
HETATM    8  C9  UNL     1       7.364   2.090  23.495  1.00  0.00     0.155 A 
HETATM    9  C8  UNL     1       7.724   3.527  23.568  1.00  0.00     0.169 A 
HETATM   10  O2  UNL     1       6.397   3.073  23.676  1.00  0.00    -0.374 OA
BRANCH   9  11
HETATM   11  C7  UNL     1       8.062   4.288  22.339  1.00  0.00     0.159 C 
BRANCH  11  12
HETATM   12  N1  UNL     1       9.353   4.967  22.365  1.00  0.00    -0.363 N 
HETATM   13  C6  UNL     1      10.389   4.359  21.575  1.00  0.00     0.152 C 
BRANCH  12  14
HETATM   14  C5  UNL     1       9.505   6.145  23.083  1.00  0.00     0.144 C 
HETATM   15  C4  UNL     1       9.558   6.469  24.482  1.00  0.00    -0.008 C 
BRANCH  15  16
HETATM   16  C3  UNL     1       8.329   6.979  25.083  1.00  0.00    -0.015 C 
BRANCH  16  17
HETATM   17  C2  UNL     1       8.145   8.327  25.607  1.00  0.00     0.023 C 
HETATM   18  C1  UNL     1       8.411   8.595  27.042  1.00  0.00     0.009 C 
ENDBRANCH  16  17
ENDBRANCH  15  16
BRANCH  15  19
HETATM   19  C22 UNL     1      10.349   5.528  25.375  1.00  0.00     0.014 C 
HETATM   20  C23 UNL     1      11.273   6.340  26.246  1.00  0.00     0.015 C 
HETATM   21  C24 UNL     1       9.360   4.859  26.315  1.00  0.00     0.015 C 
ENDBRANCH  15  19
BRANCH  14  22
HETATM   22  O1  UNL     1       9.631   7.203  22.299  1.00  0.00    -0.346 OA
ATOM     23  H1  UNL     1       9.241   7.081  21.442  1.00  0.00     0.219 HD
ENDBRANCH  14  22
ENDBRANCH  12  14
ENDBRANCH  11  12
ENDBRANCH   9  11
ENDBRANCH   7   8
ENDBRANCH   1   7
BRANCH   6  24
HETATM   24  O7  UNL     1      10.132   0.887  25.782  1.00  0.00    -0.390 OA
ATOM     25  H7  UNL     1      11.022   0.886  26.115  1.00  0.00     0.210 HD
ENDBRANCH   6  24
BRANCH   3  26
HETATM   26  O4  UNL     1       7.047  -2.801  25.856  1.00  0.00    -0.296 OA
BRANCH  26  27
HETATM   27  C13 UNL     1       6.689  -3.518  24.741  1.00  0.00     0.400 C 
HETATM   28  O5  UNL     1       7.108  -4.670  24.500  1.00  0.00    -0.276 OA
ENDBRANCH  26  27
ENDBRANCH   3  26
BRANCH   5  29
HETATM   29  O6  UNL     1      11.623  -1.549  25.402  1.00  0.00    -0.392 OA
ATOM     30  H6  UNL     1      12.211  -1.608  24.658  1.00  0.00     0.210 HD
ENDBRANCH   5  29
BRANCH   4  31
HETATM   31  C15 UNL     1       9.629  -2.372  27.336  1.00  0.00    -0.044 A 
HETATM   32  C16 UNL     1       9.936  -3.602  27.868  1.00  0.00     0.025 A 
HETATM   33  C17 UNL     1      10.180  -3.719  29.249  1.00  0.00     0.088 A 
HETATM   34  N2  UNL     1      10.120  -2.656  30.066  1.00  0.00    -0.375 N 
HETATM   35  C18 UNL     1       9.822  -1.442  29.571  1.00  0.00     0.088 A 
ATOM     36  H2  UNL     1      10.302  -2.769  31.063  1.00  0.00     0.164 HD
HETATM   37  C19 UNL     1       9.584  -1.310  28.241  1.00  0.00     0.025 A 
ENDBRANCH   4  31
TORSDOF 14
ENDMDL
MODEL 4
REMARK VINA RESULT: -5.658098068      1.248      1.853
REMARK  14 active torsions:
REMARK  status: ('A' for Active; 'I' for Inactive)
REMARK    1  A    between atoms: C2_2  and  C3_3 
REMARK    2  A    between atoms: C3_3  and  C4_4 
REMARK    3  A    between atoms: C4_4  and  C22_35 
REMARK    4  A    between atoms: C5_5  and  O1_6 
REMARK    5  A    between atoms: C5_5  and  N1_8 
REMARK    6  A    between atoms: N1_8  and  C7_10 
REMARK    7  A    between atoms: C7_10  and  C8_11 
REMARK    8  A    between atoms: C9_13  and  C10_14 
REMARK    9  A    between atoms: C10_14  and  C11_15 
REMARK   10  A    between atoms: C12_17  and  O4_18 
REMARK   11  A    between atoms: O4_18  and  C13_19 
REMARK   12  A    between atoms: C14_21  and  C15_22 
REMARK   13  A    between atoms: C20_29  and  O6_30 
REMARK   14  A    between atoms: C21_32  and  O7_33 
ROOT
HETATM    1  C11 UNL     1       8.437   0.652  24.350  1.00  0.00     0.158 C 
HETATM    2  O3  UNL     1       7.621  -0.467  24.458  1.00  0.00    -0.352 OA
HETATM    3  C12 UNL     1       7.782  -1.113  25.682  1.00  0.00     0.280 C 
HETATM    4  C14 UNL     1       9.135  -1.775  25.789  1.00  0.00     0.106 C 
HETATM    5  C20 UNL     1      10.097  -0.999  25.007  1.00  0.00     0.162 C 
HETATM    6  C21 UNL     1       9.828   0.471  24.846  1.00  0.00     0.176 C 
ENDROOT
BRANCH   1   7
HETATM    7  C10 UNL     1       7.764   1.890  24.906  1.00  0.00     0.069 C 
BRANCH   7   8
HETATM    8  C9  UNL     1       7.030   2.651  23.823  1.00  0.00     0.155 A 
HETATM    9  C8  UNL     1       6.893   4.121  23.958  1.00  0.00     0.169 A 
HETATM   10  O2  UNL     1       5.816   3.240  24.162  1.00  0.00    -0.374 OA
BRANCH   9  11
HETATM   11  C7  UNL     1       6.814   4.990  22.756  1.00  0.00     0.159 C 
BRANCH  11  12
HETATM   12  N1  UNL     1       7.391   6.320  22.913  1.00  0.00    -0.363 N 
HETATM   13  C6  UNL     1       6.563   7.411  22.474  1.00  0.00     0.152 C 
BRANCH  12  14
HETATM   14  C5  UNL     1       8.642   6.472  23.495  1.00  0.00     0.144 C 
HETATM   15  C4  UNL     1       9.889   5.765  23.396  1.00  0.00    -0.008 C 
BRANCH  15  16
HETATM   16  C3  UNL     1      10.186   4.809  24.458  1.00  0.00    -0.015 C 
BRANCH  16  17
HETATM   17  C2  UNL     1      11.163   5.008  25.522  1.00  0.00     0.023 C 
HETATM   18  C1  UNL     1      11.177   6.289  26.270  1.00  0.00     0.009 C 
ENDBRANCH  16  17
ENDBRANCH  15  16
BRANCH  15  19
HETATM   19  C22 UNL     1      10.313   5.313  22.009  1.00  0.00     0.014 C 
HETATM   20  C23 UNL     1      11.802   5.501  21.866  1.00  0.00     0.015 C 
HETATM   21  C24 UNL     1      10.065   3.816  21.925  1.00  0.00     0.015 C 
ENDBRANCH  15  19
BRANCH  14  22
HETATM   22  O1  UNL     1       8.691   7.500  24.326  1.00  0.00    -0.346 OA
ATOM     23  H1  UNL     1       8.489   8.329  23.908  1.00  0.00     0.219 HD
ENDBRANCH  14  22
ENDBRANCH  12  14
ENDBRANCH  11  12
ENDBRANCH   9  11
ENDBRANCH   7   8
ENDBRANCH   1   7
BRANCH   6  24
HETATM   24  O7  UNL     1      10.181   1.251  25.931  1.00  0.00    -0.390 OA
ATOM     25  H7  UNL     1      10.810   1.940  25.753  1.00  0.00     0.210 HD
ENDBRANCH   6  24
BRANCH   3  26
HETATM   26  O4  UNL     1       6.774  -2.135  25.705  1.00  0.00    -0.296 OA
BRANCH  26  27
HETATM   27  C13 UNL     1       6.604  -2.962  24.623  1.00  0.00     0.400 C 
HETATM   28  O5  UNL     1       6.893  -4.177  24.633  1.00  0.00    -0.276 OA
ENDBRANCH  26  27
ENDBRANCH   3  26
BRANCH   5  29
HETATM   29  O6  UNL     1      11.441  -1.259  25.291  1.00  0.00    -0.392 OA
ATOM     30  H6  UNL     1      11.946  -1.613  24.568  1.00  0.00     0.210 HD
ENDBRANCH   5  29
BRANCH   4  31
HETATM   31  C15 UNL     1       9.398  -2.085  27.173  1.00  0.00    -0.044 A 
HETATM   32  C16 UNL     1       9.330  -1.110  28.140  1.00  0.00     0.025 A 
HETATM   33  C17 UNL     1       9.601  -1.441  29.480  1.00  0.00     0.088 A 
HETATM   34  N2  UNL     1       9.927  -2.691  29.842  1.00  0.00    -0.375 N 
HETATM   35  C18 UNL     1      10.001  -3.663  28.917  1.00  0.00     0.088 A 
ATOM     36  H2  UNL     1      10.118  -2.904  30.822  1.00  0.00     0.164 HD
HETATM   37  C19 UNL     1       9.742  -3.363  27.619  1.00  0.00     0.025 A 
ENDBRANCH   4  31
TORSDOF 14
ENDMDL
MODEL 5
REMARK VINA RESULT: -5.551807908      2.210      3.700
REMARK  14 active torsions:
REMARK  status: ('A' for Active; 'I' for Inactive)
REMARK    1  A    between atoms: C2_2  and  C3_3 
REMARK    2  A    between atoms: C3_3  and  C4_4 
REMARK    3  A    between atoms: C4_4  and  C22_35 
REMARK    4  A    between atoms: C5_5  and  O1_6 
REMARK    5  A    between atoms: C5_5  and  N1_8 
REMARK    6  A    between atoms: N1_8  and  C7_10 
REMARK    7  A    between atoms: C7_10  and  C8_11 
REMARK    8  A    between atoms: C9_13  and  C10_14 
REMARK    9  A    between atoms: C10_14  and  C11_15 
REMARK   10  A    between atoms: C12_17  and  O4_18 
REMARK   11  A    between atoms: O4_18  and  C13_19 
REMARK   12  A    between atoms: C14_21  and  C15_22 
REMARK   13  A    between atoms: C20_29  and  O6_30 
REMARK   14  A    between atoms: C21_32  and  O7_33 
ROOT
HETATM    1  C11 UNL     1       8.991  -0.031  25.790  1.00  0.00     0.158 C 
HETATM    2  O3  UNL     1       9.691  -1.047  26.428  1.00  0.00    -0.352 OA
HETATM    3  C12 UNL     1       9.359  -2.304  25.927  1.00  0.00     0.280 C 
HETATM    4  C14 UNL     1       7.949  -2.697  26.299  1.00  0.00     0.106 C 
HETATM    5  C20 UNL     1       7.137  -1.484  26.398  1.00  0.00     0.162 C 
HETATM    6  C21 UNL     1       7.548  -0.309  25.554  1.00  0.00     0.176 C 
ENDROOT
BRANCH   1   7
HETATM    7  C10 UNL     1       9.714   0.453  24.550  1.00  0.00     0.069 C 
BRANCH   7   8
HETATM    8  C9  UNL     1       9.624   1.957  24.410  1.00  0.00     0.155 A 
HETATM    9  C8  UNL     1       9.744   2.552  23.057  1.00  0.00     0.169 A 
HETATM   10  O2  UNL     1      10.771   2.635  24.014  1.00  0.00    -0.374 OA
BRANCH   9  11
HETATM   11  C7  UNL     1       9.053   3.821  22.721  1.00  0.00     0.159 C 
BRANCH  11  12
HETATM   12  N1  UNL     1       9.930   4.936  22.382  1.00  0.00    -0.363 N 
HETATM   13  C6  UNL     1      10.833   4.703  21.287  1.00  0.00     0.152 C 
BRANCH  12  14
HETATM   14  C5  UNL     1       9.828   6.137  23.071  1.00  0.00     0.144 C 
HETATM   15  C4  UNL     1       9.629   6.491  24.449  1.00  0.00    -0.008 C 
BRANCH  15  16
HETATM   16  C3  UNL     1       8.272   6.853  24.842  1.00  0.00    -0.015 C 
BRANCH  16  17
HETATM   17  C2  UNL     1       7.795   8.212  25.070  1.00  0.00     0.023 C 
HETATM   18  C1  UNL     1       8.145   8.907  26.333  1.00  0.00     0.009 C 
ENDBRANCH  16  17
ENDBRANCH  15  16
BRANCH  15  19
HETATM   19  C22 UNL     1      10.385   5.673  25.483  1.00  0.00     0.014 C 
HETATM   20  C23 UNL     1      11.168   6.608  26.369  1.00  0.00     0.015 C 
HETATM   21  C24 UNL     1       9.352   5.008  26.377  1.00  0.00     0.015 C 
ENDBRANCH  15  19
BRANCH  14  22
HETATM   22  O1  UNL     1       9.942   7.187  22.275  1.00  0.00    -0.346 OA
ATOM     23  H1  UNL     1       9.871   6.968  21.354  1.00  0.00     0.219 HD
ENDBRANCH  14  22
ENDBRANCH  12  14
ENDBRANCH  11  12
ENDBRANCH   9  11
ENDBRANCH   7   8
ENDBRANCH   1   7
BRANCH   6  24
HETATM   24  O7  UNL     1       7.164  -0.380  24.228  1.00  0.00    -0.390 OA
ATOM     25  H7  UNL     1       6.227  -0.376  24.072  1.00  0.00     0.210 HD
ENDBRANCH   6  24
BRANCH   3  26
HETATM   26  O4  UNL     1      10.267  -3.216  26.563  1.00  0.00    -0.296 OA
BRANCH  26  27
HETATM   27  C13 UNL     1      10.065  -3.594  27.868  1.00  0.00     0.400 C 
HETATM   28  O5  UNL     1      10.560  -4.626  28.369  1.00  0.00    -0.276 OA
ENDBRANCH  26  27
ENDBRANCH   3  26
BRANCH   5  29
HETATM   29  O6  UNL     1       5.755  -1.690  26.373  1.00  0.00    -0.392 OA
ATOM     30  H6  UNL     1       5.229  -0.899  26.355  1.00  0.00     0.210 HD
ENDBRANCH   5  29
BRANCH   4  31
HETATM   31  C15 UNL     1       7.529  -3.791  25.460  1.00  0.00    -0.044 A 
HETATM   32  C16 UNL     1       7.806  -3.793  24.113  1.00  0.00     0.025 A 
HETATM   33  C17 UNL     1       7.375  -4.871  23.318  1.00  0.00     0.088 A 
HETATM   34  N2  UNL     1       6.697  -5.904  23.842  1.00  0.00    -0.375 N 
HETATM   35  C18 UNL     1       6.413  -5.926  25.156  1.00  0.00     0.088 A 
ATOM     36  H2  UNL     1       6.397  -6.672  23.242  1.00  0.00     0.164 HD
HETATM   37  C19 UNL     1       6.821  -4.895  25.939  1.00  0.00     0.025 A 
ENDBRANCH   4  31
TORSDOF 14
ENDMDL
