MODEL 1
REMARK VINA RESULT: -4.901054774      0.000      0.000
REMARK  14 active torsions:
REMARK  status: ('A' for Active; 'I' for Inactive)
REMARK    1  A    between atoms: C2_2  and  N1_3 
REMARK    2  A    between atoms: N1_3  and  C3_4 
REMARK    3  A    between atoms: N1_3  and  C5_6 
REMARK    4  A    between atoms: C5_6  and  C6_7 
REMARK    5  A    between atoms: C6_7  and  C7_8 
REMARK    6  A    between atoms: C7_8  and  N2_9 
REMARK    7  A    between atoms: N2_9  and  C8_11 
REMARK    8  A    between atoms: C8_11  and  N3_13 
REMARK    9  A    between atoms: N3_13  and  C9_15 
REMARK   10  A    between atoms: C10_20  and  S2_21 
REMARK   11  A    between atoms: S2_21  and  C11_22 
REMARK   12  A    between atoms: C11_22  and  C12_23 
REMARK       I    between atoms: C12_23  and  N6_25 
REMARK   13  A    between atoms: N6_25  and  O2_26 
REMARK   14  A    between atoms: N6_25  and  C14_28 
ROOT
HETATM    1  C9  UNL     1      10.845   2.917  24.376  1.00  0.00     0.168 A 
HETATM    2  N4  UNL     1      10.871   2.337  25.589  1.00  0.00    -0.278 N 
ATOM      3  H4  UNL     1      11.567   2.608  26.282  1.00  0.00     0.189 HD
HETATM    4  N5  UNL     1      10.007   1.442  25.852  1.00  0.00    -0.286 N 
ATOM      5  H5  UNL     1      10.010   0.991  26.767  1.00  0.00     0.188 HD
HETATM    6  C10 UNL     1       9.107   1.093  24.953  1.00  0.00     0.130 A 
HETATM    7  S3  UNL     1       9.528   2.118  23.639  1.00  0.00    -0.026 SA
ENDROOT
BRANCH   1   8
HETATM    8  N3  UNL     1      11.654   3.856  23.944  1.00  0.00    -0.312 N 
ATOM      9  H3  UNL     1      12.654   3.694  23.831  1.00  0.00     0.170 HD
BRANCH   8  10
HETATM   10  C8  UNL     1      11.059   5.110  23.644  1.00  0.00     0.173 C 
HETATM   11  S1  UNL     1      10.841   5.509  22.092  1.00  0.00    -0.041 SA
BRANCH  10  12
HETATM   12  N2  UNL     1      10.720   5.965  24.683  1.00  0.00    -0.367 N 
ATOM     13  H2  UNL     1       9.992   6.659  24.514  1.00  0.00     0.161 HD
BRANCH  12  14
HETATM   14  C7  UNL     1      11.327   5.931  25.973  1.00  0.00     0.123 C 
BRANCH  14  15
HETATM   15  C6  UNL     1      10.948   7.179  26.754  1.00  0.00     0.050 C 
BRANCH  15  16
HETATM   16  C5  UNL     1       9.487   7.361  26.786  1.00  0.00     0.274 C 
BRANCH  16  17
HETATM   17  N1  UNL     1       8.713   6.519  27.653  1.00  0.00     0.087 N 
BRANCH  17  18
HETATM   18  C2  UNL     1       7.626   5.943  26.749  1.00  0.00     0.268 C 
HETATM   19  C1  UNL     1       7.968   4.519  26.441  1.00  0.00     0.037 C 
ENDBRANCH  17  18
BRANCH  17  20
HETATM   20  C3  UNL     1       7.926   7.301  28.622  1.00  0.00     0.268 C 
HETATM   21  C4  UNL     1       8.778   7.973  29.636  1.00  0.00     0.037 C 
ENDBRANCH  17  20
ENDBRANCH  16  17
ENDBRANCH  15  16
ENDBRANCH  14  15
ENDBRANCH  12  14
ENDBRANCH  10  12
ENDBRANCH   8  10
ENDBRANCH   1   8
BRANCH   6  22
HETATM   22  S2  UNL     1       7.785  -0.135  25.051  1.00  0.00    -0.094 SA
BRANCH  22  23
HETATM   23  C11 UNL     1       6.830   0.250  26.532  1.00  0.00     0.186 C 
BRANCH  23  24
HETATM   24  C12 UNL     1       7.388  -0.504  27.679  1.00  0.00     0.253 C 
HETATM   25  O1  UNL     1       7.138  -1.728  27.762  1.00  0.00    -0.270 OA
HETATM   26  N6  UNL     1       8.190   0.097  28.688  1.00  0.00    -0.219 N 
BRANCH  26  27
HETATM   27  O2  UNL     1       8.437   1.447  28.455  1.00  0.00    -0.280 OA
HETATM   28  C13 UNL     1       7.411   2.128  29.117  1.00  0.00     0.238 C 
ENDBRANCH  26  27
BRANCH  26  29
HETATM   29  C14 UNL     1       8.709  -0.522  29.849  1.00  0.00     0.143 C 
HETATM   30  C15 UNL     1       9.146   0.378  30.973  1.00  0.00     0.056 C 
HETATM   31  C16 UNL     1      10.042  -0.631  31.724  1.00  0.00     0.169 C 
HETATM   32  O3  UNL     1      10.734  -1.304  30.726  1.00  0.00    -0.389 OA
HETATM   33  C17 UNL     1       9.975  -1.311  29.593  1.00  0.00     0.195 C 
ENDBRANCH  26  29
ENDBRANCH  23  24
ENDBRANCH  22  23
ENDBRANCH   6  22
TORSDOF 14
ENDMDL
MODEL 2
REMARK VINA RESULT: -4.897154173      0.765      1.409
REMARK  14 active torsions:
REMARK  status: ('A' for Active; 'I' for Inactive)
REMARK    1  A    between atoms: C2_2  and  N1_3 
REMARK    2  A    between atoms: N1_3  and  C3_4 
REMARK    3  A    between atoms: N1_3  and  C5_6 
REMARK    4  A    between atoms: C5_6  and  C6_7 
REMARK    5  A    between atoms: C6_7  and  C7_8 
REMARK    6  A    between atoms: C7_8  and  N2_9 
REMARK    7  A    between atoms: N2_9  and  C8_11 
REMARK    8  A    between atoms: C8_11  and  N3_13 
REMARK    9  A    between atoms: N3_13  and  C9_15 
REMARK   10  A    between atoms: C10_20  and  S2_21 
REMARK   11  A    between atoms: S2_21  and  C11_22 
REMARK   12  A    between atoms: C11_22  and  C12_23 
REMARK       I    between atoms: C12_23  and  N6_25 
REMARK   13  A    between atoms: N6_25  and  O2_26 
REMARK   14  A    between atoms: N6_25  and  C14_28 
ROOT
HETATM    1  C9  UNL     1      10.982   3.406  24.385  1.00  0.00     0.168 A 
HETATM    2  N4  UNL     1      11.190   2.699  25.509  1.00  0.00    -0.278 N 
ATOM      3  H4  UNL     1      11.912   2.977  26.174  1.00  0.00     0.189 HD
HETATM    4  N5  UNL     1      10.466   1.677  25.726  1.00  0.00    -0.286 N 
ATOM      5  H5  UNL     1      10.608   1.128  26.574  1.00  0.00     0.188 HD
HETATM    6  C10 UNL     1       9.533   1.320  24.865  1.00  0.00     0.130 A 
HETATM    7  S3  UNL     1       9.706   2.534  23.659  1.00  0.00    -0.026 SA
ENDROOT
BRANCH   1   8
HETATM    8  N3  UNL     1      11.631   4.484  24.010  1.00  0.00    -0.312 N 
ATOM      9  H3  UNL     1      12.641   4.482  23.869  1.00  0.00     0.170 HD
BRANCH   8  10
HETATM   10  C8  UNL     1      10.849   5.652  23.813  1.00  0.00     0.173 C 
HETATM   11  S1  UNL     1      10.444   6.064  22.302  1.00  0.00    -0.041 SA
BRANCH  10  12
HETATM   12  N2  UNL     1      10.489   6.420  24.911  1.00  0.00    -0.367 N 
ATOM     13  H2  UNL     1       9.669   7.021  24.828  1.00  0.00     0.161 HD
BRANCH  12  14
HETATM   14  C7  UNL     1      11.197   6.420  26.149  1.00  0.00     0.123 C 
BRANCH  14  15
HETATM   15  C6  UNL     1      10.657   7.519  27.052  1.00  0.00     0.050 C 
BRANCH  15  16
HETATM   16  C5  UNL     1       9.190   7.450  27.150  1.00  0.00     0.274 C 
BRANCH  16  17
HETATM   17  N1  UNL     1       8.609   6.498  28.054  1.00  0.00     0.087 N 
BRANCH  17  18
HETATM   18  C2  UNL     1       7.579   5.753  27.209  1.00  0.00     0.268 C 
HETATM   19  C1  UNL     1       8.149   4.422  26.828  1.00  0.00     0.037 C 
ENDBRANCH  17  18
BRANCH  17  20
HETATM   20  C3  UNL     1       7.763   7.148  29.070  1.00  0.00     0.268 C 
HETATM   21  C4  UNL     1       8.559   7.813  30.132  1.00  0.00     0.037 C 
ENDBRANCH  17  20
ENDBRANCH  16  17
ENDBRANCH  15  16
ENDBRANCH  14  15
ENDBRANCH  12  14
ENDBRANCH  10  12
ENDBRANCH   8  10
ENDBRANCH   1   8
BRANCH   6  22
HETATM   22  S2  UNL     1       8.380  -0.070  24.912  1.00  0.00    -0.094 SA
BRANCH  22  23
HETATM   23  C11 UNL     1       7.186   0.293  26.215  1.00  0.00     0.186 C 
BRANCH  23  24
HETATM   24  C12 UNL     1       7.851   0.162  27.533  1.00  0.00     0.253 C 
HETATM   25  O1  UNL     1       8.449   1.159  27.997  1.00  0.00    -0.270 OA
HETATM   26  N6  UNL     1       7.843  -1.041  28.291  1.00  0.00    -0.219 N 
BRANCH  26  27
HETATM   27  O2  UNL     1       7.104  -2.057  27.693  1.00  0.00    -0.280 OA
HETATM   28  C13 UNL     1       6.190  -2.470  28.668  1.00  0.00     0.238 C 
ENDBRANCH  26  27
BRANCH  26  29
HETATM   29  C14 UNL     1       8.502  -1.282  29.519  1.00  0.00     0.143 C 
HETATM   30  C15 UNL     1       8.375  -0.232  30.589  1.00  0.00     0.056 C 
HETATM   31  C16 UNL     1       9.581  -0.654  31.455  1.00  0.00     0.169 C 
HETATM   32  O3  UNL     1      10.583  -0.961  30.544  1.00  0.00    -0.389 OA
HETATM   33  C17 UNL     1      10.007  -1.381  29.382  1.00  0.00     0.195 C 
ENDBRANCH  26  29
ENDBRANCH  23  24
ENDBRANCH  22  23
ENDBRANCH   6  22
TORSDOF 14
ENDMDL
MODEL 3
REMARK VINA RESULT: -4.874904730      1.647      2.341
REMARK  14 active torsions:
REMARK  status: ('A' for Active; 'I' for Inactive)
REMARK    1  A    between atoms: C2_2  and  N1_3 
REMARK    2  A    between atoms: N1_3  and  C3_4 
REMARK    3  A    between atoms: N1_3  and  C5_6 
REMARK    4  A    between atoms: C5_6  and  C6_7 
REMARK    5  A    between atoms: C6_7  and  C7_8 
REMARK    6  A    between atoms: C7_8  and  N2_9 
REMARK    7  A    between atoms: N2_9  and  C8_11 
REMARK    8  A    between atoms: C8_11  and  N3_13 
REMARK    9  A    between atoms: N3_13  and  C9_15 
REMARK   10  A    between atoms: C10_20  and  S2_21 
REMARK   11  A    between atoms: S2_21  and  C11_22 
REMARK   12  A    between atoms: C11_22  and  C12_23 
REMARK       I    between atoms: C12_23  and  N6_25 
REMARK   13  A    between atoms: N6_25  and  O2_26 
REMARK   14  A    between atoms: N6_25  and  C14_28 
ROOT
HETATM    1  C9  UNL     1      10.567   2.976  24.127  1.00  0.00     0.168 A 
HETATM    2  N4  UNL     1      10.943   2.568  25.351  1.00  0.00    -0.278 N 
ATOM      3  H4  UNL     1      11.579   3.130  25.917  1.00  0.00     0.189 HD
HETATM    4  N5  UNL     1      10.488   1.464  25.789  1.00  0.00    -0.286 N 
ATOM      5  H5  UNL     1      10.762   1.138  26.716  1.00  0.00     0.188 HD
HETATM    6  C10 UNL     1       9.667   0.739  25.056  1.00  0.00     0.130 A 
HETATM    7  S3  UNL     1       9.537   1.705  23.640  1.00  0.00    -0.026 SA
ENDROOT
BRANCH   1   8
HETATM    8  N3  UNL     1      10.935   4.085  23.528  1.00  0.00    -0.312 N 
ATOM      9  H3  UNL     1      11.686   4.101  22.839  1.00  0.00     0.170 HD
BRANCH   8  10
HETATM   10  C8  UNL     1      10.230   5.261  23.895  1.00  0.00     0.173 C 
HETATM   11  S1  UNL     1       8.703   5.435  23.388  1.00  0.00    -0.041 SA
BRANCH  10  12
HETATM   12  N2  UNL     1      10.878   6.237  24.640  1.00  0.00    -0.367 N 
ATOM     13  H2  UNL     1      11.100   7.121  24.182  1.00  0.00     0.161 HD
BRANCH  12  14
HETATM   14  C7  UNL     1      11.251   6.077  26.006  1.00  0.00     0.123 C 
BRANCH  14  15
HETATM   15  C6  UNL     1      10.793   7.283  26.811  1.00  0.00     0.050 C 
BRANCH  15  16
HETATM   16  C5  UNL     1       9.327   7.300  26.949  1.00  0.00     0.274 C 
BRANCH  16  17
HETATM   17  N1  UNL     1       8.720   6.418  27.905  1.00  0.00     0.087 N 
BRANCH  17  18
HETATM   18  C2  UNL     1       7.711   5.613  27.090  1.00  0.00     0.268 C 
HETATM   19  C1  UNL     1       8.170   4.189  27.038  1.00  0.00     0.037 C 
ENDBRANCH  17  18
BRANCH  17  20
HETATM   20  C3  UNL     1       7.848   7.142  28.848  1.00  0.00     0.268 C 
HETATM   21  C4  UNL     1       8.617   7.958  29.821  1.00  0.00     0.037 C 
ENDBRANCH  17  20
ENDBRANCH  16  17
ENDBRANCH  15  16
ENDBRANCH  14  15
ENDBRANCH  12  14
ENDBRANCH  10  12
ENDBRANCH   8  10
ENDBRANCH   1   8
BRANCH   6  22
HETATM   22  S2  UNL     1       8.884  -0.849  25.417  1.00  0.00    -0.094 SA
BRANCH  22  23
HETATM   23  C11 UNL     1      10.068  -1.800  26.391  1.00  0.00     0.186 C 
BRANCH  23  24
HETATM   24  C12 UNL     1       9.776  -1.610  27.831  1.00  0.00     0.253 C 
HETATM   25  O1  UNL     1       9.620  -0.443  28.255  1.00  0.00    -0.270 OA
HETATM   26  N6  UNL     1       9.669  -2.688  28.751  1.00  0.00    -0.219 N 
BRANCH  26  27
HETATM   27  O2  UNL     1       9.813  -3.935  28.150  1.00  0.00    -0.280 OA
HETATM   28  C13 UNL     1      10.358  -4.760  29.138  1.00  0.00     0.238 C 
ENDBRANCH  26  27
BRANCH  26  29
HETATM   29  C14 UNL     1       9.462  -2.603  30.148  1.00  0.00     0.143 C 
HETATM   30  C15 UNL     1       8.118  -2.118  30.618  1.00  0.00     0.056 C 
HETATM   31  C16 UNL     1       8.518  -1.728  32.057  1.00  0.00     0.169 C 
HETATM   32  O3  UNL     1       9.754  -1.111  31.928  1.00  0.00    -0.389 OA
HETATM   33  C17 UNL     1      10.387  -1.618  30.831  1.00  0.00     0.195 C 
ENDBRANCH  26  29
ENDBRANCH  23  24
ENDBRANCH  22  23
ENDBRANCH   6  22
TORSDOF 14
ENDMDL
MODEL 4
REMARK VINA RESULT: -4.833268608      1.590      2.097
REMARK  14 active torsions:
REMARK  status: ('A' for Active; 'I' for Inactive)
REMARK    1  A    between atoms: C2_2  and  N1_3 
REMARK    2  A    between atoms: N1_3  and  C3_4 
REMARK    3  A    between atoms: N1_3  and  C5_6 
REMARK    4  A    between atoms: C5_6  and  C6_7 
REMARK    5  A    between atoms: C6_7  and  C7_8 
REMARK    6  A    between atoms: C7_8  and  N2_9 
REMARK    7  A    between atoms: N2_9  and  C8_11 
REMARK    8  A    between atoms: C8_11  and  N3_13 
REMARK    9  A    between atoms: N3_13  and  C9_15 
REMARK   10  A    between atoms: C10_20  and  S2_21 
REMARK   11  A    between atoms: S2_21  and  C11_22 
REMARK   12  A    between atoms: C11_22  and  C12_23 
REMARK       I    between atoms: C12_23  and  N6_25 
REMARK   13  A    between atoms: N6_25  and  O2_26 
REMARK   14  A    between atoms: N6_25  and  C14_28 
ROOT
HETATM    1  C9  UNL     1      10.635   2.916  24.340  1.00  0.00     0.168 A 
HETATM    2  N4  UNL     1      11.003   2.317  25.485  1.00  0.00    -0.278 N 
ATOM      3  H4  UNL     1      11.906   2.519  25.913  1.00  0.00     0.189 HD
HETATM    4  N5  UNL     1      10.199   1.492  26.024  1.00  0.00    -0.286 N 
ATOM      5  H5  UNL     1      10.460   1.028  26.894  1.00  0.00     0.188 HD
HETATM    6  C10 UNL     1       9.032   1.232  25.469  1.00  0.00     0.130 A 
HETATM    7  S3  UNL     1       9.089   2.240  24.077  1.00  0.00    -0.026 SA
ENDROOT
BRANCH   1   8
HETATM    8  N3  UNL     1      11.336   3.792  23.658  1.00  0.00    -0.312 N 
ATOM      9  H3  UNL     1      12.158   3.521  23.118  1.00  0.00     0.170 HD
BRANCH   8  10
HETATM   10  C8  UNL     1      10.887   5.137  23.714  1.00  0.00     0.173 C 
HETATM   11  S1  UNL     1      10.944   6.028  22.365  1.00  0.00    -0.041 SA
BRANCH  10  12
HETATM   12  N2  UNL     1      10.450   5.657  24.925  1.00  0.00    -0.367 N 
ATOM     13  H2  UNL     1       9.451   5.824  25.042  1.00  0.00     0.161 HD
BRANCH  12  14
HETATM   14  C7  UNL     1      11.315   5.970  26.014  1.00  0.00     0.123 C 
BRANCH  14  15
HETATM   15  C6  UNL     1      10.796   7.196  26.749  1.00  0.00     0.050 C 
BRANCH  15  16
HETATM   16  C5  UNL     1       9.327   7.172  26.846  1.00  0.00     0.274 C 
BRANCH  16  17
HETATM   17  N1  UNL     1       8.728   6.548  27.991  1.00  0.00     0.087 N 
BRANCH  17  18
HETATM   18  C2  UNL     1       7.601   5.696  27.413  1.00  0.00     0.268 C 
HETATM   19  C1  UNL     1       8.075   4.279  27.320  1.00  0.00     0.037 C 
ENDBRANCH  17  18
BRANCH  17  20
HETATM   20  C3  UNL     1       7.989   7.513  28.824  1.00  0.00     0.268 C 
HETATM   21  C4  UNL     1       8.848   8.153  29.851  1.00  0.00     0.037 C 
ENDBRANCH  17  20
ENDBRANCH  16  17
ENDBRANCH  15  16
ENDBRANCH  14  15
ENDBRANCH  12  14
ENDBRANCH  10  12
ENDBRANCH   8  10
ENDBRANCH   1   8
BRANCH   6  22
HETATM   22  S2  UNL     1       7.715   0.116  26.003  1.00  0.00    -0.094 SA
BRANCH  22  23
HETATM   23  C11 UNL     1       7.702   0.157  27.807  1.00  0.00     0.186 C 
BRANCH  23  24
HETATM   24  C12 UNL     1       8.589  -0.912  28.322  1.00  0.00     0.253 C 
HETATM   25  O1  UNL     1       9.823  -0.709  28.325  1.00  0.00    -0.270 OA
HETATM   26  N6  UNL     1       8.103  -2.157  28.811  1.00  0.00    -0.219 N 
BRANCH  26  27
HETATM   27  O2  UNL     1       6.713  -2.241  28.802  1.00  0.00    -0.280 OA
HETATM   28  C13 UNL     1       6.375  -2.870  30.004  1.00  0.00     0.238 C 
ENDBRANCH  26  27
BRANCH  26  29
HETATM   29  C14 UNL     1       8.869  -3.258  29.258  1.00  0.00     0.143 C 
HETATM   30  C15 UNL     1      10.013  -2.970  30.192  1.00  0.00     0.056 C 
HETATM   31  C16 UNL     1      10.794  -4.286  29.993  1.00  0.00     0.169 C 
HETATM   32  O3  UNL     1      10.726  -4.538  28.630  1.00  0.00    -0.389 OA
HETATM   33  C17 UNL     1       9.581  -3.986  28.137  1.00  0.00     0.195 C 
ENDBRANCH  26  29
ENDBRANCH  23  24
ENDBRANCH  22  23
ENDBRANCH   6  22
TORSDOF 14
ENDMDL
MODEL 5
REMARK VINA RESULT: -4.832885592      1.206      1.718
REMARK  14 active torsions:
REMARK  status: ('A' for Active; 'I' for Inactive)
REMARK    1  A    between atoms: C2_2  and  N1_3 
REMARK    2  A    between atoms: N1_3  and  C3_4 
REMARK    3  A    between atoms: N1_3  and  C5_6 
REMARK    4  A    between atoms: C5_6  and  C6_7 
REMARK    5  A    between atoms: C6_7  and  C7_8 
REMARK    6  A    between atoms: C7_8  and  N2_9 
REMARK    7  A    between atoms: N2_9  and  C8_11 
REMARK    8  A    between atoms: C8_11  and  N3_13 
REMARK    9  A    between atoms: N3_13  and  C9_15 
REMARK   10  A    between atoms: C10_20  and  S2_21 
REMARK   11  A    between atoms: S2_21  and  C11_22 
REMARK   12  A    between atoms: C11_22  and  C12_23 
REMARK       I    between atoms: C12_23  and  N6_25 
REMARK   13  A    between atoms: N6_25  and  O2_26 
REMARK   14  A    between atoms: N6_25  and  C14_28 
ROOT
HETATM    1  C9  UNL     1      10.981   3.274  24.458  1.00  0.00     0.168 A 
HETATM    2  N4  UNL     1      11.006   2.496  25.554  1.00  0.00    -0.278 N 
ATOM      3  H4  UNL     1      11.649   2.695  26.320  1.00  0.00     0.189 HD
HETATM    4  N5  UNL     1      10.211   1.506  25.614  1.00  0.00    -0.286 N 
ATOM      5  H5  UNL     1      10.215   0.904  26.437  1.00  0.00     0.188 HD
HETATM    6  C10 UNL     1       9.382   1.249  24.621  1.00  0.00     0.130 A 
HETATM    7  S3  UNL     1       9.768   2.516  23.524  1.00  0.00    -0.026 SA
ENDROOT
BRANCH   1   8
HETATM    8  N3  UNL     1      11.725   4.332  24.236  1.00  0.00    -0.312 N 
ATOM      9  H3  UNL     1      12.743   4.288  24.253  1.00  0.00     0.170 HD
BRANCH   8  10
HETATM   10  C8  UNL     1      11.032   5.543  23.971  1.00  0.00     0.173 C 
HETATM   11  S1  UNL     1      10.910   6.043  22.438  1.00  0.00    -0.041 SA
BRANCH  10  12
HETATM   12  N2  UNL     1      10.516   6.275  25.031  1.00  0.00    -0.367 N 
ATOM     13  H2  UNL     1       9.604   6.715  24.911  1.00  0.00     0.161 HD
BRANCH  12  14
HETATM   14  C7  UNL     1      11.185   6.449  26.278  1.00  0.00     0.123 C 
BRANCH  14  15
HETATM   15  C6  UNL     1      10.527   7.572  27.065  1.00  0.00     0.050 C 
BRANCH  15  16
HETATM   16  C5  UNL     1       9.069   7.377  27.146  1.00  0.00     0.274 C 
BRANCH  16  17
HETATM   17  N1  UNL     1       8.557   6.451  28.115  1.00  0.00     0.087 N 
BRANCH  17  18
HETATM   18  C2  UNL     1       7.580   5.581  27.328  1.00  0.00     0.268 C 
HETATM   19  C1  UNL     1       8.196   4.232  27.130  1.00  0.00     0.037 C 
ENDBRANCH  17  18
BRANCH  17  20
HETATM   20  C3  UNL     1       7.668   7.108  29.090  1.00  0.00     0.268 C 
HETATM   21  C4  UNL     1       8.412   7.680  30.241  1.00  0.00     0.037 C 
ENDBRANCH  17  20
ENDBRANCH  16  17
ENDBRANCH  15  16
ENDBRANCH  14  15
ENDBRANCH  12  14
ENDBRANCH  10  12
ENDBRANCH   8  10
ENDBRANCH   1   8
BRANCH   6  22
HETATM   22  S2  UNL     1       8.166  -0.074  24.436  1.00  0.00    -0.094 SA
BRANCH  22  23
HETATM   23  C11 UNL     1       8.318  -1.124  25.895  1.00  0.00     0.186 C 
BRANCH  23  24
HETATM   24  C12 UNL     1       7.472  -0.574  26.980  1.00  0.00     0.253 C 
HETATM   25  O1  UNL     1       6.229  -0.655  26.862  1.00  0.00    -0.270 OA
HETATM   26  N6  UNL     1       8.006   0.044  28.144  1.00  0.00    -0.219 N 
BRANCH  26  27
HETATM   27  O2  UNL     1       9.397   0.027  28.182  1.00  0.00    -0.280 OA
HETATM   28  C13 UNL     1       9.734  -1.176  28.811  1.00  0.00     0.238 C 
ENDBRANCH  26  27
BRANCH  26  29
HETATM   29  C14 UNL     1       7.284   0.656  29.195  1.00  0.00     0.143 C 
HETATM   30  C15 UNL     1       7.986   1.729  29.982  1.00  0.00     0.056 C 
HETATM   31  C16 UNL     1       7.075   1.716  31.229  1.00  0.00     0.169 C 
HETATM   32  O3  UNL     1       6.826   0.373  31.474  1.00  0.00    -0.389 OA
HETATM   33  C17 UNL     1       6.894  -0.309  30.295  1.00  0.00     0.195 C 
ENDBRANCH  26  29
ENDBRANCH  23  24
ENDBRANCH  22  23
ENDBRANCH   6  22
TORSDOF 14
ENDMDL
