MODEL 1
REMARK VINA RESULT: -4.925608018      0.000      0.000
REMARK  6 active torsions:
REMARK  status: ('A' for Active; 'I' for Inactive)
REMARK    1  A    between atoms: C3_3  and  O1_4 
REMARK    2  A    between atoms: N2_12  and  C8_13 
REMARK    3  A    between atoms: C9_16  and  O2_17 
REMARK    4  A    between atoms: N5_22  and  O3_23 
REMARK    5  A    between atoms: C13_26  and  C14_27 
REMARK    6  A    between atoms: C14_27  and  O4_28 
ROOT
HETATM    1  C1  UNL     1      20.140 -15.388   0.738  1.00  0.00     0.016 C 
HETATM    2  C2  UNL     1      19.887 -15.189  -0.410  1.00  0.00    -0.067 C 
HETATM    3  C3  UNL     1      19.585 -14.913  -1.815  1.00  0.00     0.180 C 
HETATM    4  S1  UNL     1      20.974 -15.546  -2.797  1.00  0.00    -0.057 SA
HETATM    5  C4  UNL     1      20.775 -17.312  -2.942  1.00  0.00     0.254 C 
HETATM    6  C5  UNL     1      21.449 -17.819  -4.142  1.00  0.00    -0.058 C 
HETATM    7  C6  UNL     1      22.033 -18.231  -5.127  1.00  0.00     0.016 C 
HETATM    8  C7  UNL     1      21.343 -17.931  -1.733  1.00  0.00     0.117 C 
HETATM    9  N1  UNL     1      21.801 -18.440  -0.784  1.00  0.00    -0.193 NA
HETATM   10  N2  UNL     1      19.364 -17.619  -3.053  1.00  0.00    -0.167 N 
HETATM   11  C12 UNL     1      18.273 -16.733  -3.025  1.00  0.00     0.122 A 
HETATM   12  C13 UNL     1      17.442 -16.438  -1.772  1.00  0.00     0.044 A 
HETATM   13  C15 UNL     1      18.328 -15.463  -2.324  1.00  0.00     0.076 A 
ENDROOT
BRANCH   3  14
HETATM   14  O1  UNL     1      19.706 -13.497  -2.031  1.00  0.00    -0.368 OA
ATOM     15  H1  UNL     1      18.965 -13.211  -2.552  1.00  0.00     0.212 HD
ENDBRANCH   3  14
BRANCH  12  16
HETATM   16  C14 UNL     1      17.575 -17.423  -0.693  1.00  0.00     0.171 C 
BRANCH  16  17
HETATM   17  O4  UNL     1      16.670 -18.513  -0.862  1.00  0.00    -0.400 OA
ATOM     18  H4  UNL     1      15.775 -18.258  -0.673  1.00  0.00     0.209 HD
ENDBRANCH  16  17
ENDBRANCH  12  16
BRANCH  10  19
HETATM   19  C8  UNL     1      19.098 -19.008  -3.268  1.00  0.00     0.713 A 
HETATM   20  N3  UNL     1      19.163 -20.010  -2.385  1.00  0.00    -0.165 N 
HETATM   21  C9  UNL     1      18.818 -21.174  -2.948  1.00  0.00     0.196 A 
ATOM     22  H3  UNL     1      19.439 -19.902  -1.409  1.00  0.00     0.186 HD
HETATM   23  C10 UNL     1      18.517 -20.916  -4.248  1.00  0.00     0.211 A 
HETATM   24  C11 UNL     1      18.095 -21.888  -5.226  1.00  0.00     0.125 C 
HETATM   25  N5  UNL     1      18.694 -19.589  -4.420  1.00  0.00    -0.037 N 
HETATM   26  N4  UNL     1      17.741 -22.668  -6.012  1.00  0.00    -0.190 NA
BRANCH  21  27
HETATM   27  O2  UNL     1      18.781 -22.399  -2.313  1.00  0.00    -0.344 OA
ATOM     28  H2  UNL     1      18.291 -23.160  -2.602  1.00  0.00     0.219 HD
ENDBRANCH  21  27
BRANCH  25  29
HETATM   29  O3  UNL     1      18.452 -19.003  -5.647  1.00  0.00    -0.268 OA
ATOM     30  H3  UNL     1      19.072 -18.761  -6.325  1.00  0.00     0.246 HD
ENDBRANCH  25  29
ENDBRANCH  10  19
TORSDOF 6
ENDMDL
MODEL 2
REMARK VINA RESULT: -4.808791537      1.920      3.675
REMARK  6 active torsions:
REMARK  status: ('A' for Active; 'I' for Inactive)
REMARK    1  A    between atoms: C3_3  and  O1_4 
REMARK    2  A    between atoms: N2_12  and  C8_13 
REMARK    3  A    between atoms: C9_16  and  O2_17 
REMARK    4  A    between atoms: N5_22  and  O3_23 
REMARK    5  A    between atoms: C13_26  and  C14_27 
REMARK    6  A    between atoms: C14_27  and  O4_28 
ROOT
HETATM    1  C1  UNL     1      19.675 -13.737  -1.410  1.00  0.00     0.016 C 
HETATM    2  C2  UNL     1      20.218 -14.745  -1.077  1.00  0.00    -0.067 C 
HETATM    3  C3  UNL     1      20.899 -15.966  -0.642  1.00  0.00     0.180 C 
HETATM    4  S1  UNL     1      19.664 -16.996   0.202  1.00  0.00    -0.057 SA
HETATM    5  C4  UNL     1      18.685 -17.803  -1.049  1.00  0.00     0.254 C 
HETATM    6  C5  UNL     1      18.099 -19.047  -0.536  1.00  0.00    -0.058 C 
HETATM    7  C6  UNL     1      17.599 -20.062  -0.090  1.00  0.00     0.016 C 
HETATM    8  C7  UNL     1      17.625 -16.871  -1.466  1.00  0.00     0.117 C 
HETATM    9  N1  UNL     1      16.770 -16.145  -1.800  1.00  0.00    -0.193 NA
HETATM   10  N2  UNL     1      19.537 -18.136  -2.172  1.00  0.00    -0.167 N 
HETATM   11  C12 UNL     1      20.907 -17.870  -2.336  1.00  0.00     0.122 A 
HETATM   12  C13 UNL     1      21.458 -16.670  -3.114  1.00  0.00     0.044 A 
HETATM   13  C15 UNL     1      21.558 -16.744  -1.690  1.00  0.00     0.076 A 
ENDROOT
BRANCH   3  14
HETATM   14  O1  UNL     1      21.778 -15.628   0.444  1.00  0.00    -0.368 OA
ATOM     15  H1  UNL     1      21.810 -16.367   1.041  1.00  0.00     0.212 HD
ENDBRANCH   3  14
BRANCH  12  16
HETATM   16  C14 UNL     1      20.504 -16.029  -4.024  1.00  0.00     0.171 C 
BRANCH  16  17
HETATM   17  O4  UNL     1      21.157 -15.472  -5.164  1.00  0.00    -0.400 OA
ATOM     18  H4  UNL     1      20.651 -15.605  -5.957  1.00  0.00     0.209 HD
ENDBRANCH  16  17
ENDBRANCH  12  16
BRANCH  10  19
HETATM   19  C8  UNL     1      18.867 -18.874  -3.197  1.00  0.00     0.713 A 
HETATM   20  N3  UNL     1      17.975 -18.430  -4.089  1.00  0.00    -0.165 N 
HETATM   21  C9  UNL     1      17.583 -19.410  -4.911  1.00  0.00     0.196 A 
ATOM     22  H3  UNL     1      17.636 -17.469  -4.137  1.00  0.00     0.186 HD
HETATM   23  C10 UNL     1      18.248 -20.535  -4.538  1.00  0.00     0.211 A 
HETATM   24  C11 UNL     1      18.127 -21.832  -5.157  1.00  0.00     0.125 C 
HETATM   25  N5  UNL     1      19.026 -20.184  -3.492  1.00  0.00    -0.037 N 
HETATM   26  N4  UNL     1      18.041 -22.875  -5.663  1.00  0.00    -0.190 NA
BRANCH  21  27
HETATM   27  O2  UNL     1      16.672 -19.286  -5.941  1.00  0.00    -0.344 OA
ATOM     28  H2  UNL     1      16.676 -19.783  -6.750  1.00  0.00     0.219 HD
ENDBRANCH  21  27
BRANCH  25  29
HETATM   29  O3  UNL     1      19.848 -21.114  -2.887  1.00  0.00    -0.268 OA
ATOM     30  H3  UNL     1      19.608 -21.894  -2.399  1.00  0.00     0.246 HD
ENDBRANCH  25  29
ENDBRANCH  10  19
TORSDOF 6
ENDMDL
MODEL 3
REMARK VINA RESULT: -4.795418614      2.778      6.056
REMARK  6 active torsions:
REMARK  status: ('A' for Active; 'I' for Inactive)
REMARK    1  A    between atoms: C3_3  and  O1_4 
REMARK    2  A    between atoms: N2_12  and  C8_13 
REMARK    3  A    between atoms: C9_16  and  O2_17 
REMARK    4  A    between atoms: N5_22  and  O3_23 
REMARK    5  A    between atoms: C13_26  and  C14_27 
REMARK    6  A    between atoms: C14_27  and  O4_28 
ROOT
HETATM    1  C1  UNL     1      21.658 -20.022  -3.560  1.00  0.00     0.016 C 
HETATM    2  C2  UNL     1      21.021 -19.230  -4.183  1.00  0.00    -0.067 C 
HETATM    3  C3  UNL     1      20.243 -18.276  -4.977  1.00  0.00     0.180 C 
HETATM    4  S1  UNL     1      18.491 -18.573  -4.605  1.00  0.00    -0.057 SA
HETATM    5  C4  UNL     1      18.131 -17.800  -3.039  1.00  0.00     0.254 C 
HETATM    6  C5  UNL     1      16.707 -17.466  -2.934  1.00  0.00    -0.058 C 
HETATM    7  C6  UNL     1      15.518 -17.217  -2.849  1.00  0.00     0.016 C 
HETATM    8  C7  UNL     1      18.520 -18.736  -1.972  1.00  0.00     0.117 C 
HETATM    9  N1  UNL     1      18.812 -19.474  -1.112  1.00  0.00    -0.193 NA
HETATM   10  N2  UNL     1      18.891 -16.571  -2.936  1.00  0.00    -0.167 N 
HETATM   11  C12 UNL     1      19.805 -16.030  -3.856  1.00  0.00     0.122 A 
HETATM   12  C13 UNL     1      21.324 -16.210  -3.761  1.00  0.00     0.044 A 
HETATM   13  C15 UNL     1      20.559 -16.862  -4.776  1.00  0.00     0.076 A 
ENDROOT
BRANCH   3  14
HETATM   14  O1  UNL     1      20.313 -18.677  -6.356  1.00  0.00    -0.368 OA
ATOM     15  H1  UNL     1      19.553 -18.327  -6.805  1.00  0.00     0.212 HD
ENDBRANCH   3  14
BRANCH  12  16
HETATM   16  C14 UNL     1      21.818 -16.630  -2.445  1.00  0.00     0.171 C 
BRANCH  16  17
HETATM   17  O4  UNL     1      22.176 -15.511  -1.636  1.00  0.00    -0.400 OA
ATOM     18  H4  UNL     1      21.597 -14.772  -1.782  1.00  0.00     0.209 HD
ENDBRANCH  16  17
ENDBRANCH  12  16
BRANCH  10  19
HETATM   19  C8  UNL     1      18.604 -15.822  -1.752  1.00  0.00     0.713 A 
HETATM   20  N3  UNL     1      17.979 -16.231  -0.643  1.00  0.00    -0.165 N 
HETATM   21  C9  UNL     1      17.917 -15.253   0.267  1.00  0.00     0.196 A 
ATOM     22  H3  UNL     1      17.597 -17.168  -0.508  1.00  0.00     0.186 HD
HETATM   23  C10 UNL     1      18.528 -14.165  -0.272  1.00  0.00     0.211 A 
HETATM   24  C11 UNL     1      18.689 -12.883   0.369  1.00  0.00     0.125 C 
HETATM   25  N5  UNL     1      18.940 -14.535  -1.503  1.00  0.00    -0.037 N 
HETATM   26  N4  UNL     1      18.832 -11.853   0.889  1.00  0.00    -0.190 NA
BRANCH  21  27
HETATM   27  O2  UNL     1      17.337 -15.346   1.517  1.00  0.00    -0.344 OA
ATOM     28  H2  UNL     1      17.005 -16.141   1.917  1.00  0.00     0.219 HD
ENDBRANCH  21  27
BRANCH  25  29
HETATM   29  O3  UNL     1      19.619 -13.645  -2.312  1.00  0.00    -0.268 OA
ATOM     30  H3  UNL     1      19.643 -12.697  -2.265  1.00  0.00     0.246 HD
ENDBRANCH  25  29
ENDBRANCH  10  19
TORSDOF 6
ENDMDL
MODEL 4
REMARK VINA RESULT: -4.773755059      2.479      5.906
REMARK  6 active torsions:
REMARK  status: ('A' for Active; 'I' for Inactive)
REMARK    1  A    between atoms: C3_3  and  O1_4 
REMARK    2  A    between atoms: N2_12  and  C8_13 
REMARK    3  A    between atoms: C9_16  and  O2_17 
REMARK    4  A    between atoms: N5_22  and  O3_23 
REMARK    5  A    between atoms: C13_26  and  C14_27 
REMARK    6  A    between atoms: C14_27  and  O4_28 
ROOT
HETATM    1  C1  UNL     1      17.761 -23.139  -4.107  1.00  0.00     0.016 C 
HETATM    2  C2  UNL     1      18.858 -22.700  -3.945  1.00  0.00    -0.067 C 
HETATM    3  C3  UNL     1      20.218 -22.191  -3.758  1.00  0.00     0.180 C 
HETATM    4  S1  UNL     1      20.569 -21.076  -5.147  1.00  0.00    -0.057 SA
HETATM    5  C4  UNL     1      19.773 -19.518  -4.807  1.00  0.00     0.254 C 
HETATM    6  C5  UNL     1      20.445 -18.420  -5.509  1.00  0.00    -0.058 C 
HETATM    7  C6  UNL     1      20.997 -17.522  -6.117  1.00  0.00     0.016 C 
HETATM    8  C7  UNL     1      18.370 -19.623  -5.241  1.00  0.00     0.117 C 
HETATM    9  N1  UNL     1      17.255 -19.686  -5.593  1.00  0.00    -0.193 NA
HETATM   10  N2  UNL     1      19.843 -19.254  -3.384  1.00  0.00    -0.167 N 
HETATM   11  C12 UNL     1      20.399 -20.058  -2.374  1.00  0.00     0.122 A 
HETATM   12  C13 UNL     1      19.584 -21.011  -1.494  1.00  0.00     0.044 A 
HETATM   13  C15 UNL     1      20.479 -21.503  -2.493  1.00  0.00     0.076 A 
ENDROOT
BRANCH   3  14
HETATM   14  O1  UNL     1      21.139 -23.264  -4.014  1.00  0.00    -0.368 OA
ATOM     15  H1  UNL     1      21.841 -23.211  -3.375  1.00  0.00     0.212 HD
ENDBRANCH   3  14
BRANCH  12  16
HETATM   16  C14 UNL     1      18.140 -20.755  -1.472  1.00  0.00     0.171 C 
BRANCH  16  17
HETATM   17  O4  UNL     1      17.429 -21.804  -0.817  1.00  0.00    -0.400 OA
ATOM     18  H4  UNL     1      16.631 -21.486  -0.411  1.00  0.00     0.209 HD
ENDBRANCH  16  17
ENDBRANCH  12  16
BRANCH  10  19
HETATM   19  C8  UNL     1      19.312 -17.978  -3.014  1.00  0.00     0.713 A 
HETATM   20  N3  UNL     1      18.031 -17.605  -2.937  1.00  0.00    -0.165 N 
HETATM   21  C9  UNL     1      17.920 -16.335  -2.530  1.00  0.00     0.196 A 
ATOM     22  H3  UNL     1      17.239 -18.209  -3.160  1.00  0.00     0.186 HD
HETATM   23  C10 UNL     1      19.181 -15.866  -2.334  1.00  0.00     0.211 A 
HETATM   24  C11 UNL     1      19.529 -14.539  -1.893  1.00  0.00     0.125 C 
HETATM   25  N5  UNL     1      20.014 -16.886  -2.635  1.00  0.00    -0.037 N 
HETATM   26  N4  UNL     1      19.811 -13.473  -1.523  1.00  0.00    -0.190 NA
BRANCH  21  27
HETATM   27  O2  UNL     1      16.739 -15.644  -2.349  1.00  0.00    -0.344 OA
ATOM     28  H2  UNL     1      16.412 -14.947  -2.904  1.00  0.00     0.219 HD
ENDBRANCH  21  27
BRANCH  25  29
HETATM   29  O3  UNL     1      21.381 -16.731  -2.521  1.00  0.00    -0.268 OA
ATOM     30  H3  UNL     1      21.902 -15.943  -2.624  1.00  0.00     0.246 HD
ENDBRANCH  25  29
ENDBRANCH  10  19
TORSDOF 6
ENDMDL
MODEL 5
REMARK VINA RESULT: -4.727631240      2.618      5.413
REMARK  6 active torsions:
REMARK  status: ('A' for Active; 'I' for Inactive)
REMARK    1  A    between atoms: C3_3  and  O1_4 
REMARK    2  A    between atoms: N2_12  and  C8_13 
REMARK    3  A    between atoms: C9_16  and  O2_17 
REMARK    4  A    between atoms: N5_22  and  O3_23 
REMARK    5  A    between atoms: C13_26  and  C14_27 
REMARK    6  A    between atoms: C14_27  and  O4_28 
ROOT
HETATM    1  C1  UNL     1      20.918 -17.950  -5.988  1.00  0.00     0.016 C 
HETATM    2  C2  UNL     1      20.920 -18.502  -4.931  1.00  0.00    -0.067 C 
HETATM    3  C3  UNL     1      20.954 -19.188  -3.638  1.00  0.00     0.180 C 
HETATM    4  S1  UNL     1      21.097 -17.910  -2.357  1.00  0.00    -0.057 SA
HETATM    5  C4  UNL     1      19.480 -17.202  -2.113  1.00  0.00     0.254 C 
HETATM    6  C5  UNL     1      19.354 -16.630  -0.768  1.00  0.00    -0.058 C 
HETATM    7  C6  UNL     1      19.272 -16.138   0.342  1.00  0.00     0.016 C 
HETATM    8  C7  UNL     1      19.283 -16.161  -3.134  1.00  0.00     0.117 C 
HETATM    9  N1  UNL     1      19.116 -15.321  -3.932  1.00  0.00    -0.193 NA
HETATM   10  N2  UNL     1      18.484 -18.245  -2.255  1.00  0.00    -0.167 N 
HETATM   11  C12 UNL     1      18.679 -19.601  -2.565  1.00  0.00     0.122 A 
HETATM   12  C13 UNL     1      18.543 -20.184  -3.976  1.00  0.00     0.044 A 
HETATM   13  C15 UNL     1      19.817 -20.060  -3.342  1.00  0.00     0.076 A 
ENDROOT
BRANCH   3  14
HETATM   14  O1  UNL     1      22.220 -19.856  -3.517  1.00  0.00    -0.368 OA
ATOM     15  H1  UNL     1      22.415 -20.276  -4.347  1.00  0.00     0.212 HD
ENDBRANCH   3  14
BRANCH  12  16
HETATM   16  C14 UNL     1      17.804 -19.345  -4.926  1.00  0.00     0.171 C 
BRANCH  16  17
HETATM   17  O4  UNL     1      17.877 -19.864  -6.253  1.00  0.00    -0.400 OA
ATOM     18  H4  UNL     1      17.391 -19.325  -6.867  1.00  0.00     0.209 HD
ENDBRANCH  16  17
ENDBRANCH  12  16
BRANCH  10  19
HETATM   19  C8  UNL     1      17.151 -17.800  -1.985  1.00  0.00     0.713 A 
HETATM   20  N3  UNL     1      16.338 -17.092  -2.776  1.00  0.00    -0.165 N 
HETATM   21  C9  UNL     1      15.153 -16.886  -2.191  1.00  0.00     0.196 A 
ATOM     22  H3  UNL     1      16.588 -16.753  -3.705  1.00  0.00     0.186 HD
HETATM   23  C10 UNL     1      15.198 -17.485  -0.971  1.00  0.00     0.211 A 
HETATM   24  C11 UNL     1      14.131 -17.509  -0.002  1.00  0.00     0.125 C 
HETATM   25  N5  UNL     1      16.426 -18.037  -0.868  1.00  0.00    -0.037 N 
HETATM   26  N4  UNL     1      13.267 -17.542   0.775  1.00  0.00    -0.190 NA
BRANCH  21  27
HETATM   27  O2  UNL     1      14.092 -16.191  -2.736  1.00  0.00    -0.344 OA
ATOM     28  H2  UNL     1      13.327 -15.883  -2.264  1.00  0.00     0.219 HD
ENDBRANCH  21  27
BRANCH  25  29
HETATM   29  O3  UNL     1      16.785 -18.740   0.265  1.00  0.00    -0.268 OA
ATOM     30  H3  UNL     1      16.277 -18.905   1.050  1.00  0.00     0.246 HD
ENDBRANCH  25  29
ENDBRANCH  10  19
TORSDOF 6
ENDMDL
