MODEL 1
REMARK VINA RESULT: -4.977846569      0.000      0.000
REMARK  4 active torsions:
REMARK  status: ('A' for Active; 'I' for Inactive)
REMARK    1  A    between atoms: O1_2  and  C2_3 
REMARK    2  A    between atoms: C4_5  and  O2_6 
REMARK    3  A    between atoms: C5_8  and  O3_9 
REMARK    4  A    between atoms: S2_21  and  N4_22 
ROOT
HETATM    1  C2  UNL     1      17.142 -16.352  -2.106  1.00  0.00     0.195 C 
HETATM    2  C3  UNL     1      17.644 -15.268  -1.244  1.00  0.00     0.104 C 
HETATM    3  C4  UNL     1      18.215 -15.615   0.077  1.00  0.00     0.153 C 
HETATM    4  C5  UNL     1      19.377 -16.512   0.129  1.00  0.00     0.175 C 
HETATM    5  C6  UNL     1      19.403 -17.769  -0.605  1.00  0.00     0.310 C 
HETATM    6  N1  UNL     1      18.515 -18.044  -1.634  1.00  0.00     0.135 N 
HETATM    7  C7  UNL     1      17.152 -17.722  -1.472  1.00  0.00     0.344 C 
HETATM    8  C8  UNL     1      18.810 -17.620  -2.963  1.00  0.00     0.299 C 
HETATM    9  C9  UNL     1      20.233 -17.149  -3.142  1.00  0.00     0.149 C 
HETATM   10  S1  UNL     1      20.404 -16.522  -4.860  1.00  0.00    -0.147 SA
HETATM   11  C10 UNL     1      21.066 -17.948  -5.812  1.00  0.00     0.202 C 
HETATM   12  N2  UNL     1      20.252 -19.075  -5.325  1.00  0.00    -0.153 NA
HETATM   13  N3  UNL     1      18.910 -18.677  -5.223  1.00  0.00    -0.204 NA
HETATM   14  C11 UNL     1      18.158 -19.950  -5.351  1.00  0.00     0.197 C 
HETATM   15  S2  UNL     1      18.941 -20.315  -3.738  1.00  0.00    -0.095 SA
HETATM   16  C12 UNL     1      18.374 -18.644  -3.914  1.00  0.00     0.215 C 
HETATM   17  O4  UNL     1      18.006 -16.484  -3.189  1.00  0.00    -0.311 OA
ENDROOT
BRANCH  15  18
HETATM   18  N4  UNL     1      18.061 -21.277  -2.909  1.00  0.00    -0.381 NA
ATOM     19  H42 UNL     1      18.529 -21.853  -2.210  1.00  0.00     0.163 HD
ATOM     20  H41 UNL     1      17.961 -20.940  -1.952  1.00  0.00     0.163 HD
ENDBRANCH  15  18
BRANCH   1  21
HETATM   21  O1  UNL     1      15.841 -16.126  -2.612  1.00  0.00    -0.358 OA
HETATM   22  C1  UNL     1      14.962 -17.132  -2.223  1.00  0.00     0.205 C 
ENDBRANCH   1  21
BRANCH   4  23
HETATM   23  O3  UNL     1      19.619 -16.736   1.517  1.00  0.00    -0.391 OA
ATOM     24  H3  UNL     1      20.181 -16.021   1.793  1.00  0.00     0.210 HD
ENDBRANCH   4  23
BRANCH   3  25
HETATM   25  O2  UNL     1      17.221 -15.927   1.044  1.00  0.00    -0.393 OA
ATOM     26  H2  UNL     1      17.164 -15.280   1.737  1.00  0.00     0.210 HD
ENDBRANCH   3  25
TORSDOF 4
ENDMDL
MODEL 2
REMARK VINA RESULT: -4.958523932      3.318      5.313
REMARK  4 active torsions:
REMARK  status: ('A' for Active; 'I' for Inactive)
REMARK    1  A    between atoms: O1_2  and  C2_3 
REMARK    2  A    between atoms: C4_5  and  O2_6 
REMARK    3  A    between atoms: C5_8  and  O3_9 
REMARK    4  A    between atoms: S2_21  and  N4_22 
ROOT
HETATM    1  C2  UNL     1      19.659 -20.601  -3.094  1.00  0.00     0.195 C 
HETATM    2  C3  UNL     1      19.594 -21.693  -4.082  1.00  0.00     0.104 C 
HETATM    3  C4  UNL     1      18.364 -21.849  -4.891  1.00  0.00     0.153 C 
HETATM    4  C5  UNL     1      17.936 -20.734  -5.746  1.00  0.00     0.175 C 
HETATM    5  C6  UNL     1      17.851 -19.373  -5.238  1.00  0.00     0.310 C 
HETATM    6  N1  UNL     1      18.464 -18.983  -4.056  1.00  0.00     0.135 N 
HETATM    7  C7  UNL     1      18.378 -19.822  -2.927  1.00  0.00     0.344 C 
HETATM    8  C8  UNL     1      19.828 -18.563  -4.066  1.00  0.00     0.299 C 
HETATM    9  C9  UNL     1      20.373 -18.322  -5.453  1.00  0.00     0.149 C 
HETATM   10  S1  UNL     1      22.158 -17.920  -5.291  1.00  0.00    -0.147 SA
HETATM   11  C10 UNL     1      22.220 -16.083  -5.265  1.00  0.00     0.202 C 
HETATM   12  N2  UNL     1      21.116 -15.730  -4.357  1.00  0.00    -0.153 NA
HETATM   13  N3  UNL     1      21.122 -16.591  -3.249  1.00  0.00    -0.204 NA
HETATM   14  C11 UNL     1      20.451 -15.799  -2.188  1.00  0.00     0.197 C 
HETATM   15  S2  UNL     1      18.990 -16.005  -3.270  1.00  0.00    -0.095 SA
HETATM   16  C12 UNL     1      20.006 -17.452  -3.130  1.00  0.00     0.215 C 
HETATM   17  O4  UNL     1      20.566 -19.651  -3.554  1.00  0.00    -0.311 OA
ENDROOT
BRANCH  15  18
HETATM   18  N4  UNL     1      17.688 -15.972  -2.440  1.00  0.00    -0.381 NA
ATOM     19  H42 UNL     1      16.988 -15.276  -2.697  1.00  0.00     0.163 HD
ATOM     20  H41 UNL     1      16.906 -16.341  -2.981  1.00  0.00     0.163 HD
ENDBRANCH  15  18
BRANCH   1  21
HETATM   21  O1  UNL     1      20.078 -21.016  -1.809  1.00  0.00    -0.358 OA
HETATM   22  C1  UNL     1      18.993 -21.230  -0.965  1.00  0.00     0.205 C 
ENDBRANCH   1  21
BRANCH   4  23
HETATM   23  O3  UNL     1      16.687 -21.142  -6.302  1.00  0.00    -0.391 OA
ATOM     24  H3  UNL     1      16.229 -21.582  -5.595  1.00  0.00     0.210 HD
ENDBRANCH   4  23
BRANCH   3  25
HETATM   25  O2  UNL     1      17.296 -22.440  -4.163  1.00  0.00    -0.393 OA
ATOM     26  H2  UNL     1      16.587 -21.833  -3.989  1.00  0.00     0.210 HD
ENDBRANCH   3  25
TORSDOF 4
ENDMDL
MODEL 3
REMARK VINA RESULT: -4.931895167      3.040      5.650
REMARK  4 active torsions:
REMARK  status: ('A' for Active; 'I' for Inactive)
REMARK    1  A    between atoms: O1_2  and  C2_3 
REMARK    2  A    between atoms: C4_5  and  O2_6 
REMARK    3  A    between atoms: C5_8  and  O3_9 
REMARK    4  A    between atoms: S2_21  and  N4_22 
ROOT
HETATM    1  C2  UNL     1      18.366 -19.933  -4.929  1.00  0.00     0.195 C 
HETATM    2  C3  UNL     1      18.602 -21.383  -4.810  1.00  0.00     0.104 C 
HETATM    3  C4  UNL     1      19.920 -21.925  -5.211  1.00  0.00     0.153 C 
HETATM    4  C5  UNL     1      21.123 -21.436  -4.524  1.00  0.00     0.175 C 
HETATM    5  C6  UNL     1      21.370 -20.013  -4.341  1.00  0.00     0.310 C 
HETATM    6  N1  UNL     1      20.371 -19.062  -4.491  1.00  0.00     0.135 N 
HETATM    7  C7  UNL     1      19.485 -19.161  -5.583  1.00  0.00     0.344 C 
HETATM    8  C8  UNL     1      19.522 -18.740  -3.391  1.00  0.00     0.299 C 
HETATM    9  C9  UNL     1      20.010 -19.291  -2.073  1.00  0.00     0.149 C 
HETATM   10  S1  UNL     1      18.745 -18.900  -0.800  1.00  0.00    -0.147 SA
HETATM   11  C10 UNL     1      19.331 -17.338  -0.028  1.00  0.00     0.202 C 
HETATM   12  N2  UNL     1      19.741 -16.531  -1.189  1.00  0.00    -0.153 NA
HETATM   13  N3  UNL     1      18.791 -16.663  -2.214  1.00  0.00    -0.204 NA
HETATM   14  C11 UNL     1      18.948 -15.412  -2.997  1.00  0.00     0.197 C 
HETATM   15  S2  UNL     1      20.577 -16.138  -3.408  1.00  0.00    -0.095 SA
HETATM   16  C12 UNL     1      19.240 -17.303  -3.393  1.00  0.00     0.215 C 
HETATM   17  O4  UNL     1      18.301 -19.397  -3.646  1.00  0.00    -0.311 OA
ENDROOT
BRANCH  15  18
HETATM   18  N4  UNL     1      21.065 -15.639  -4.786  1.00  0.00    -0.381 NA
ATOM     19  H42 UNL     1      22.044 -15.366  -4.863  1.00  0.00     0.163 HD
ATOM     20  H41 UNL     1      21.662 -16.336  -5.231  1.00  0.00     0.163 HD
ENDBRANCH  15  18
BRANCH   1  21
HETATM   21  O1  UNL     1      17.167 -19.601  -5.601  1.00  0.00    -0.358 OA
HETATM   22  C1  UNL     1      16.751 -20.633  -6.437  1.00  0.00     0.205 C 
ENDBRANCH   1  21
BRANCH   4  23
HETATM   23  O3  UNL     1      22.219 -22.053  -5.195  1.00  0.00    -0.391 OA
ATOM     24  H3  UNL     1      22.075 -22.988  -5.106  1.00  0.00     0.210 HD
ENDBRANCH   4  23
BRANCH   3  25
HETATM   25  O2  UNL     1      20.076 -22.012  -6.622  1.00  0.00    -0.393 OA
ATOM     26  H2  UNL     1      19.257 -22.178  -7.074  1.00  0.00     0.210 HD
ENDBRANCH   3  25
TORSDOF 4
ENDMDL
MODEL 4
REMARK VINA RESULT: -4.872079073      2.908      5.276
REMARK  4 active torsions:
REMARK  status: ('A' for Active; 'I' for Inactive)
REMARK    1  A    between atoms: O1_2  and  C2_3 
REMARK    2  A    between atoms: C4_5  and  O2_6 
REMARK    3  A    between atoms: C5_8  and  O3_9 
REMARK    4  A    between atoms: S2_21  and  N4_22 
ROOT
HETATM    1  C2  UNL     1      19.020 -19.562  -3.643  1.00  0.00     0.195 C 
HETATM    2  C3  UNL     1      20.410 -19.565  -4.131  1.00  0.00     0.104 C 
HETATM    3  C4  UNL     1      20.847 -18.483  -5.042  1.00  0.00     0.153 C 
HETATM    4  C5  UNL     1      20.766 -17.092  -4.575  1.00  0.00     0.175 C 
HETATM    5  C6  UNL     1      19.558 -16.565  -3.958  1.00  0.00     0.310 C 
HETATM    6  N1  UNL     1      18.552 -17.389  -3.475  1.00  0.00     0.135 N 
HETATM    7  C7  UNL     1      18.139 -18.495  -4.244  1.00  0.00     0.344 C 
HETATM    8  C8  UNL     1      18.631 -17.908  -2.148  1.00  0.00     0.299 C 
HETATM    9  C9  UNL     1      19.698 -17.249  -1.307  1.00  0.00     0.149 C 
HETATM   10  S1  UNL     1      19.751 -18.116   0.311  1.00  0.00    -0.147 SA
HETATM   11  C10 UNL     1      18.676 -17.111   1.413  1.00  0.00     0.202 C 
HETATM   12  N2  UNL     1      17.508 -16.829   0.563  1.00  0.00    -0.153 NA
HETATM   13  N3  UNL     1      17.147 -17.987  -0.142  1.00  0.00    -0.204 NA
HETATM   14  C11 UNL     1      15.703 -17.787  -0.425  1.00  0.00     0.197 C 
HETATM   15  S2  UNL     1      16.328 -16.441  -1.495  1.00  0.00    -0.095 SA
HETATM   16  C12 UNL     1      17.296 -17.926  -1.547  1.00  0.00     0.215 C 
HETATM   17  O4  UNL     1      19.036 -19.251  -2.286  1.00  0.00    -0.311 OA
ENDROOT
BRANCH  15  18
HETATM   18  N4  UNL     1      15.360 -16.185  -2.671  1.00  0.00    -0.381 NA
ATOM     19  H42 UNL     1      14.386 -15.992  -2.441  1.00  0.00     0.163 HD
ATOM     20  H41 UNL     1      15.105 -15.199  -2.720  1.00  0.00     0.163 HD
ENDBRANCH  15  18
BRANCH   1  21
HETATM   21  O1  UNL     1      18.356 -20.802  -3.797  1.00  0.00    -0.358 OA
HETATM   22  C1  UNL     1      17.962 -21.006  -5.116  1.00  0.00     0.205 C 
ENDBRANCH   1  21
BRANCH   4  23
HETATM   23  O3  UNL     1      21.147 -16.295  -5.694  1.00  0.00    -0.391 OA
ATOM     24  H3  UNL     1      21.326 -15.432  -5.340  1.00  0.00     0.210 HD
ENDBRANCH   4  23
BRANCH   3  25
HETATM   25  O2  UNL     1      20.376 -18.656  -6.372  1.00  0.00    -0.393 OA
ATOM     26  H2  UNL     1      19.819 -19.419  -6.470  1.00  0.00     0.210 HD
ENDBRANCH   3  25
TORSDOF 4
ENDMDL
MODEL 5
REMARK VINA RESULT: -4.804738381      2.470      4.182
REMARK  4 active torsions:
REMARK  status: ('A' for Active; 'I' for Inactive)
REMARK    1  A    between atoms: O1_2  and  C2_3 
REMARK    2  A    between atoms: C4_5  and  O2_6 
REMARK    3  A    between atoms: C5_8  and  O3_9 
REMARK    4  A    between atoms: S2_21  and  N4_22 
ROOT
HETATM    1  C2  UNL     1      20.560 -17.556  -3.589  1.00  0.00     0.195 C 
HETATM    2  C3  UNL     1      20.205 -16.680  -2.459  1.00  0.00     0.104 C 
HETATM    3  C4  UNL     1      18.872 -16.036  -2.449  1.00  0.00     0.153 C 
HETATM    4  C5  UNL     1      17.676 -16.890  -2.469  1.00  0.00     0.175 C 
HETATM    5  C6  UNL     1      17.533 -17.978  -3.424  1.00  0.00     0.310 C 
HETATM    6  N1  UNL     1      18.610 -18.488  -4.134  1.00  0.00     0.135 N 
HETATM    7  C7  UNL     1      19.543 -17.598  -4.703  1.00  0.00     0.344 C 
HETATM    8  C8  UNL     1      19.421 -19.512  -3.561  1.00  0.00     0.299 C 
HETATM    9  C9  UNL     1      18.821 -20.132  -2.322  1.00  0.00     0.149 C 
HETATM   10  S1  UNL     1      20.042 -21.326  -1.645  1.00  0.00    -0.147 SA
HETATM   11  C10 UNL     1      19.541 -22.950  -2.344  1.00  0.00     0.202 C 
HETATM   12  N2  UNL     1      19.259 -22.628  -3.753  1.00  0.00    -0.153 NA
HETATM   13  N3  UNL     1      20.249 -21.765  -4.246  1.00  0.00    -0.204 NA
HETATM   14  C11 UNL     1      20.234 -22.018  -5.709  1.00  0.00     0.197 C 
HETATM   15  S2  UNL     1      18.578 -21.248  -5.599  1.00  0.00    -0.095 SA
HETATM   16  C12 UNL     1      19.816 -20.466  -4.599  1.00  0.00     0.215 C 
HETATM   17  O4  UNL     1      20.599 -18.869  -3.128  1.00  0.00    -0.311 OA
ENDROOT
BRANCH  15  18
HETATM   18  N4  UNL     1      18.205 -20.561  -6.931  1.00  0.00    -0.381 NA
ATOM     19  H42 UNL     1      17.245 -20.233  -7.035  1.00  0.00     0.163 HD
ATOM     20  H41 UNL     1      18.087 -19.557  -6.798  1.00  0.00     0.163 HD
ENDBRANCH  15  18
BRANCH   1  21
HETATM   21  O1  UNL     1      21.817 -17.262  -4.169  1.00  0.00    -0.358 OA
HETATM   22  C1  UNL     1      21.796 -16.039  -4.833  1.00  0.00     0.205 C 
ENDBRANCH   1  21
BRANCH   4  23
HETATM   23  O3  UNL     1      16.572 -15.992  -2.562  1.00  0.00    -0.391 OA
ATOM     24  H3  UNL     1      15.989 -16.235  -1.852  1.00  0.00     0.210 HD
ENDBRANCH   4  23
BRANCH   3  25
HETATM   25  O2  UNL     1      18.786 -14.930  -3.337  1.00  0.00    -0.393 OA
ATOM     26  H2  UNL     1      19.635 -14.638  -3.647  1.00  0.00     0.210 HD
ENDBRANCH   3  25
TORSDOF 4
ENDMDL
