MODEL 1
REMARK VINA RESULT: -6.233286064      0.000      0.000
REMARK  4 active torsions:
REMARK  status: ('A' for Active; 'I' for Inactive)
REMARK    1  A    between atoms: N1_2  and  C3_5 
REMARK    2  A    between atoms: C3_5  and  O1_6 
REMARK    3  A    between atoms: C6_11  and  C7_12 
REMARK    4  A    between atoms: C10_17  and  N5_18 
ROOT
HETATM    1  C1  UNL     1      18.797 -18.450  -1.291  1.00  0.00     0.166 C 
HETATM    2  N1  UNL     1      18.422 -17.104  -1.753  1.00  0.00    -0.284 N 
HETATM    3  C2  UNL     1      19.003 -16.616  -2.920  1.00  0.00     0.182 C 
HETATM    4  N2  UNL     1      19.506 -16.227  -3.910  1.00  0.00    -0.172 NA
ENDROOT
BRANCH   2   5
HETATM    5  C3  UNL     1      17.480 -16.312  -1.027  1.00  0.00     0.216 A 
HETATM    6  C4  UNL     1      16.103 -16.851  -1.101  1.00  0.00     0.108 A 
HETATM    7  C5  UNL     1      15.390 -17.017  -2.370  1.00  0.00     0.102 C 
HETATM    8  C6  UNL     1      15.677 -17.119   0.086  1.00  0.00     0.068 A 
HETATM    9  N3  UNL     1      14.834 -17.130  -3.386  1.00  0.00    -0.191 NA
HETATM   10  N7  UNL     1      16.618 -16.827   1.077  1.00  0.00    -0.367 N 
HETATM   11  C13 UNL     1      17.805 -16.313   0.430  1.00  0.00     0.252 A 
ATOM     12  H7  UNL     1      16.491 -16.956   2.081  1.00  0.00     0.161 HD
HETATM   13  C14 UNL     1      17.988 -14.914   0.879  1.00  0.00     0.090 C 
HETATM   14  N8  UNL     1      18.128 -13.808   1.226  1.00  0.00    -0.195 NA
BRANCH   5  15
HETATM   15  O1  UNL     1      17.440 -14.989  -1.505  1.00  0.00    -0.363 OA
ATOM     16  H1  UNL     1      17.313 -14.962  -2.447  1.00  0.00     0.213 HD
ENDBRANCH   5  15
BRANCH   8  17
HETATM   17  C7  UNL     1      14.339 -17.675   0.409  1.00  0.00     0.035 A 
HETATM   18  C8  UNL     1      13.177 -16.988   0.549  1.00  0.00     0.052 A 
HETATM   19  C9  UNL     1      12.065 -17.714   0.852  1.00  0.00     0.069 A 
HETATM   20  N4  UNL     1      10.779 -17.254   1.043  1.00  0.00    -0.191 N 
HETATM   21  C12 UNL     1      12.221 -19.058   0.984  1.00  0.00     0.049 A 
HETATM   22  C10 UNL     1       9.786 -18.086   1.335  1.00  0.00     0.676 A 
ATOM     23  H4  UNL     1      10.587 -16.256   0.960  1.00  0.00     0.184 HD
HETATM   24  N6  UNL     1       9.900 -19.424   1.475  1.00  0.00    -0.201 N 
HETATM   25  C11 UNL     1      11.146 -19.911   1.295  1.00  0.00     0.127 A 
ATOM     26  H6  UNL     1       9.104 -20.021   1.700  1.00  0.00     0.183 HD
HETATM   27  S1  UNL     1      13.884 -19.295   0.693  1.00  0.00    -0.084 SA
BRANCH  22  28
HETATM   28  N5  UNL     1       8.558 -17.652   1.517  1.00  0.00    -0.234 N 
ATOM     29  H52 UNL     1       8.308 -16.886   0.891  1.00  0.00     0.174 HD
ATOM     30  H51 UNL     1       7.946 -18.063   2.222  1.00  0.00     0.174 HD
ENDBRANCH  22  28
ENDBRANCH   8  17
ENDBRANCH   2   5
TORSDOF 4
ENDMDL
MODEL 2
REMARK VINA RESULT: -6.067451304      1.085      1.539
REMARK  4 active torsions:
REMARK  status: ('A' for Active; 'I' for Inactive)
REMARK    1  A    between atoms: N1_2  and  C3_5 
REMARK    2  A    between atoms: C3_5  and  O1_6 
REMARK    3  A    between atoms: C6_11  and  C7_12 
REMARK    4  A    between atoms: C10_17  and  N5_18 
ROOT
HETATM    1  C1  UNL     1      18.052 -18.772  -1.479  1.00  0.00     0.166 C 
HETATM    2  N1  UNL     1      17.844 -17.355  -1.819  1.00  0.00    -0.284 N 
HETATM    3  C2  UNL     1      18.485 -16.840  -2.942  1.00  0.00     0.182 C 
HETATM    4  N2  UNL     1      19.038 -16.429  -3.897  1.00  0.00    -0.172 NA
ENDROOT
BRANCH   2   5
HETATM    5  C3  UNL     1      16.999 -16.523  -1.022  1.00  0.00     0.216 A 
HETATM    6  C4  UNL     1      15.565 -16.872  -1.152  1.00  0.00     0.108 A 
HETATM    7  C5  UNL     1      14.856 -16.825  -2.432  1.00  0.00     0.102 C 
HETATM    8  C6  UNL     1      15.092 -17.196   0.003  1.00  0.00     0.068 A 
HETATM    9  N3  UNL     1      14.305 -16.769  -3.456  1.00  0.00    -0.191 NA
HETATM   10  N7  UNL     1      16.048 -17.122   1.020  1.00  0.00    -0.367 N 
HETATM   11  C13 UNL     1      17.299 -16.704   0.428  1.00  0.00     0.252 A 
ATOM     12  H7  UNL     1      15.891 -17.329   2.007  1.00  0.00     0.161 HD
HETATM   13  C14 UNL     1      17.651 -15.388   1.011  1.00  0.00     0.090 C 
HETATM   14  N8  UNL     1      17.924 -14.347   1.463  1.00  0.00    -0.195 NA
BRANCH   5  15
HETATM   15  O1  UNL     1      17.132 -15.166  -1.371  1.00  0.00    -0.363 OA
ATOM     16  H1  UNL     1      17.970 -14.814  -1.091  1.00  0.00     0.213 HD
ENDBRANCH   5  15
BRANCH   8  17
HETATM   17  C7  UNL     1      13.690 -17.606   0.267  1.00  0.00     0.035 A 
HETATM   18  C8  UNL     1      13.213 -18.872   0.380  1.00  0.00     0.052 A 
HETATM   19  C9  UNL     1      11.880 -19.009   0.622  1.00  0.00     0.069 A 
HETATM   20  N4  UNL     1      11.162 -20.176   0.777  1.00  0.00    -0.191 N 
HETATM   21  C12 UNL     1      11.150 -17.866   0.729  1.00  0.00     0.049 A 
HETATM   22  C10 UNL     1       9.855 -20.155   1.011  1.00  0.00     0.676 A 
ATOM     23  H4  UNL     1      11.644 -21.072   0.709  1.00  0.00     0.184 HD
HETATM   24  N6  UNL     1       9.096 -19.044   1.123  1.00  0.00    -0.201 N 
HETATM   25  C11 UNL     1       9.766 -17.881   0.977  1.00  0.00     0.127 A 
ATOM     26  H6  UNL     1       8.093 -19.081   1.305  1.00  0.00     0.183 HD
HETATM   27  S1  UNL     1      12.306 -16.635   0.494  1.00  0.00    -0.084 SA
BRANCH  22  28
HETATM   28  N5  UNL     1       9.167 -21.266   1.161  1.00  0.00    -0.234 N 
ATOM     29  H52 UNL     1       9.704 -22.013   1.602  1.00  0.00     0.174 HD
ATOM     30  H51 UNL     1       8.196 -21.337   0.854  1.00  0.00     0.174 HD
ENDBRANCH  22  28
ENDBRANCH   8  17
ENDBRANCH   2   5
TORSDOF 4
ENDMDL
MODEL 3
REMARK VINA RESULT: -5.851608119      1.564      1.742
REMARK  4 active torsions:
REMARK  status: ('A' for Active; 'I' for Inactive)
REMARK    1  A    between atoms: N1_2  and  C3_5 
REMARK    2  A    between atoms: C3_5  and  O1_6 
REMARK    3  A    between atoms: C6_11  and  C7_12 
REMARK    4  A    between atoms: C10_17  and  N5_18 
ROOT
HETATM    1  C1  UNL     1      20.453 -16.981  -0.006  1.00  0.00     0.166 C 
HETATM    2  N1  UNL     1      19.934 -16.067  -1.036  1.00  0.00    -0.284 N 
HETATM    3  C2  UNL     1      20.709 -15.833  -2.168  1.00  0.00     0.182 C 
HETATM    4  N2  UNL     1      21.383 -15.653  -3.116  1.00  0.00    -0.172 NA
ENDROOT
BRANCH   2   5
HETATM    5  C3  UNL     1      18.662 -15.434  -0.886  1.00  0.00     0.216 A 
HETATM    6  C4  UNL     1      17.531 -16.367  -1.095  1.00  0.00     0.108 A 
HETATM    7  C5  UNL     1      17.325 -17.086  -2.354  1.00  0.00     0.102 C 
HETATM    8  C6  UNL     1      16.806 -16.415  -0.029  1.00  0.00     0.068 A 
HETATM    9  N3  UNL     1      17.170 -17.638  -3.368  1.00  0.00    -0.191 NA
HETATM   10  N7  UNL     1      17.287 -15.589   0.990  1.00  0.00    -0.367 N 
HETATM   11  C13 UNL     1      18.484 -14.935   0.509  1.00  0.00     0.252 A 
ATOM     12  H7  UNL     1      16.868 -15.469   1.912  1.00  0.00     0.161 HD
HETATM   13  C14 UNL     1      18.210 -13.480   0.464  1.00  0.00     0.090 C 
HETATM   14  N8  UNL     1      17.992 -12.334   0.421  1.00  0.00    -0.195 NA
BRANCH   5  15
HETATM   15  O1  UNL     1      18.502 -14.372  -1.796  1.00  0.00    -0.363 OA
ATOM     16  H1  UNL     1      17.918 -14.607  -2.508  1.00  0.00     0.213 HD
ENDBRANCH   5  15
BRANCH   8  17
HETATM   17  C7  UNL     1      15.585 -17.244   0.137  1.00  0.00     0.035 A 
HETATM   18  C8  UNL     1      14.298 -16.849  -0.027  1.00  0.00     0.052 A 
HETATM   19  C9  UNL     1      13.334 -17.788   0.184  1.00  0.00     0.069 A 
HETATM   20  N4  UNL     1      11.967 -17.637   0.081  1.00  0.00    -0.191 N 
HETATM   21  C12 UNL     1      13.750 -19.033   0.537  1.00  0.00     0.049 A 
HETATM   22  C10 UNL     1      11.142 -18.651   0.317  1.00  0.00     0.676 A 
ATOM     23  H4  UNL     1      11.582 -16.730  -0.180  1.00  0.00     0.184 HD
HETATM   24  N6  UNL     1      11.515 -19.899   0.671  1.00  0.00    -0.201 N 
HETATM   25  C11 UNL     1      12.848 -20.085   0.781  1.00  0.00     0.127 A 
ATOM     26  H6  UNL     1      10.841 -20.645   0.841  1.00  0.00     0.183 HD
HETATM   27  S1  UNL     1      15.449 -18.888   0.574  1.00  0.00    -0.084 SA
BRANCH  22  28
HETATM   28  N5  UNL     1       9.838 -18.511   0.220  1.00  0.00    -0.234 N 
ATOM     29  H52 UNL     1       9.325 -19.053   0.916  1.00  0.00     0.174 HD
ATOM     30  H51 UNL     1       9.418 -17.914  -0.492  1.00  0.00     0.174 HD
ENDBRANCH  22  28
ENDBRANCH   8  17
ENDBRANCH   2   5
TORSDOF 4
ENDMDL
MODEL 4
REMARK VINA RESULT: -5.700907706      1.796      2.142
REMARK  4 active torsions:
REMARK  status: ('A' for Active; 'I' for Inactive)
REMARK    1  A    between atoms: N1_2  and  C3_5 
REMARK    2  A    between atoms: C3_5  and  O1_6 
REMARK    3  A    between atoms: C6_11  and  C7_12 
REMARK    4  A    between atoms: C10_17  and  N5_18 
ROOT
HETATM    1  C1  UNL     1      19.818 -17.693   0.212  1.00  0.00     0.166 C 
HETATM    2  N1  UNL     1      19.757 -16.626  -0.799  1.00  0.00    -0.284 N 
HETATM    3  C2  UNL     1      20.817 -16.493  -1.691  1.00  0.00     0.182 C 
HETATM    4  N2  UNL     1      21.725 -16.404  -2.435  1.00  0.00    -0.172 NA
ENDROOT
BRANCH   2   5
HETATM    5  C3  UNL     1      18.634 -15.745  -0.872  1.00  0.00     0.216 A 
HETATM    6  C4  UNL     1      17.382 -16.443  -1.244  1.00  0.00     0.108 A 
HETATM    7  C5  UNL     1      17.232 -17.173  -2.504  1.00  0.00     0.102 C 
HETATM    8  C6  UNL     1      16.506 -16.288  -0.309  1.00  0.00     0.068 A 
HETATM    9  N3  UNL     1      17.126 -17.736  -3.517  1.00  0.00    -0.191 NA
HETATM   10  N7  UNL     1      16.982 -15.521   0.757  1.00  0.00    -0.367 N 
HETATM   11  C13 UNL     1      18.348 -15.146   0.464  1.00  0.00     0.252 A 
ATOM     12  H7  UNL     1      16.458 -15.270   1.596  1.00  0.00     0.161 HD
HETATM   13  C14 UNL     1      18.390 -13.670   0.345  1.00  0.00     0.090 C 
HETATM   14  N8  UNL     1      18.422 -12.507   0.243  1.00  0.00    -0.195 NA
BRANCH   5  15
HETATM   15  O1  UNL     1      18.840 -14.723  -1.818  1.00  0.00    -0.363 OA
ATOM     16  H1  UNL     1      19.195 -13.939  -1.413  1.00  0.00     0.213 HD
ENDBRANCH   5  15
BRANCH   8  17
HETATM   17  C7  UNL     1      15.130 -16.846  -0.328  1.00  0.00     0.035 A 
HETATM   18  C8  UNL     1      14.687 -17.957   0.313  1.00  0.00     0.052 A 
HETATM   19  C9  UNL     1      13.376 -18.283   0.147  1.00  0.00     0.069 A 
HETATM   20  N4  UNL     1      12.692 -19.351   0.686  1.00  0.00    -0.191 N 
HETATM   21  C12 UNL     1      12.631 -17.464  -0.644  1.00  0.00     0.049 A 
HETATM   22  C10 UNL     1      11.402 -19.543   0.436  1.00  0.00     0.676 A 
ATOM     23  H4  UNL     1      13.187 -20.008   1.290  1.00  0.00     0.184 HD
HETATM   24  N6  UNL     1      10.630 -18.755  -0.342  1.00  0.00    -0.201 N 
HETATM   25  C11 UNL     1      11.266 -17.697  -0.889  1.00  0.00     0.127 A 
ATOM     26  H6  UNL     1       9.641 -18.945  -0.504  1.00  0.00     0.183 HD
HETATM   27  S1  UNL     1      13.744 -16.272  -1.140  1.00  0.00    -0.084 SA
BRANCH  22  28
HETATM   28  N5  UNL     1      10.747 -20.561   0.950  1.00  0.00    -0.234 N 
ATOM     29  H52 UNL     1      11.289 -21.077   1.643  1.00  0.00     0.174 HD
ATOM     30  H51 UNL     1       9.794 -20.782   0.661  1.00  0.00     0.174 HD
ENDBRANCH  22  28
ENDBRANCH   8  17
ENDBRANCH   2   5
TORSDOF 4
ENDMDL
MODEL 5
REMARK VINA RESULT: -5.627250691      2.081      2.620
REMARK  4 active torsions:
REMARK  status: ('A' for Active; 'I' for Inactive)
REMARK    1  A    between atoms: N1_2  and  C3_5 
REMARK    2  A    between atoms: C3_5  and  O1_6 
REMARK    3  A    between atoms: C6_11  and  C7_12 
REMARK    4  A    between atoms: C10_17  and  N5_18 
ROOT
HETATM    1  C1  UNL     1      20.257 -17.863  -0.169  1.00  0.00     0.166 C 
HETATM    2  N1  UNL     1      20.306 -17.034  -1.384  1.00  0.00    -0.284 N 
HETATM    3  C2  UNL     1      21.332 -17.255  -2.299  1.00  0.00     0.182 C 
HETATM    4  N2  UNL     1      22.208 -17.463  -3.057  1.00  0.00    -0.172 NA
ENDROOT
BRANCH   2   5
HETATM    5  C3  UNL     1      19.322 -16.027  -1.628  1.00  0.00     0.216 A 
HETATM    6  C4  UNL     1      17.978 -16.591  -1.888  1.00  0.00     0.108 A 
HETATM    7  C5  UNL     1      17.708 -17.504  -3.001  1.00  0.00     0.102 C 
HETATM    8  C6  UNL     1      17.145 -16.147  -1.008  1.00  0.00     0.068 A 
HETATM    9  N3  UNL     1      17.509 -18.217  -3.899  1.00  0.00    -0.191 NA
HETATM   10  N7  UNL     1      17.740 -15.280  -0.088  1.00  0.00    -0.367 N 
HETATM   11  C13 UNL     1      19.142 -15.165  -0.424  1.00  0.00     0.252 A 
ATOM     12  H7  UNL     1      17.268 -14.812   0.685  1.00  0.00     0.161 HD
HETATM   13  C14 UNL     1      19.396 -13.756  -0.802  1.00  0.00     0.090 C 
HETATM   14  N8  UNL     1      19.595 -12.647  -1.108  1.00  0.00    -0.195 NA
BRANCH   5  15
HETATM   15  O1  UNL     1      19.663 -15.230  -2.737  1.00  0.00    -0.363 OA
ATOM     16  H1  UNL     1      19.459 -14.314  -2.585  1.00  0.00     0.213 HD
ENDBRANCH   5  15
BRANCH   8  17
HETATM   17  C7  UNL     1      15.702 -16.495  -0.947  1.00  0.00     0.035 A 
HETATM   18  C8  UNL     1      15.084 -17.271  -0.022  1.00  0.00     0.052 A 
HETATM   19  C9  UNL     1      13.744 -17.456  -0.169  1.00  0.00     0.069 A 
HETATM   20  N4  UNL     1      12.897 -18.194   0.631  1.00  0.00    -0.191 N 
HETATM   21  C12 UNL     1      13.147 -16.845  -1.228  1.00  0.00     0.049 A 
HETATM   22  C10 UNL     1      11.599 -18.283   0.363  1.00  0.00     0.676 A 
ATOM     23  H4  UNL     1      13.274 -18.680   1.444  1.00  0.00     0.184 HD
HETATM   24  N6  UNL     1      10.971 -17.694  -0.676  1.00  0.00    -0.201 N 
HETATM   25  C11 UNL     1      11.769 -16.962  -1.483  1.00  0.00     0.127 A 
ATOM     26  H6  UNL     1       9.969 -17.794  -0.840  1.00  0.00     0.183 HD
HETATM   27  S1  UNL     1      14.437 -16.036  -1.995  1.00  0.00    -0.084 SA
BRANCH  22  28
HETATM   28  N5  UNL     1      10.788 -18.985   1.124  1.00  0.00    -0.234 N 
ATOM     29  H52 UNL     1      11.115 -19.937   1.287  1.00  0.00     0.174 HD
ATOM     30  H51 UNL     1       9.927 -18.584   1.497  1.00  0.00     0.174 HD
ENDBRANCH  22  28
ENDBRANCH   8  17
ENDBRANCH   2   5
TORSDOF 4
ENDMDL
