MODEL 1
REMARK VINA RESULT: -7.061497157      0.000      0.000
REMARK  4 active torsions:
REMARK  status: ('A' for Active; 'I' for Inactive)
REMARK    1  A    between atoms: C3_3  and  C4_4 
REMARK    2  A    between atoms: C5_5  and  C6_6 
REMARK    3  A    between atoms: C9_20  and  N8_21 
REMARK    4  A    between atoms: C10_26  and  N10_27 
ROOT
HETATM    1  C1  UNL     1      18.045 -13.116   0.802  1.00  0.00     0.112 C 
HETATM    2  C2  UNL     1      17.775 -14.242  -0.096  1.00  0.00    -0.105 C 
HETATM    3  C3  UNL     1      17.564 -15.164  -0.848  1.00  0.00    -0.061 C 
ENDROOT
BRANCH   3   4
HETATM    4  C4  UNL     1      17.334 -16.274  -1.763  1.00  0.00     0.096 A 
HETATM    5  C5  UNL     1      16.191 -17.058  -1.818  1.00  0.00     0.118 A 
HETATM    6  N5  UNL     1      16.402 -17.945  -2.787  1.00  0.00    -0.285 N 
HETATM    7  N6  UNL     1      17.597 -17.744  -3.317  1.00  0.00    -0.220 N 
ATOM      8  H5  UNL     1      15.743 -18.668  -3.076  1.00  0.00     0.188 HD
HETATM    9  C8  UNL     1      18.206 -18.418  -4.325  1.00  0.00     0.164 A 
HETATM   10  C14 UNL     1      18.226 -16.710  -2.715  1.00  0.00     0.155 A 
HETATM   11  N7  UNL     1      17.587 -19.456  -4.937  1.00  0.00    -0.174 N 
HETATM   12  C11 UNL     1      19.467 -18.048  -4.733  1.00  0.00     0.122 A 
HETATM   13  C9  UNL     1      18.226 -20.106  -5.940  1.00  0.00     0.679 A 
ATOM     14  H7  UNL     1      16.653 -19.743  -4.647  1.00  0.00     0.186 HD
HETATM   15  N9  UNL     1      19.460 -19.736  -6.333  1.00  0.00    -0.176 N 
HETATM   16  C10 UNL     1      20.111 -18.723  -5.764  1.00  0.00     0.134 A 
ATOM     17  H9  UNL     1      19.911 -20.248  -7.092  1.00  0.00     0.186 HD
HETATM   18  C12 UNL     1      20.062 -16.988  -4.087  1.00  0.00     0.266 A 
HETATM   19  O1  UNL     1      21.211 -16.608  -4.420  1.00  0.00    -0.267 OA
HETATM   20  N11 UNL     1      19.458 -16.320  -3.088  1.00  0.00    -0.301 N 
HETATM   21  C13 UNL     1      20.119 -15.215  -2.439  1.00  0.00     0.161 C 
BRANCH   5  22
HETATM   22  C6  UNL     1      15.053 -16.862  -0.945  1.00  0.00     0.166 A 
HETATM   23  N1  UNL     1      13.910 -16.202  -1.197  1.00  0.00    -0.265 N 
HETATM   24  N2  UNL     1      13.123 -16.251  -0.137  1.00  0.00    -0.005 NA
ATOM     25  H1  UNL     1      13.683 -15.732  -2.074  1.00  0.00     0.186 HD
HETATM   26  N3  UNL     1      13.780 -16.945   0.774  1.00  0.00    -0.223 N 
HETATM   27  N4  UNL     1      14.954 -17.328   0.310  1.00  0.00    -0.265 N 
ATOM     28  H3  UNL     1      13.429 -17.156   1.708  1.00  0.00     0.206 HD
HETATM   29  C7  UNL     1      15.911 -18.090   1.036  1.00  0.00     0.181 C 
ENDBRANCH   5  22
BRANCH  13  30
HETATM   30  N8  UNL     1      17.654 -21.098  -6.537  1.00  0.00    -0.234 N 
ATOM     31  H82 UNL     1      17.878 -22.047  -6.237  1.00  0.00     0.174 HD
ATOM     32  H81 UNL     1      16.992 -20.927  -7.294  1.00  0.00     0.174 HD
ENDBRANCH  13  30
BRANCH  16  33
HETATM   33  N10 UNL     1      21.279 -18.341  -6.106  1.00  0.00    -0.384 N 
ATOM     34 2H10 UNL     1      21.898 -17.963  -5.389  1.00  0.00     0.157 HD
ATOM     35 1H10 UNL     1      21.640 -18.389  -7.059  1.00  0.00     0.157 HD
ENDBRANCH  16  33
ENDBRANCH   3   4
TORSDOF 4
ENDMDL
MODEL 2
REMARK VINA RESULT: -5.959423552      4.751      8.165
REMARK  4 active torsions:
REMARK  status: ('A' for Active; 'I' for Inactive)
REMARK    1  A    between atoms: C3_3  and  C4_4 
REMARK    2  A    between atoms: C5_5  and  C6_6 
REMARK    3  A    between atoms: C9_20  and  N8_21 
REMARK    4  A    between atoms: C10_26  and  N10_27 
ROOT
HETATM    1  C1  UNL     1      18.965 -20.934   0.069  1.00  0.00     0.112 C 
HETATM    2  C2  UNL     1      17.681 -20.242   0.202  1.00  0.00    -0.105 C 
HETATM    3  C3  UNL     1      16.626 -19.664   0.326  1.00  0.00    -0.061 C 
ENDROOT
BRANCH   3   4
HETATM    4  C4  UNL     1      15.369 -18.948   0.490  1.00  0.00     0.096 A 
HETATM    5  C5  UNL     1      15.224 -17.572   0.586  1.00  0.00     0.118 A 
HETATM    6  N5  UNL     1      13.920 -17.349   0.724  1.00  0.00    -0.285 N 
HETATM    7  N6  UNL     1      13.273 -18.502   0.716  1.00  0.00    -0.220 N 
ATOM      8  H5  UNL     1      13.487 -16.431   0.821  1.00  0.00     0.188 HD
HETATM    9  C8  UNL     1      11.940 -18.732   0.831  1.00  0.00     0.164 A 
HETATM   10  C14 UNL     1      14.130 -19.538   0.572  1.00  0.00     0.155 A 
HETATM   11  N7  UNL     1      11.071 -17.704   0.975  1.00  0.00    -0.174 N 
HETATM   12  C11 UNL     1      11.462 -20.021   0.798  1.00  0.00     0.122 A 
HETATM   13  C9  UNL     1       9.746 -17.970   1.086  1.00  0.00     0.679 A 
ATOM     14  H7  UNL     1      11.408 -16.742   1.000  1.00  0.00     0.186 HD
HETATM   15  N9  UNL     1       9.287 -19.237   1.053  1.00  0.00    -0.176 N 
HETATM   16  C10 UNL     1      10.101 -20.282   0.912  1.00  0.00     0.134 A 
ATOM     17  H9  UNL     1       8.283 -19.400   1.138  1.00  0.00     0.186 HD
HETATM   18  C12 UNL     1      12.377 -21.039   0.649  1.00  0.00     0.266 A 
HETATM   19  O1  UNL     1      11.995 -22.234   0.613  1.00  0.00    -0.267 OA
HETATM   20  N11 UNL     1      13.698 -20.812   0.537  1.00  0.00    -0.301 N 
HETATM   21  C13 UNL     1      14.621 -21.908   0.382  1.00  0.00     0.161 C 
BRANCH   5  22
HETATM   22  C6  UNL     1      16.342 -16.652   0.535  1.00  0.00     0.166 A 
HETATM   23  N1  UNL     1      17.200 -16.323   1.516  1.00  0.00    -0.265 N 
HETATM   24  N2  UNL     1      18.079 -15.447   1.064  1.00  0.00    -0.005 NA
ATOM     25  H1  UNL     1      17.175 -16.693   2.466  1.00  0.00     0.186 HD
HETATM   26  N3  UNL     1      17.766 -15.233  -0.201  1.00  0.00    -0.223 N 
HETATM   27  N4  UNL     1      16.716 -15.952  -0.548  1.00  0.00    -0.265 N 
ATOM     28  H3  UNL     1      18.266 -14.599  -0.824  1.00  0.00     0.206 HD
HETATM   29  C7  UNL     1      16.118 -15.956  -1.839  1.00  0.00     0.181 C 
ENDBRANCH   5  22
BRANCH  13  30
HETATM   30  N8  UNL     1       8.900 -17.005   1.224  1.00  0.00    -0.234 N 
ATOM     31  H82 UNL     1       8.853 -16.518   2.119  1.00  0.00     0.174 HD
ATOM     32  H81 UNL     1       8.293 -16.741   0.448  1.00  0.00     0.174 HD
ENDBRANCH  13  30
BRANCH  16  33
HETATM   33  N10 UNL     1       9.707 -21.494   0.877  1.00  0.00    -0.384 N 
ATOM     34 2H10 UNL     1       8.714 -21.689   1.008  1.00  0.00     0.157 HD
ATOM     35 1H10 UNL     1      10.325 -22.292   0.724  1.00  0.00     0.157 HD
ENDBRANCH  16  33
ENDBRANCH   3   4
TORSDOF 4
ENDMDL
MODEL 3
REMARK VINA RESULT: -5.615245894      6.777     10.166
REMARK  4 active torsions:
REMARK  status: ('A' for Active; 'I' for Inactive)
REMARK    1  A    between atoms: C3_3  and  C4_4 
REMARK    2  A    between atoms: C5_5  and  C6_6 
REMARK    3  A    between atoms: C9_20  and  N8_21 
REMARK    4  A    between atoms: C10_26  and  N10_27 
ROOT
HETATM    1  C1  UNL     1       7.697 -25.178  -0.004  1.00  0.00     0.112 C 
HETATM    2  C2  UNL     1       8.844 -24.269   0.061  1.00  0.00    -0.105 C 
HETATM    3  C3  UNL     1       9.783 -23.508   0.104  1.00  0.00    -0.061 C 
ENDROOT
BRANCH   3   4
HETATM    4  C4  UNL     1      10.897 -22.572   0.151  1.00  0.00     0.096 A 
HETATM    5  C5  UNL     1      12.226 -22.877  -0.104  1.00  0.00     0.118 A 
HETATM    6  N5  UNL     1      12.899 -21.740   0.049  1.00  0.00    -0.285 N 
HETATM    7  N6  UNL     1      12.060 -20.772   0.378  1.00  0.00    -0.220 N 
ATOM      8  H5  UNL     1      13.906 -21.632  -0.069  1.00  0.00     0.188 HD
HETATM    9  C8  UNL     1      12.324 -19.464   0.626  1.00  0.00     0.164 A 
HETATM   10  C14 UNL     1      10.793 -21.235   0.456  1.00  0.00     0.155 A 
HETATM   11  N7  UNL     1      13.589 -18.987   0.551  1.00  0.00    -0.174 N 
HETATM   12  C11 UNL     1      11.298 -18.609   0.957  1.00  0.00     0.122 A 
HETATM   13  C9  UNL     1      13.815 -17.674   0.805  1.00  0.00     0.679 A 
ATOM     14  H7  UNL     1      14.361 -19.606   0.306  1.00  0.00     0.186 HD
HETATM   15  N9  UNL     1      12.804 -16.844   1.128  1.00  0.00    -0.176 N 
HETATM   16  C10 UNL     1      11.543 -17.265   1.214  1.00  0.00     0.134 A 
ATOM     17  H9  UNL     1      13.011 -15.862   1.312  1.00  0.00     0.186 HD
HETATM   18  C12 UNL     1      10.026 -19.132   1.022  1.00  0.00     0.266 A 
HETATM   19  O1  UNL     1       9.053 -18.396   1.319  1.00  0.00    -0.267 OA
HETATM   20  N11 UNL     1       9.765 -20.428   0.777  1.00  0.00    -0.301 N 
HETATM   21  C13 UNL     1       8.417 -20.933   0.857  1.00  0.00     0.161 C 
BRANCH   5  22
HETATM   22  C6  UNL     1      12.680 -24.206  -0.457  1.00  0.00     0.166 A 
HETATM   23  N1  UNL     1      12.368 -24.936  -1.542  1.00  0.00    -0.265 N 
HETATM   24  N2  UNL     1      12.990 -26.099  -1.491  1.00  0.00    -0.005 NA
ATOM     25  H1  UNL     1      11.745 -24.636  -2.291  1.00  0.00     0.186 HD
HETATM   26  N3  UNL     1      13.691 -26.091  -0.371  1.00  0.00    -0.223 N 
HETATM   27  N4  UNL     1      13.520 -24.954   0.275  1.00  0.00    -0.265 N 
ATOM     28  H3  UNL     1      14.282 -26.858  -0.051  1.00  0.00     0.206 HD
HETATM   29  C7  UNL     1      14.130 -24.621   1.517  1.00  0.00     0.181 C 
ENDBRANCH   5  22
BRANCH  13  30
HETATM   30  N8  UNL     1      15.014 -17.199   0.739  1.00  0.00    -0.234 N 
ATOM     31  H82 UNL     1      15.570 -17.147   1.592  1.00  0.00     0.174 HD
ATOM     32  H81 UNL     1      15.391 -16.883  -0.155  1.00  0.00     0.174 HD
ENDBRANCH  13  30
BRANCH  16  33
HETATM   33  N10 UNL     1      10.559 -16.513   1.517  1.00  0.00    -0.384 N 
ATOM     34 2H10 UNL     1      10.222 -15.846   0.822  1.00  0.00     0.157 HD
ATOM     35 1H10 UNL     1      10.080 -16.532   2.418  1.00  0.00     0.157 HD
ENDBRANCH  16  33
ENDBRANCH   3   4
TORSDOF 4
ENDMDL
MODEL 4
REMARK VINA RESULT: -5.614877452      2.541      6.635
REMARK  4 active torsions:
REMARK  status: ('A' for Active; 'I' for Inactive)
REMARK    1  A    between atoms: C3_3  and  C4_4 
REMARK    2  A    between atoms: C5_5  and  C6_6 
REMARK    3  A    between atoms: C9_20  and  N8_21 
REMARK    4  A    between atoms: C10_26  and  N10_27 
ROOT
HETATM    1  C1  UNL     1      22.202 -19.629  -0.879  1.00  0.00     0.112 C 
HETATM    2  C2  UNL     1      20.895 -19.156  -1.339  1.00  0.00    -0.105 C 
HETATM    3  C3  UNL     1      19.822 -18.758  -1.732  1.00  0.00    -0.061 C 
ENDROOT
BRANCH   3   4
HETATM    4  C4  UNL     1      18.541 -18.279  -2.229  1.00  0.00     0.096 A 
HETATM    5  C5  UNL     1      18.246 -17.971  -3.550  1.00  0.00     0.118 A 
HETATM    6  N5  UNL     1      16.976 -17.576  -3.559  1.00  0.00    -0.285 N 
HETATM    7  N6  UNL     1      16.489 -17.628  -2.331  1.00  0.00    -0.220 N 
ATOM      8  H5  UNL     1      16.458 -17.279  -4.386  1.00  0.00     0.188 HD
HETATM    9  C8  UNL     1      15.243 -17.314  -1.894  1.00  0.00     0.164 A 
HETATM   10  C14 UNL     1      17.425 -18.062  -1.457  1.00  0.00     0.155 A 
HETATM   11  N7  UNL     1      14.296 -16.879  -2.759  1.00  0.00    -0.174 N 
HETATM   12  C11 UNL     1      14.933 -17.438  -0.559  1.00  0.00     0.122 A 
HETATM   13  C9  UNL     1      13.062 -16.574  -2.287  1.00  0.00     0.679 A 
ATOM     14  H7  UNL     1      14.508 -16.781  -3.751  1.00  0.00     0.186 HD
HETATM   15  N9  UNL     1      12.767 -16.699  -0.978  1.00  0.00    -0.176 N 
HETATM   16  C10 UNL     1      13.663 -17.123  -0.088  1.00  0.00     0.134 A 
ATOM     17  H9  UNL     1      11.828 -16.462  -0.659  1.00  0.00     0.186 HD
HETATM   18  C12 UNL     1      15.922 -17.884   0.288  1.00  0.00     0.266 A 
HETATM   19  O1  UNL     1      15.693 -18.016   1.515  1.00  0.00    -0.267 OA
HETATM   20  N11 UNL     1      17.157 -18.195  -0.145  1.00  0.00    -0.301 N 
HETATM   21  C13 UNL     1      18.163 -18.659   0.778  1.00  0.00     0.161 C 
BRANCH   5  22
HETATM   22  C6  UNL     1      19.208 -18.091  -4.625  1.00  0.00     0.166 A 
HETATM   23  N1  UNL     1      19.319 -19.066  -5.543  1.00  0.00    -0.265 N 
HETATM   24  N2  UNL     1      20.330 -18.806  -6.352  1.00  0.00    -0.005 NA
ATOM     25  H1  UNL     1      18.713 -19.884  -5.607  1.00  0.00     0.186 HD
HETATM   26  N3  UNL     1      20.848 -17.665  -5.934  1.00  0.00    -0.223 N 
HETATM   27  N4  UNL     1      20.186 -17.210  -4.887  1.00  0.00    -0.265 N 
ATOM     28  H3  UNL     1      21.649 -17.200  -6.361  1.00  0.00     0.206 HD
HETATM   29  C7  UNL     1      20.485 -16.005  -4.192  1.00  0.00     0.181 C 
ENDBRANCH   5  22
BRANCH  13  30
HETATM   30  N8  UNL     1      12.144 -16.158  -3.094  1.00  0.00    -0.234 N 
ATOM     31  H82 UNL     1      11.642 -16.840  -3.663  1.00  0.00     0.174 HD
ATOM     32  H81 UNL     1      11.930 -15.162  -3.157  1.00  0.00     0.174 HD
ENDBRANCH  13  30
BRANCH  16  33
HETATM   33  N10 UNL     1      13.425 -17.255   1.158  1.00  0.00    -0.384 N 
ATOM     34 2H10 UNL     1      12.608 -17.794   1.444  1.00  0.00     0.157 HD
ATOM     35 1H10 UNL     1      14.003 -16.852   1.896  1.00  0.00     0.157 HD
ENDBRANCH  16  33
ENDBRANCH   3   4
TORSDOF 4
ENDMDL
MODEL 5
REMARK VINA RESULT: -5.590458062      2.328      3.058
REMARK  4 active torsions:
REMARK  status: ('A' for Active; 'I' for Inactive)
REMARK    1  A    between atoms: C3_3  and  C4_4 
REMARK    2  A    between atoms: C5_5  and  C6_6 
REMARK    3  A    between atoms: C9_20  and  N8_21 
REMARK    4  A    between atoms: C10_26  and  N10_27 
ROOT
HETATM    1  C1  UNL     1      22.101 -15.207  -0.747  1.00  0.00     0.112 C 
HETATM    2  C2  UNL     1      21.179 -16.110  -1.439  1.00  0.00    -0.105 C 
HETATM    3  C3  UNL     1      20.407 -16.855  -1.997  1.00  0.00    -0.061 C 
ENDROOT
BRANCH   3   4
HETATM    4  C4  UNL     1      19.458 -17.744  -2.653  1.00  0.00     0.096 A 
HETATM    5  C5  UNL     1      18.077 -17.695  -2.525  1.00  0.00     0.118 A 
HETATM    6  N5  UNL     1      17.604 -18.677  -3.287  1.00  0.00    -0.285 N 
HETATM    7  N6  UNL     1      18.610 -19.312  -3.864  1.00  0.00    -0.220 N 
ATOM      8  H5  UNL     1      16.617 -18.905  -3.407  1.00  0.00     0.188 HD
HETATM    9  C8  UNL     1      18.575 -20.370  -4.713  1.00  0.00     0.164 A 
HETATM   10  C14 UNL     1      19.795 -18.771  -3.503  1.00  0.00     0.155 A 
HETATM   11  N7  UNL     1      17.396 -20.921  -5.083  1.00  0.00    -0.174 N 
HETATM   12  C11 UNL     1      19.749 -20.890  -5.209  1.00  0.00     0.122 A 
HETATM   13  C9  UNL     1      17.399 -21.977  -5.935  1.00  0.00     0.679 A 
ATOM     14  H7  UNL     1      16.516 -20.548  -4.727  1.00  0.00     0.186 HD
HETATM   15  N9  UNL     1      18.553 -22.479  -6.415  1.00  0.00    -0.176 N 
HETATM   16  C10 UNL     1      19.739 -21.972  -6.081  1.00  0.00     0.134 A 
ATOM     17  H9  UNL     1      18.518 -23.274  -7.054  1.00  0.00     0.186 HD
HETATM   18  C12 UNL     1      20.928 -20.300  -4.810  1.00  0.00     0.266 A 
HETATM   19  O1  UNL     1      22.028 -20.735  -5.231  1.00  0.00    -0.267 OA
HETATM   20  N11 UNL     1      20.962 -19.253  -3.967  1.00  0.00    -0.301 N 
HETATM   21  C13 UNL     1      22.220 -18.667  -3.575  1.00  0.00     0.161 C 
BRANCH   5  22
HETATM   22  C6  UNL     1      17.392 -16.724  -1.697  1.00  0.00     0.166 A 
HETATM   23  N1  UNL     1      16.877 -15.535  -2.055  1.00  0.00    -0.265 N 
HETATM   24  N2  UNL     1      16.334 -14.949  -1.003  1.00  0.00    -0.005 NA
ATOM     25  H1  UNL     1      16.901 -15.144  -2.997  1.00  0.00     0.186 HD
HETATM   26  N3  UNL     1      16.513 -15.777   0.010  1.00  0.00    -0.223 N 
HETATM   27  N4  UNL     1      17.153 -16.862  -0.384  1.00  0.00    -0.265 N 
ATOM     28  H3  UNL     1      16.201 -15.603   0.965  1.00  0.00     0.206 HD
HETATM   29  C7  UNL     1      17.506 -17.953   0.458  1.00  0.00     0.181 C 
ENDBRANCH   5  22
BRANCH  13  30
HETATM   30  N8  UNL     1      16.285 -22.518  -6.300  1.00  0.00    -0.234 N 
ATOM     31  H82 UNL     1      15.443 -22.325  -5.758  1.00  0.00     0.174 HD
ATOM     32  H81 UNL     1      16.256 -23.127  -7.118  1.00  0.00     0.174 HD
ENDBRANCH  13  30
BRANCH  16  33
HETATM   33  N10 UNL     1      20.853 -22.418  -6.513  1.00  0.00    -0.384 N 
ATOM     34 2H10 UNL     1      21.048 -22.360  -7.512  1.00  0.00     0.157 HD
ATOM     35 1H10 UNL     1      21.572 -22.833  -5.919  1.00  0.00     0.157 HD
ENDBRANCH  16  33
ENDBRANCH   3   4
TORSDOF 4
ENDMDL
