MODEL 1
REMARK VINA RESULT: -7.106417504      0.000      0.000
REMARK  3 active torsions:
REMARK  status: ('A' for Active; 'I' for Inactive)
REMARK    1  A    between atoms: C2_3  and  C3_4 
REMARK    2  A    between atoms: N2_10  and  C9_11 
REMARK    3  A    between atoms: C11_20  and  N6_21 
ROOT
HETATM    1  N1  UNL     1     -15.172 -10.754  28.897  1.00  0.00    -0.197 NA
HETATM    2  C1  UNL     1     -14.899 -10.698  27.774  1.00  0.00     0.061 C 
HETATM    3  C2  UNL     1     -14.540 -10.649  26.344  1.00  0.00     0.149 C 
ENDROOT
BRANCH   3   4
HETATM    4  C3  UNL     1     -13.802  -9.329  26.032  1.00  0.00     0.116 C 
HETATM    5  C4  UNL     1     -12.582  -9.345  26.837  1.00  0.00     0.027 C 
HETATM    6  C5  UNL     1     -11.741  -8.126  27.086  1.00  0.00     0.013 C 
HETATM    7  C6  UNL     1     -10.926  -7.717  25.811  1.00  0.00     0.081 C 
HETATM    8  C7  UNL     1     -11.663  -8.140  24.685  1.00  0.00    -0.163 C 
HETATM    9  C8  UNL     1     -12.624  -8.702  23.799  1.00  0.00     0.221 C 
HETATM   10  N2  UNL     1     -13.757  -9.222  24.600  1.00  0.00    -0.201 N 
BRANCH  10  11
HETATM   11  C9  UNL     1     -14.876  -9.605  23.869  1.00  0.00     0.710 A 
HETATM   12  N3  UNL     1     -15.193 -10.914  23.728  1.00  0.00    -0.021 N 
HETATM   13  C10 UNL     1     -16.263 -11.350  23.052  1.00  0.00     0.705 A 
ATOM     14  H3  UNL     1     -14.582 -11.607  24.160  1.00  0.00     0.203 HD
HETATM   15  N4  UNL     1     -16.599 -12.571  22.906  1.00  0.00    -0.234 N 
HETATM   16  N5  UNL     1     -17.065 -10.399  22.477  1.00  0.00    -0.022 N 
ATOM     17  H42 UNL     1     -16.003 -13.278  23.333  1.00  0.00     0.174 HD
ATOM     18  H41 UNL     1     -17.415 -12.903  22.391  1.00  0.00     0.174 HD
HETATM   19  C11 UNL     1     -16.791  -9.107  22.589  1.00  0.00     0.709 A 
ATOM     20  H5  UNL     1     -17.889 -10.691  21.952  1.00  0.00     0.203 HD
HETATM   21  N7  UNL     1     -15.694  -8.727  23.289  1.00  0.00    -0.021 N 
ATOM     22  H7  UNL     1     -15.486  -7.732  23.376  1.00  0.00     0.203 HD
BRANCH  19  23
HETATM   23  N6  UNL     1     -17.613  -8.097  21.981  1.00  0.00    -0.217 N 
HETATM   24  C12 UNL     1     -17.327  -7.389  20.735  1.00  0.00     0.141 C 
HETATM   25  C13 UNL     1     -18.681  -7.177  20.152  1.00  0.00     0.022 C 
HETATM   26  C14 UNL     1     -19.692  -7.507  21.206  1.00  0.00     0.022 C 
HETATM   27  C15 UNL     1     -18.865  -7.583  22.464  1.00  0.00     0.141 C 
ENDBRANCH  19  23
ENDBRANCH  10  11
ENDBRANCH   3   4
TORSDOF 3
ENDMDL
MODEL 2
REMARK VINA RESULT: -7.001531708      0.563      1.019
REMARK  3 active torsions:
REMARK  status: ('A' for Active; 'I' for Inactive)
REMARK    1  A    between atoms: C2_3  and  C3_4 
REMARK    2  A    between atoms: N2_10  and  C9_11 
REMARK    3  A    between atoms: C11_20  and  N6_21 
ROOT
HETATM    1  N1  UNL     1     -15.178 -10.762  29.004  1.00  0.00    -0.197 NA
HETATM    2  C1  UNL     1     -14.908 -10.745  27.879  1.00  0.00     0.061 C 
HETATM    3  C2  UNL     1     -14.553 -10.747  26.448  1.00  0.00     0.149 C 
ENDROOT
BRANCH   3   4
HETATM    4  C3  UNL     1     -13.851  -9.422  26.079  1.00  0.00     0.116 C 
HETATM    5  C4  UNL     1     -12.622  -9.380  26.868  1.00  0.00     0.027 C 
HETATM    6  C5  UNL     1     -11.807  -8.134  27.062  1.00  0.00     0.013 C 
HETATM    7  C6  UNL     1     -11.017  -7.751  25.763  1.00  0.00     0.081 C 
HETATM    8  C7  UNL     1     -11.758  -8.233  24.662  1.00  0.00    -0.163 C 
HETATM    9  C8  UNL     1     -12.715  -8.849  23.810  1.00  0.00     0.221 C 
HETATM   10  N2  UNL     1     -13.826  -9.366  24.644  1.00  0.00    -0.201 N 
BRANCH  10  11
HETATM   11  C9  UNL     1     -14.944  -9.801  23.941  1.00  0.00     0.710 A 
HETATM   12  N3  UNL     1     -15.160 -11.122  23.738  1.00  0.00    -0.021 N 
HETATM   13  C10 UNL     1     -16.222 -11.609  23.086  1.00  0.00     0.705 A 
ATOM     14  H3  UNL     1     -14.475 -11.784  24.103  1.00  0.00     0.203 HD
HETATM   15  N4  UNL     1     -16.465 -12.844  22.885  1.00  0.00    -0.234 N 
HETATM   16  N5  UNL     1     -17.126 -10.699  22.602  1.00  0.00    -0.022 N 
ATOM     17  H42 UNL     1     -15.793 -13.521  23.245  1.00  0.00     0.174 HD
ATOM     18  H41 UNL     1     -17.275 -13.216  22.387  1.00  0.00     0.174 HD
HETATM   19  C11 UNL     1     -16.952  -9.397  22.777  1.00  0.00     0.709 A 
ATOM     20  H5  UNL     1     -17.948 -11.031  22.097  1.00  0.00     0.203 HD
HETATM   21  N7  UNL     1     -15.857  -8.965  23.449  1.00  0.00    -0.021 N 
ATOM     22  H7  UNL     1     -15.727  -7.962  23.583  1.00  0.00     0.203 HD
BRANCH  19  23
HETATM   23  N6  UNL     1     -17.882  -8.428  22.264  1.00  0.00    -0.217 N 
HETATM   24  C12 UNL     1     -19.292  -8.310  22.628  1.00  0.00     0.141 C 
HETATM   25  C13 UNL     1     -19.534  -6.843  22.561  1.00  0.00     0.022 C 
HETATM   26  C14 UNL     1     -18.353  -6.212  21.891  1.00  0.00     0.022 C 
HETATM   27  C15 UNL     1     -17.621  -7.391  21.303  1.00  0.00     0.141 C 
ENDBRANCH  19  23
ENDBRANCH  10  11
ENDBRANCH   3   4
TORSDOF 3
ENDMDL
MODEL 3
REMARK VINA RESULT: -6.654364005      1.890      6.384
REMARK  3 active torsions:
REMARK  status: ('A' for Active; 'I' for Inactive)
REMARK    1  A    between atoms: C2_3  and  C3_4 
REMARK    2  A    between atoms: N2_10  and  C9_11 
REMARK    3  A    between atoms: C11_20  and  N6_21 
ROOT
HETATM    1  N1  UNL     1     -17.460  -6.215  22.603  1.00  0.00    -0.197 NA
HETATM    2  C1  UNL     1     -16.707  -7.035  22.917  1.00  0.00     0.061 C 
HETATM    3  C2  UNL     1     -15.733  -8.076  23.297  1.00  0.00     0.149 C 
ENDROOT
BRANCH   3   4
HETATM    4  C3  UNL     1     -16.470  -9.397  23.609  1.00  0.00     0.116 C 
HETATM    5  C4  UNL     1     -17.405  -9.611  22.506  1.00  0.00     0.027 C 
HETATM    6  C5  UNL     1     -18.538 -10.594  22.564  1.00  0.00     0.013 C 
HETATM    7  C6  UNL     1     -18.027 -12.072  22.453  1.00  0.00     0.081 C 
HETATM    8  C7  UNL     1     -16.720 -12.107  22.982  1.00  0.00    -0.163 C 
HETATM    9  C8  UNL     1     -15.454 -11.790  23.549  1.00  0.00     0.221 C 
HETATM   10  N2  UNL     1     -15.453 -10.358  23.931  1.00  0.00    -0.201 N 
BRANCH  10  11
HETATM   11  C9  UNL     1     -14.368  -9.948  24.697  1.00  0.00     0.710 A 
HETATM   12  N3  UNL     1     -14.291 -10.266  26.011  1.00  0.00    -0.021 N 
HETATM   13  C10 UNL     1     -13.268  -9.918  26.801  1.00  0.00     0.705 A 
ATOM     14  H3  UNL     1     -15.057 -10.800  26.422  1.00  0.00     0.203 HD
HETATM   15  N4  UNL     1     -13.156 -10.206  28.037  1.00  0.00    -0.234 N 
HETATM   16  N5  UNL     1     -12.255  -9.197  26.224  1.00  0.00    -0.022 N 
ATOM     17  H42 UNL     1     -13.910 -10.742  28.466  1.00  0.00     0.174 HD
ATOM     18  H41 UNL     1     -12.376  -9.941  28.639  1.00  0.00     0.174 HD
HETATM   19  C11 UNL     1     -12.290  -8.864  24.942  1.00  0.00     0.709 A 
ATOM     20  H5  UNL     1     -11.459  -8.911  26.793  1.00  0.00     0.203 HD
HETATM   21  N7  UNL     1     -13.352  -9.248  24.192  1.00  0.00    -0.021 N 
ATOM     22  H7  UNL     1     -13.376  -8.991  23.205  1.00  0.00     0.203 HD
BRANCH  19  23
HETATM   23  N6  UNL     1     -11.243  -8.096  24.324  1.00  0.00    -0.217 N 
HETATM   24  C12 UNL     1     -11.119  -7.799  22.899  1.00  0.00     0.141 C 
HETATM   25  C13 UNL     1     -10.515  -6.438  22.891  1.00  0.00     0.022 C 
HETATM   26  C14 UNL     1     -10.055  -6.132  24.283  1.00  0.00     0.022 C 
HETATM   27  C15 UNL     1     -10.121  -7.472  24.969  1.00  0.00     0.141 C 
ENDBRANCH  19  23
ENDBRANCH  10  11
ENDBRANCH   3   4
TORSDOF 3
ENDMDL
MODEL 4
REMARK VINA RESULT: -6.633292788      1.348      3.564
REMARK  3 active torsions:
REMARK  status: ('A' for Active; 'I' for Inactive)
REMARK    1  A    between atoms: C2_3  and  C3_4 
REMARK    2  A    between atoms: N2_10  and  C9_11 
REMARK    3  A    between atoms: C11_20  and  N6_21 
ROOT
HETATM    1  N1  UNL     1     -15.186 -10.736  28.917  1.00  0.00    -0.197 NA
HETATM    2  C1  UNL     1     -14.885 -10.701  27.800  1.00  0.00     0.061 C 
HETATM    3  C2  UNL     1     -14.489 -10.680  26.379  1.00  0.00     0.149 C 
ENDROOT
BRANCH   3   4
HETATM    4  C3  UNL     1     -13.792  -9.342  26.048  1.00  0.00     0.116 C 
HETATM    5  C4  UNL     1     -12.563  -9.318  26.838  1.00  0.00     0.027 C 
HETATM    6  C5  UNL     1     -11.753  -8.075  27.068  1.00  0.00     0.013 C 
HETATM    7  C6  UNL     1     -10.965  -7.653  25.780  1.00  0.00     0.081 C 
HETATM    8  C7  UNL     1     -11.703  -8.106  24.666  1.00  0.00    -0.163 C 
HETATM    9  C8  UNL     1     -12.658  -8.702  23.796  1.00  0.00     0.221 C 
HETATM   10  N2  UNL     1     -13.767  -9.246  24.615  1.00  0.00    -0.201 N 
BRANCH  10  11
HETATM   11  C9  UNL     1     -14.883  -9.666  23.900  1.00  0.00     0.710 A 
HETATM   12  N3  UNL     1     -15.757  -8.764  23.393  1.00  0.00    -0.021 N 
HETATM   13  C10 UNL     1     -16.840  -9.098  22.682  1.00  0.00     0.705 A 
ATOM     14  H3  UNL     1     -15.579  -7.774  23.562  1.00  0.00     0.203 HD
HETATM   15  N4  UNL     1     -17.678  -8.279  22.180  1.00  0.00    -0.234 N 
HETATM   16  N5  UNL     1     -17.058 -10.435  22.472  1.00  0.00    -0.022 N 
ATOM     17  H42 UNL     1     -17.516  -7.285  22.336  1.00  0.00     0.174 HD
ATOM     18  H41 UNL     1     -18.504  -8.534  21.639  1.00  0.00     0.174 HD
HETATM   19  C11 UNL     1     -16.229 -11.352  22.952  1.00  0.00     0.709 A 
ATOM     20  H5  UNL     1     -17.874 -10.731  21.937  1.00  0.00     0.203 HD
HETATM   21  N7  UNL     1     -15.147 -10.950  23.663  1.00  0.00    -0.021 N 
ATOM     22  H7  UNL     1     -14.510 -11.658  24.029  1.00  0.00     0.203 HD
BRANCH  19  23
HETATM   23  N6  UNL     1     -16.450 -12.758  22.754  1.00  0.00    -0.217 N 
HETATM   24  C12 UNL     1     -15.974 -13.835  23.620  1.00  0.00     0.141 C 
HETATM   25  C13 UNL     1     -17.063 -14.846  23.526  1.00  0.00     0.022 C 
HETATM   26  C14 UNL     1     -17.968 -14.444  22.403  1.00  0.00     0.022 C 
HETATM   27  C15 UNL     1     -17.172 -13.386  21.682  1.00  0.00     0.141 C 
ENDBRANCH  19  23
ENDBRANCH  10  11
ENDBRANCH   3   4
TORSDOF 3
ENDMDL
MODEL 5
REMARK VINA RESULT: -6.627663345      2.902      7.121
REMARK  3 active torsions:
REMARK  status: ('A' for Active; 'I' for Inactive)
REMARK    1  A    between atoms: C2_3  and  C3_4 
REMARK    2  A    between atoms: N2_10  and  C9_11 
REMARK    3  A    between atoms: C11_20  and  N6_21 
ROOT
HETATM    1  N1  UNL     1     -15.913  -9.016  23.093  1.00  0.00    -0.197 NA
HETATM    2  C1  UNL     1     -15.386  -9.591  23.948  1.00  0.00     0.061 C 
HETATM    3  C2  UNL     1     -14.734 -10.318  25.053  1.00  0.00     0.149 C 
ENDROOT
BRANCH   3   4
HETATM    4  C3  UNL     1     -13.265  -9.861  25.189  1.00  0.00     0.116 C 
HETATM    5  C4  UNL     1     -13.123  -8.691  24.325  1.00  0.00     0.027 C 
HETATM    6  C5  UNL     1     -11.794  -8.130  23.907  1.00  0.00     0.013 C 
HETATM    7  C6  UNL     1     -11.088  -7.377  25.088  1.00  0.00     0.081 C 
HETATM    8  C7  UNL     1     -11.525  -7.974  26.289  1.00  0.00    -0.163 C 
HETATM    9  C8  UNL     1     -12.168  -8.768  27.279  1.00  0.00     0.221 C 
HETATM   10  N2  UNL     1     -12.994  -9.794  26.597  1.00  0.00    -0.201 N 
BRANCH  10  11
HETATM   11  C9  UNL     1     -13.512 -10.784  27.424  1.00  0.00     0.710 A 
HETATM   12  N3  UNL     1     -14.622 -10.554  28.164  1.00  0.00    -0.021 N 
HETATM   13  C10 UNL     1     -15.182 -11.467  28.967  1.00  0.00     0.705 A 
ATOM     14  H3  UNL     1     -15.055  -9.632  28.108  1.00  0.00     0.203 HD
HETATM   15  N4  UNL     1     -16.230 -11.291  29.670  1.00  0.00    -0.234 N 
HETATM   16  N5  UNL     1     -14.577 -12.695  29.027  1.00  0.00    -0.022 N 
ATOM     17  H42 UNL     1     -16.680 -10.377  29.625  1.00  0.00     0.174 HD
ATOM     18  H41 UNL     1     -16.657 -11.987  30.282  1.00  0.00     0.174 HD
HETATM   19  C11 UNL     1     -13.489 -12.963  28.320  1.00  0.00     0.709 A 
ATOM     20  H5  UNL     1     -14.973 -13.418  29.629  1.00  0.00     0.203 HD
HETATM   21  N7  UNL     1     -12.970 -11.997  27.523  1.00  0.00    -0.021 N 
ATOM     22  H7  UNL     1     -12.133 -12.207  26.979  1.00  0.00     0.203 HD
BRANCH  19  23
HETATM   23  N6  UNL     1     -12.833 -14.241  28.383  1.00  0.00    -0.217 N 
HETATM   24  C12 UNL     1     -12.557 -15.009  29.595  1.00  0.00     0.141 C 
HETATM   25  C13 UNL     1     -12.697 -16.419  29.138  1.00  0.00     0.022 C 
HETATM   26  C14 UNL     1     -12.761 -16.413  27.642  1.00  0.00     0.022 C 
HETATM   27  C15 UNL     1     -12.323 -15.015  27.285  1.00  0.00     0.141 C 
ENDBRANCH  19  23
ENDBRANCH  10  11
ENDBRANCH   3   4
TORSDOF 3
ENDMDL
