MODEL 1
REMARK VINA RESULT: -5.740039216      0.000      0.000
REMARK  4 active torsions:
REMARK  status: ('A' for Active; 'I' for Inactive)
REMARK    1  A    between atoms: C2_2  and  C3_3 
REMARK    2  A    between atoms: C3_3  and  C4_4 
REMARK    3  A    between atoms: C4_4  and  C5_5 
REMARK    4  A    between atoms: C13_15  and  O3_16 
ROOT
HETATM    1  C5  UNL     1     -16.370  -7.705  23.552  1.00  0.00     0.114 A 
HETATM    2  C6  UNL     1     -16.081  -6.575  22.708  1.00  0.00     0.054 A 
HETATM    3  C7  UNL     1     -17.350  -6.456  22.370  1.00  0.00     0.139 A 
HETATM    4  O1  UNL     1     -18.494  -5.939  21.739  1.00  0.00    -0.328 OA
HETATM    5  C8  UNL     1     -19.674  -6.496  22.297  1.00  0.00     0.156 C 
HETATM    6  C9  UNL     1     -20.610  -7.009  21.253  1.00  0.00     0.044 C 
HETATM    7  C10 UNL     1     -20.957  -8.394  21.703  1.00  0.00     0.051 C 
HETATM    8  C11 UNL     1     -21.184  -9.342  20.546  1.00  0.00     0.159 C 
HETATM    9  O2  UNL     1     -21.801  -8.656  19.538  1.00  0.00    -0.380 OA
HETATM   10  C12 UNL     1     -21.108  -8.824  18.370  1.00  0.00     0.202 C 
HETATM   11  C13 UNL     1     -19.704  -9.232  18.694  1.00  0.00     0.173 C 
HETATM   12  C14 UNL     1     -19.778  -9.663  20.120  1.00  0.00     0.182 C 
HETATM   13  O4  UNL     1     -18.918  -8.936  20.960  1.00  0.00    -0.373 OA
HETATM   14  C15 UNL     1     -19.576  -8.894  22.184  1.00  0.00     0.154 C 
HETATM   15  C16 UNL     1     -19.165  -7.712  23.035  1.00  0.00     0.146 C 
HETATM   16  N1  UNL     1     -17.744  -7.526  23.150  1.00  0.00    -0.344 N 
ENDROOT
BRANCH   1  17
HETATM   17  C4  UNL     1     -15.871  -9.038  23.151  1.00  0.00     0.029 C 
BRANCH  17  18
HETATM   18  C3  UNL     1     -14.782  -9.676  23.906  1.00  0.00     0.002 C 
BRANCH  18  19
HETATM   19  C2  UNL     1     -13.499  -8.959  24.079  1.00  0.00    -0.004 C 
HETATM   20  C1  UNL     1     -13.310  -8.825  25.614  1.00  0.00     0.005 C 
ENDBRANCH  18  19
ENDBRANCH  17  18
ENDBRANCH   1  17
BRANCH  11  21
HETATM   21  O3  UNL     1     -19.311 -10.321  17.883  1.00  0.00    -0.391 OA
ATOM     22  H3  UNL     1     -18.860 -10.008  17.107  1.00  0.00     0.210 HD
ENDBRANCH  11  21
TORSDOF 4
ENDMDL
MODEL 2
REMARK VINA RESULT: -5.719421856      2.137      3.756
REMARK  4 active torsions:
REMARK  status: ('A' for Active; 'I' for Inactive)
REMARK    1  A    between atoms: C2_2  and  C3_3 
REMARK    2  A    between atoms: C3_3  and  C4_4 
REMARK    3  A    between atoms: C4_4  and  C5_5 
REMARK    4  A    between atoms: C13_15  and  O3_16 
ROOT
HETATM    1  C5  UNL     1     -15.683 -10.947  23.510  1.00  0.00     0.114 A 
HETATM    2  C6  UNL     1     -16.714 -11.396  24.411  1.00  0.00     0.054 A 
HETATM    3  C7  UNL     1     -17.661 -11.042  23.564  1.00  0.00     0.139 A 
HETATM    4  O1  UNL     1     -18.955 -10.852  23.052  1.00  0.00    -0.328 OA
HETATM    5  C8  UNL     1     -18.908 -10.510  21.676  1.00  0.00     0.156 C 
HETATM    6  C9  UNL     1     -19.738  -9.310  21.359  1.00  0.00     0.044 C 
HETATM    7  C10 UNL     1     -18.830  -8.419  20.570  1.00  0.00     0.051 C 
HETATM    8  C11 UNL     1     -19.098  -6.950  20.817  1.00  0.00     0.159 C 
HETATM    9  O2  UNL     1     -20.445  -6.776  20.972  1.00  0.00    -0.380 OA
HETATM   10  C12 UNL     1     -20.694  -6.094  22.132  1.00  0.00     0.202 C 
HETATM   11  C13 UNL     1     -19.514  -6.240  23.043  1.00  0.00     0.173 C 
HETATM   12  C14 UNL     1     -18.427  -6.725  22.144  1.00  0.00     0.182 C 
HETATM   13  O4  UNL     1     -17.888  -7.958  22.547  1.00  0.00    -0.373 OA
HETATM   14  C15 UNL     1     -17.511  -8.580  21.362  1.00  0.00     0.154 C 
HETATM   15  C16 UNL     1     -17.471 -10.089  21.475  1.00  0.00     0.146 C 
HETATM   16  N1  UNL     1     -16.760 -10.581  22.623  1.00  0.00    -0.344 N 
ENDROOT
BRANCH   1  17
HETATM   17  C4  UNL     1     -14.880  -9.763  23.883  1.00  0.00     0.029 C 
BRANCH  17  18
HETATM   18  C3  UNL     1     -14.033  -9.794  25.084  1.00  0.00     0.002 C 
BRANCH  18  19
HETATM   19  C2  UNL     1     -12.866  -8.888  25.177  1.00  0.00    -0.004 C 
HETATM   20  C1  UNL     1     -12.794  -8.466  26.669  1.00  0.00     0.005 C 
ENDBRANCH  18  19
ENDBRANCH  17  18
ENDBRANCH   1  17
BRANCH  11  21
HETATM   21  O3  UNL     1     -19.161  -4.986  23.591  1.00  0.00    -0.391 OA
ATOM     22  H3  UNL     1     -18.761  -4.437  22.927  1.00  0.00     0.210 HD
ENDBRANCH  11  21
TORSDOF 4
ENDMDL
MODEL 3
REMARK VINA RESULT: -5.719384500      3.545      6.081
REMARK  4 active torsions:
REMARK  status: ('A' for Active; 'I' for Inactive)
REMARK    1  A    between atoms: C2_2  and  C3_3 
REMARK    2  A    between atoms: C3_3  and  C4_4 
REMARK    3  A    between atoms: C4_4  and  C5_5 
REMARK    4  A    between atoms: C13_15  and  O3_16 
ROOT
HETATM    1  C5  UNL     1     -11.304  -8.350  26.062  1.00  0.00     0.114 A 
HETATM    2  C6  UNL     1     -12.037  -8.086  27.274  1.00  0.00     0.054 A 
HETATM    3  C7  UNL     1     -13.046  -8.835  26.870  1.00  0.00     0.139 A 
HETATM    4  O1  UNL     1     -14.295  -9.476  26.903  1.00  0.00    -0.328 OA
HETATM    5  C8  UNL     1     -14.403 -10.426  25.855  1.00  0.00     0.156 C 
HETATM    6  C9  UNL     1     -15.670 -10.278  25.080  1.00  0.00     0.044 C 
HETATM    7  C10 UNL     1     -15.238 -10.253  23.647  1.00  0.00     0.051 C 
HETATM    8  C11 UNL     1     -16.116  -9.367  22.790  1.00  0.00     0.159 C 
HETATM    9  O2  UNL     1     -17.405  -9.478  23.230  1.00  0.00    -0.380 OA
HETATM   10  C12 UNL     1     -17.923  -8.233  23.467  1.00  0.00     0.202 C 
HETATM   11  C13 UNL     1     -16.795  -7.269  23.668  1.00  0.00     0.173 C 
HETATM   12  C14 UNL     1     -15.607  -7.993  23.132  1.00  0.00     0.182 C 
HETATM   13  O4  UNL     1     -14.586  -8.158  24.083  1.00  0.00    -0.373 OA
HETATM   14  C15 UNL     1     -13.979  -9.361  23.742  1.00  0.00     0.154 C 
HETATM   15  C16 UNL     1     -13.290 -10.027  24.913  1.00  0.00     0.146 C 
HETATM   16  N1  UNL     1     -12.435  -9.158  25.674  1.00  0.00    -0.344 N 
ENDROOT
BRANCH   1  17
HETATM   17  C4  UNL     1     -11.091  -7.243  25.104  1.00  0.00     0.029 C 
BRANCH  17  18
HETATM   18  C3  UNL     1     -10.692  -7.533  23.720  1.00  0.00     0.002 C 
BRANCH  18  19
HETATM   19  C2  UNL     1     -10.724  -6.451  22.711  1.00  0.00    -0.004 C 
HETATM   20  C1  UNL     1      -9.575  -5.487  23.110  1.00  0.00     0.005 C 
ENDBRANCH  18  19
ENDBRANCH  17  18
ENDBRANCH   1  17
BRANCH  11  21
HETATM   21  O3  UNL     1     -17.018  -6.091  22.919  1.00  0.00    -0.391 OA
ATOM     22  H3  UNL     1     -17.672  -5.549  23.344  1.00  0.00     0.210 HD
ENDBRANCH  11  21
TORSDOF 4
ENDMDL
MODEL 4
REMARK VINA RESULT: -5.560376992      7.871     11.149
REMARK  4 active torsions:
REMARK  status: ('A' for Active; 'I' for Inactive)
REMARK    1  A    between atoms: C2_2  and  C3_3 
REMARK    2  A    between atoms: C3_3  and  C4_4 
REMARK    3  A    between atoms: C4_4  and  C5_5 
REMARK    4  A    between atoms: C13_15  and  O3_16 
ROOT
HETATM    1  C5  UNL     1     -15.088 -10.905  27.131  1.00  0.00     0.114 A 
HETATM    2  C6  UNL     1     -15.104 -12.086  26.306  1.00  0.00     0.054 A 
HETATM    3  C7  UNL     1     -15.092 -12.871  27.366  1.00  0.00     0.139 A 
HETATM    4  O1  UNL     1     -15.085 -14.060  28.114  1.00  0.00    -0.328 OA
HETATM    5  C8  UNL     1     -15.329 -13.794  29.486  1.00  0.00     0.156 C 
HETATM    6  C9  UNL     1     -14.334 -14.457  30.380  1.00  0.00     0.044 C 
HETATM    7  C10 UNL     1     -13.864 -13.371  31.297  1.00  0.00     0.051 C 
HETATM    8  C11 UNL     1     -12.413 -13.533  31.695  1.00  0.00     0.159 C 
HETATM    9  O2  UNL     1     -12.149 -14.866  31.842  1.00  0.00    -0.380 OA
HETATM   10  C12 UNL     1     -11.051 -15.206  31.101  1.00  0.00     0.202 C 
HETATM   11  C13 UNL     1     -10.853 -14.181  30.027  1.00  0.00     0.173 C 
HETATM   12  C14 UNL     1     -11.692 -13.031  30.473  1.00  0.00     0.182 C 
HETATM   13  O4  UNL     1     -12.674 -12.669  29.536  1.00  0.00    -0.373 OA
HETATM   14  C15 UNL     1     -13.732 -12.194  30.303  1.00  0.00     0.154 C 
HETATM   15  C16 UNL     1     -15.068 -12.310  29.601  1.00  0.00     0.146 C 
HETATM   16  N1  UNL     1     -15.078 -11.812  28.253  1.00  0.00    -0.344 N 
ENDROOT
BRANCH   1  17
HETATM   17  C4  UNL     1     -13.879 -10.053  27.129  1.00  0.00     0.029 C 
BRANCH  17  18
HETATM   18  C3  UNL     1     -13.258  -9.657  25.857  1.00  0.00     0.002 C 
BRANCH  18  19
HETATM   19  C2  UNL     1     -12.083  -8.758  25.869  1.00  0.00    -0.004 C 
HETATM   20  C1  UNL     1     -11.978  -8.241  27.329  1.00  0.00     0.005 C 
ENDBRANCH  18  19
ENDBRANCH  17  18
ENDBRANCH   1  17
BRANCH  11  21
HETATM   21  O3  UNL     1      -9.496 -13.790  29.966  1.00  0.00    -0.391 OA
ATOM     22  H3  UNL     1      -9.094 -14.119  29.170  1.00  0.00     0.210 HD
ENDBRANCH  11  21
TORSDOF 4
ENDMDL
MODEL 5
REMARK VINA RESULT: -5.538068706      7.892     11.012
REMARK  4 active torsions:
REMARK  status: ('A' for Active; 'I' for Inactive)
REMARK    1  A    between atoms: C2_2  and  C3_3 
REMARK    2  A    between atoms: C3_3  and  C4_4 
REMARK    3  A    between atoms: C4_4  and  C5_5 
REMARK    4  A    between atoms: C13_15  and  O3_16 
ROOT
HETATM    1  C5  UNL     1     -13.906  -9.781  27.247  1.00  0.00     0.114 A 
HETATM    2  C6  UNL     1     -14.021 -10.811  26.247  1.00  0.00     0.054 A 
HETATM    3  C7  UNL     1     -14.318 -11.716  27.160  1.00  0.00     0.139 A 
HETATM    4  O1  UNL     1     -14.649 -12.968  27.702  1.00  0.00    -0.328 OA
HETATM    5  C8  UNL     1     -15.042 -12.843  29.060  1.00  0.00     0.156 C 
HETATM    6  C9  UNL     1     -14.337 -13.814  29.948  1.00  0.00     0.044 C 
HETATM    7  C10 UNL     1     -13.814 -12.983  31.078  1.00  0.00     0.051 C 
HETATM    8  C11 UNL     1     -12.497 -13.497  31.618  1.00  0.00     0.159 C 
HETATM    9  O2  UNL     1     -12.516 -14.863  31.578  1.00  0.00    -0.380 OA
HETATM   10  C12 UNL     1     -11.403 -15.324  30.931  1.00  0.00     0.202 C 
HETATM   11  C13 UNL     1     -10.855 -14.229  30.068  1.00  0.00     0.173 C 
HETATM   12  C14 UNL     1     -11.518 -12.999  30.589  1.00  0.00     0.182 C 
HETATM   13  O4  UNL     1     -12.261 -12.317  29.611  1.00  0.00    -0.373 OA
HETATM   14  C15 UNL     1     -13.314 -11.737  30.311  1.00  0.00     0.154 C 
HETATM   15  C16 UNL     1     -14.526 -11.476  29.443  1.00  0.00     0.146 C 
HETATM   16  N1  UNL     1     -14.237 -10.811  28.202  1.00  0.00    -0.344 N 
ENDROOT
BRANCH   1  17
HETATM   17  C4  UNL     1     -12.572  -9.209  27.529  1.00  0.00     0.029 C 
BRANCH  17  18
HETATM   18  C3  UNL     1     -12.092  -8.046  26.768  1.00  0.00     0.002 C 
BRANCH  18  19
HETATM   19  C2  UNL     1     -11.562  -8.240  25.400  1.00  0.00    -0.004 C 
HETATM   20  C1  UNL     1     -10.385  -7.237  25.271  1.00  0.00     0.005 C 
ENDBRANCH  18  19
ENDBRANCH  17  18
ENDBRANCH   1  17
BRANCH  11  21
HETATM   21  O3  UNL     1      -9.455 -14.127  30.236  1.00  0.00    -0.391 OA
ATOM     22  H3  UNL     1      -9.126 -13.353  29.793  1.00  0.00     0.210 HD
ENDBRANCH  11  21
TORSDOF 4
ENDMDL
