MODEL 1
REMARK VINA RESULT: -5.513493941      0.000      0.000
REMARK  3 active torsions:
REMARK  status: ('A' for Active; 'I' for Inactive)
REMARK    1  A    between atoms: C2_2  and  C4_4 
REMARK    2  A    between atoms: N1_8  and  C8_9 
REMARK    3  A    between atoms: C8_9  and  C9_10 
ROOT
HETATM    1  C9  UNL     1     -12.170 -12.911  31.716  1.00  0.00     0.154 C 
HETATM    2  C10 UNL     1     -10.823 -13.144  31.127  1.00  0.00     0.060 C 
HETATM    3  N2  UNL     1      -9.779 -13.313  30.659  1.00  0.00    -0.197 NA
ENDROOT
BRANCH   1   4
HETATM    4  C8  UNL     1     -12.987 -12.184  30.708  1.00  0.00     0.289 C 
BRANCH   4   5
HETATM    5  N1  UNL     1     -13.717 -12.909  29.757  1.00  0.00     0.118 N 
HETATM    6  C7  UNL     1     -15.139 -12.675  30.096  1.00  0.00     0.276 C 
HETATM    7  C6  UNL     1     -15.581 -11.291  29.773  1.00  0.00     0.031 C 
HETATM    8  C5  UNL     1     -15.232 -10.771  28.425  1.00  0.00     0.011 C 
HETATM    9  C4  UNL     1     -13.774 -11.114  28.133  1.00  0.00     0.049 C 
HETATM   10  C11 UNL     1     -13.627 -12.585  28.369  1.00  0.00     0.238 C 
HETATM   11  C12 UNL     1     -12.484 -13.177  27.637  1.00  0.00     0.072 C 
HETATM   12  N6  UNL     1     -14.841 -13.170  27.762  1.00  0.00    -0.329 N 
HETATM   13  C13 UNL     1     -12.145 -14.580  28.067  1.00  0.00     0.077 C 
HETATM   14  C14 UNL     1     -12.963 -15.542  27.283  1.00  0.00     0.095 C 
HETATM   15  N3  UNL     1     -12.330 -16.746  26.884  1.00  0.00    -0.087 NA
HETATM   16  N4  UNL     1     -14.186 -15.337  26.958  1.00  0.00    -0.323 N 
HETATM   17  C15 UNL     1     -15.067 -14.288  27.190  1.00  0.00     0.191 C 
ATOM     18  H4  UNL     1     -14.597 -16.101  26.421  1.00  0.00     0.169 HD
HETATM   19  N5  UNL     1     -16.400 -14.496  26.721  1.00  0.00    -0.063 NA
ATOM     20  H6  UNL     1     -15.657 -12.561  27.810  1.00  0.00     0.164 HD
BRANCH   9  21
HETATM   21  C2  UNL     1     -13.300 -10.572  26.842  1.00  0.00    -0.014 C 
HETATM   22  C1  UNL     1     -14.300 -10.330  25.779  1.00  0.00     0.010 C 
HETATM   23  C3  UNL     1     -12.648  -9.213  27.163  1.00  0.00     0.010 C 
ENDBRANCH   9  21
ENDBRANCH   4   5
ENDBRANCH   1   4
TORSDOF 3
ENDMDL
MODEL 2
REMARK VINA RESULT: -5.207688047      7.365     10.165
REMARK  3 active torsions:
REMARK  status: ('A' for Active; 'I' for Inactive)
REMARK    1  A    between atoms: C2_2  and  C4_4 
REMARK    2  A    between atoms: N1_8  and  C8_9 
REMARK    3  A    between atoms: C8_9  and  C9_10 
ROOT
HETATM    1  C9  UNL     1     -15.787  -8.050  23.502  1.00  0.00     0.154 C 
HETATM    2  C10 UNL     1     -14.593  -8.865  23.854  1.00  0.00     0.060 C 
HETATM    3  N2  UNL     1     -13.669  -9.510  24.118  1.00  0.00    -0.197 NA
ENDROOT
BRANCH   1   4
HETATM    4  C8  UNL     1     -16.808  -8.965  22.923  1.00  0.00     0.289 C 
BRANCH   4   5
HETATM    5  N1  UNL     1     -17.893  -8.431  22.217  1.00  0.00     0.118 N 
HETATM    6  C7  UNL     1     -17.865  -9.098  20.896  1.00  0.00     0.276 C 
HETATM    7  C6  UNL     1     -18.272 -10.528  20.972  1.00  0.00     0.031 C 
HETATM    8  C5  UNL     1     -19.514 -10.834  21.729  1.00  0.00     0.011 C 
HETATM    9  C4  UNL     1     -19.489 -10.054  23.041  1.00  0.00     0.049 C 
HETATM   10  C11 UNL     1     -19.230  -8.625  22.682  1.00  0.00     0.238 C 
HETATM   11  C12 UNL     1     -19.702  -7.674  23.714  1.00  0.00     0.072 C 
HETATM   12  N6  UNL     1     -20.082  -8.390  21.498  1.00  0.00    -0.329 N 
HETATM   13  C13 UNL     1     -19.212  -6.264  23.516  1.00  0.00     0.077 C 
HETATM   14  C14 UNL     1     -20.154  -5.542  22.621  1.00  0.00     0.095 C 
HETATM   15  N3  UNL     1     -20.410  -4.181  22.924  1.00  0.00    -0.087 NA
HETATM   16  N4  UNL     1     -20.731  -6.080  21.611  1.00  0.00    -0.323 N 
HETATM   17  C15 UNL     1     -20.691  -7.356  21.063  1.00  0.00     0.191 C 
ATOM     18  H4  UNL     1     -21.345  -5.441  21.105  1.00  0.00     0.169 HD
HETATM   19  N5  UNL     1     -21.433  -7.526  19.855  1.00  0.00    -0.063 NA
ATOM     20  H6  UNL     1     -20.208  -9.216  20.913  1.00  0.00     0.164 HD
BRANCH   9  21
HETATM   21  C2  UNL     1     -20.649 -10.348  23.909  1.00  0.00    -0.014 C 
HETATM   22  C1  UNL     1     -21.987 -10.426  23.283  1.00  0.00     0.010 C 
HETATM   23  C3  UNL     1     -20.369 -11.725  24.544  1.00  0.00     0.010 C 
ENDBRANCH   9  21
ENDBRANCH   4   5
ENDBRANCH   1   4
TORSDOF 3
ENDMDL
MODEL 3
REMARK VINA RESULT: -4.990735742      6.999      9.670
REMARK  3 active torsions:
REMARK  status: ('A' for Active; 'I' for Inactive)
REMARK    1  A    between atoms: C2_2  and  C4_4 
REMARK    2  A    between atoms: N1_8  and  C8_9 
REMARK    3  A    between atoms: C8_9  and  C9_10 
ROOT
HETATM    1  C9  UNL     1     -16.499 -12.034  23.360  1.00  0.00     0.154 C 
HETATM    2  C10 UNL     1     -15.799 -13.295  22.992  1.00  0.00     0.060 C 
HETATM    3  N2  UNL     1     -15.262 -14.274  22.692  1.00  0.00    -0.197 NA
ENDROOT
BRANCH   1   4
HETATM    4  C8  UNL     1     -17.673 -11.886  22.458  1.00  0.00     0.289 C 
BRANCH   4   5
HETATM    5  N1  UNL     1     -17.835 -10.703  21.725  1.00  0.00     0.118 N 
HETATM    6  C7  UNL     1     -18.268 -11.136  20.377  1.00  0.00     0.276 C 
HETATM    7  C6  UNL     1     -19.663 -11.652  20.365  1.00  0.00     0.031 C 
HETATM    8  C5  UNL     1     -20.692 -10.823  21.045  1.00  0.00     0.011 C 
HETATM    9  C4  UNL     1     -20.138 -10.366  22.392  1.00  0.00     0.049 C 
HETATM   10  C11 UNL     1     -18.810  -9.734  22.113  1.00  0.00     0.238 C 
HETATM   11  C12 UNL     1     -18.392  -8.779  23.165  1.00  0.00     0.072 C 
HETATM   12  N6  UNL     1     -19.044  -8.923  20.902  1.00  0.00    -0.329 N 
HETATM   13  C13 UNL     1     -16.955  -8.343  23.057  1.00  0.00     0.077 C 
HETATM   14  C14 UNL     1     -16.868  -7.167  22.153  1.00  0.00     0.095 C 
HETATM   15  N3  UNL     1     -15.944  -6.152  22.507  1.00  0.00    -0.087 NA
HETATM   16  N4  UNL     1     -17.575  -7.032  21.091  1.00  0.00    -0.323 N 
HETATM   17  C15 UNL     1     -18.542  -7.825  20.487  1.00  0.00     0.191 C 
ATOM     18  H4  UNL     1     -17.388  -6.164  20.587  1.00  0.00     0.169 HD
HETATM   19  N5  UNL     1     -19.035  -7.341  19.237  1.00  0.00    -0.063 NA
ATOM     20  H6  UNL     1     -19.745  -9.316  20.273  1.00  0.00     0.164 HD
BRANCH   9  21
HETATM   21  C2  UNL     1     -21.116  -9.594  23.188  1.00  0.00    -0.014 C 
HETATM   22  C1  UNL     1     -22.386  -9.200  22.540  1.00  0.00     0.010 C 
HETATM   23  C3  UNL     1     -21.484 -10.484  24.391  1.00  0.00     0.010 C 
ENDBRANCH   9  21
ENDBRANCH   4   5
ENDBRANCH   1   4
TORSDOF 3
ENDMDL
MODEL 4
REMARK VINA RESULT: -4.952677901      7.511     10.199
REMARK  3 active torsions:
REMARK  status: ('A' for Active; 'I' for Inactive)
REMARK    1  A    between atoms: C2_2  and  C4_4 
REMARK    2  A    between atoms: N1_8  and  C8_9 
REMARK    3  A    between atoms: C8_9  and  C9_10 
ROOT
HETATM    1  C9  UNL     1     -18.444 -12.498  22.950  1.00  0.00     0.154 C 
HETATM    2  C10 UNL     1     -17.445 -13.349  22.248  1.00  0.00     0.060 C 
HETATM    3  N2  UNL     1     -16.668 -14.000  21.689  1.00  0.00    -0.197 NA
ENDROOT
BRANCH   1   4
HETATM    4  C8  UNL     1     -19.151 -11.687  21.923  1.00  0.00     0.289 C 
BRANCH   4   5
HETATM    5  N1  UNL     1     -18.542 -10.533  21.414  1.00  0.00     0.118 N 
HETATM    6  C7  UNL     1     -18.579 -10.689  19.942  1.00  0.00     0.276 C 
HETATM    7  C6  UNL     1     -19.951 -10.534  19.388  1.00  0.00     0.031 C 
HETATM    8  C5  UNL     1     -20.732  -9.355  19.847  1.00  0.00     0.011 C 
HETATM    9  C4  UNL     1     -20.583  -9.232  21.361  1.00  0.00     0.049 C 
HETATM   10  C11 UNL     1     -19.114  -9.245  21.647  1.00  0.00     0.238 C 
HETATM   11  C12 UNL     1     -18.769  -8.606  22.937  1.00  0.00     0.072 C 
HETATM   12  N6  UNL     1     -18.536  -8.378  20.600  1.00  0.00    -0.329 N 
HETATM   13  C13 UNL     1     -17.350  -8.848  23.378  1.00  0.00     0.077 C 
HETATM   14  C14 UNL     1     -16.471  -7.805  22.789  1.00  0.00     0.095 C 
HETATM   15  N3  UNL     1     -15.420  -7.315  23.604  1.00  0.00    -0.087 NA
HETATM   16  N4  UNL     1     -16.615  -7.339  21.603  1.00  0.00    -0.323 N 
HETATM   17  C15 UNL     1     -17.521  -7.604  20.583  1.00  0.00     0.191 C 
ATOM     18  H4  UNL     1     -15.925  -6.629  21.358  1.00  0.00     0.169 HD
HETATM   19  N5  UNL     1     -17.277  -6.914  19.356  1.00  0.00    -0.063 NA
ATOM     20  H6  UNL     1     -19.048  -8.401  19.718  1.00  0.00     0.164 HD
BRANCH   9  21
HETATM   21  C2  UNL     1     -21.387  -8.131  21.933  1.00  0.00    -0.014 C 
HETATM   22  C1  UNL     1     -21.633  -6.938  21.094  1.00  0.00     0.010 C 
HETATM   23  C3  UNL     1     -22.765  -8.738  22.266  1.00  0.00     0.010 C 
ENDBRANCH   9  21
ENDBRANCH   4   5
ENDBRANCH   1   4
TORSDOF 3
ENDMDL
MODEL 5
REMARK VINA RESULT: -4.894737567      8.382     11.368
REMARK  3 active torsions:
REMARK  status: ('A' for Active; 'I' for Inactive)
REMARK    1  A    between atoms: C2_2  and  C4_4 
REMARK    2  A    between atoms: N1_8  and  C8_9 
REMARK    3  A    between atoms: C8_9  and  C9_10 
ROOT
HETATM    1  C9  UNL     1     -16.673  -6.980  22.290  1.00  0.00     0.154 C 
HETATM    2  C10 UNL     1     -16.242  -8.208  23.012  1.00  0.00     0.060 C 
HETATM    3  N2  UNL     1     -15.908  -9.171  23.559  1.00  0.00    -0.197 NA
ENDROOT
BRANCH   1   4
HETATM    4  C8  UNL     1     -17.426  -7.405  21.079  1.00  0.00     0.289 C 
BRANCH   4   5
HETATM    5  N1  UNL     1     -18.776  -7.058  20.948  1.00  0.00     0.118 N 
HETATM    6  C7  UNL     1     -19.188  -7.586  19.627  1.00  0.00     0.276 C 
HETATM    7  C6  UNL     1     -19.290  -9.070  19.613  1.00  0.00     0.031 C 
HETATM    8  C5  UNL     1     -20.041  -9.703  20.729  1.00  0.00     0.011 C 
HETATM    9  C4  UNL     1     -19.604  -9.054  22.040  1.00  0.00     0.049 C 
HETATM   10  C11 UNL     1     -19.752  -7.577  21.854  1.00  0.00     0.238 C 
HETATM   11  C12 UNL     1     -19.903  -6.845  23.132  1.00  0.00     0.072 C 
HETATM   12  N6  UNL     1     -21.042  -7.429  21.149  1.00  0.00    -0.329 N 
HETATM   13  C13 UNL     1     -19.774  -5.351  22.999  1.00  0.00     0.077 C 
HETATM   14  C14 UNL     1     -21.104  -4.773  22.673  1.00  0.00     0.095 C 
HETATM   15  N3  UNL     1     -21.430  -3.532  23.276  1.00  0.00    -0.087 NA
HETATM   16  N4  UNL     1     -21.952  -5.333  21.890  1.00  0.00    -0.323 N 
HETATM   17  C15 UNL     1     -21.935  -6.517  21.164  1.00  0.00     0.191 C 
ATOM     18  H4  UNL     1     -22.814  -4.800  21.777  1.00  0.00     0.169 HD
HETATM   19  N5  UNL     1     -23.071  -6.737  20.328  1.00  0.00    -0.063 NA
ATOM     20  H6  UNL     1     -21.262  -8.208  20.530  1.00  0.00     0.164 HD
BRANCH   9  21
HETATM   21  C2  UNL     1     -20.238  -9.667  23.227  1.00  0.00    -0.014 C 
HETATM   22  C1  UNL     1     -21.657 -10.074  23.128  1.00  0.00     0.010 C 
HETATM   23  C3  UNL     1     -19.426 -10.940  23.535  1.00  0.00     0.010 C 
ENDBRANCH   9  21
ENDBRANCH   4   5
ENDBRANCH   1   4
TORSDOF 3
ENDMDL
