MODEL 1
REMARK VINA RESULT: -6.291204997      0.000      0.000
REMARK  4 active torsions:
REMARK  status: ('A' for Active; 'I' for Inactive)
REMARK    1  A    between atoms: S1_2  and  C2_3 
REMARK    2  A    between atoms: N1_5  and  C4_6 
REMARK    3  A    between atoms: C10_12  and  C11_13 
REMARK    4  A    between atoms: C11_13  and  O1_14 
ROOT
HETATM    1  C2  UNL     1     -16.946 -12.617  21.739  1.00  0.00     0.084 A 
HETATM    2  C3  UNL     1     -17.329 -11.347  22.128  1.00  0.00     0.122 A 
HETATM    3  N1  UNL     1     -18.090 -10.575  21.328  1.00  0.00    -0.281 N 
HETATM    4  C12 UNL     1     -18.455 -11.096  20.143  1.00  0.00     0.331 A 
HETATM    5  O3  UNL     1     -19.164 -10.401  19.377  1.00  0.00    -0.246 OA
HETATM    6  N2  UNL     1     -18.095 -12.327  19.745  1.00  0.00    -0.274 N 
ATOM      7  H2  UNL     1     -18.406 -12.663  18.834  1.00  0.00     0.173 HD
HETATM    8  C13 UNL     1     -17.332 -13.133  20.519  1.00  0.00     0.267 A 
HETATM    9  O4  UNL     1     -17.001 -14.281  20.141  1.00  0.00    -0.267 OA
ENDROOT
BRANCH   3  10
HETATM   10  C4  UNL     1     -18.504  -9.221  21.727  1.00  0.00     0.232 C 
HETATM   11  C5  UNL     1     -19.426  -9.399  22.938  1.00  0.00     0.054 C 
HETATM   12  C6  UNL     1     -19.431  -8.042  23.657  1.00  0.00     0.004 C 
HETATM   13  C7  UNL     1     -19.992  -7.037  22.719  1.00  0.00     0.000 C 
HETATM   14  C8  UNL     1     -19.106  -5.918  22.349  1.00  0.00     0.002 C 
HETATM   15  C9  UNL     1     -17.640  -6.170  22.473  1.00  0.00     0.034 C 
HETATM   16  C10 UNL     1     -17.148  -7.316  21.618  1.00  0.00     0.147 C 
HETATM   17  O2  UNL     1     -17.414  -8.542  22.121  1.00  0.00    -0.359 OA
BRANCH  16  18
HETATM   18  C11 UNL     1     -17.562  -7.055  20.205  1.00  0.00     0.196 C 
BRANCH  18  19
HETATM   19  O1  UNL     1     -16.368  -6.779  19.494  1.00  0.00    -0.398 OA
ATOM     20  H1  UNL     1     -16.639  -6.482  18.633  1.00  0.00     0.209 HD
ENDBRANCH  18  19
ENDBRANCH  16  18
ENDBRANCH   3  10
BRANCH   1  21
HETATM   21  S1  UNL     1     -15.938 -13.595  22.842  1.00  0.00    -0.128 SA
HETATM   22  C1  UNL     1     -16.002 -12.901  24.515  1.00  0.00     0.096 C 
ENDBRANCH   1  21
TORSDOF 4
ENDMDL
MODEL 2
REMARK VINA RESULT: -5.802844347      2.734      3.077
REMARK  4 active torsions:
REMARK  status: ('A' for Active; 'I' for Inactive)
REMARK    1  A    between atoms: S1_2  and  C2_3 
REMARK    2  A    between atoms: N1_5  and  C4_6 
REMARK    3  A    between atoms: C10_12  and  C11_13 
REMARK    4  A    between atoms: C11_13  and  O1_14 
ROOT
HETATM    1  C2  UNL     1     -19.922 -11.583  18.956  1.00  0.00     0.084 A 
HETATM    2  C3  UNL     1     -19.622 -10.805  20.060  1.00  0.00     0.122 A 
HETATM    3  N1  UNL     1     -19.521  -9.466  19.958  1.00  0.00    -0.281 N 
HETATM    4  C12 UNL     1     -19.726  -8.927  18.742  1.00  0.00     0.331 A 
HETATM    5  O3  UNL     1     -19.640  -7.682  18.617  1.00  0.00    -0.246 OA
HETATM    6  N2  UNL     1     -20.019  -9.663  17.658  1.00  0.00    -0.274 N 
ATOM      7  H2  UNL     1     -20.163  -9.193  16.765  1.00  0.00     0.173 HD
HETATM    8  C13 UNL     1     -20.129 -11.010  17.719  1.00  0.00     0.267 A 
HETATM    9  O4  UNL     1     -20.404 -11.690  16.703  1.00  0.00    -0.267 OA
ENDROOT
BRANCH   3  10
HETATM   10  C4  UNL     1     -19.201  -8.624  21.122  1.00  0.00     0.232 C 
HETATM   11  C5  UNL     1     -20.111  -9.105  22.257  1.00  0.00     0.054 C 
HETATM   12  C6  UNL     1     -19.443  -8.626  23.554  1.00  0.00     0.004 C 
HETATM   13  C7  UNL     1     -19.397  -7.142  23.517  1.00  0.00     0.000 C 
HETATM   14  C8  UNL     1     -18.059  -6.526  23.561  1.00  0.00     0.002 C 
HETATM   15  C9  UNL     1     -16.926  -7.376  23.091  1.00  0.00     0.034 C 
HETATM   16  C10 UNL     1     -17.064  -7.830  21.656  1.00  0.00     0.147 C 
HETATM   17  O2  UNL     1     -17.925  -8.856  21.475  1.00  0.00    -0.359 OA
BRANCH  16  18
HETATM   18  C11 UNL     1     -17.258  -6.619  20.800  1.00  0.00     0.196 C 
BRANCH  18  19
HETATM   19  O1  UNL     1     -16.635  -6.912  19.562  1.00  0.00    -0.398 OA
ATOM     20  H1  UNL     1     -16.241  -6.100  19.269  1.00  0.00     0.209 HD
ENDBRANCH  18  19
ENDBRANCH  16  18
ENDBRANCH   3  10
BRANCH   1  21
HETATM   21  S1  UNL     1     -20.043 -13.354  19.152  1.00  0.00    -0.128 SA
HETATM   22  C1  UNL     1     -18.390 -14.067  19.359  1.00  0.00     0.096 C 
ENDBRANCH   1  21
TORSDOF 4
ENDMDL
MODEL 3
REMARK VINA RESULT: -5.414000275      2.791      4.039
REMARK  4 active torsions:
REMARK  status: ('A' for Active; 'I' for Inactive)
REMARK    1  A    between atoms: S1_2  and  C2_3 
REMARK    2  A    between atoms: N1_5  and  C4_6 
REMARK    3  A    between atoms: C10_12  and  C11_13 
REMARK    4  A    between atoms: C11_13  and  O1_14 
ROOT
HETATM    1  C2  UNL     1     -15.552 -10.301  24.044  1.00  0.00     0.084 A 
HETATM    2  C3  UNL     1     -16.677  -9.941  23.325  1.00  0.00     0.122 A 
HETATM    3  N1  UNL     1     -16.822  -8.692  22.842  1.00  0.00    -0.281 N 
HETATM    4  C12 UNL     1     -15.828  -7.820  23.090  1.00  0.00     0.331 A 
HETATM    5  O3  UNL     1     -15.935  -6.650  22.652  1.00  0.00    -0.246 OA
HETATM    6  N2  UNL     1     -14.727  -8.148  23.785  1.00  0.00    -0.274 N 
ATOM      7  H2  UNL     1     -14.009  -7.440  23.939  1.00  0.00     0.173 HD
HETATM    8  C13 UNL     1     -14.543  -9.391  24.287  1.00  0.00     0.267 A 
HETATM    9  O4  UNL     1     -13.512  -9.689  24.934  1.00  0.00    -0.267 OA
ENDROOT
BRANCH   3  10
HETATM   10  C4  UNL     1     -18.014  -8.293  22.077  1.00  0.00     0.232 C 
HETATM   11  C5  UNL     1     -18.223  -9.381  21.018  1.00  0.00     0.054 C 
HETATM   12  C6  UNL     1     -19.692  -9.264  20.589  1.00  0.00     0.004 C 
HETATM   13  C7  UNL     1     -19.884  -7.917  19.995  1.00  0.00     0.000 C 
HETATM   14  C8  UNL     1     -20.857  -7.037  20.666  1.00  0.00     0.002 C 
HETATM   15  C9  UNL     1     -21.124  -7.324  22.105  1.00  0.00     0.034 C 
HETATM   16  C10 UNL     1     -19.894  -7.229  22.979  1.00  0.00     0.147 C 
HETATM   17  O2  UNL     1     -19.072  -8.300  22.905  1.00  0.00    -0.359 OA
BRANCH  16  18
HETATM   18  C11 UNL     1     -19.278  -5.882  22.774  1.00  0.00     0.196 C 
BRANCH  18  19
HETATM   19  O1  UNL     1     -18.522  -5.616  23.942  1.00  0.00    -0.398 OA
ATOM     20  H1  UNL     1     -17.825  -5.029  23.674  1.00  0.00     0.209 HD
ENDBRANCH  18  19
ENDBRANCH  16  18
ENDBRANCH   3  10
BRANCH   1  21
HETATM   21  S1  UNL     1     -15.414 -11.972  24.659  1.00  0.00    -0.128 SA
HETATM   22  C1  UNL     1     -15.853 -13.149  23.353  1.00  0.00     0.096 C 
ENDBRANCH   1  21
TORSDOF 4
ENDMDL
MODEL 4
REMARK VINA RESULT: -5.351867002      4.399      5.686
REMARK  4 active torsions:
REMARK  status: ('A' for Active; 'I' for Inactive)
REMARK    1  A    between atoms: S1_2  and  C2_3 
REMARK    2  A    between atoms: N1_5  and  C4_6 
REMARK    3  A    between atoms: C10_12  and  C11_13 
REMARK    4  A    between atoms: C11_13  and  O1_14 
ROOT
HETATM    1  C2  UNL     1     -16.598 -10.606  23.057  1.00  0.00     0.084 A 
HETATM    2  C3  UNL     1     -15.405 -10.246  23.656  1.00  0.00     0.122 A 
HETATM    3  N1  UNL     1     -15.019  -8.957  23.714  1.00  0.00    -0.281 N 
HETATM    4  C12 UNL     1     -15.844  -8.046  23.167  1.00  0.00     0.331 A 
HETATM    5  O3  UNL     1     -15.511  -6.837  23.207  1.00  0.00    -0.246 OA
HETATM    6  N2  UNL     1     -17.007  -8.373  22.581  1.00  0.00    -0.274 N 
ATOM      7  H2  UNL     1     -17.587  -7.634  22.185  1.00  0.00     0.173 HD
HETATM    8  C13 UNL     1     -17.430  -9.655  22.502  1.00  0.00     0.267 A 
HETATM    9  O4  UNL     1     -18.517  -9.953  21.954  1.00  0.00    -0.267 OA
ENDROOT
BRANCH   3  10
HETATM   10  C4  UNL     1     -13.752  -8.558  24.347  1.00  0.00     0.232 C 
HETATM   11  C5  UNL     1     -13.682  -9.317  25.675  1.00  0.00     0.054 C 
HETATM   12  C6  UNL     1     -12.199  -9.326  26.070  1.00  0.00     0.004 C 
HETATM   13  C7  UNL     1     -11.772  -7.916  26.254  1.00  0.00     0.000 C 
HETATM   14  C8  UNL     1     -10.695  -7.435  25.371  1.00  0.00     0.002 C 
HETATM   15  C9  UNL     1     -10.530  -8.161  24.078  1.00  0.00     0.034 C 
HETATM   16  C10 UNL     1     -11.759  -8.118  23.199  1.00  0.00     0.147 C 
HETATM   17  O2  UNL     1     -12.739  -8.974  23.567  1.00  0.00    -0.359 OA
BRANCH  16  18
HETATM   18  C11 UNL     1     -12.143  -6.687  23.002  1.00  0.00     0.196 C 
BRANCH  18  19
HETATM   19  O1  UNL     1     -11.747  -6.355  21.683  1.00  0.00    -0.398 OA
ATOM     20  H1  UNL     1     -12.009  -5.452  21.551  1.00  0.00     0.209 HD
ENDBRANCH  18  19
ENDBRANCH  16  18
ENDBRANCH   3  10
BRANCH   1  21
HETATM   21  S1  UNL     1     -17.058 -12.331  23.010  1.00  0.00    -0.128 SA
HETATM   22  C1  UNL     1     -17.079 -12.919  21.296  1.00  0.00     0.096 C 
ENDBRANCH   1  21
TORSDOF 4
ENDMDL
MODEL 5
REMARK VINA RESULT: -5.313182599      3.349      4.481
REMARK  4 active torsions:
REMARK  status: ('A' for Active; 'I' for Inactive)
REMARK    1  A    between atoms: S1_2  and  C2_3 
REMARK    2  A    between atoms: N1_5  and  C4_6 
REMARK    3  A    between atoms: C10_12  and  C11_13 
REMARK    4  A    between atoms: C11_13  and  O1_14 
ROOT
HETATM    1  C2  UNL     1     -20.557 -10.401  17.601  1.00  0.00     0.084 A 
HETATM    2  C3  UNL     1     -20.295  -9.985  18.894  1.00  0.00     0.122 A 
HETATM    3  N1  UNL     1     -19.662  -8.822  19.134  1.00  0.00    -0.281 N 
HETATM    4  C12 UNL     1     -19.299  -8.090  18.065  1.00  0.00     0.331 A 
HETATM    5  O3  UNL     1     -18.708  -7.001  18.258  1.00  0.00    -0.246 OA
HETATM    6  N2  UNL     1     -19.543  -8.474  16.802  1.00  0.00    -0.274 N 
ATOM      7  H2  UNL     1     -19.242  -7.873  16.035  1.00  0.00     0.173 HD
HETATM    8  C13 UNL     1     -20.177  -9.635  16.518  1.00  0.00     0.267 A 
HETATM    9  O4  UNL     1     -20.402  -9.986  15.337  1.00  0.00    -0.267 OA
ENDROOT
BRANCH   3  10
HETATM   10  C4  UNL     1     -19.375  -8.366  20.504  1.00  0.00     0.232 C 
HETATM   11  C5  UNL     1     -20.498  -8.925  21.382  1.00  0.00     0.054 C 
HETATM   12  C6  UNL     1     -19.949  -8.914  22.815  1.00  0.00     0.004 C 
HETATM   13  C7  UNL     1     -19.660  -7.503  23.176  1.00  0.00     0.000 C 
HETATM   14  C8  UNL     1     -18.259  -7.183  23.506  1.00  0.00     0.002 C 
HETATM   15  C9  UNL     1     -17.224  -8.094  22.935  1.00  0.00     0.034 C 
HETATM   16  C10 UNL     1     -17.233  -8.149  21.424  1.00  0.00     0.147 C 
HETATM   17  O2  UNL     1     -18.214  -8.917  20.900  1.00  0.00    -0.359 OA
BRANCH  16  18
HETATM   18  C11 UNL     1     -17.109  -6.753  20.905  1.00  0.00     0.196 C 
BRANCH  18  19
HETATM   19  O1  UNL     1     -16.373  -6.849  19.699  1.00  0.00    -0.398 OA
ATOM     20  H1  UNL     1     -16.463  -6.006  19.270  1.00  0.00     0.209 HD
ENDBRANCH  18  19
ENDBRANCH  16  18
ENDBRANCH   3  10
BRANCH   1  21
HETATM   21  S1  UNL     1     -21.401 -11.954  17.344  1.00  0.00    -0.128 SA
HETATM   22  C1  UNL     1     -23.148 -11.652  16.965  1.00  0.00     0.096 C 
ENDBRANCH   1  21
TORSDOF 4
ENDMDL
