MODEL 1
REMARK VINA RESULT: -9.546757077      0.000      0.000
REMARK  12 active torsions:
REMARK  status: ('A' for Active; 'I' for Inactive)
REMARK    1  A    between atoms: C2_2  and  C4_4 
REMARK    2  A    between atoms: C4_4  and  C5_5 
REMARK    3  A    between atoms: C5_5  and  C6_6 
REMARK    4  A    between atoms: C6_6  and  C7_7 
REMARK    5  A    between atoms: C7_7  and  C8_8 
REMARK    6  A    between atoms: C13_13  and  O1_14 
REMARK    7  A    between atoms: O1_14  and  C14_15 
REMARK    8  A    between atoms: C15_16  and  O2_17 
REMARK    9  A    between atoms: C16_19  and  C17_20 
REMARK   10  A    between atoms: C17_20  and  O3_21 
REMARK   11  A    between atoms: C19_26  and  O6_28 
REMARK   12  A    between atoms: C22_31  and  O7_32 
ROOT
HETATM    1  C8  UNL     1      20.484  68.867  35.009  1.00  0.00     0.014 C 
HETATM    2  C9  UNL     1      19.833  67.544  34.837  1.00  0.00     0.007 C 
HETATM    3  C10 UNL     1      18.557  67.775  34.027  1.00  0.00     0.001 C 
HETATM    4  C11 UNL     1      18.852  67.384  32.612  1.00  0.00     0.002 C 
HETATM    5  C12 UNL     1      18.921  68.597  31.670  1.00  0.00     0.032 C 
HETATM    6  C13 UNL     1      20.338  69.099  31.580  1.00  0.00     0.124 C 
HETATM    7  C21 UNL     1      20.698  69.974  32.769  1.00  0.00     0.064 C 
HETATM    8  C22 UNL     1      21.411  69.199  33.856  1.00  0.00     0.124 C 
ENDROOT
BRANCH   6   9
HETATM    9  O1  UNL     1      20.621  69.675  30.380  1.00  0.00    -0.374 OA
BRANCH   9  10
HETATM   10  C14 UNL     1      21.786  69.302  29.768  1.00  0.00     0.197 C 
HETATM   11  C15 UNL     1      22.514  70.625  29.379  1.00  0.00     0.182 C 
HETATM   12  C16 UNL     1      21.443  71.527  28.877  1.00  0.00     0.186 C 
HETATM   13  O4  UNL     1      20.993  71.028  27.633  1.00  0.00    -0.309 OA
HETATM   14  C18 UNL     1      20.718  69.656  27.563  1.00  0.00     0.296 C 
HETATM   15  O5  UNL     1      19.848  69.206  26.781  1.00  0.00    -0.262 OA
HETATM   16  C19 UNL     1      21.465  68.683  28.429  1.00  0.00     0.170 C 
HETATM   17  C20 UNL     1      20.672  67.423  28.489  1.00  0.00     0.060 C 
BRANCH  11  18
HETATM   18  O2  UNL     1      23.260  71.106  30.413  1.00  0.00    -0.390 OA
ATOM     19  H2  UNL     1      23.540  72.000  30.253  1.00  0.00     0.210 HD
ENDBRANCH  11  18
BRANCH  12  20
HETATM   20  C17 UNL     1      21.875  72.971  28.786  1.00  0.00     0.199 C 
BRANCH  20  21
HETATM   21  O3  UNL     1      21.445  73.684  29.905  1.00  0.00    -0.398 OA
ATOM     22  H3  UNL     1      22.136  74.254  30.223  1.00  0.00     0.209 HD
ENDBRANCH  20  21
ENDBRANCH  12  20
BRANCH  16  23
HETATM   23  O6  UNL     1      22.669  68.346  27.748  1.00  0.00    -0.377 OA
ATOM     24  H6  UNL     1      22.504  68.272  26.814  1.00  0.00     0.211 HD
ENDBRANCH  16  23
ENDBRANCH   9  10
ENDBRANCH   6   9
BRANCH   8  25
HETATM   25  O7  UNL     1      22.482  69.919  34.380  1.00  0.00    -0.395 OA
ATOM     26  H7  UNL     1      22.648  70.646  33.791  1.00  0.00     0.210 HD
ENDBRANCH   8  25
BRANCH   1  27
HETATM   27  C7  UNL     1      21.288  68.893  36.276  1.00  0.00     0.007 C 
BRANCH  27  28
HETATM   28  C6  UNL     1      20.954  67.746  37.154  1.00  0.00     0.000 C 
BRANCH  28  29
HETATM   29  C5  UNL     1      19.903  68.093  38.196  1.00  0.00     0.000 C 
BRANCH  29  30
HETATM   30  C4  UNL     1      19.412  66.869  38.922  1.00  0.00     0.004 C 
BRANCH  30  31
HETATM   31  C2  UNL     1      18.120  66.432  38.258  1.00  0.00    -0.023 C 
HETATM   32  C1  UNL     1      17.308  67.587  37.750  1.00  0.00     0.009 C 
HETATM   33  C3  UNL     1      17.258  65.600  39.175  1.00  0.00     0.009 C 
ENDBRANCH  30  31
ENDBRANCH  29  30
ENDBRANCH  28  29
ENDBRANCH  27  28
ENDBRANCH   1  27
TORSDOF 12
ENDMDL
MODEL 2
REMARK VINA RESULT: -8.786569737      7.072      9.623
REMARK  12 active torsions:
REMARK  status: ('A' for Active; 'I' for Inactive)
REMARK    1  A    between atoms: C2_2  and  C4_4 
REMARK    2  A    between atoms: C4_4  and  C5_5 
REMARK    3  A    between atoms: C5_5  and  C6_6 
REMARK    4  A    between atoms: C6_6  and  C7_7 
REMARK    5  A    between atoms: C7_7  and  C8_8 
REMARK    6  A    between atoms: C13_13  and  O1_14 
REMARK    7  A    between atoms: O1_14  and  C14_15 
REMARK    8  A    between atoms: C15_16  and  O2_17 
REMARK    9  A    between atoms: C16_19  and  C17_20 
REMARK   10  A    between atoms: C17_20  and  O3_21 
REMARK   11  A    between atoms: C19_26  and  O6_28 
REMARK   12  A    between atoms: C22_31  and  O7_32 
ROOT
HETATM    1  C8  UNL     1      17.128  65.789  35.482  1.00  0.00     0.014 C 
HETATM    2  C9  UNL     1      17.243  66.589  34.237  1.00  0.00     0.007 C 
HETATM    3  C10 UNL     1      18.220  65.852  33.320  1.00  0.00     0.001 C 
HETATM    4  C11 UNL     1      17.406  65.106  32.310  1.00  0.00     0.002 C 
HETATM    5  C12 UNL     1      17.446  63.585  32.532  1.00  0.00     0.032 C 
HETATM    6  C13 UNL     1      16.303  63.164  33.418  1.00  0.00     0.124 C 
HETATM    7  C21 UNL     1      16.614  63.408  34.885  1.00  0.00     0.064 C 
HETATM    8  C22 UNL     1      16.053  64.725  35.378  1.00  0.00     0.124 C 
ENDROOT
BRANCH   6   9
HETATM    9  O1  UNL     1      15.870  61.899  33.160  1.00  0.00    -0.374 OA
BRANCH   9  10
HETATM   10  C14 UNL     1      14.558  61.749  32.804  1.00  0.00     0.197 C 
HETATM   11  C15 UNL     1      13.892  60.921  33.945  1.00  0.00     0.182 C 
HETATM   12  C16 UNL     1      14.888  59.874  34.301  1.00  0.00     0.186 C 
HETATM   13  O4  UNL     1      14.962  58.953  33.232  1.00  0.00    -0.309 OA
HETATM   14  C18 UNL     1      15.073  59.486  31.942  1.00  0.00     0.296 C 
HETATM   15  O5  UNL     1      15.672  58.867  31.031  1.00  0.00    -0.262 OA
HETATM   16  C19 UNL     1      14.472  60.824  31.615  1.00  0.00     0.170 C 
HETATM   17  C20 UNL     1      15.126  61.327  30.374  1.00  0.00     0.060 C 
BRANCH  11  18
HETATM   18  O2  UNL     1      13.480  61.721  34.968  1.00  0.00    -0.390 OA
ATOM     19  H2  UNL     1      12.692  62.200  34.739  1.00  0.00     0.210 HD
ENDBRANCH  11  18
BRANCH  12  20
HETATM   20  C17 UNL     1      14.594  59.195  35.617  1.00  0.00     0.199 C 
BRANCH  20  21
HETATM   21  O3  UNL     1      15.761  59.052  36.368  1.00  0.00    -0.398 OA
ATOM     22  H3  UNL     1      15.559  58.744  37.244  1.00  0.00     0.209 HD
ENDBRANCH  20  21
ENDBRANCH  12  20
BRANCH  16  23
HETATM   23  O6  UNL     1      13.109  60.603  31.268  1.00  0.00    -0.377 OA
ATOM     24  H6  UNL     1      12.640  60.238  32.010  1.00  0.00     0.211 HD
ENDBRANCH  16  23
ENDBRANCH   9  10
ENDBRANCH   6   9
BRANCH   8  25
HETATM   25  O7  UNL     1      15.476  64.595  36.639  1.00  0.00    -0.395 OA
ATOM     26  H7  UNL     1      14.694  64.066  36.538  1.00  0.00     0.210 HD
ENDBRANCH   8  25
BRANCH   1  27
HETATM   27  C7  UNL     1      16.794  66.678  36.645  1.00  0.00     0.007 C 
BRANCH  27  28
HETATM   28  C6  UNL     1      17.819  66.582  37.713  1.00  0.00     0.000 C 
BRANCH  28  29
HETATM   29  C5  UNL     1      18.650  67.849  37.839  1.00  0.00     0.000 C 
BRANCH  29  30
HETATM   30  C4  UNL     1      20.121  67.568  37.682  1.00  0.00     0.004 C 
BRANCH  30  31
HETATM   31  C2  UNL     1      20.663  68.541  36.651  1.00  0.00    -0.023 C 
HETATM   32  C1  UNL     1      20.189  68.239  35.260  1.00  0.00     0.009 C 
HETATM   33  C3  UNL     1      22.171  68.592  36.650  1.00  0.00     0.009 C 
ENDBRANCH  30  31
ENDBRANCH  29  30
ENDBRANCH  28  29
ENDBRANCH  27  28
ENDBRANCH   1  27
TORSDOF 12
ENDMDL
MODEL 3
REMARK VINA RESULT: -8.608153089      1.221      2.898
REMARK  12 active torsions:
REMARK  status: ('A' for Active; 'I' for Inactive)
REMARK    1  A    between atoms: C2_2  and  C4_4 
REMARK    2  A    between atoms: C4_4  and  C5_5 
REMARK    3  A    between atoms: C5_5  and  C6_6 
REMARK    4  A    between atoms: C6_6  and  C7_7 
REMARK    5  A    between atoms: C7_7  and  C8_8 
REMARK    6  A    between atoms: C13_13  and  O1_14 
REMARK    7  A    between atoms: O1_14  and  C14_15 
REMARK    8  A    between atoms: C15_16  and  O2_17 
REMARK    9  A    between atoms: C16_19  and  C17_20 
REMARK   10  A    between atoms: C17_20  and  O3_21 
REMARK   11  A    between atoms: C19_26  and  O6_28 
REMARK   12  A    between atoms: C22_31  and  O7_32 
ROOT
HETATM    1  C8  UNL     1      20.491  69.093  34.449  1.00  0.00     0.014 C 
HETATM    2  C9  UNL     1      19.664  67.906  34.116  1.00  0.00     0.007 C 
HETATM    3  C10 UNL     1      18.576  68.375  33.149  1.00  0.00     0.001 C 
HETATM    4  C11 UNL     1      19.007  67.982  31.771  1.00  0.00     0.002 C 
HETATM    5  C12 UNL     1      19.411  69.194  30.915  1.00  0.00     0.032 C 
HETATM    6  C13 UNL     1      20.889  69.450  31.051  1.00  0.00     0.124 C 
HETATM    7  C21 UNL     1      21.210  70.215  32.324  1.00  0.00     0.064 C 
HETATM    8  C22 UNL     1      21.619  69.296  33.456  1.00  0.00     0.124 C 
ENDROOT
BRANCH   6   9
HETATM    9  O1  UNL     1      21.435  70.005  29.935  1.00  0.00    -0.374 OA
BRANCH   9  10
HETATM   10  C14 UNL     1      20.576  70.575  29.036  1.00  0.00     0.197 C 
HETATM   11  C15 UNL     1      20.672  69.715  27.739  1.00  0.00     0.182 C 
HETATM   12  C16 UNL     1      22.119  69.407  27.581  1.00  0.00     0.186 C 
HETATM   13  O4  UNL     1      22.788  70.601  27.227  1.00  0.00    -0.309 OA
HETATM   14  C18 UNL     1      22.487  71.743  27.980  1.00  0.00     0.296 C 
HETATM   15  O5  UNL     1      23.334  72.650  28.155  1.00  0.00    -0.262 OA
HETATM   16  C19 UNL     1      21.129  71.911  28.602  1.00  0.00     0.170 C 
HETATM   17  C20 UNL     1      21.245  72.929  29.683  1.00  0.00     0.060 C 
BRANCH  11  18
HETATM   18  O2  UNL     1      19.838  68.639  27.791  1.00  0.00    -0.390 OA
ATOM     19  H2  UNL     1      20.256  67.895  28.209  1.00  0.00     0.210 HD
ENDBRANCH  11  18
BRANCH  12  20
HETATM   20  C17 UNL     1      22.387  68.294  26.596  1.00  0.00     0.199 C 
BRANCH  20  21
HETATM   21  O3  UNL     1      22.345  67.054  27.234  1.00  0.00    -0.398 OA
ATOM     22  H3  UNL     1      21.649  66.516  26.873  1.00  0.00     0.209 HD
ENDBRANCH  20  21
ENDBRANCH  12  20
BRANCH  16  23
HETATM   23  O6  UNL     1      20.281  72.492  27.617  1.00  0.00    -0.377 OA
ATOM     24  H6  UNL     1      20.573  73.374  27.416  1.00  0.00     0.211 HD
ENDBRANCH  16  23
ENDBRANCH   9  10
ENDBRANCH   6   9
BRANCH   8  25
HETATM   25  O7  UNL     1      22.704  69.808  34.163  1.00  0.00    -0.395 OA
ATOM     26  H7  UNL     1      22.402  70.002  35.043  1.00  0.00     0.210 HD
ENDBRANCH   8  25
BRANCH   1  27
HETATM   27  C7  UNL     1      21.094  68.943  35.815  1.00  0.00     0.007 C 
BRANCH  27  28
HETATM   28  C6  UNL     1      20.572  67.741  36.510  1.00  0.00     0.000 C 
BRANCH  28  29
HETATM   29  C5  UNL     1      19.886  68.078  37.825  1.00  0.00     0.000 C 
BRANCH  29  30
HETATM   30  C4  UNL     1      18.459  67.600  37.847  1.00  0.00     0.004 C 
BRANCH  30  31
HETATM   31  C2  UNL     1      18.446  66.237  38.516  1.00  0.00    -0.023 C 
HETATM   32  C1  UNL     1      17.064  65.785  38.887  1.00  0.00     0.009 C 
HETATM   33  C3  UNL     1      19.317  66.196  39.747  1.00  0.00     0.009 C 
ENDBRANCH  30  31
ENDBRANCH  29  30
ENDBRANCH  28  29
ENDBRANCH  27  28
ENDBRANCH   1  27
TORSDOF 12
ENDMDL
MODEL 4
REMARK VINA RESULT: -8.592216618      1.370      1.738
REMARK  12 active torsions:
REMARK  status: ('A' for Active; 'I' for Inactive)
REMARK    1  A    between atoms: C2_2  and  C4_4 
REMARK    2  A    between atoms: C4_4  and  C5_5 
REMARK    3  A    between atoms: C5_5  and  C6_6 
REMARK    4  A    between atoms: C6_6  and  C7_7 
REMARK    5  A    between atoms: C7_7  and  C8_8 
REMARK    6  A    between atoms: C13_13  and  O1_14 
REMARK    7  A    between atoms: O1_14  and  C14_15 
REMARK    8  A    between atoms: C15_16  and  O2_17 
REMARK    9  A    between atoms: C16_19  and  C17_20 
REMARK   10  A    between atoms: C17_20  and  O3_21 
REMARK   11  A    between atoms: C19_26  and  O6_28 
REMARK   12  A    between atoms: C22_31  and  O7_32 
ROOT
HETATM    1  C8  UNL     1      20.161  69.212  33.541  1.00  0.00     0.014 C 
HETATM    2  C9  UNL     1      19.644  67.899  33.078  1.00  0.00     0.007 C 
HETATM    3  C10 UNL     1      18.490  68.186  32.116  1.00  0.00     0.001 C 
HETATM    4  C11 UNL     1      19.022  68.034  30.726  1.00  0.00     0.002 C 
HETATM    5  C12 UNL     1      19.140  69.380  29.992  1.00  0.00     0.032 C 
HETATM    6  C13 UNL     1      20.512  69.962  30.202  1.00  0.00     0.124 C 
HETATM    7  C21 UNL     1      20.624  70.661  31.547  1.00  0.00     0.064 C 
HETATM    8  C22 UNL     1      21.223  69.765  32.610  1.00  0.00     0.124 C 
ENDROOT
BRANCH   6   9
HETATM    9  O1  UNL     1      20.928  70.730  29.158  1.00  0.00    -0.374 OA
BRANCH   9  10
HETATM   10  C14 UNL     1      22.135  70.419  28.596  1.00  0.00     0.197 C 
HETATM   11  C15 UNL     1      23.042  71.672  28.793  1.00  0.00     0.182 C 
HETATM   12  C16 UNL     1      22.159  72.840  28.522  1.00  0.00     0.186 C 
HETATM   13  O4  UNL     1      21.871  72.863  27.138  1.00  0.00    -0.309 OA
HETATM   14  C18 UNL     1      21.479  71.652  26.552  1.00  0.00     0.296 C 
HETATM   15  O5  UNL     1      20.707  71.627  25.564  1.00  0.00    -0.262 OA
HETATM   16  C19 UNL     1      21.978  70.344  27.096  1.00  0.00     0.170 C 
HETATM   17  C20 UNL     1      21.067  69.270  26.609  1.00  0.00     0.060 C 
BRANCH  11  18
HETATM   18  O2  UNL     1      23.652  71.661  30.011  1.00  0.00    -0.390 OA
ATOM     19  H2  UNL     1      23.035  71.475  30.708  1.00  0.00     0.210 HD
ENDBRANCH  11  18
BRANCH  12  20
HETATM   20  C17 UNL     1      22.737  74.148  29.003  1.00  0.00     0.199 C 
BRANCH  20  21
HETATM   21  O3  UNL     1      21.758  74.916  29.634  1.00  0.00    -0.398 OA
ATOM     22  H3  UNL     1      21.135  75.251  29.000  1.00  0.00     0.209 HD
ENDBRANCH  20  21
ENDBRANCH  12  20
BRANCH  16  23
HETATM   23  O6  UNL     1      23.238  70.084  26.487  1.00  0.00    -0.377 OA
ATOM     24  H6  UNL     1      23.786  70.859  26.530  1.00  0.00     0.211 HD
ENDBRANCH  16  23
ENDBRANCH   9  10
ENDBRANCH   6   9
BRANCH   8  25
HETATM   25  O7  UNL     1      22.146  70.450  33.397  1.00  0.00    -0.395 OA
ATOM     26  H7  UNL     1      23.007  70.114  33.178  1.00  0.00     0.210 HD
ENDBRANCH   8  25
BRANCH   1  27
HETATM   27  C7  UNL     1      20.762  69.083  34.910  1.00  0.00     0.007 C 
BRANCH  27  28
HETATM   28  C6  UNL     1      20.330  67.831  35.576  1.00  0.00     0.000 C 
BRANCH  28  29
HETATM   29  C5  UNL     1      20.819  67.735  37.014  1.00  0.00     0.000 C 
BRANCH  29  30
HETATM   30  C4  UNL     1      19.747  68.130  37.994  1.00  0.00     0.004 C 
BRANCH  30  31
HETATM   31  C2  UNL     1      18.770  66.973  38.092  1.00  0.00    -0.023 C 
HETATM   32  C1  UNL     1      17.347  67.394  37.872  1.00  0.00     0.009 C 
HETATM   33  C3  UNL     1      18.865  66.255  39.416  1.00  0.00     0.009 C 
ENDBRANCH  30  31
ENDBRANCH  29  30
ENDBRANCH  28  29
ENDBRANCH  27  28
ENDBRANCH   1  27
TORSDOF 12
ENDMDL
MODEL 5
REMARK VINA RESULT: -8.332565202      4.897      6.893
REMARK  12 active torsions:
REMARK  status: ('A' for Active; 'I' for Inactive)
REMARK    1  A    between atoms: C2_2  and  C4_4 
REMARK    2  A    between atoms: C4_4  and  C5_5 
REMARK    3  A    between atoms: C5_5  and  C6_6 
REMARK    4  A    between atoms: C6_6  and  C7_7 
REMARK    5  A    between atoms: C7_7  and  C8_8 
REMARK    6  A    between atoms: C13_13  and  O1_14 
REMARK    7  A    between atoms: O1_14  and  C14_15 
REMARK    8  A    between atoms: C15_16  and  O2_17 
REMARK    9  A    between atoms: C16_19  and  C17_20 
REMARK   10  A    between atoms: C17_20  and  O3_21 
REMARK   11  A    between atoms: C19_26  and  O6_28 
REMARK   12  A    between atoms: C22_31  and  O7_32 
ROOT
HETATM    1  C8  UNL     1      18.988  67.607  33.987  1.00  0.00     0.014 C 
HETATM    2  C9  UNL     1      18.936  68.775  33.072  1.00  0.00     0.007 C 
HETATM    3  C10 UNL     1      19.705  68.387  31.808  1.00  0.00     0.001 C 
HETATM    4  C11 UNL     1      18.694  68.013  30.769  1.00  0.00     0.002 C 
HETATM    5  C12 UNL     1      18.689  66.505  30.472  1.00  0.00     0.032 C 
HETATM    6  C13 UNL     1      17.689  65.810  31.358  1.00  0.00     0.124 C 
HETATM    7  C21 UNL     1      18.253  65.556  32.746  1.00  0.00     0.064 C 
HETATM    8  C22 UNL     1      17.855  66.633  33.732  1.00  0.00     0.124 C 
ENDROOT
BRANCH   6   9
HETATM    9  O1  UNL     1      17.152  64.700  30.782  1.00  0.00    -0.374 OA
BRANCH   9  10
HETATM   10  C14 UNL     1      15.788  64.627  30.720  1.00  0.00     0.197 C 
HETATM   11  C15 UNL     1      15.373  63.454  31.660  1.00  0.00     0.182 C 
HETATM   12  C16 UNL     1      16.377  62.383  31.415  1.00  0.00     0.186 C 
HETATM   13  O4  UNL     1      16.154  61.857  30.122  1.00  0.00    -0.309 OA
HETATM   14  C18 UNL     1      15.980  62.780  29.083  1.00  0.00     0.296 C 
HETATM   15  O5  UNL     1      16.318  62.507  27.907  1.00  0.00    -0.262 OA
HETATM   16  C19 UNL     1      15.380  64.130  29.354  1.00  0.00     0.170 C 
HETATM   17  C20 UNL     1      15.744  65.027  28.221  1.00  0.00     0.060 C 
BRANCH  11  18
HETATM   18  O2  UNL     1      15.251  63.868  32.952  1.00  0.00    -0.390 OA
ATOM     19  H2  UNL     1      14.483  63.494  33.367  1.00  0.00     0.210 HD
ENDBRANCH  11  18
BRANCH  12  20
HETATM   20  C17 UNL     1      16.372  61.307  32.474  1.00  0.00     0.199 C 
BRANCH  20  21
HETATM   21  O3  UNL     1      17.317  61.586  33.462  1.00  0.00    -0.398 OA
ATOM     22  H3  UNL     1      17.535  62.511  33.465  1.00  0.00     0.209 HD
ENDBRANCH  20  21
ENDBRANCH  12  20
BRANCH  16  23
HETATM   23  O6  UNL     1      13.966  63.986  29.291  1.00  0.00    -0.377 OA
ATOM     24  H6  UNL     1      13.591  64.683  28.763  1.00  0.00     0.211 HD
ENDBRANCH  16  23
ENDBRANCH   9  10
ENDBRANCH   6   9
BRANCH   8  25
HETATM   25  O7  UNL     1      17.491  66.091  34.962  1.00  0.00    -0.395 OA
ATOM     26  H7  UNL     1      17.320  65.167  34.823  1.00  0.00     0.210 HD
ENDBRANCH   8  25
BRANCH   1  27
HETATM   27  C7  UNL     1      18.901  68.060  35.416  1.00  0.00     0.007 C 
BRANCH  27  28
HETATM   28  C6  UNL     1      20.208  67.933  36.105  1.00  0.00     0.000 C 
BRANCH  28  29
HETATM   29  C5  UNL     1      20.062  67.779  37.611  1.00  0.00     0.000 C 
BRANCH  29  30
HETATM   30  C4  UNL     1      18.623  67.602  38.016  1.00  0.00     0.004 C 
BRANCH  30  31
HETATM   31  C2  UNL     1      18.484  66.211  38.607  1.00  0.00    -0.023 C 
HETATM   32  C1  UNL     1      17.055  65.821  38.846  1.00  0.00     0.009 C 
HETATM   33  C3  UNL     1      19.251  66.059  39.898  1.00  0.00     0.009 C 
ENDBRANCH  30  31
ENDBRANCH  29  30
ENDBRANCH  28  29
ENDBRANCH  27  28
ENDBRANCH   1  27
TORSDOF 12
ENDMDL
