MODEL 1
REMARK VINA RESULT: -7.935821727      0.000      0.000
REMARK  15 active torsions:
REMARK  status: ('A' for Active; 'I' for Inactive)
REMARK    1  A    between atoms: C4_4  and  O1_5 
REMARK    2  A    between atoms: C5_7  and  C6_8 
REMARK    3  A    between atoms: C6_8  and  C7_9 
REMARK    4  A    between atoms: C7_9  and  C8_11 
REMARK    5  A    between atoms: C8_11  and  C9_12 
REMARK    6  A    between atoms: C9_12  and  N1_13 
REMARK    7  A    between atoms: N1_13  and  O3_15 
REMARK    8  A    between atoms: C11_19  and  O5_20 
REMARK    9  A    between atoms: O5_20  and  C12_21 
REMARK   10  A    between atoms: C12_21  and  C13_23 
REMARK   11  A    between atoms: C13_23  and  N2_24 
REMARK   12  A    between atoms: C13_23  and  C14_28 
REMARK   13  A    between atoms: C14_28  and  C15_29 
REMARK   14  A    between atoms: C15_29  and  C16_30 
REMARK   15  A    between atoms: C18_32  and  O7_34 
ROOT
HETATM    1  C1  UNL     1      15.817  64.689  29.820  1.00  0.00     0.015 C 
HETATM    2  C2  UNL     1      16.162  64.692  31.115  1.00  0.00    -0.073 C 
HETATM    3  C3  UNL     1      15.836  65.890  31.904  1.00  0.00     0.077 C 
HETATM    4  C4  UNL     1      16.714  67.056  31.459  1.00  0.00     0.158 C 
HETATM    5  C5  UNL     1      17.828  67.031  32.471  1.00  0.00     0.158 C 
HETATM    6  O4  UNL     1      17.494  66.183  33.490  1.00  0.00    -0.374 OA
HETATM    7  C10 UNL     1      16.200  65.783  33.341  1.00  0.00     0.165 C 
HETATM    8  C11 UNL     1      15.888  64.434  33.909  1.00  0.00     0.196 C 
HETATM    9  C18 UNL     1      16.503  63.291  33.161  1.00  0.00     0.090 C 
HETATM   10  C19 UNL     1      15.621  62.064  33.263  1.00  0.00     0.049 C 
HETATM   11  C20 UNL     1      16.841  63.549  31.738  1.00  0.00     0.047 C 
HETATM   12  C21 UNL     1      18.360  63.602  31.511  1.00  0.00     0.018 C 
ENDROOT
BRANCH   8  13
HETATM   13  O5  UNL     1      16.255  64.381  35.276  1.00  0.00    -0.309 OA
BRANCH  13  14
HETATM   14  C12 UNL     1      15.558  65.008  36.284  1.00  0.00     0.290 C 
HETATM   15  O6  UNL     1      14.328  64.741  36.409  1.00  0.00    -0.263 OA
BRANCH  14  16
HETATM   16  C13 UNL     1      16.188  65.981  37.228  1.00  0.00     0.282 C 
BRANCH  16  17
HETATM   17  N2  UNL     1      16.774  67.039  36.436  1.00  0.00    -0.066 N 
ATOM     18  H23 UNL     1      17.780  66.926  36.304  1.00  0.00     0.275 HD
ATOM     19  H22 UNL     1      16.504  66.997  35.454  1.00  0.00     0.275 HD
ATOM     20  H21 UNL     1      16.530  67.926  36.877  1.00  0.00     0.275 HD
ENDBRANCH  16  17
BRANCH  16  21
HETATM   21  C14 UNL     1      17.212  65.219  38.026  1.00  0.00     0.043 C 
BRANCH  21  22
HETATM   22  C15 UNL     1      17.525  65.861  39.347  1.00  0.00     0.002 C 
BRANCH  22  23
HETATM   23  C16 UNL     1      19.001  66.126  39.535  1.00  0.00    -0.004 C 
HETATM   24  C17 UNL     1      19.477  67.225  38.609  1.00  0.00     0.005 C 
ENDBRANCH  22  23
ENDBRANCH  21  22
ENDBRANCH  16  21
ENDBRANCH  14  16
ENDBRANCH  13  14
ENDBRANCH   8  13
BRANCH   9  25
HETATM   25  O7  UNL     1      17.709  62.930  33.811  1.00  0.00    -0.387 OA
ATOM     26  H7  UNL     1      18.396  62.875  33.159  1.00  0.00     0.210 HD
ENDBRANCH   9  25
BRANCH   4  27
HETATM   27  O1  UNL     1      17.144  66.929  30.161  1.00  0.00    -0.392 OA
ATOM     28  H1  UNL     1      18.076  66.752  30.100  1.00  0.00     0.210 HD
ENDBRANCH   4  27
BRANCH   5  29
HETATM   29  C6  UNL     1      18.085  68.448  32.938  1.00  0.00     0.118 C 
BRANCH  29  30
HETATM   30  C7  UNL     1      19.478  68.541  33.433  1.00  0.00     0.160 C 
HETATM   31  O2  UNL     1      20.441  68.910  32.710  1.00  0.00    -0.293 OA
BRANCH  30  32
HETATM   32  C8  UNL     1      19.779  68.196  34.803  1.00  0.00     0.126 C 
BRANCH  32  33
HETATM   33  C9  UNL     1      20.880  68.650  35.357  1.00  0.00    -0.016 C 
BRANCH  33  34
HETATM   34  N1  UNL     1      21.999  69.259  35.557  1.00  0.00    -0.233 N 
ATOM     35  H1  UNL     1      22.357  69.378  36.504  1.00  0.00     0.204 HD
BRANCH  34  36
HETATM   36  O3  UNL     1      22.711  69.751  34.474  1.00  0.00    -0.282 OA
ATOM     37  H3  UNL     1      22.857  70.686  34.396  1.00  0.00     0.245 HD
ENDBRANCH  34  36
ENDBRANCH  33  34
ENDBRANCH  32  33
ENDBRANCH  30  32
ENDBRANCH  29  30
ENDBRANCH   5  29
TORSDOF 15
ENDMDL
MODEL 2
REMARK VINA RESULT: -7.778090126      1.003      1.123
REMARK  15 active torsions:
REMARK  status: ('A' for Active; 'I' for Inactive)
REMARK    1  A    between atoms: C4_4  and  O1_5 
REMARK    2  A    between atoms: C5_7  and  C6_8 
REMARK    3  A    between atoms: C6_8  and  C7_9 
REMARK    4  A    between atoms: C7_9  and  C8_11 
REMARK    5  A    between atoms: C8_11  and  C9_12 
REMARK    6  A    between atoms: C9_12  and  N1_13 
REMARK    7  A    between atoms: N1_13  and  O3_15 
REMARK    8  A    between atoms: C11_19  and  O5_20 
REMARK    9  A    between atoms: O5_20  and  C12_21 
REMARK   10  A    between atoms: C12_21  and  C13_23 
REMARK   11  A    between atoms: C13_23  and  N2_24 
REMARK   12  A    between atoms: C13_23  and  C14_28 
REMARK   13  A    between atoms: C14_28  and  C15_29 
REMARK   14  A    between atoms: C15_29  and  C16_30 
REMARK   15  A    between atoms: C18_32  and  O7_34 
ROOT
HETATM    1  C1  UNL     1      15.531  64.245  29.980  1.00  0.00     0.015 C 
HETATM    2  C2  UNL     1      16.026  64.421  31.213  1.00  0.00    -0.073 C 
HETATM    3  C3  UNL     1      15.757  65.706  31.878  1.00  0.00     0.077 C 
HETATM    4  C4  UNL     1      16.540  66.819  31.186  1.00  0.00     0.158 C 
HETATM    5  C5  UNL     1      17.765  66.943  32.051  1.00  0.00     0.158 C 
HETATM    6  O4  UNL     1      17.580  66.228  33.203  1.00  0.00    -0.374 OA
HETATM    7  C10 UNL     1      16.291  65.791  33.262  1.00  0.00     0.165 C 
HETATM    8  C11 UNL     1      16.090  64.523  34.030  1.00  0.00     0.196 C 
HETATM    9  C18 UNL     1      16.648  63.303  33.365  1.00  0.00     0.090 C 
HETATM   10  C19 UNL     1      15.823  62.085  33.727  1.00  0.00     0.049 C 
HETATM   11  C20 UNL     1      16.809  63.379  31.890  1.00  0.00     0.047 C 
HETATM   12  C21 UNL     1      18.288  63.427  31.477  1.00  0.00     0.018 C 
ENDROOT
BRANCH   8  13
HETATM   13  O5  UNL     1      16.616  64.654  35.339  1.00  0.00    -0.309 OA
BRANCH  13  14
HETATM   14  C12 UNL     1      16.040  65.420  36.327  1.00  0.00     0.290 C 
HETATM   15  O6  UNL     1      14.986  64.986  36.875  1.00  0.00    -0.263 OA
BRANCH  14  16
HETATM   16  C13 UNL     1      16.602  66.731  36.773  1.00  0.00     0.282 C 
BRANCH  16  17
HETATM   17  N2  UNL     1      17.819  66.961  36.029  1.00  0.00    -0.066 N 
ATOM     18  H23 UNL     1      17.650  67.153  35.041  1.00  0.00     0.275 HD
ATOM     19  H22 UNL     1      18.267  67.846  36.263  1.00  0.00     0.275 HD
ATOM     20  H21 UNL     1      18.428  66.156  36.178  1.00  0.00     0.275 HD
ENDBRANCH  16  17
BRANCH  16  21
HETATM   21  C14 UNL     1      16.841  66.623  38.256  1.00  0.00     0.043 C 
BRANCH  21  22
HETATM   22  C15 UNL     1      17.933  65.653  38.607  1.00  0.00     0.002 C 
BRANCH  22  23
HETATM   23  C16 UNL     1      19.009  66.268  39.472  1.00  0.00    -0.004 C 
HETATM   24  C17 UNL     1      19.760  67.346  38.719  1.00  0.00     0.005 C 
ENDBRANCH  22  23
ENDBRANCH  21  22
ENDBRANCH  16  21
ENDBRANCH  14  16
ENDBRANCH  13  14
ENDBRANCH   8  13
BRANCH   9  25
HETATM   25  O7  UNL     1      17.932  63.048  33.906  1.00  0.00    -0.387 OA
ATOM     26  H7  UNL     1      18.432  62.551  33.269  1.00  0.00     0.210 HD
ENDBRANCH   9  25
BRANCH   4  27
HETATM   27  O1  UNL     1      16.819  66.531  29.872  1.00  0.00    -0.392 OA
ATOM     28  H1  UNL     1      17.688  66.167  29.754  1.00  0.00     0.210 HD
ENDBRANCH   4  27
BRANCH   5  29
HETATM   29  C6  UNL     1      18.031  68.411  32.301  1.00  0.00     0.118 C 
BRANCH  29  30
HETATM   30  C7  UNL     1      19.417  68.566  32.802  1.00  0.00     0.160 C 
HETATM   31  O2  UNL     1      19.783  68.173  33.941  1.00  0.00    -0.293 OA
BRANCH  30  32
HETATM   32  C8  UNL     1      20.416  69.195  31.970  1.00  0.00     0.126 C 
BRANCH  32  33
HETATM   33  C9  UNL     1      21.302  69.995  32.518  1.00  0.00    -0.016 C 
BRANCH  33  34
HETATM   34  N1  UNL     1      22.052  70.604  33.371  1.00  0.00    -0.233 N 
ATOM     35  H1  UNL     1      22.360  71.560  33.196  1.00  0.00     0.204 HD
BRANCH  34  36
HETATM   36  O3  UNL     1      22.437  69.948  34.530  1.00  0.00    -0.282 OA
ATOM     37  H3  UNL     1      23.015  69.195  34.472  1.00  0.00     0.245 HD
ENDBRANCH  34  36
ENDBRANCH  33  34
ENDBRANCH  32  33
ENDBRANCH  30  32
ENDBRANCH  29  30
ENDBRANCH   5  29
TORSDOF 15
ENDMDL
MODEL 3
REMARK VINA RESULT: -7.563502852      1.414      1.602
REMARK  15 active torsions:
REMARK  status: ('A' for Active; 'I' for Inactive)
REMARK    1  A    between atoms: C4_4  and  O1_5 
REMARK    2  A    between atoms: C5_7  and  C6_8 
REMARK    3  A    between atoms: C6_8  and  C7_9 
REMARK    4  A    between atoms: C7_9  and  C8_11 
REMARK    5  A    between atoms: C8_11  and  C9_12 
REMARK    6  A    between atoms: C9_12  and  N1_13 
REMARK    7  A    between atoms: N1_13  and  O3_15 
REMARK    8  A    between atoms: C11_19  and  O5_20 
REMARK    9  A    between atoms: O5_20  and  C12_21 
REMARK   10  A    between atoms: C12_21  and  C13_23 
REMARK   11  A    between atoms: C13_23  and  N2_24 
REMARK   12  A    between atoms: C13_23  and  C14_28 
REMARK   13  A    between atoms: C14_28  and  C15_29 
REMARK   14  A    between atoms: C15_29  and  C16_30 
REMARK   15  A    between atoms: C18_32  and  O7_34 
ROOT
HETATM    1  C1  UNL     1      16.120  65.066  29.493  1.00  0.00     0.015 C 
HETATM    2  C2  UNL     1      16.473  64.991  30.784  1.00  0.00    -0.073 C 
HETATM    3  C3  UNL     1      16.185  66.155  31.638  1.00  0.00     0.077 C 
HETATM    4  C4  UNL     1      17.093  67.318  31.247  1.00  0.00     0.158 C 
HETATM    5  C5  UNL     1      18.211  67.210  32.249  1.00  0.00     0.158 C 
HETATM    6  O4  UNL     1      17.859  66.318  33.225  1.00  0.00    -0.374 OA
HETATM    7  C10 UNL     1      16.554  65.962  33.064  1.00  0.00     0.165 C 
HETATM    8  C11 UNL     1      16.208  64.595  33.563  1.00  0.00     0.196 C 
HETATM    9  C18 UNL     1      16.787  63.476  32.752  1.00  0.00     0.090 C 
HETATM   10  C19 UNL     1      15.872  62.270  32.796  1.00  0.00     0.049 C 
HETATM   11  C20 UNL     1      17.124  63.799  31.342  1.00  0.00     0.047 C 
HETATM   12  C21 UNL     1      18.642  63.823  31.107  1.00  0.00     0.018 C 
ENDROOT
BRANCH   8  13
HETATM   13  O5  UNL     1      16.581  64.460  34.923  1.00  0.00    -0.309 OA
BRANCH  13  14
HETATM   14  C12 UNL     1      15.850  64.966  35.975  1.00  0.00     0.290 C 
HETATM   15  O6  UNL     1      14.669  64.544  36.132  1.00  0.00    -0.263 OA
BRANCH  14  16
HETATM   16  C13 UNL     1      16.390  65.983  36.928  1.00  0.00     0.282 C 
BRANCH  16  17
HETATM   17  N2  UNL     1      17.241  66.878  36.176  1.00  0.00    -0.066 N 
ATOM     18  H23 UNL     1      17.324  66.615  35.193  1.00  0.00     0.275 HD
ATOM     19  H22 UNL     1      16.822  67.797  36.033  1.00  0.00     0.275 HD
ATOM     20  H21 UNL     1      18.141  66.921  36.653  1.00  0.00     0.275 HD
ENDBRANCH  16  17
BRANCH  16  21
HETATM   21  C14 UNL     1      17.140  65.230  37.994  1.00  0.00     0.043 C 
BRANCH  21  22
HETATM   22  C15 UNL     1      17.483  66.080  39.184  1.00  0.00     0.002 C 
BRANCH  22  23
HETATM   23  C16 UNL     1      18.966  66.116  39.472  1.00  0.00    -0.004 C 
HETATM   24  C17 UNL     1      19.641  67.234  38.707  1.00  0.00     0.005 C 
ENDBRANCH  22  23
ENDBRANCH  21  22
ENDBRANCH  16  21
ENDBRANCH  14  16
ENDBRANCH  13  14
ENDBRANCH   8  13
BRANCH   9  25
HETATM   25  O7  UNL     1      17.986  63.048  33.374  1.00  0.00    -0.387 OA
ATOM     26  H7  UNL     1      18.494  63.816  33.605  1.00  0.00     0.210 HD
ENDBRANCH   9  25
BRANCH   4  27
HETATM   27  O1  UNL     1      17.512  67.247  29.941  1.00  0.00    -0.392 OA
ATOM     28  H1  UNL     1      18.317  66.753  29.842  1.00  0.00     0.210 HD
ENDBRANCH   4  27
BRANCH   5  29
HETATM   29  C6  UNL     1      18.510  68.592  32.788  1.00  0.00     0.118 C 
BRANCH  29  30
HETATM   30  C7  UNL     1      19.945  68.888  32.571  1.00  0.00     0.160 C 
HETATM   31  O2  UNL     1      20.702  69.323  33.479  1.00  0.00    -0.293 OA
BRANCH  30  32
HETATM   32  C8  UNL     1      20.534  68.679  31.268  1.00  0.00     0.126 C 
BRANCH  32  33
HETATM   33  C9  UNL     1      21.534  69.437  30.882  1.00  0.00    -0.016 C 
BRANCH  33  34
HETATM   34  N1  UNL     1      22.361  70.418  30.760  1.00  0.00    -0.233 N 
ATOM     35  H1  UNL     1      23.044  70.424  30.002  1.00  0.00     0.204 HD
BRANCH  34  36
HETATM   36  O3  UNL     1      22.317  71.466  31.667  1.00  0.00    -0.282 OA
ATOM     37  H3  UNL     1      21.482  71.867  31.877  1.00  0.00     0.245 HD
ENDBRANCH  34  36
ENDBRANCH  33  34
ENDBRANCH  32  33
ENDBRANCH  30  32
ENDBRANCH  29  30
ENDBRANCH   5  29
TORSDOF 15
ENDMDL
MODEL 4
REMARK VINA RESULT: -7.479243013      1.818      2.503
REMARK  15 active torsions:
REMARK  status: ('A' for Active; 'I' for Inactive)
REMARK    1  A    between atoms: C4_4  and  O1_5 
REMARK    2  A    between atoms: C5_7  and  C6_8 
REMARK    3  A    between atoms: C6_8  and  C7_9 
REMARK    4  A    between atoms: C7_9  and  C8_11 
REMARK    5  A    between atoms: C8_11  and  C9_12 
REMARK    6  A    between atoms: C9_12  and  N1_13 
REMARK    7  A    between atoms: N1_13  and  O3_15 
REMARK    8  A    between atoms: C11_19  and  O5_20 
REMARK    9  A    between atoms: O5_20  and  C12_21 
REMARK   10  A    between atoms: C12_21  and  C13_23 
REMARK   11  A    between atoms: C13_23  and  N2_24 
REMARK   12  A    between atoms: C13_23  and  C14_28 
REMARK   13  A    between atoms: C14_28  and  C15_29 
REMARK   14  A    between atoms: C15_29  and  C16_30 
REMARK   15  A    between atoms: C18_32  and  O7_34 
ROOT
HETATM    1  C1  UNL     1      15.552  64.371  29.923  1.00  0.00     0.015 C 
HETATM    2  C2  UNL     1      16.055  64.526  31.156  1.00  0.00    -0.073 C 
HETATM    3  C3  UNL     1      15.848  65.824  31.818  1.00  0.00     0.077 C 
HETATM    4  C4  UNL     1      16.683  66.897  31.122  1.00  0.00     0.158 C 
HETATM    5  C5  UNL     1      17.913  66.964  31.988  1.00  0.00     0.158 C 
HETATM    6  O4  UNL     1      17.694  66.262  33.141  1.00  0.00    -0.374 OA
HETATM    7  C10 UNL     1      16.385  65.887  33.201  1.00  0.00     0.165 C 
HETATM    8  C11 UNL     1      16.124  64.632  33.972  1.00  0.00     0.196 C 
HETATM    9  C18 UNL     1      16.624  63.385  33.310  1.00  0.00     0.090 C 
HETATM   10  C19 UNL     1      15.742  62.209  33.675  1.00  0.00     0.049 C 
HETATM   11  C20 UNL     1      16.788  63.450  31.835  1.00  0.00     0.047 C 
HETATM   12  C21 UNL     1      18.267  63.427  31.421  1.00  0.00     0.018 C 
ENDROOT
BRANCH   8  13
HETATM   13  O5  UNL     1      16.656  64.741  35.281  1.00  0.00    -0.309 OA
BRANCH  13  14
HETATM   14  C12 UNL     1      16.065  65.461  36.294  1.00  0.00     0.290 C 
HETATM   15  O6  UNL     1      15.031  64.979  36.839  1.00  0.00    -0.263 OA
BRANCH  14  16
HETATM   16  C13 UNL     1      16.590  66.777  36.772  1.00  0.00     0.282 C 
BRANCH  16  17
HETATM   17  N2  UNL     1      17.818  67.043  36.057  1.00  0.00    -0.066 N 
ATOM     18  H23 UNL     1      18.527  66.324  36.204  1.00  0.00     0.275 HD
ATOM     19  H22 UNL     1      17.722  66.932  35.048  1.00  0.00     0.275 HD
ATOM     20  H21 UNL     1      18.135  67.974  36.326  1.00  0.00     0.275 HD
ENDBRANCH  16  17
BRANCH  16  21
HETATM   21  C14 UNL     1      16.799  66.652  38.258  1.00  0.00     0.043 C 
BRANCH  21  22
HETATM   22  C15 UNL     1      17.859  65.651  38.620  1.00  0.00     0.002 C 
BRANCH  22  23
HETATM   23  C16 UNL     1      18.928  66.229  39.519  1.00  0.00    -0.004 C 
HETATM   24  C17 UNL     1      19.759  67.258  38.781  1.00  0.00     0.005 C 
ENDBRANCH  22  23
ENDBRANCH  21  22
ENDBRANCH  16  21
ENDBRANCH  14  16
ENDBRANCH  13  14
ENDBRANCH   8  13
BRANCH   9  25
HETATM   25  O7  UNL     1      17.895  63.071  33.851  1.00  0.00    -0.387 OA
ATOM     26  H7  UNL     1      18.530  63.074  33.146  1.00  0.00     0.210 HD
ENDBRANCH   9  25
BRANCH   4  27
HETATM   27  O1  UNL     1      16.947  66.592  29.809  1.00  0.00    -0.392 OA
ATOM     28  H1  UNL     1      17.867  66.415  29.653  1.00  0.00     0.210 HD
ENDBRANCH   4  27
BRANCH   5  29
HETATM   29  C6  UNL     1      18.248  68.419  32.234  1.00  0.00     0.118 C 
BRANCH  29  30
HETATM   30  C7  UNL     1      19.692  68.626  31.975  1.00  0.00     0.160 C 
HETATM   31  O2  UNL     1      20.513  68.945  32.876  1.00  0.00    -0.293 OA
BRANCH  30  32
HETATM   32  C8  UNL     1      20.213  68.464  30.638  1.00  0.00     0.126 C 
BRANCH  32  33
HETATM   33  C9  UNL     1      19.531  68.930  29.617  1.00  0.00    -0.016 C 
BRANCH  33  34
HETATM   34  N1  UNL     1      18.647  69.080  28.691  1.00  0.00    -0.233 N 
ATOM     35  H1  UNL     1      18.137  69.960  28.605  1.00  0.00     0.204 HD
BRANCH  34  36
HETATM   36  O3  UNL     1      18.393  68.037  27.815  1.00  0.00    -0.282 OA
ATOM     37  H3  UNL     1      17.522  67.659  27.777  1.00  0.00     0.245 HD
ENDBRANCH  34  36
ENDBRANCH  33  34
ENDBRANCH  32  33
ENDBRANCH  30  32
ENDBRANCH  29  30
ENDBRANCH   5  29
TORSDOF 15
ENDMDL
MODEL 5
REMARK VINA RESULT: -7.438982519      1.312      1.638
REMARK  15 active torsions:
REMARK  status: ('A' for Active; 'I' for Inactive)
REMARK    1  A    between atoms: C4_4  and  O1_5 
REMARK    2  A    between atoms: C5_7  and  C6_8 
REMARK    3  A    between atoms: C6_8  and  C7_9 
REMARK    4  A    between atoms: C7_9  and  C8_11 
REMARK    5  A    between atoms: C8_11  and  C9_12 
REMARK    6  A    between atoms: C9_12  and  N1_13 
REMARK    7  A    between atoms: N1_13  and  O3_15 
REMARK    8  A    between atoms: C11_19  and  O5_20 
REMARK    9  A    between atoms: O5_20  and  C12_21 
REMARK   10  A    between atoms: C12_21  and  C13_23 
REMARK   11  A    between atoms: C13_23  and  N2_24 
REMARK   12  A    between atoms: C13_23  and  C14_28 
REMARK   13  A    between atoms: C14_28  and  C15_29 
REMARK   14  A    between atoms: C15_29  and  C16_30 
REMARK   15  A    between atoms: C18_32  and  O7_34 
ROOT
HETATM    1  C1  UNL     1      15.221  64.568  30.480  1.00  0.00     0.015 C 
HETATM    2  C2  UNL     1      15.860  64.543  31.658  1.00  0.00    -0.073 C 
HETATM    3  C3  UNL     1      15.933  65.799  32.420  1.00  0.00     0.077 C 
HETATM    4  C4  UNL     1      16.860  66.781  31.709  1.00  0.00     0.158 C 
HETATM    5  C5  UNL     1      18.163  66.586  32.437  1.00  0.00     0.158 C 
HETATM    6  O4  UNL     1      17.945  65.836  33.560  1.00  0.00    -0.374 OA
HETATM    7  C10 UNL     1      16.605  65.666  33.738  1.00  0.00     0.165 C 
HETATM    8  C11 UNL     1      16.220  64.408  34.451  1.00  0.00     0.196 C 
HETATM    9  C18 UNL     1      16.442  63.156  33.659  1.00  0.00     0.090 C 
HETATM   10  C19 UNL     1      15.420  62.106  34.042  1.00  0.00     0.049 C 
HETATM   11  C20 UNL     1      16.470  63.314  32.182  1.00  0.00     0.047 C 
HETATM   12  C21 UNL     1      17.878  63.094  31.609  1.00  0.00     0.018 C 
ENDROOT
BRANCH   8  13
HETATM   13  O5  UNL     1      16.887  64.326  35.698  1.00  0.00    -0.309 OA
BRANCH  13  14
HETATM   14  C12 UNL     1      16.554  65.082  36.799  1.00  0.00     0.290 C 
HETATM   15  O6  UNL     1      15.358  65.478  36.907  1.00  0.00    -0.263 OA
BRANCH  14  16
HETATM   16  C13 UNL     1      17.538  65.451  37.862  1.00  0.00     0.282 C 
BRANCH  16  17
HETATM   17  N2  UNL     1      16.854  65.383  39.134  1.00  0.00    -0.066 N 
ATOM     18  H23 UNL     1      17.087  66.161  39.752  1.00  0.00     0.275 HD
ATOM     19  H22 UNL     1      15.854  65.568  39.057  1.00  0.00     0.275 HD
ATOM     20  H21 UNL     1      17.060  64.474  39.546  1.00  0.00     0.275 HD
ENDBRANCH  16  17
BRANCH  16  21
HETATM   21  C14 UNL     1      18.031  66.837  37.542  1.00  0.00     0.043 C 
BRANCH  21  22
HETATM   22  C15 UNL     1      19.136  67.294  38.451  1.00  0.00     0.002 C 
BRANCH  22  23
HETATM   23  C16 UNL     1      20.168  68.139  37.741  1.00  0.00    -0.004 C 
HETATM   24  C17 UNL     1      20.112  67.920  36.245  1.00  0.00     0.005 C 
ENDBRANCH  22  23
ENDBRANCH  21  22
ENDBRANCH  16  21
ENDBRANCH  14  16
ENDBRANCH  13  14
ENDBRANCH   8  13
BRANCH   9  25
HETATM   25  O7  UNL     1      17.691  62.605  34.037  1.00  0.00    -0.387 OA
ATOM     26  H7  UNL     1      18.378  63.190  33.744  1.00  0.00     0.210 HD
ENDBRANCH   9  25
BRANCH   4  27
HETATM   27  O1  UNL     1      16.942  66.547  30.358  1.00  0.00    -0.392 OA
ATOM     28  H1  UNL     1      17.214  65.659  30.156  1.00  0.00     0.210 HD
ENDBRANCH   4  27
BRANCH   5  29
HETATM   29  C6  UNL     1      18.754  67.946  32.738  1.00  0.00     0.118 C 
BRANCH  29  30
HETATM   30  C7  UNL     1      19.743  68.280  31.687  1.00  0.00     0.160 C 
HETATM   31  O2  UNL     1      20.011  67.511  30.727  1.00  0.00    -0.293 OA
BRANCH  30  32
HETATM   32  C8  UNL     1      20.451  69.538  31.739  1.00  0.00     0.126 C 
BRANCH  32  33
HETATM   33  C9  UNL     1      21.279  69.772  32.731  1.00  0.00    -0.016 C 
BRANCH  33  34
HETATM   34  N1  UNL     1      22.016  70.364  33.608  1.00  0.00    -0.233 N 
ATOM     35  H1  UNL     1      22.084  71.382  33.621  1.00  0.00     0.204 HD
BRANCH  34  36
HETATM   36  O3  UNL     1      22.716  69.606  34.534  1.00  0.00    -0.282 OA
ATOM     37  H3  UNL     1      22.951  69.990  35.371  1.00  0.00     0.245 HD
ENDBRANCH  34  36
ENDBRANCH  33  34
ENDBRANCH  32  33
ENDBRANCH  30  32
ENDBRANCH  29  30
ENDBRANCH   5  29
TORSDOF 15
ENDMDL
