MODEL 1
REMARK VINA RESULT: -7.271458576      0.000      0.000
REMARK  14 active torsions:
REMARK  status: ('A' for Active; 'I' for Inactive)
REMARK    1  A    between atoms: C2_2  and  C3_3 
REMARK    2  A    between atoms: C3_3  and  C4_4 
REMARK    3  A    between atoms: C4_4  and  C5_5 
REMARK    4  A    between atoms: C5_5  and  O1_6 
REMARK    5  A    between atoms: O1_6  and  C6_7 
REMARK    6  A    between atoms: C7_9  and  N1_10 
REMARK    7  A    between atoms: C12_15  and  N2_16 
REMARK    8  A    between atoms: C13_21  and  C14_22 
REMARK    9  A    between atoms: C17_25  and  O4_26 
REMARK   10  A    between atoms: C19_29  and  C20_30 
REMARK   11  A    between atoms: C19_29  and  N3_33 
REMARK   12  A    between atoms: C20_30  and  O5_31 
REMARK   13  A    between atoms: N3_33  and  N4_35 
REMARK   14  A    between atoms: N4_35  and  N5_36 
ROOT
HETATM    1  C6  UNL     1      16.893  63.761  34.322  1.00  0.00     0.294 C 
HETATM    2  O2  UNL     1      16.928  65.088  33.698  1.00  0.00    -0.334 OA
HETATM    3  C7  UNL     1      17.692  64.927  32.568  1.00  0.00     0.253 C 
HETATM    4  C17 UNL     1      16.924  64.120  31.504  1.00  0.00     0.166 C 
HETATM    5  C18 UNL     1      16.751  62.745  32.127  1.00  0.00     0.076 C 
HETATM    6  C19 UNL     1      15.969  63.007  33.435  1.00  0.00     0.132 C 
ENDROOT
BRANCH   3   7
HETATM    7  N1  UNL     1      18.057  66.166  31.937  1.00  0.00    -0.162 NA
HETATM    8  C8  UNL     1      17.747  67.334  32.696  1.00  0.00     0.125 C 
HETATM    9  C9  UNL     1      18.878  68.288  32.601  1.00  0.00     0.027 C 
HETATM   10  C10 UNL     1      19.217  68.858  31.274  1.00  0.00    -0.021 A 
HETATM   11  C11 UNL     1      18.406  68.110  30.297  1.00  0.00     0.081 C 
HETATM   12  C13 UNL     1      20.367  68.179  30.494  1.00  0.00     0.028 A 
HETATM   13  C16 UNL     1      20.560  69.327  31.319  1.00  0.00     0.026 A 
HETATM   14  C12 UNL     1      19.444  67.038  30.492  1.00  0.00     0.252 C 
HETATM   15  O3  UNL     1      19.349  66.229  31.548  1.00  0.00    -0.260 OA
BRANCH  14  16
HETATM   16  N2  UNL     1      19.482  66.214  29.272  1.00  0.00    -0.044 N 
ATOM     17  H23 UNL     1      18.737  65.518  29.242  1.00  0.00     0.278 HD
ATOM     18  H22 UNL     1      19.217  66.735  28.436  1.00  0.00     0.278 HD
ATOM     19  H21 UNL     1      20.412  65.800  29.200  1.00  0.00     0.278 HD
ENDBRANCH  14  16
BRANCH  12  20
HETATM   20  C14 UNL     1      20.699  68.563  29.074  1.00  0.00     0.011 C 
HETATM   21  C15 UNL     1      21.967  69.329  28.870  1.00  0.00     0.006 C 
ENDBRANCH  12  20
ENDBRANCH   3   7
BRANCH   4  22
HETATM   22  O4  UNL     1      17.633  64.109  30.332  1.00  0.00    -0.392 OA
ATOM     23  H4  UNL     1      17.774  63.213  30.052  1.00  0.00     0.210 HD
ENDBRANCH   4  22
BRANCH   1  24
HETATM   24  O1  UNL     1      16.340  63.945  35.583  1.00  0.00    -0.358 OA
BRANCH  24  25
HETATM   25  C5  UNL     1      16.537  65.157  36.155  1.00  0.00     0.171 C 
BRANCH  25  26
HETATM   26  C4  UNL     1      16.544  65.320  37.618  1.00  0.00     0.026 C 
BRANCH  26  27
HETATM   27  C3  UNL     1      17.154  66.564  38.168  1.00  0.00     0.002 C 
BRANCH  27  28
HETATM   28  C2  UNL     1      18.342  66.152  39.057  1.00  0.00    -0.004 C 
HETATM   29  C1  UNL     1      19.517  67.032  38.741  1.00  0.00     0.005 C 
ENDBRANCH  27  28
ENDBRANCH  26  27
ENDBRANCH  25  26
ENDBRANCH  24  25
ENDBRANCH   1  24
BRANCH   6  30
HETATM   30  C20 UNL     1      15.434  61.719  33.943  1.00  0.00     0.202 C 
BRANCH  30  31
HETATM   31  O5  UNL     1      16.282  61.201  34.889  1.00  0.00    -0.398 OA
ATOM     32  H5  UNL     1      15.806  60.613  35.464  1.00  0.00     0.209 HD
ENDBRANCH  30  31
ENDBRANCH   6  30
BRANCH   6  33
HETATM   33  N3  UNL     1      14.862  63.936  33.130  1.00  0.00    -0.235 N 
ATOM     34  H3  UNL     1      14.915  64.604  32.361  1.00  0.00     0.198 HD
BRANCH  33  35
HETATM   35  N4  UNL     1      13.880  63.860  33.851  1.00  0.00    -0.248 NA
BRANCH  35  36
HETATM   36  N5  UNL     1      13.153  63.892  34.840  1.00  0.00    -0.261 N 
ATOM     37  H52 UNL     1      13.480  64.800  35.173  1.00  0.00     0.193 HD
ATOM     38  H51 UNL     1      12.460  63.633  35.542  1.00  0.00     0.193 HD
ENDBRANCH  35  36
ENDBRANCH  33  35
ENDBRANCH   6  33
TORSDOF 14
ENDMDL
MODEL 2
REMARK VINA RESULT: -7.130331507      1.377      1.707
REMARK  14 active torsions:
REMARK  status: ('A' for Active; 'I' for Inactive)
REMARK    1  A    between atoms: C2_2  and  C3_3 
REMARK    2  A    between atoms: C3_3  and  C4_4 
REMARK    3  A    between atoms: C4_4  and  C5_5 
REMARK    4  A    between atoms: C5_5  and  O1_6 
REMARK    5  A    between atoms: O1_6  and  C6_7 
REMARK    6  A    between atoms: C7_9  and  N1_10 
REMARK    7  A    between atoms: C12_15  and  N2_16 
REMARK    8  A    between atoms: C13_21  and  C14_22 
REMARK    9  A    between atoms: C17_25  and  O4_26 
REMARK   10  A    between atoms: C19_29  and  C20_30 
REMARK   11  A    between atoms: C19_29  and  N3_33 
REMARK   12  A    between atoms: C20_30  and  O5_31 
REMARK   13  A    between atoms: N3_33  and  N4_35 
REMARK   14  A    between atoms: N4_35  and  N5_36 
ROOT
HETATM    1  C6  UNL     1      17.506  65.657  34.409  1.00  0.00     0.294 C 
HETATM    2  O2  UNL     1      17.392  66.403  33.151  1.00  0.00    -0.334 OA
HETATM    3  C7  UNL     1      18.315  65.828  32.313  1.00  0.00     0.253 C 
HETATM    4  C17 UNL     1      17.847  64.429  31.870  1.00  0.00     0.166 C 
HETATM    5  C18 UNL     1      17.836  63.612  33.152  1.00  0.00     0.076 C 
HETATM    6  C19 UNL     1      16.854  64.363  34.082  1.00  0.00     0.132 C 
ENDROOT
BRANCH   3   7
HETATM    7  N1  UNL     1      18.539  66.571  31.103  1.00  0.00    -0.162 NA
HETATM    8  C8  UNL     1      17.971  67.881  31.096  1.00  0.00     0.125 C 
HETATM    9  C9  UNL     1      18.938  68.824  30.487  1.00  0.00     0.027 C 
HETATM   10  C10 UNL     1      19.314  68.638  29.064  1.00  0.00    -0.021 A 
HETATM   11  C11 UNL     1      18.735  67.343  28.663  1.00  0.00     0.081 C 
HETATM   12  C13 UNL     1      20.629  67.876  28.781  1.00  0.00     0.028 A 
HETATM   13  C16 UNL     1      20.553  69.300  28.837  1.00  0.00     0.026 A 
HETATM   14  C12 UNL     1      19.907  66.766  29.411  1.00  0.00     0.252 C 
HETATM   15  O3  UNL     1      19.837  66.656  30.738  1.00  0.00    -0.260 OA
BRANCH  14  16
HETATM   16  N2  UNL     1      20.198  65.438  28.845  1.00  0.00    -0.044 N 
ATOM     17  H23 UNL     1      19.644  65.233  28.013  1.00  0.00     0.278 HD
ATOM     18  H22 UNL     1      21.120  65.388  28.411  1.00  0.00     0.278 HD
ATOM     19  H21 UNL     1      20.071  64.746  29.583  1.00  0.00     0.278 HD
ENDBRANCH  14  16
BRANCH  12  20
HETATM   20  C14 UNL     1      21.037  67.485  27.383  1.00  0.00     0.011 C 
HETATM   21  C15 UNL     1      22.325  68.056  26.880  1.00  0.00     0.006 C 
ENDBRANCH  12  20
ENDBRANCH   3   7
BRANCH   4  22
HETATM   22  O4  UNL     1      18.696  63.939  30.914  1.00  0.00    -0.392 OA
ATOM     23  H4  UNL     1      19.057  63.109  31.200  1.00  0.00     0.210 HD
ENDBRANCH   4  22
BRANCH   1  24
HETATM   24  O1  UNL     1      16.768  66.369  35.346  1.00  0.00    -0.358 OA
BRANCH  24  25
HETATM   25  C5  UNL     1      17.466  67.202  36.155  1.00  0.00     0.171 C 
BRANCH  25  26
HETATM   26  C4  UNL     1      17.310  67.155  37.618  1.00  0.00     0.026 C 
BRANCH  26  27
HETATM   27  C3  UNL     1      17.617  65.866  38.300  1.00  0.00     0.002 C 
BRANCH  27  28
HETATM   28  C2  UNL     1      18.647  66.154  39.408  1.00  0.00    -0.004 C 
HETATM   29  C1  UNL     1      19.700  67.078  38.868  1.00  0.00     0.005 C 
ENDBRANCH  27  28
ENDBRANCH  26  27
ENDBRANCH  25  26
ENDBRANCH  24  25
ENDBRANCH   1  24
BRANCH   6  30
HETATM   30  C20 UNL     1      16.489  63.476  35.215  1.00  0.00     0.202 C 
BRANCH  30  31
HETATM   31  O5  UNL     1      16.690  62.165  34.865  1.00  0.00    -0.398 OA
ATOM     32  H5  UNL     1      17.098  61.697  35.584  1.00  0.00     0.209 HD
ENDBRANCH  30  31
ENDBRANCH   6  30
BRANCH   6  33
HETATM   33  N3  UNL     1      15.652  64.710  33.296  1.00  0.00    -0.235 N 
ATOM     34  H3  UNL     1      15.550  65.617  32.840  1.00  0.00     0.198 HD
BRANCH  33  35
HETATM   35  N4  UNL     1      14.789  63.850  33.223  1.00  0.00    -0.248 NA
BRANCH  35  36
HETATM   36  N5  UNL     1      14.203  62.804  32.955  1.00  0.00    -0.261 N 
ATOM     37  H52 UNL     1      14.066  63.019  31.967  1.00  0.00     0.193 HD
ATOM     38  H51 UNL     1      13.770  61.886  33.047  1.00  0.00     0.193 HD
ENDBRANCH  35  36
ENDBRANCH  33  35
ENDBRANCH   6  33
TORSDOF 14
ENDMDL
MODEL 3
REMARK VINA RESULT: -6.969159779      1.533      1.829
REMARK  14 active torsions:
REMARK  status: ('A' for Active; 'I' for Inactive)
REMARK    1  A    between atoms: C2_2  and  C3_3 
REMARK    2  A    between atoms: C3_3  and  C4_4 
REMARK    3  A    between atoms: C4_4  and  C5_5 
REMARK    4  A    between atoms: C5_5  and  O1_6 
REMARK    5  A    between atoms: O1_6  and  C6_7 
REMARK    6  A    between atoms: C7_9  and  N1_10 
REMARK    7  A    between atoms: C12_15  and  N2_16 
REMARK    8  A    between atoms: C13_21  and  C14_22 
REMARK    9  A    between atoms: C17_25  and  O4_26 
REMARK   10  A    between atoms: C19_29  and  C20_30 
REMARK   11  A    between atoms: C19_29  and  N3_33 
REMARK   12  A    between atoms: C20_30  and  O5_31 
REMARK   13  A    between atoms: N3_33  and  N4_35 
REMARK   14  A    between atoms: N4_35  and  N5_36 
ROOT
HETATM    1  C6  UNL     1      17.199  64.941  33.637  1.00  0.00     0.294 C 
HETATM    2  O2  UNL     1      17.362  66.251  32.998  1.00  0.00    -0.334 OA
HETATM    3  C7  UNL     1      18.423  66.097  32.140  1.00  0.00     0.253 C 
HETATM    4  C17 UNL     1      18.023  65.227  30.933  1.00  0.00     0.166 C 
HETATM    5  C18 UNL     1      17.730  63.862  31.533  1.00  0.00     0.076 C 
HETATM    6  C19 UNL     1      16.597  64.121  32.553  1.00  0.00     0.132 C 
ENDROOT
BRANCH   3   7
HETATM    7  N1  UNL     1      18.907  67.334  31.592  1.00  0.00    -0.162 NA
HETATM    8  C8  UNL     1      18.633  68.486  32.391  1.00  0.00     0.125 C 
HETATM    9  C9  UNL     1      19.830  69.361  32.405  1.00  0.00     0.027 C 
HETATM   10  C10 UNL     1      20.283  69.966  31.128  1.00  0.00    -0.021 A 
HETATM   11  C11 UNL     1      19.480  69.322  30.073  1.00  0.00     0.081 C 
HETATM   12  C13 UNL     1      21.426  69.244  30.378  1.00  0.00     0.028 A 
HETATM   13  C16 UNL     1      21.649  70.336  31.268  1.00  0.00     0.026 A 
HETATM   14  C12 UNL     1      20.431  68.172  30.270  1.00  0.00     0.252 C 
HETATM   15  O3  UNL     1      20.220  67.324  31.277  1.00  0.00    -0.260 OA
BRANCH  14  16
HETATM   16  N2  UNL     1      20.483  67.405  29.014  1.00  0.00    -0.044 N 
ATOM     17  H23 UNL     1      19.585  66.987  28.769  1.00  0.00     0.278 HD
ATOM     18  H22 UNL     1      20.586  68.000  28.191  1.00  0.00     0.278 HD
ATOM     19  H21 UNL     1      21.229  66.714  29.097  1.00  0.00     0.278 HD
ENDBRANCH  14  16
BRANCH  12  20
HETATM   20  C14 UNL     1      21.865  69.668  28.999  1.00  0.00     0.011 C 
HETATM   21  C15 UNL     1      22.835  70.804  28.928  1.00  0.00     0.006 C 
ENDBRANCH  12  20
ENDBRANCH   3   7
BRANCH   4  22
HETATM   22  O4  UNL     1      19.037  65.218  30.014  1.00  0.00    -0.392 OA
ATOM     23  H4  UNL     1      19.747  65.774  30.314  1.00  0.00     0.210 HD
ENDBRANCH   4  22
BRANCH   1  24
HETATM   24  O1  UNL     1      16.302  65.131  34.680  1.00  0.00    -0.358 OA
BRANCH  24  25
HETATM   25  C5  UNL     1      16.728  65.906  35.707  1.00  0.00     0.171 C 
BRANCH  25  26
HETATM   26  C4  UNL     1      16.161  65.766  37.057  1.00  0.00     0.026 C 
BRANCH  26  27
HETATM   27  C3  UNL     1      16.688  66.668  38.121  1.00  0.00     0.002 C 
BRANCH  27  28
HETATM   28  C2  UNL     1      17.615  65.837  39.026  1.00  0.00    -0.004 C 
HETATM   29  C1  UNL     1      18.965  66.491  39.075  1.00  0.00     0.005 C 
ENDBRANCH  27  28
ENDBRANCH  26  27
ENDBRANCH  25  26
ENDBRANCH  24  25
ENDBRANCH   1  24
BRANCH   6  30
HETATM   30  C20 UNL     1      15.987  62.823  32.937  1.00  0.00     0.202 C 
BRANCH  30  31
HETATM   31  O5  UNL     1      14.757  63.035  33.506  1.00  0.00    -0.398 OA
ATOM     32  H5  UNL     1      14.323  63.764  33.079  1.00  0.00     0.209 HD
ENDBRANCH  30  31
ENDBRANCH   6  30
BRANCH   6  33
HETATM   33  N3  UNL     1      15.590  64.989  31.910  1.00  0.00    -0.235 N 
ATOM     34  H3  UNL     1      15.438  65.953  32.210  1.00  0.00     0.198 HD
BRANCH  33  35
HETATM   35  N4  UNL     1      14.949  64.489  31.000  1.00  0.00    -0.248 NA
BRANCH  35  36
HETATM   36  N5  UNL     1      14.632  64.065  29.892  1.00  0.00    -0.261 N 
ATOM     37  H52 UNL     1      14.465  63.106  30.198  1.00  0.00     0.193 HD
ATOM     38  H51 UNL     1      14.426  64.020  28.894  1.00  0.00     0.193 HD
ENDBRANCH  35  36
ENDBRANCH  33  35
ENDBRANCH   6  33
TORSDOF 14
ENDMDL
MODEL 4
REMARK VINA RESULT: -6.937843554      1.595      2.047
REMARK  14 active torsions:
REMARK  status: ('A' for Active; 'I' for Inactive)
REMARK    1  A    between atoms: C2_2  and  C3_3 
REMARK    2  A    between atoms: C3_3  and  C4_4 
REMARK    3  A    between atoms: C4_4  and  C5_5 
REMARK    4  A    between atoms: C5_5  and  O1_6 
REMARK    5  A    between atoms: O1_6  and  C6_7 
REMARK    6  A    between atoms: C7_9  and  N1_10 
REMARK    7  A    between atoms: C12_15  and  N2_16 
REMARK    8  A    between atoms: C13_21  and  C14_22 
REMARK    9  A    between atoms: C17_25  and  O4_26 
REMARK   10  A    between atoms: C19_29  and  C20_30 
REMARK   11  A    between atoms: C19_29  and  N3_33 
REMARK   12  A    between atoms: C20_30  and  O5_31 
REMARK   13  A    between atoms: N3_33  and  N4_35 
REMARK   14  A    between atoms: N4_35  and  N5_36 
ROOT
HETATM    1  C6  UNL     1      17.835  65.713  34.193  1.00  0.00     0.294 C 
HETATM    2  O2  UNL     1      17.819  66.782  33.189  1.00  0.00    -0.334 OA
HETATM    3  C7  UNL     1      18.717  66.381  32.230  1.00  0.00     0.253 C 
HETATM    4  C17 UNL     1      18.150  65.202  31.416  1.00  0.00     0.166 C 
HETATM    5  C18 UNL     1      18.034  64.070  32.423  1.00  0.00     0.076 C 
HETATM    6  C19 UNL     1      17.090  64.619  33.517  1.00  0.00     0.132 C 
ENDROOT
BRANCH   3   7
HETATM    7  N1  UNL     1      19.037  67.404  31.274  1.00  0.00    -0.162 NA
HETATM    8  C8  UNL     1      18.875  68.739  31.755  1.00  0.00     0.125 C 
HETATM    9  C9  UNL     1      20.016  69.563  31.288  1.00  0.00     0.027 C 
HETATM   10  C10 UNL     1      20.190  69.774  29.830  1.00  0.00    -0.021 A 
HETATM   11  C11 UNL     1      19.226  68.871  29.176  1.00  0.00     0.081 C 
HETATM   12  C13 UNL     1      21.197  68.852  29.104  1.00  0.00     0.028 A 
HETATM   13  C16 UNL     1      21.542  70.147  29.591  1.00  0.00     0.026 A 
HETATM   14  C12 UNL     1      20.243  67.809  29.498  1.00  0.00     0.252 C 
HETATM   15  O3  UNL     1      20.264  67.284  30.724  1.00  0.00    -0.260 OA
BRANCH  14  16
HETATM   16  N2  UNL     1      20.084  66.717  28.523  1.00  0.00    -0.044 N 
ATOM     17  H23 UNL     1      19.118  66.396  28.443  1.00  0.00     0.278 HD
ATOM     18  H22 UNL     1      20.205  67.028  27.559  1.00  0.00     0.278 HD
ATOM     19  H21 UNL     1      20.728  65.969  28.779  1.00  0.00     0.278 HD
ENDBRANCH  14  16
BRANCH  12  20
HETATM   20  C14 UNL     1      21.345  68.861  27.604  1.00  0.00     0.011 C 
HETATM   21  C15 UNL     1      22.224  69.925  27.027  1.00  0.00     0.006 C 
ENDBRANCH  12  20
ENDBRANCH   3   7
BRANCH   4  22
HETATM   22  O4  UNL     1      18.985  64.922  30.367  1.00  0.00    -0.392 OA
ATOM     23  H4  UNL     1      19.785  65.427  30.450  1.00  0.00     0.210 HD
ENDBRANCH   4  22
BRANCH   1  24
HETATM   24  O1  UNL     1      17.130  66.201  35.285  1.00  0.00    -0.358 OA
BRANCH  24  25
HETATM   25  C5  UNL     1      17.668  67.272  35.919  1.00  0.00     0.171 C 
BRANCH  25  26
HETATM   26  C4  UNL     1      17.954  67.241  37.362  1.00  0.00     0.026 C 
BRANCH  26  27
HETATM   27  C3  UNL     1      19.334  67.599  37.797  1.00  0.00     0.002 C 
BRANCH  27  28
HETATM   28  C2  UNL     1      19.616  66.861  39.119  1.00  0.00    -0.004 C 
HETATM   29  C1  UNL     1      18.447  65.977  39.444  1.00  0.00     0.005 C 
ENDBRANCH  27  28
ENDBRANCH  26  27
ENDBRANCH  25  26
ENDBRANCH  24  25
ENDBRANCH   1  24
BRANCH   6  30
HETATM   30  C20 UNL     1      16.620  63.490  34.360  1.00  0.00     0.202 C 
BRANCH  30  31
HETATM   31  O5  UNL     1      15.533  63.881  35.101  1.00  0.00    -0.398 OA
ATOM     32  H5  UNL     1      14.859  63.213  35.063  1.00  0.00     0.209 HD
ENDBRANCH  30  31
ENDBRANCH   6  30
BRANCH   6  33
HETATM   33  N3  UNL     1      15.944  65.271  32.851  1.00  0.00    -0.235 N 
ATOM     34  H3  UNL     1      15.794  66.279  32.899  1.00  0.00     0.198 HD
BRANCH  33  35
HETATM   35  N4  UNL     1      15.186  64.535  32.239  1.00  0.00    -0.248 NA
BRANCH  35  36
HETATM   36  N5  UNL     1      14.728  63.783  31.383  1.00  0.00    -0.261 N 
ATOM     37  H52 UNL     1      14.577  64.511  30.684  1.00  0.00     0.193 HD
ATOM     38  H51 UNL     1      14.402  62.943  30.905  1.00  0.00     0.193 HD
ENDBRANCH  35  36
ENDBRANCH  33  35
ENDBRANCH   6  33
TORSDOF 14
ENDMDL
MODEL 5
REMARK VINA RESULT: -6.907501506      2.672      5.826
REMARK  14 active torsions:
REMARK  status: ('A' for Active; 'I' for Inactive)
REMARK    1  A    between atoms: C2_2  and  C3_3 
REMARK    2  A    between atoms: C3_3  and  C4_4 
REMARK    3  A    between atoms: C4_4  and  C5_5 
REMARK    4  A    between atoms: C5_5  and  O1_6 
REMARK    5  A    between atoms: O1_6  and  C6_7 
REMARK    6  A    between atoms: C7_9  and  N1_10 
REMARK    7  A    between atoms: C12_15  and  N2_16 
REMARK    8  A    between atoms: C13_21  and  C14_22 
REMARK    9  A    between atoms: C17_25  and  O4_26 
REMARK   10  A    between atoms: C19_29  and  C20_30 
REMARK   11  A    between atoms: C19_29  and  N3_33 
REMARK   12  A    between atoms: C20_30  and  O5_31 
REMARK   13  A    between atoms: N3_33  and  N4_35 
REMARK   14  A    between atoms: N4_35  and  N5_36 
ROOT
HETATM    1  C6  UNL     1      16.182  63.493  32.956  1.00  0.00     0.294 C 
HETATM    2  O2  UNL     1      16.765  64.014  34.197  1.00  0.00    -0.334 OA
HETATM    3  C7  UNL     1      15.754  64.730  34.790  1.00  0.00     0.253 C 
HETATM    4  C17 UNL     1      14.672  63.785  35.345  1.00  0.00     0.166 C 
HETATM    5  C18 UNL     1      14.086  63.119  34.111  1.00  0.00     0.076 C 
HETATM    6  C19 UNL     1      15.288  62.411  33.444  1.00  0.00     0.132 C 
ENDROOT
BRANCH   3   7
HETATM    7  N1  UNL     1      16.188  65.531  35.902  1.00  0.00    -0.162 NA
HETATM    8  C8  UNL     1      15.632  65.150  37.161  1.00  0.00     0.125 C 
HETATM    9  C9  UNL     1      16.694  65.206  38.195  1.00  0.00     0.027 C 
HETATM   10  C10 UNL     1      17.312  66.518  38.508  1.00  0.00    -0.021 A 
HETATM   11  C11 UNL     1      16.809  67.453  37.486  1.00  0.00     0.081 C 
HETATM   12  C13 UNL     1      18.655  66.842  37.815  1.00  0.00     0.028 A 
HETATM   13  C16 UNL     1      18.572  66.282  39.124  1.00  0.00     0.026 A 
HETATM   14  C12 UNL     1      17.831  66.789  36.603  1.00  0.00     0.252 C 
HETATM   15  O3  UNL     1      17.530  65.624  36.027  1.00  0.00    -0.260 OA
BRANCH  14  16
HETATM   16  N2  UNL     1      18.215  67.746  35.551  1.00  0.00    -0.044 N 
ATOM     17  H23 UNL     1      18.691  68.568  35.921  1.00  0.00     0.278 HD
ATOM     18  H22 UNL     1      18.973  67.402  34.962  1.00  0.00     0.278 HD
ATOM     19  H21 UNL     1      17.377  67.982  35.019  1.00  0.00     0.278 HD
ENDBRANCH  14  16
BRANCH  12  20
HETATM   20  C14 UNL     1      19.300  68.201  37.928  1.00  0.00     0.011 C 
HETATM   21  C15 UNL     1      20.766  68.268  37.641  1.00  0.00     0.006 C 
ENDBRANCH  12  20
ENDBRANCH   3   7
BRANCH   4  22
HETATM   22  O4  UNL     1      13.759  64.504  36.069  1.00  0.00    -0.392 OA
ATOM     23  H4  UNL     1      14.206  65.166  36.583  1.00  0.00     0.210 HD
ENDBRANCH   4  22
BRANCH   1  24
HETATM   24  O1  UNL     1      17.242  62.976  32.222  1.00  0.00    -0.358 OA
BRANCH  24  25
HETATM   25  C5  UNL     1      18.244  63.838  31.923  1.00  0.00     0.171 C 
BRANCH  25  26
HETATM   26  C4  UNL     1      18.118  64.800  30.816  1.00  0.00     0.026 C 
BRANCH  26  27
HETATM   27  C3  UNL     1      18.610  66.188  31.053  1.00  0.00     0.002 C 
BRANCH  27  28
HETATM   28  C2  UNL     1      17.733  66.816  32.152  1.00  0.00    -0.004 C 
HETATM   29  C1  UNL     1      16.340  66.996  31.621  1.00  0.00     0.005 C 
ENDBRANCH  27  28
ENDBRANCH  26  27
ENDBRANCH  25  26
ENDBRANCH  24  25
ENDBRANCH   1  24
BRANCH   6  30
HETATM   30  C20 UNL     1      14.780  61.441  32.441  1.00  0.00     0.202 C 
BRANCH  30  31
HETATM   31  O5  UNL     1      14.579  62.072  31.240  1.00  0.00    -0.398 OA
ATOM     32  H5  UNL     1      15.279  62.693  31.079  1.00  0.00     0.209 HD
ENDBRANCH  30  31
ENDBRANCH   6  30
BRANCH   6  33
HETATM   33  N3  UNL     1      16.050  61.708  34.496  1.00  0.00    -0.235 N 
ATOM     34  H3  UNL     1      16.824  62.154  34.989  1.00  0.00     0.198 HD
BRANCH  33  35
HETATM   35  N4  UNL     1      15.700  60.565  34.742  1.00  0.00    -0.248 NA
BRANCH  35  36
HETATM   36  N5  UNL     1      15.603  59.464  35.277  1.00  0.00    -0.261 N 
ATOM     37  H52 UNL     1      14.816  59.148  34.710  1.00  0.00     0.193 HD
ATOM     38  H51 UNL     1      15.772  58.667  35.890  1.00  0.00     0.193 HD
ENDBRANCH  35  36
ENDBRANCH  33  35
ENDBRANCH   6  33
TORSDOF 14
ENDMDL
