MODEL 1
REMARK VINA RESULT: -9.213193413      0.000      0.000
REMARK  12 active torsions:
REMARK  status: ('A' for Active; 'I' for Inactive)
REMARK    1  A    between atoms: N1_3  and  O2_4 
REMARK    2  A    between atoms: C2_6  and  C3_7 
REMARK    3  A    between atoms: C3_7  and  C4_8 
REMARK    4  A    between atoms: C4_8  and  C5_9 
REMARK    5  A    between atoms: C5_9  and  C6_10 
REMARK    6  A    between atoms: C6_10  and  C7_11 
REMARK    7  A    between atoms: C7_11  and  C8_12 
REMARK    8  A    between atoms: C8_12  and  C9_13 
REMARK    9  A    between atoms: C9_13  and  C10_14 
REMARK   10  A    between atoms: C12_18  and  O3_19 
REMARK   11  A    between atoms: N3_24  and  S1_25 
REMARK   12  A    between atoms: N4_32  and  O7_33 
ROOT
HETATM    1  O1  UNL     1      10.622   1.081  32.912  1.00  0.00    -0.242 OA
HETATM    2  C1  UNL     1      10.653  -0.162  32.917  1.00  0.00     0.368 C 
HETATM    3  N1  UNL     1      11.729  -0.837  32.211  1.00  0.00    -0.203 N 
HETATM    4  C2  UNL     1      11.391  -2.109  31.615  1.00  0.00     0.127 C 
HETATM    5  C14 UNL     1      10.889  -2.925  32.808  1.00  0.00     0.051 C 
HETATM    6  C15 UNL     1      10.851  -4.394  32.582  1.00  0.00     0.118 C 
HETATM    7  N3  UNL     1      10.623  -4.988  33.905  1.00  0.00    -0.191 NA
HETATM    8  C16 UNL     1       9.309  -4.647  34.338  1.00  0.00     0.112 C 
HETATM    9  C17 UNL     1       9.138  -3.161  34.550  1.00  0.00     0.044 C 
HETATM   10  C18 UNL     1       9.593  -2.388  33.310  1.00  0.00     0.128 C 
HETATM   11  N4  UNL     1       9.681  -0.986  33.587  1.00  0.00    -0.203 N 
ENDROOT
BRANCH   4  12
HETATM   12  C3  UNL     1      10.420  -2.044  30.536  1.00  0.00     0.028 C 
BRANCH  12  13
HETATM   13  C4  UNL     1      10.636  -1.122  29.395  1.00  0.00     0.002 C 
BRANCH  13  14
HETATM   14  C5  UNL     1      10.352  -1.573  28.021  1.00  0.00     0.000 C 
BRANCH  14  15
HETATM   15  C6  UNL     1      11.550  -1.258  27.101  1.00  0.00     0.000 C 
BRANCH  15  16
HETATM   16  C7  UNL     1      12.310  -2.475  26.694  1.00  0.00     0.000 C 
BRANCH  16  17
HETATM   17  C8  UNL     1      11.600  -3.746  27.146  1.00  0.00     0.005 C 
BRANCH  17  18
HETATM   18  C9  UNL     1      12.381  -4.985  26.796  1.00  0.00     0.040 C 
BRANCH  18  19
HETATM   19  C10 UNL     1      12.073  -5.999  27.847  1.00  0.00    -0.039 A 
HETATM   20  C11 UNL     1      11.413  -5.791  29.051  1.00  0.00     0.097 A 
HETATM   21  N2  UNL     1      11.343  -6.964  29.708  1.00  0.00    -0.347 N 
HETATM   22  C12 UNL     1      11.923  -7.934  28.996  1.00  0.00     0.140 A 
ATOM     23  H2  UNL     1      10.908  -7.093  30.621  1.00  0.00     0.167 HD
HETATM   24  C13 UNL     1      12.384  -7.360  27.841  1.00  0.00     0.064 A 
BRANCH  22  25
HETATM   25  O3  UNL     1      12.027  -9.251  29.374  1.00  0.00    -0.346 OA
ATOM     26  H3  UNL     1      11.586  -9.983  28.958  1.00  0.00     0.219 HD
ENDBRANCH  22  25
ENDBRANCH  18  19
ENDBRANCH  17  18
ENDBRANCH  16  17
ENDBRANCH  15  16
ENDBRANCH  14  15
ENDBRANCH  13  14
ENDBRANCH  12  13
ENDBRANCH   4  12
BRANCH   3  27
HETATM   27  O2  UNL     1      12.947  -0.312  32.195  1.00  0.00    -0.283 OA
ATOM     28  H2  UNL     1      13.236   0.244  32.909  1.00  0.00     0.245 HD
ENDBRANCH   3  27
BRANCH  11  29
HETATM   29  O7  UNL     1       8.862  -0.382  34.475  1.00  0.00    -0.283 OA
ATOM     30  H7  UNL     1       7.928  -0.416  34.302  1.00  0.00     0.245 HD
ENDBRANCH  11  29
BRANCH   7  31
HETATM   31  S1  UNL     1      10.969  -6.648  33.939  1.00  0.00     0.185 S 
HETATM   32  O4  UNL     1      12.202  -6.966  34.758  1.00  0.00    -0.582 OA
HETATM   33  O5  UNL     1      11.070  -7.164  32.553  1.00  0.00    -0.582 OA
HETATM   34  O6  UNL     1       9.687  -7.440  34.703  1.00  0.00    -0.582 OA
ENDBRANCH   7  31
TORSDOF 12
ENDMDL
MODEL 2
REMARK VINA RESULT: -8.997160607      2.376      4.730
REMARK  12 active torsions:
REMARK  status: ('A' for Active; 'I' for Inactive)
REMARK    1  A    between atoms: N1_3  and  O2_4 
REMARK    2  A    between atoms: C2_6  and  C3_7 
REMARK    3  A    between atoms: C3_7  and  C4_8 
REMARK    4  A    between atoms: C4_8  and  C5_9 
REMARK    5  A    between atoms: C5_9  and  C6_10 
REMARK    6  A    between atoms: C6_10  and  C7_11 
REMARK    7  A    between atoms: C7_11  and  C8_12 
REMARK    8  A    between atoms: C8_12  and  C9_13 
REMARK    9  A    between atoms: C9_13  and  C10_14 
REMARK   10  A    between atoms: C12_18  and  O3_19 
REMARK   11  A    between atoms: N3_24  and  S1_25 
REMARK   12  A    between atoms: N4_32  and  O7_33 
ROOT
HETATM    1  O1  UNL     1      10.863  -5.341  33.419  1.00  0.00    -0.242 OA
HETATM    2  C1  UNL     1      10.908  -4.101  33.341  1.00  0.00     0.368 C 
HETATM    3  N1  UNL     1       9.739  -3.388  32.853  1.00  0.00    -0.203 N 
HETATM    4  C2  UNL     1      10.005  -2.180  32.106  1.00  0.00     0.127 C 
HETATM    5  C14 UNL     1      10.819  -1.338  33.091  1.00  0.00     0.051 C 
HETATM    6  C15 UNL     1      10.891   0.109  32.757  1.00  0.00     0.118 C 
HETATM    7  N3  UNL     1      11.456   0.757  33.946  1.00  0.00    -0.191 NA
HETATM    8  C16 UNL     1      12.812   0.343  34.091  1.00  0.00     0.112 C 
HETATM    9  C17 UNL     1      12.939  -1.137  34.364  1.00  0.00     0.044 C 
HETATM   10  C18 UNL     1      12.162  -1.942  33.320  1.00  0.00     0.128 C 
HETATM   11  N4  UNL     1      12.057  -3.316  33.710  1.00  0.00    -0.203 N 
ENDROOT
BRANCH   4  12
HETATM   12  C3  UNL     1      10.692  -2.378  30.841  1.00  0.00     0.028 C 
BRANCH  12  13
HETATM   13  C4  UNL     1      10.527  -1.396  29.743  1.00  0.00     0.002 C 
BRANCH  13  14
HETATM   14  C5  UNL     1      10.306  -1.865  28.364  1.00  0.00     0.000 C 
BRANCH  14  15
HETATM   15  C6  UNL     1      11.463  -1.404  27.453  1.00  0.00     0.000 C 
BRANCH  15  16
HETATM   16  C7  UNL     1      12.203  -2.538  26.829  1.00  0.00     0.000 C 
BRANCH  16  17
HETATM   17  C8  UNL     1      11.486  -3.862  27.065  1.00  0.00     0.005 C 
BRANCH  17  18
HETATM   18  C9  UNL     1      12.392  -5.044  26.842  1.00  0.00     0.040 C 
BRANCH  18  19
HETATM   19  C10 UNL     1      12.065  -6.044  27.901  1.00  0.00    -0.039 A 
HETATM   20  C11 UNL     1      11.379  -5.820  29.088  1.00  0.00     0.097 A 
HETATM   21  N2  UNL     1      11.299  -6.984  29.760  1.00  0.00    -0.347 N 
HETATM   22  C12 UNL     1      11.896  -7.963  29.075  1.00  0.00     0.140 A 
ATOM     23  H2  UNL     1      10.845  -7.101  30.666  1.00  0.00     0.167 HD
HETATM   24  C13 UNL     1      12.379  -7.404  27.921  1.00  0.00     0.064 A 
BRANCH  22  25
HETATM   25  O3  UNL     1      11.996  -9.274  29.474  1.00  0.00    -0.346 OA
ATOM     26  H3  UNL     1      12.706  -9.866  29.257  1.00  0.00     0.219 HD
ENDBRANCH  22  25
ENDBRANCH  18  19
ENDBRANCH  17  18
ENDBRANCH  16  17
ENDBRANCH  15  16
ENDBRANCH  14  15
ENDBRANCH  13  14
ENDBRANCH  12  13
ENDBRANCH   4  12
BRANCH   3  27
HETATM   27  O2  UNL     1       8.522  -3.821  33.154  1.00  0.00    -0.283 OA
ATOM     28  H2  UNL     1       7.807  -3.203  33.250  1.00  0.00     0.245 HD
ENDBRANCH   3  27
BRANCH  11  29
HETATM   29  O7  UNL     1      13.023  -3.929  34.429  1.00  0.00    -0.283 OA
ATOM     30  H7  UNL     1      13.458  -3.417  35.101  1.00  0.00     0.245 HD
ENDBRANCH  11  29
BRANCH   7  31
HETATM   31  S1  UNL     1      11.228   2.437  33.939  1.00  0.00     0.185 S 
HETATM   32  O4  UNL     1      10.693   2.955  35.258  1.00  0.00    -0.582 OA
HETATM   33  O5  UNL     1      10.362   2.818  32.798  1.00  0.00    -0.582 OA
HETATM   34  O6  UNL     1      12.734   3.176  33.727  1.00  0.00    -0.582 OA
ENDBRANCH   7  31
TORSDOF 12
ENDMDL
MODEL 3
REMARK VINA RESULT: -8.961994344      3.591      6.131
REMARK  12 active torsions:
REMARK  status: ('A' for Active; 'I' for Inactive)
REMARK    1  A    between atoms: N1_3  and  O2_4 
REMARK    2  A    between atoms: C2_6  and  C3_7 
REMARK    3  A    between atoms: C3_7  and  C4_8 
REMARK    4  A    between atoms: C4_8  and  C5_9 
REMARK    5  A    between atoms: C5_9  and  C6_10 
REMARK    6  A    between atoms: C6_10  and  C7_11 
REMARK    7  A    between atoms: C7_11  and  C8_12 
REMARK    8  A    between atoms: C8_12  and  C9_13 
REMARK    9  A    between atoms: C9_13  and  C10_14 
REMARK   10  A    between atoms: C12_18  and  O3_19 
REMARK   11  A    between atoms: N3_24  and  S1_25 
REMARK   12  A    between atoms: N4_32  and  O7_33 
ROOT
HETATM    1  O1  UNL     1      11.434  -0.481  36.088  1.00  0.00    -0.242 OA
HETATM    2  C1  UNL     1      11.135   0.260  35.136  1.00  0.00     0.368 C 
HETATM    3  N1  UNL     1       9.887   0.022  34.430  1.00  0.00    -0.203 N 
HETATM    4  C2  UNL     1       9.895   0.326  33.017  1.00  0.00     0.127 C 
HETATM    5  C14 UNL     1      10.300   1.801  32.984  1.00  0.00     0.051 C 
HETATM    6  C15 UNL     1      10.002   2.497  31.704  1.00  0.00     0.118 C 
HETATM    7  N3  UNL     1      10.198   3.925  31.980  1.00  0.00    -0.191 NA
HETATM    8  C16 UNL     1      11.584   4.158  32.214  1.00  0.00     0.112 C 
HETATM    9  C17 UNL     1      12.088   3.456  33.453  1.00  0.00     0.044 C 
HETATM   10  C18 UNL     1      11.716   1.972  33.414  1.00  0.00     0.128 C 
HETATM   11  N4  UNL     1      11.954   1.353  34.683  1.00  0.00    -0.203 N 
ENDROOT
BRANCH   4  12
HETATM   12  C3  UNL     1      10.770  -0.510  32.214  1.00  0.00     0.028 C 
BRANCH  12  13
HETATM   13  C4  UNL     1      10.349  -1.880  31.833  1.00  0.00     0.002 C 
BRANCH  13  14
HETATM   14  C5  UNL     1      10.511  -2.339  30.442  1.00  0.00     0.000 C 
BRANCH  14  15
HETATM   15  C6  UNL     1      10.569  -1.129  29.487  1.00  0.00     0.000 C 
BRANCH  15  16
HETATM   16  C7  UNL     1      11.091  -1.477  28.134  1.00  0.00     0.000 C 
BRANCH  16  17
HETATM   17  C8  UNL     1      10.675  -2.886  27.727  1.00  0.00     0.005 C 
BRANCH  17  18
HETATM   18  C9  UNL     1      11.767  -3.606  26.981  1.00  0.00     0.040 C 
BRANCH  18  19
HETATM   19  C10 UNL     1      11.802  -5.002  27.508  1.00  0.00    -0.039 A 
HETATM   20  C11 UNL     1      11.455  -5.430  28.783  1.00  0.00     0.097 A 
HETATM   21  N2  UNL     1      11.630  -6.762  28.848  1.00  0.00    -0.347 N 
HETATM   22  C12 UNL     1      12.074  -7.234  27.680  1.00  0.00     0.140 A 
ATOM     23  H2  UNL     1      11.449  -7.333  29.674  1.00  0.00     0.167 HD
HETATM   24  C13 UNL     1      12.190  -6.162  26.836  1.00  0.00     0.064 A 
BRANCH  22  25
HETATM   25  O3  UNL     1      12.357  -8.550  27.403  1.00  0.00    -0.346 OA
ATOM     26  H3  UNL     1      12.840  -9.143  27.966  1.00  0.00     0.219 HD
ENDBRANCH  22  25
ENDBRANCH  18  19
ENDBRANCH  17  18
ENDBRANCH  16  17
ENDBRANCH  15  16
ENDBRANCH  14  15
ENDBRANCH  13  14
ENDBRANCH  12  13
ENDBRANCH   4  12
BRANCH   3  27
HETATM   27  O2  UNL     1       8.813  -0.386  35.094  1.00  0.00    -0.283 OA
ATOM     28  H2  UNL     1       8.351  -1.168  34.817  1.00  0.00     0.245 HD
ENDBRANCH   3  27
BRANCH  11  29
HETATM   29  O7  UNL     1      12.951   1.761  35.499  1.00  0.00    -0.283 OA
ATOM     30  H7  UNL     1      13.799   1.929  35.103  1.00  0.00     0.245 HD
ENDBRANCH  11  29
BRANCH   7  31
HETATM   31  S1  UNL     1       9.505   4.916  30.792  1.00  0.00     0.185 S 
HETATM   32  O4  UNL     1      10.289   6.193  30.573  1.00  0.00    -0.582 OA
HETATM   33  O5  UNL     1       8.087   5.183  31.129  1.00  0.00    -0.582 OA
HETATM   34  O6  UNL     1       9.549   4.087  29.319  1.00  0.00    -0.582 OA
ENDBRANCH   7  31
TORSDOF 12
ENDMDL
MODEL 4
REMARK VINA RESULT: -8.940095424      1.025      1.208
REMARK  12 active torsions:
REMARK  status: ('A' for Active; 'I' for Inactive)
REMARK    1  A    between atoms: N1_3  and  O2_4 
REMARK    2  A    between atoms: C2_6  and  C3_7 
REMARK    3  A    between atoms: C3_7  and  C4_8 
REMARK    4  A    between atoms: C4_8  and  C5_9 
REMARK    5  A    between atoms: C5_9  and  C6_10 
REMARK    6  A    between atoms: C6_10  and  C7_11 
REMARK    7  A    between atoms: C7_11  and  C8_12 
REMARK    8  A    between atoms: C8_12  and  C9_13 
REMARK    9  A    between atoms: C9_13  and  C10_14 
REMARK   10  A    between atoms: C12_18  and  O3_19 
REMARK   11  A    between atoms: N3_24  and  S1_25 
REMARK   12  A    between atoms: N4_32  and  O7_33 
ROOT
HETATM    1  O1  UNL     1      10.406   1.070  33.080  1.00  0.00    -0.242 OA
HETATM    2  C1  UNL     1      10.611  -0.142  33.260  1.00  0.00     0.368 C 
HETATM    3  N1  UNL     1      11.774  -0.754  32.640  1.00  0.00    -0.203 N 
HETATM    4  C2  UNL     1      11.621  -2.133  32.235  1.00  0.00     0.127 C 
HETATM    5  C14 UNL     1      11.232  -2.833  33.539  1.00  0.00     0.051 C 
HETATM    6  C15 UNL     1      11.401  -4.310  33.523  1.00  0.00     0.118 C 
HETATM    7  N3  UNL     1      11.252  -4.736  34.920  1.00  0.00    -0.191 NA
HETATM    8  C16 UNL     1       9.902  -4.523  35.321  1.00  0.00     0.112 C 
HETATM    9  C17 UNL     1       9.523  -3.060  35.323  1.00  0.00     0.044 C 
HETATM   10  C18 UNL     1       9.871  -2.416  33.979  1.00  0.00     0.128 C 
HETATM   11  N4  UNL     1       9.761  -0.990  34.054  1.00  0.00    -0.203 N 
ENDROOT
BRANCH   4  12
HETATM   12  C3  UNL     1      10.655  -2.358  31.173  1.00  0.00     0.028 C 
BRANCH  12  13
HETATM   13  C4  UNL     1      10.646  -1.481  29.977  1.00  0.00     0.002 C 
BRANCH  13  14
HETATM   14  C5  UNL     1      10.374  -2.054  28.647  1.00  0.00     0.000 C 
BRANCH  14  15
HETATM   15  C6  UNL     1      11.418  -1.549  27.629  1.00  0.00     0.000 C 
BRANCH  15  16
HETATM   16  C7  UNL     1      12.105  -2.655  26.900  1.00  0.00     0.000 C 
BRANCH  16  17
HETATM   17  C8  UNL     1      11.407  -3.990  27.138  1.00  0.00     0.005 C 
BRANCH  17  18
HETATM   18  C9  UNL     1      12.338  -5.157  26.945  1.00  0.00     0.040 C 
BRANCH  18  19
HETATM   19  C10 UNL     1      12.017  -6.146  28.016  1.00  0.00    -0.039 A 
HETATM   20  C11 UNL     1      12.337  -7.498  28.037  1.00  0.00     0.097 A 
HETATM   21  N2  UNL     1      11.865  -8.030  29.180  1.00  0.00    -0.347 N 
HETATM   22  C12 UNL     1      11.252  -7.096  29.913  1.00  0.00     0.140 A 
ATOM     23  H2  UNL     1      11.962  -9.009  29.448  1.00  0.00     0.167 HD
HETATM   24  C13 UNL     1      11.333  -5.922  29.211  1.00  0.00     0.064 A 
BRANCH  22  25
HETATM   25  O3  UNL     1      10.659  -7.300  31.135  1.00  0.00    -0.346 OA
ATOM     26  H3  UNL     1      11.113  -7.514  31.942  1.00  0.00     0.219 HD
ENDBRANCH  22  25
ENDBRANCH  18  19
ENDBRANCH  17  18
ENDBRANCH  16  17
ENDBRANCH  15  16
ENDBRANCH  14  15
ENDBRANCH  13  14
ENDBRANCH  12  13
ENDBRANCH   4  12
BRANCH   3  27
HETATM   27  O2  UNL     1      12.907  -0.072  32.531  1.00  0.00    -0.283 OA
ATOM     28  H2  UNL     1      13.727  -0.530  32.389  1.00  0.00     0.245 HD
ENDBRANCH   3  27
BRANCH  11  29
HETATM   29  O7  UNL     1       8.860  -0.386  34.861  1.00  0.00    -0.283 OA
ATOM     30  H7  UNL     1       8.642  -0.823  35.676  1.00  0.00     0.245 HD
ENDBRANCH  11  29
BRANCH   7  31
HETATM   31  S1  UNL     1      11.827  -6.309  35.183  1.00  0.00     0.185 S 
HETATM   32  O4  UNL     1      13.269  -6.330  35.644  1.00  0.00    -0.582 OA
HETATM   33  O5  UNL     1      11.618  -7.127  33.965  1.00  0.00    -0.582 OA
HETATM   34  O6  UNL     1      10.929  -6.998  36.439  1.00  0.00    -0.582 OA
ENDBRANCH   7  31
TORSDOF 12
ENDMDL
MODEL 5
REMARK VINA RESULT: -8.794696798      1.966      3.491
REMARK  12 active torsions:
REMARK  status: ('A' for Active; 'I' for Inactive)
REMARK    1  A    between atoms: N1_3  and  O2_4 
REMARK    2  A    between atoms: C2_6  and  C3_7 
REMARK    3  A    between atoms: C3_7  and  C4_8 
REMARK    4  A    between atoms: C4_8  and  C5_9 
REMARK    5  A    between atoms: C5_9  and  C6_10 
REMARK    6  A    between atoms: C6_10  and  C7_11 
REMARK    7  A    between atoms: C7_11  and  C8_12 
REMARK    8  A    between atoms: C8_12  and  C9_13 
REMARK    9  A    between atoms: C9_13  and  C10_14 
REMARK   10  A    between atoms: C12_18  and  O3_19 
REMARK   11  A    between atoms: N3_24  and  S1_25 
REMARK   12  A    between atoms: N4_32  and  O7_33 
ROOT
HETATM    1  O1  UNL     1       9.809   0.102  32.360  1.00  0.00    -0.242 OA
HETATM    2  C1  UNL     1      10.170  -0.992  32.827  1.00  0.00     0.368 C 
HETATM    3  N1  UNL     1      11.229  -1.724  32.152  1.00  0.00    -0.203 N 
HETATM    4  C2  UNL     1      11.134  -3.165  32.210  1.00  0.00     0.127 C 
HETATM    5  C14 UNL     1      11.108  -3.449  33.713  1.00  0.00     0.051 C 
HETATM    6  C15 UNL     1      11.420  -4.856  34.083  1.00  0.00     0.118 C 
HETATM    7  N3  UNL     1      11.620  -4.842  35.537  1.00  0.00    -0.191 NA
HETATM    8  C16 UNL     1      10.372  -4.562  36.166  1.00  0.00     0.112 C 
HETATM    9  C17 UNL     1       9.856  -3.181  35.837  1.00  0.00     0.044 C 
HETATM   10  C18 UNL     1       9.839  -2.964  34.323  1.00  0.00     0.128 C 
HETATM   11  N4  UNL     1       9.602  -1.586  34.008  1.00  0.00    -0.203 N 
ENDROOT
BRANCH   4  12
HETATM   12  C3  UNL     1       9.990  -3.733  31.516  1.00  0.00     0.028 C 
BRANCH  12  13
HETATM   13  C4  UNL     1      10.157  -4.938  30.668  1.00  0.00     0.002 C 
BRANCH  13  14
HETATM   14  C5  UNL     1      11.504  -5.479  30.415  1.00  0.00     0.000 C 
BRANCH  14  15
HETATM   15  C6  UNL     1      11.465  -6.468  29.231  1.00  0.00     0.000 C 
BRANCH  15  16
HETATM   16  C7  UNL     1      12.466  -6.150  28.172  1.00  0.00     0.000 C 
BRANCH  16  17
HETATM   17  C8  UNL     1      11.805  -5.487  26.968  1.00  0.00     0.005 C 
BRANCH  17  18
HETATM   18  C9  UNL     1      12.335  -4.099  26.724  1.00  0.00     0.040 C 
BRANCH  18  19
HETATM   19  C10 UNL     1      11.408  -3.156  27.415  1.00  0.00    -0.039 A 
HETATM   20  C11 UNL     1      10.025  -3.247  27.502  1.00  0.00     0.097 A 
HETATM   21  N2  UNL     1       9.572  -2.196  28.210  1.00  0.00    -0.347 N 
HETATM   22  C12 UNL     1      10.587  -1.417  28.593  1.00  0.00     0.140 A 
ATOM     23  H2  UNL     1       8.590  -2.018  28.423  1.00  0.00     0.167 HD
HETATM   24  C13 UNL     1      11.734  -1.991  28.111  1.00  0.00     0.064 A 
BRANCH  22  25
HETATM   25  O3  UNL     1      10.477  -0.262  29.330  1.00  0.00    -0.346 OA
ATOM     26  H3  UNL     1      11.174   0.143  29.831  1.00  0.00     0.219 HD
ENDBRANCH  22  25
ENDBRANCH  18  19
ENDBRANCH  17  18
ENDBRANCH  16  17
ENDBRANCH  15  16
ENDBRANCH  14  15
ENDBRANCH  13  14
ENDBRANCH  12  13
ENDBRANCH   4  12
BRANCH   3  27
HETATM   27  O2  UNL     1      12.236  -1.071  31.589  1.00  0.00    -0.283 OA
ATOM     28  H2  UNL     1      12.085  -0.534  30.820  1.00  0.00     0.245 HD
ENDBRANCH   3  27
BRANCH  11  29
HETATM   29  O7  UNL     1       8.840  -0.796  34.796  1.00  0.00    -0.283 OA
ATOM     30  H7  UNL     1       9.092  -0.717  35.709  1.00  0.00     0.245 HD
ENDBRANCH  11  29
BRANCH   7  31
HETATM   31  S1  UNL     1      12.395  -6.242  36.098  1.00  0.00     0.185 S 
HETATM   32  O4  UNL     1      11.735  -6.814  37.335  1.00  0.00    -0.582 OA
HETATM   33  O5  UNL     1      13.835  -5.963  36.312  1.00  0.00    -0.582 OA
HETATM   34  O6  UNL     1      12.262  -7.435  34.907  1.00  0.00    -0.582 OA
ENDBRANCH   7  31
TORSDOF 12
ENDMDL
