MODEL 1
REMARK VINA RESULT: -7.904910557      0.000      0.000
REMARK  13 active torsions:
REMARK  status: ('A' for Active; 'I' for Inactive)
REMARK    1  A    between atoms: N1_1  and  C1_5 
REMARK    2  A    between atoms: C1_5  and  C2_6 
REMARK    3  A    between atoms: C2_6  and  C3_7 
REMARK    4  A    between atoms: C3_7  and  N2_8 
REMARK    5  A    between atoms: N2_8  and  C4_10 
REMARK    6  A    between atoms: C5_13  and  N4_14 
REMARK    7  A    between atoms: N4_14  and  C6_16 
REMARK    8  A    between atoms: C6_16  and  C7_17 
REMARK    9  A    between atoms: C6_16  and  C8_20 
REMARK   10  A    between atoms: C7_17  and  O1_18 
REMARK   11  A    between atoms: C8_20  and  C9_21 
REMARK   12  A    between atoms: C15_29  and  N6_30 
REMARK   13  A    between atoms: N7_33  and  C18_34 
ROOT
HETATM    1  C4  UNL     1      10.580  -2.341  31.425  1.00  0.00     0.148 A 
HETATM    2  N3  UNL     1      10.778  -3.705  31.454  1.00  0.00    -0.174 N 
ATOM      3  H3  UNL     1      10.752  -4.206  30.566  1.00  0.00     0.186 HD
HETATM    4  C5  UNL     1      11.003  -4.420  32.560  1.00  0.00     0.680 A 
HETATM    5  N5  UNL     1      11.037  -3.772  33.710  1.00  0.00    -0.200 N 
ATOM      6  H5  UNL     1      11.207  -4.303  34.564  1.00  0.00     0.183 HD
HETATM    7  C14 UNL     1      10.858  -2.445  33.805  1.00  0.00     0.139 A 
HETATM    8  C15 UNL     1      10.623  -1.702  32.635  1.00  0.00     0.091 A 
ENDROOT
BRANCH   4   9
HETATM    9  N4  UNL     1      11.185  -5.691  32.489  1.00  0.00    -0.219 N 
ATOM     10  H4  UNL     1      12.098  -6.078  32.728  1.00  0.00     0.178 HD
BRANCH   9  11
HETATM   11  C6  UNL     1      10.078  -6.625  32.061  1.00  0.00     0.123 C 
BRANCH  11  12
HETATM   12  C7  UNL     1       9.698  -7.289  33.363  1.00  0.00     0.189 C 
BRANCH  12  13
HETATM   13  O1  UNL     1       9.219  -6.413  34.271  1.00  0.00    -0.399 OA
ATOM     14  H1  UNL     1       8.885  -6.842  35.050  1.00  0.00     0.209 HD
ENDBRANCH  12  13
ENDBRANCH  11  12
BRANCH  11  15
HETATM   15  C8  UNL     1      10.781  -7.559  31.150  1.00  0.00     0.032 C 
BRANCH  15  16
HETATM   16  C9  UNL     1      11.213  -7.308  29.822  1.00  0.00    -0.013 C 
HETATM   17  C10 UNL     1      11.911  -6.108  29.323  1.00  0.00     0.005 C 
HETATM   18  C11 UNL     1      11.769  -6.411  27.787  1.00  0.00     0.000 C 
HETATM   19  C12 UNL     1      12.126  -7.906  27.741  1.00  0.00     0.000 C 
HETATM   20  C13 UNL     1      12.065  -8.405  29.173  1.00  0.00     0.005 C 
ENDBRANCH  15  16
ENDBRANCH  11  15
ENDBRANCH   9  11
ENDBRANCH   4   9
BRANCH   1  21
HETATM   21  N2  UNL     1      10.393  -1.766  30.360  1.00  0.00    -0.354 N 
ATOM     22  H2  UNL     1       9.376  -1.698  30.324  1.00  0.00     0.166 HD
BRANCH  21  23
HETATM   23  C3  UNL     1      10.764  -1.174  29.213  1.00  0.00     0.064 C 
BRANCH  23  24
HETATM   24  C2  UNL     1      10.656  -1.995  27.937  1.00  0.00     0.072 C 
BRANCH  24  25
HETATM   25  C1  UNL     1      11.859  -1.795  27.054  1.00  0.00     0.234 C 
BRANCH  25  26
HETATM   26  N1  UNL     1      12.375  -3.047  26.573  1.00  0.00    -0.079 N 
ATOM     27  H13 UNL     1      13.043  -3.452  27.229  1.00  0.00     0.274 HD
ATOM     28  H12 UNL     1      11.664  -3.778  26.600  1.00  0.00     0.274 HD
ATOM     29  H11 UNL     1      12.778  -2.953  25.641  1.00  0.00     0.274 HD
ENDBRANCH  25  26
ENDBRANCH  24  25
ENDBRANCH  23  24
ENDBRANCH  21  23
ENDBRANCH   1  21
BRANCH   8  30
HETATM   30  N6  UNL     1      10.435  -0.320  32.851  1.00  0.00    -0.374 N 
HETATM   31  C16 UNL     1      11.518   0.593  32.997  1.00  0.00     0.143 C 
HETATM   32  C17 UNL     1      10.936   1.964  33.413  1.00  0.00     0.145 C 
HETATM   33  N7  UNL     1       9.951   2.381  32.435  1.00  0.00    -0.358 N 
HETATM   34  C21 UNL     1       8.964   1.435  31.992  1.00  0.00     0.145 C 
HETATM   35  C22 UNL     1       9.063   0.197  32.901  1.00  0.00     0.143 C 
BRANCH  33  36
HETATM   36  C18 UNL     1       9.986   3.708  31.924  1.00  0.00     0.146 A 
HETATM   37  N8  UNL     1       9.133   4.337  31.139  1.00  0.00    -0.346 N 
HETATM   38  C19 UNL     1       9.349   5.555  30.769  1.00  0.00     0.097 A 
ATOM     39  H8  UNL     1       8.292   3.855  30.820  1.00  0.00     0.167 HD
HETATM   40  C20 UNL     1      10.487   6.167  31.213  1.00  0.00     0.070 A 
HETATM   41  S1  UNL     1      11.194   4.919  32.168  1.00  0.00    -0.065 SA
ENDBRANCH  33  36
ENDBRANCH   8  30
TORSDOF 13
ENDMDL
MODEL 2
REMARK VINA RESULT: -7.821328897      4.429      9.325
REMARK  13 active torsions:
REMARK  status: ('A' for Active; 'I' for Inactive)
REMARK    1  A    between atoms: N1_1  and  C1_5 
REMARK    2  A    between atoms: C1_5  and  C2_6 
REMARK    3  A    between atoms: C2_6  and  C3_7 
REMARK    4  A    between atoms: C3_7  and  N2_8 
REMARK    5  A    between atoms: N2_8  and  C4_10 
REMARK    6  A    between atoms: C5_13  and  N4_14 
REMARK    7  A    between atoms: N4_14  and  C6_16 
REMARK    8  A    between atoms: C6_16  and  C7_17 
REMARK    9  A    between atoms: C6_16  and  C8_20 
REMARK   10  A    between atoms: C7_17  and  O1_18 
REMARK   11  A    between atoms: C8_20  and  C9_21 
REMARK   12  A    between atoms: C15_29  and  N6_30 
REMARK   13  A    between atoms: N7_33  and  C18_34 
ROOT
HETATM    1  C4  UNL     1      10.383  -5.882  32.255  1.00  0.00     0.148 A 
HETATM    2  N3  UNL     1      10.302  -4.577  31.815  1.00  0.00    -0.174 N 
ATOM      3  H3  UNL     1      10.469  -4.401  30.825  1.00  0.00     0.186 HD
HETATM    4  C5  UNL     1      10.020  -3.527  32.591  1.00  0.00     0.680 A 
HETATM    5  N5  UNL     1       9.803  -3.755  33.873  1.00  0.00    -0.200 N 
ATOM      6  H5  UNL     1       9.587  -2.964  34.479  1.00  0.00     0.183 HD
HETATM    7  C14 UNL     1       9.856  -4.982  34.415  1.00  0.00     0.139 A 
HETATM    8  C15 UNL     1      10.153  -6.081  33.590  1.00  0.00     0.091 A 
ENDROOT
BRANCH   4   9
HETATM    9  N4  UNL     1       9.957  -2.345  32.090  1.00  0.00    -0.219 N 
ATOM     10  H4  UNL     1       9.082  -1.824  32.147  1.00  0.00     0.178 HD
BRANCH   9  11
HETATM   11  C6  UNL     1      11.151  -1.707  31.418  1.00  0.00     0.123 C 
BRANCH  11  12
HETATM   12  C7  UNL     1      11.273  -0.398  32.161  1.00  0.00     0.189 C 
BRANCH  12  13
HETATM   13  O1  UNL     1      12.557  -0.036  32.366  1.00  0.00    -0.399 OA
ATOM     14  H1  UNL     1      13.175  -0.683  32.046  1.00  0.00     0.209 HD
ENDBRANCH  12  13
ENDBRANCH  11  12
BRANCH  11  15
HETATM   15  C8  UNL     1      10.670  -1.510  30.030  1.00  0.00     0.032 C 
BRANCH  15  16
HETATM   16  C9  UNL     1      11.119  -2.174  28.859  1.00  0.00    -0.013 C 
HETATM   17  C10 UNL     1      10.442  -3.272  28.142  1.00  0.00     0.005 C 
HETATM   18  C11 UNL     1      11.636  -3.669  27.200  1.00  0.00     0.000 C 
HETATM   19  C12 UNL     1      12.128  -2.287  26.741  1.00  0.00     0.000 C 
HETATM   20  C13 UNL     1      11.496  -1.273  27.677  1.00  0.00     0.005 C 
ENDBRANCH  15  16
ENDBRANCH  11  15
ENDBRANCH   9  11
ENDBRANCH   4   9
BRANCH   1  21
HETATM   21  N2  UNL     1      10.636  -6.785  31.468  1.00  0.00    -0.354 N 
ATOM     22  H2  UNL     1      10.917  -7.544  32.089  1.00  0.00     0.166 HD
BRANCH  21  23
HETATM   23  C3  UNL     1      10.754  -7.346  30.254  1.00  0.00     0.064 C 
BRANCH  23  24
HETATM   24  C2  UNL     1      11.748  -6.719  29.288  1.00  0.00     0.072 C 
BRANCH  24  25
HETATM   25  C1  UNL     1      12.263  -7.730  28.298  1.00  0.00     0.234 C 
BRANCH  25  26
HETATM   26  N1  UNL     1      11.954  -7.351  26.948  1.00  0.00    -0.079 N 
ATOM     27  H13 UNL     1      12.063  -8.136  26.306  1.00  0.00     0.274 HD
ATOM     28  H12 UNL     1      10.954  -7.186  26.826  1.00  0.00     0.274 HD
ATOM     29  H11 UNL     1      12.504  -6.545  26.649  1.00  0.00     0.274 HD
ENDBRANCH  25  26
ENDBRANCH  24  25
ENDBRANCH  23  24
ENDBRANCH  21  23
ENDBRANCH   1  21
BRANCH   8  30
HETATM   30  N6  UNL     1      10.196  -7.320  34.264  1.00  0.00    -0.374 N 
HETATM   31  C16 UNL     1       9.062  -7.884  34.915  1.00  0.00     0.143 C 
HETATM   32  C17 UNL     1       9.532  -9.130  35.702  1.00  0.00     0.145 C 
HETATM   33  N7  UNL     1      10.196 -10.044  34.794  1.00  0.00    -0.358 N 
HETATM   34  C21 UNL     1      11.173  -9.528  33.875  1.00  0.00     0.145 C 
HETATM   35  C22 UNL     1      11.458  -8.067  34.269  1.00  0.00     0.143 C 
BRANCH  33  36
HETATM   36  C18 UNL     1       9.863 -11.427  34.821  1.00  0.00     0.146 A 
HETATM   37  N8  UNL     1      10.357 -12.405  35.556  1.00  0.00    -0.346 N 
HETATM   38  C19 UNL     1       9.926 -13.614  35.423  1.00  0.00     0.097 A 
ATOM     39  H8  UNL     1      11.089 -12.202  36.238  1.00  0.00     0.167 HD
HETATM   40  C20 UNL     1       8.948 -13.848  34.498  1.00  0.00     0.070 A 
HETATM   41  S1  UNL     1       8.696 -12.266  33.861  1.00  0.00    -0.065 SA
ENDBRANCH  33  36
ENDBRANCH   8  30
TORSDOF 13
ENDMDL
MODEL 3
REMARK VINA RESULT: -7.796850988      1.703      3.861
REMARK  13 active torsions:
REMARK  status: ('A' for Active; 'I' for Inactive)
REMARK    1  A    between atoms: N1_1  and  C1_5 
REMARK    2  A    between atoms: C1_5  and  C2_6 
REMARK    3  A    between atoms: C2_6  and  C3_7 
REMARK    4  A    between atoms: C3_7  and  N2_8 
REMARK    5  A    between atoms: N2_8  and  C4_10 
REMARK    6  A    between atoms: C5_13  and  N4_14 
REMARK    7  A    between atoms: N4_14  and  C6_16 
REMARK    8  A    between atoms: C6_16  and  C7_17 
REMARK    9  A    between atoms: C6_16  and  C8_20 
REMARK   10  A    between atoms: C7_17  and  O1_18 
REMARK   11  A    between atoms: C8_20  and  C9_21 
REMARK   12  A    between atoms: C15_29  and  N6_30 
REMARK   13  A    between atoms: N7_33  and  C18_34 
ROOT
HETATM    1  C4  UNL     1      11.680  -2.624  33.411  1.00  0.00     0.148 A 
HETATM    2  N3  UNL     1      11.786  -3.925  32.967  1.00  0.00    -0.174 N 
ATOM      3  H3  UNL     1      12.376  -4.561  33.504  1.00  0.00     0.186 HD
HETATM    4  C5  UNL     1      11.174  -4.416  31.885  1.00  0.00     0.680 A 
HETATM    5  N5  UNL     1      10.412  -3.593  31.190  1.00  0.00    -0.200 N 
ATOM      6  H5  UNL     1       9.938  -3.951  30.361  1.00  0.00     0.183 HD
HETATM    7  C14 UNL     1      10.233  -2.305  31.525  1.00  0.00     0.139 A 
HETATM    8  C15 UNL     1      10.881  -1.799  32.665  1.00  0.00     0.091 A 
ENDROOT
BRANCH   4   9
HETATM    9  N4  UNL     1      11.327  -5.648  31.552  1.00  0.00    -0.219 N 
ATOM     10  H4  UNL     1      11.966  -6.234  32.089  1.00  0.00     0.178 HD
BRANCH   9  11
HETATM   11  C6  UNL     1      10.581  -6.249  30.385  1.00  0.00     0.123 C 
BRANCH  11  12
HETATM   12  C7  UNL     1      10.247  -7.630  30.896  1.00  0.00     0.189 C 
BRANCH  12  13
HETATM   13  O1  UNL     1      11.007  -8.591  30.328  1.00  0.00    -0.399 OA
ATOM     14  H1  UNL     1      11.307  -9.238  30.956  1.00  0.00     0.209 HD
ENDBRANCH  12  13
ENDBRANCH  11  12
BRANCH  11  15
HETATM   15  C8  UNL     1      11.619  -6.289  29.327  1.00  0.00     0.032 C 
BRANCH  15  16
HETATM   16  C9  UNL     1      11.841  -5.335  28.300  1.00  0.00    -0.013 C 
HETATM   17  C10 UNL     1      12.055  -5.603  26.865  1.00  0.00     0.005 C 
HETATM   18  C11 UNL     1      12.524  -4.161  26.454  1.00  0.00     0.000 C 
HETATM   19  C12 UNL     1      11.500  -3.288  27.197  1.00  0.00     0.000 C 
HETATM   20  C13 UNL     1      10.822  -4.193  28.211  1.00  0.00     0.005 C 
ENDBRANCH  15  16
ENDBRANCH  11  15
ENDBRANCH   9  11
ENDBRANCH   4   9
BRANCH   1  21
HETATM   21  N2  UNL     1      12.269  -2.266  34.422  1.00  0.00    -0.354 N 
ATOM     22  H2  UNL     1      13.091  -1.797  34.043  1.00  0.00     0.166 HD
BRANCH  21  23
HETATM   23  C3  UNL     1      12.449  -2.137  35.747  1.00  0.00     0.064 C 
BRANCH  23  24
HETATM   24  C2  UNL     1      11.871  -0.898  36.413  1.00  0.00     0.072 C 
BRANCH  24  25
HETATM   25  C1  UNL     1      10.372  -0.984  36.521  1.00  0.00     0.234 C 
BRANCH  25  26
HETATM   26  N1  UNL     1       9.772   0.320  36.588  1.00  0.00    -0.079 N 
ATOM     27  H13 UNL     1      10.232   0.906  37.285  1.00  0.00     0.274 HD
ATOM     28  H12 UNL     1       9.983   0.870  35.755  1.00  0.00     0.274 HD
ATOM     29  H11 UNL     1       8.767   0.263  36.752  1.00  0.00     0.274 HD
ENDBRANCH  25  26
ENDBRANCH  24  25
ENDBRANCH  23  24
ENDBRANCH  21  23
ENDBRANCH   1  21
BRANCH   8  30
HETATM   30  N6  UNL     1      10.635  -0.432  32.917  1.00  0.00    -0.374 N 
HETATM   31  C16 UNL     1      11.676   0.533  33.024  1.00  0.00     0.143 C 
HETATM   32  C17 UNL     1      11.047   1.865  33.496  1.00  0.00     0.145 C 
HETATM   33  N7  UNL     1       9.994   2.246  32.577  1.00  0.00    -0.358 N 
HETATM   34  C21 UNL     1       9.034   1.258  32.167  1.00  0.00     0.145 C 
HETATM   35  C22 UNL     1       9.243   0.012  33.046  1.00  0.00     0.143 C 
BRANCH  33  36
HETATM   36  C18 UNL     1       9.934   3.581  32.091  1.00  0.00     0.146 A 
HETATM   37  N8  UNL     1       9.217   4.097  31.111  1.00  0.00    -0.346 N 
HETATM   38  C19 UNL     1       9.313   5.348  30.809  1.00  0.00     0.097 A 
ATOM     39  H8  UNL     1       8.578   3.499  30.587  1.00  0.00     0.167 HD
HETATM   40  C20 UNL     1      10.180   6.118  31.532  1.00  0.00     0.070 A 
HETATM   41  S1  UNL     1      10.820   4.961  32.639  1.00  0.00    -0.065 SA
ENDBRANCH  33  36
ENDBRANCH   8  30
TORSDOF 13
ENDMDL
MODEL 4
REMARK VINA RESULT: -7.750736832      5.627     10.449
REMARK  13 active torsions:
REMARK  status: ('A' for Active; 'I' for Inactive)
REMARK    1  A    between atoms: N1_1  and  C1_5 
REMARK    2  A    between atoms: C1_5  and  C2_6 
REMARK    3  A    between atoms: C2_6  and  C3_7 
REMARK    4  A    between atoms: C3_7  and  N2_8 
REMARK    5  A    between atoms: N2_8  and  C4_10 
REMARK    6  A    between atoms: C5_13  and  N4_14 
REMARK    7  A    between atoms: N4_14  and  C6_16 
REMARK    8  A    between atoms: C6_16  and  C7_17 
REMARK    9  A    between atoms: C6_16  and  C8_20 
REMARK   10  A    between atoms: C7_17  and  O1_18 
REMARK   11  A    between atoms: C8_20  and  C9_21 
REMARK   12  A    between atoms: C15_29  and  N6_30 
REMARK   13  A    between atoms: N7_33  and  C18_34 
ROOT
HETATM    1  C4  UNL     1      10.329  -7.039  32.334  1.00  0.00     0.148 A 
HETATM    2  N3  UNL     1      10.797  -6.270  31.289  1.00  0.00    -0.174 N 
ATOM      3  H3  UNL     1      10.784  -5.257  31.405  1.00  0.00     0.186 HD
HETATM    4  C5  UNL     1      11.266  -6.755  30.135  1.00  0.00     0.680 A 
HETATM    5  N5  UNL     1      11.282  -8.066  29.986  1.00  0.00    -0.200 N 
ATOM      6  H5  UNL     1      11.637  -8.453  29.111  1.00  0.00     0.183 HD
HETATM    7  C14 UNL     1      10.852  -8.915  30.934  1.00  0.00     0.139 A 
HETATM    8  C15 UNL     1      10.361  -8.395  32.143  1.00  0.00     0.091 A 
ENDROOT
BRANCH   4   9
HETATM    9  N4  UNL     1      11.690  -5.960  29.219  1.00  0.00    -0.219 N 
ATOM     10  H4  UNL     1      12.033  -5.035  29.480  1.00  0.00     0.178 HD
BRANCH   9  11
HETATM   11  C6  UNL     1      11.691  -6.362  27.763  1.00  0.00     0.123 C 
BRANCH  11  12
HETATM   12  C7  UNL     1      12.783  -7.404  27.720  1.00  0.00     0.189 C 
BRANCH  12  13
HETATM   13  O1  UNL     1      12.348  -8.592  27.251  1.00  0.00    -0.399 OA
ATOM     14  H1  UNL     1      12.463  -8.678  26.312  1.00  0.00     0.209 HD
ENDBRANCH  12  13
ENDBRANCH  11  12
BRANCH  11  15
HETATM   15  C8  UNL     1      12.099  -5.109  27.085  1.00  0.00     0.032 C 
BRANCH  15  16
HETATM   16  C9  UNL     1      11.691  -3.785  27.397  1.00  0.00    -0.013 C 
HETATM   17  C10 UNL     1      12.191  -2.533  26.798  1.00  0.00     0.005 C 
HETATM   18  C11 UNL     1      11.538  -1.539  27.826  1.00  0.00     0.000 C 
HETATM   19  C12 UNL     1      10.124  -2.127  27.956  1.00  0.00     0.000 C 
HETATM   20  C13 UNL     1      10.182  -3.520  27.356  1.00  0.00     0.005 C 
ENDBRANCH  15  16
ENDBRANCH  11  15
ENDBRANCH   9  11
ENDBRANCH   4   9
BRANCH   1  21
HETATM   21  N2  UNL     1       9.928  -6.507  33.361  1.00  0.00    -0.354 N 
ATOM     22  H2  UNL     1       9.140  -7.100  33.622  1.00  0.00     0.166 HD
BRANCH  21  23
HETATM   23  C3  UNL     1       9.934  -5.589  34.341  1.00  0.00     0.064 C 
BRANCH  23  24
HETATM   24  C2  UNL     1      11.244  -5.367  35.082  1.00  0.00     0.072 C 
BRANCH  24  25
HETATM   25  C1  UNL     1      12.093  -4.331  34.395  1.00  0.00     0.234 C 
BRANCH  25  26
HETATM   26  N1  UNL     1      13.090  -3.795  35.279  1.00  0.00    -0.079 N 
ATOM     27  H13 UNL     1      12.759  -2.952  35.747  1.00  0.00     0.274 HD
ATOM     28  H12 UNL     1      13.221  -4.389  36.097  1.00  0.00     0.274 HD
ATOM     29  H11 UNL     1      13.972  -3.629  34.793  1.00  0.00     0.274 HD
ENDBRANCH  25  26
ENDBRANCH  24  25
ENDBRANCH  23  24
ENDBRANCH  21  23
ENDBRANCH   1  21
BRANCH   8  30
HETATM   30  N6  UNL     1       9.923  -9.373  33.062  1.00  0.00    -0.374 N 
HETATM   31  C16 UNL     1       9.237 -10.555  32.664  1.00  0.00     0.143 C 
HETATM   32  C17 UNL     1       8.747 -11.277  33.940  1.00  0.00     0.145 C 
HETATM   33  N7  UNL     1       9.878 -11.527  34.811  1.00  0.00    -0.358 N 
HETATM   34  C21 UNL     1      10.813 -10.465  35.061  1.00  0.00     0.145 C 
HETATM   35  C22 UNL     1      10.213  -9.170  34.486  1.00  0.00     0.143 C 
BRANCH  33  36
HETATM   36  C18 UNL     1      10.048 -12.814  35.391  1.00  0.00     0.146 A 
HETATM   37  N8  UNL     1      10.422 -13.952  34.836  1.00  0.00    -0.346 N 
HETATM   38  C19 UNL     1      10.506 -15.032  35.538  1.00  0.00     0.097 A 
ATOM     39  H8  UNL     1      10.647 -13.978  33.842  1.00  0.00     0.167 HD
HETATM   40  C20 UNL     1      10.195 -14.961  36.866  1.00  0.00     0.070 A 
HETATM   41  S1  UNL     1       9.793 -13.293  37.032  1.00  0.00    -0.065 SA
ENDBRANCH  33  36
ENDBRANCH   8  30
TORSDOF 13
ENDMDL
MODEL 5
REMARK VINA RESULT: -7.748109461      2.717      4.751
REMARK  13 active torsions:
REMARK  status: ('A' for Active; 'I' for Inactive)
REMARK    1  A    between atoms: N1_1  and  C1_5 
REMARK    2  A    between atoms: C1_5  and  C2_6 
REMARK    3  A    between atoms: C2_6  and  C3_7 
REMARK    4  A    between atoms: C3_7  and  N2_8 
REMARK    5  A    between atoms: N2_8  and  C4_10 
REMARK    6  A    between atoms: C5_13  and  N4_14 
REMARK    7  A    between atoms: N4_14  and  C6_16 
REMARK    8  A    between atoms: C6_16  and  C7_17 
REMARK    9  A    between atoms: C6_16  and  C8_20 
REMARK   10  A    between atoms: C7_17  and  O1_18 
REMARK   11  A    between atoms: C8_20  and  C9_21 
REMARK   12  A    between atoms: C15_29  and  N6_30 
REMARK   13  A    between atoms: N7_33  and  C18_34 
ROOT
HETATM    1  C4  UNL     1      10.220  -2.939  31.332  1.00  0.00     0.148 A 
HETATM    2  N3  UNL     1      10.385  -3.455  30.064  1.00  0.00    -0.174 N 
ATOM      3  H3  UNL     1      10.244  -4.457  29.940  1.00  0.00     0.186 HD
HETATM    4  C5  UNL     1      10.716  -2.739  28.986  1.00  0.00     0.680 A 
HETATM    5  N5  UNL     1      10.900  -1.442  29.147  1.00  0.00    -0.200 N 
ATOM      6  H5  UNL     1      11.153  -0.881  28.334  1.00  0.00     0.183 HD
HETATM    7  C14 UNL     1      10.767  -0.828  30.334  1.00  0.00     0.139 A 
HETATM    8  C15 UNL     1      10.418  -1.589  31.462  1.00  0.00     0.091 A 
ENDROOT
BRANCH   4   9
HETATM    9  N4  UNL     1      10.841  -3.307  27.839  1.00  0.00    -0.219 N 
ATOM     10  H4  UNL     1      10.058  -3.287  27.186  1.00  0.00     0.178 HD
BRANCH   9  11
HETATM   11  C6  UNL     1      12.119  -4.003  27.437  1.00  0.00     0.123 C 
BRANCH  11  12
HETATM   12  C7  UNL     1      12.556  -3.200  26.236  1.00  0.00     0.189 C 
BRANCH  12  13
HETATM   13  O1  UNL     1      12.573  -1.872  26.478  1.00  0.00    -0.399 OA
ATOM     14  H1  UNL     1      12.419  -1.356  25.696  1.00  0.00     0.209 HD
ENDBRANCH  12  13
ENDBRANCH  11  12
BRANCH  11  15
HETATM   15  C8  UNL     1      11.642  -5.353  27.053  1.00  0.00     0.032 C 
BRANCH  15  16
HETATM   16  C9  UNL     1      11.760  -6.555  27.799  1.00  0.00    -0.013 C 
HETATM   17  C10 UNL     1      12.874  -7.522  27.761  1.00  0.00     0.005 C 
HETATM   18  C11 UNL     1      12.171  -8.676  28.563  1.00  0.00     0.000 C 
HETATM   19  C12 UNL     1      11.526  -7.891  29.717  1.00  0.00     0.000 C 
HETATM   20  C13 UNL     1      11.565  -6.428  29.314  1.00  0.00     0.005 C 
ENDBRANCH  15  16
ENDBRANCH  11  15
ENDBRANCH   9  11
ENDBRANCH   4   9
BRANCH   1  21
HETATM   21  N2  UNL     1       9.902  -3.670  32.261  1.00  0.00    -0.354 N 
ATOM     22  H2  UNL     1      10.426  -3.274  33.041  1.00  0.00     0.166 HD
BRANCH  21  23
HETATM   23  C3  UNL     1       9.257  -4.697  32.839  1.00  0.00     0.064 C 
BRANCH  23  24
HETATM   24  C2  UNL     1       9.724  -6.101  32.488  1.00  0.00     0.072 C 
BRANCH  24  25
HETATM   25  C1  UNL     1       9.637  -7.020  33.677  1.00  0.00     0.234 C 
BRANCH  25  26
HETATM   26  N1  UNL     1       9.356  -6.295  34.885  1.00  0.00    -0.079 N 
ATOM     27  H13 UNL     1       8.383  -5.991  34.919  1.00  0.00     0.274 HD
ATOM     28  H12 UNL     1       9.356  -6.912  35.698  1.00  0.00     0.274 HD
ATOM     29  H11 UNL     1       9.997  -5.512  35.011  1.00  0.00     0.274 HD
ENDBRANCH  25  26
ENDBRANCH  24  25
ENDBRANCH  23  24
ENDBRANCH  21  23
ENDBRANCH   1  21
BRANCH   8  30
HETATM   30  N6  UNL     1      10.318  -0.847  32.658  1.00  0.00    -0.374 N 
HETATM   31  C16 UNL     1      11.314  -0.885  33.675  1.00  0.00     0.143 C 
HETATM   32  C17 UNL     1      10.775  -0.115  34.902  1.00  0.00     0.145 C 
HETATM   33  N7  UNL     1      10.407   1.228  34.499  1.00  0.00    -0.358 N 
HETATM   34  C21 UNL     1       9.628   1.408  33.304  1.00  0.00     0.145 C 
HETATM   35  C22 UNL     1       9.150   0.019  32.845  1.00  0.00     0.143 C 
BRANCH  33  36
HETATM   36  C18 UNL     1      10.830   2.338  35.280  1.00  0.00     0.146 A 
HETATM   37  N8  UNL     1      10.196   2.999  36.230  1.00  0.00    -0.346 N 
HETATM   38  C19 UNL     1      10.752   4.002  36.822  1.00  0.00     0.097 A 
ATOM     39  H8  UNL     1       9.254   2.713  36.499  1.00  0.00     0.167 HD
HETATM   40  C20 UNL     1      12.013   4.357  36.434  1.00  0.00     0.070 A 
HETATM   41  S1  UNL     1      12.333   3.188  35.207  1.00  0.00    -0.065 SA
ENDBRANCH  33  36
ENDBRANCH   8  30
TORSDOF 13
ENDMDL
