MODEL 1
REMARK VINA RESULT: -9.571104212      0.000      0.000
REMARK  13 active torsions:
REMARK  status: ('A' for Active; 'I' for Inactive)
REMARK    1  A    between atoms: C2_2  and  C3_3 
REMARK    2  A    between atoms: C3_3  and  C4_4 
REMARK    3  A    between atoms: C4_4  and  C5_5 
REMARK    4  A    between atoms: C5_5  and  C6_6 
REMARK    5  A    between atoms: C6_6  and  C8_8 
REMARK    6  A    between atoms: C9_9  and  C10_10 
REMARK    7  A    between atoms: C10_10  and  O2_12 
REMARK    8  A    between atoms: O2_12  and  C11_13 
REMARK    9  A    between atoms: C13_16  and  C14_17 
REMARK   10  A    between atoms: C14_17  and  O4_18 
REMARK   11  A    between atoms: C15_20  and  C16_21 
REMARK   12  A    between atoms: C21_26  and  O5_27 
REMARK   13  A    between atoms: C22_29  and  O6_30 
ROOT
HETATM    1  C14 UNL     1       9.250  -2.595  33.856  1.00  0.00     0.074 C 
HETATM    2  C15 UNL     1       8.927  -1.377  34.078  1.00  0.00     0.035 C 
ENDROOT
BRANCH   1   3
HETATM    3  C13 UNL     1       9.599  -3.132  32.533  1.00  0.00     0.209 C 
HETATM    4  C11 UNL     1      10.074  -4.581  32.614  1.00  0.00     0.191 C 
HETATM    5  C12 UNL     1      11.436  -4.010  32.831  1.00  0.00     0.204 C 
HETATM    6  O3  UNL     1      10.957  -2.814  32.249  1.00  0.00    -0.374 OA
BRANCH   4   7
HETATM    7  O2  UNL     1       9.864  -5.335  31.465  1.00  0.00    -0.307 OA
BRANCH   7   8
HETATM    8  C10 UNL     1      10.326  -6.608  31.270  1.00  0.00     0.283 C 
HETATM    9  O1  UNL     1      10.176  -7.437  32.196  1.00  0.00    -0.260 OA
BRANCH   8  10
HETATM   10  C9  UNL     1      10.991  -7.038  30.010  1.00  0.00     0.079 C 
HETATM   11  C8  UNL     1      11.741  -6.189  29.372  1.00  0.00    -0.012 C 
BRANCH  11  12
HETATM   12  C6  UNL     1      12.504  -6.322  28.127  1.00  0.00     0.026 C 
HETATM   13  C7  UNL     1      12.278  -7.830  27.704  1.00  0.00     0.018 C 
BRANCH  12  14
HETATM   14  C5  UNL     1      12.250  -5.518  26.954  1.00  0.00    -0.023 C 
BRANCH  14  15
HETATM   15  C4  UNL     1      11.620  -4.193  26.999  1.00  0.00    -0.030 C 
BRANCH  15  16
HETATM   16  C3  UNL     1      12.313  -2.945  26.674  1.00  0.00     0.026 C 
BRANCH  16  17
HETATM   17  C2  UNL     1      11.588  -1.784  27.406  1.00  0.00    -0.001 C 
HETATM   18  C1  UNL     1      10.193  -2.227  27.772  1.00  0.00     0.005 C 
ENDBRANCH  16  17
ENDBRANCH  15  16
ENDBRANCH  14  15
ENDBRANCH  12  14
ENDBRANCH  11  12
ENDBRANCH   8  10
ENDBRANCH   7   8
ENDBRANCH   4   7
ENDBRANCH   1   3
BRANCH   1  19
HETATM   19  O4  UNL     1       9.279  -3.510  34.929  1.00  0.00    -0.362 OA
ATOM     20  H4  UNL     1       9.498  -3.153  35.781  1.00  0.00     0.217 HD
ENDBRANCH   1  19
BRANCH   2  21
HETATM   21  C16 UNL     1       8.850  -0.347  33.075  1.00  0.00     0.016 C 
HETATM   22  C17 UNL     1       9.654   0.698  33.065  1.00  0.00     0.020 C 
HETATM   23  C18 UNL     1      10.682   0.836  34.115  1.00  0.00     0.067 C 
HETATM   24  C23 UNL     1       9.574   1.737  32.057  1.00  0.00     0.306 C 
HETATM   25  C19 UNL     1      11.589   1.973  33.707  1.00  0.00     0.097 C 
HETATM   26  C20 UNL     1      12.547   2.363  34.798  1.00  0.00     0.058 C 
HETATM   27  N1  UNL     1      10.853   3.203  33.483  1.00  0.00    -0.151 NA
HETATM   28  C21 UNL     1      12.830   3.814  34.476  1.00  0.00     0.165 C 
HETATM   29  C22 UNL     1      11.927   4.161  33.309  1.00  0.00     0.247 C 
HETATM   30  O7  UNL     1      10.152   3.009  32.299  1.00  0.00    -0.218 OA
HETATM   31  O8  UNL     1       8.985   1.477  30.978  1.00  0.00    -0.258 OA
BRANCH  28  32
HETATM   32  O5  UNL     1      14.176   3.972  34.151  1.00  0.00    -0.392 OA
ATOM     33  H5  UNL     1      14.711   3.826  34.922  1.00  0.00     0.210 HD
ENDBRANCH  28  32
BRANCH  29  34
HETATM   34  O6  UNL     1      12.558   3.911  32.090  1.00  0.00    -0.377 OA
ATOM     35  H6  UNL     1      12.141   4.387  31.381  1.00  0.00     0.211 HD
ENDBRANCH  29  34
ENDBRANCH   2  21
TORSDOF 13
ENDMDL
MODEL 2
REMARK VINA RESULT: -9.361937100      4.505      9.740
REMARK  13 active torsions:
REMARK  status: ('A' for Active; 'I' for Inactive)
REMARK    1  A    between atoms: C2_2  and  C3_3 
REMARK    2  A    between atoms: C3_3  and  C4_4 
REMARK    3  A    between atoms: C4_4  and  C5_5 
REMARK    4  A    between atoms: C5_5  and  C6_6 
REMARK    5  A    between atoms: C6_6  and  C8_8 
REMARK    6  A    between atoms: C9_9  and  C10_10 
REMARK    7  A    between atoms: C10_10  and  O2_12 
REMARK    8  A    between atoms: O2_12  and  C11_13 
REMARK    9  A    between atoms: C13_16  and  C14_17 
REMARK   10  A    between atoms: C14_17  and  O4_18 
REMARK   11  A    between atoms: C15_20  and  C16_21 
REMARK   12  A    between atoms: C21_26  and  O5_27 
REMARK   13  A    between atoms: C22_29  and  O6_30 
ROOT
HETATM    1  C14 UNL     1      10.531  -5.991  34.168  1.00  0.00     0.074 C 
HETATM    2  C15 UNL     1      10.329  -7.254  34.159  1.00  0.00     0.035 C 
ENDROOT
BRANCH   1   3
HETATM    3  C13 UNL     1      10.736  -5.176  32.962  1.00  0.00     0.209 C 
HETATM    4  C11 UNL     1      10.595  -3.684  33.253  1.00  0.00     0.191 C 
HETATM    5  C12 UNL     1       9.141  -3.875  32.977  1.00  0.00     0.204 C 
HETATM    6  O3  UNL     1       9.496  -5.050  32.274  1.00  0.00    -0.374 OA
BRANCH   4   7
HETATM    7  O2  UNL     1      11.312  -2.848  32.405  1.00  0.00    -0.307 OA
BRANCH   7   8
HETATM    8  C10 UNL     1      10.772  -1.821  31.679  1.00  0.00     0.283 C 
HETATM    9  O1  UNL     1      10.376  -0.807  32.298  1.00  0.00    -0.260 OA
BRANCH   8  10
HETATM   10  C9  UNL     1      10.640  -1.865  30.197  1.00  0.00     0.079 C 
HETATM   11  C8  UNL     1      10.601  -3.021  29.603  1.00  0.00    -0.012 C 
BRANCH  11  12
HETATM   12  C6  UNL     1      10.485  -3.372  28.184  1.00  0.00     0.026 C 
HETATM   13  C7  UNL     1       9.414  -2.349  27.628  1.00  0.00     0.018 C 
BRANCH  12  14
HETATM   14  C5  UNL     1      11.602  -3.345  27.268  1.00  0.00    -0.023 C 
BRANCH  14  15
HETATM   15  C4  UNL     1      12.284  -4.552  26.784  1.00  0.00    -0.030 C 
BRANCH  15  16
HETATM   16  C3  UNL     1      11.775  -5.911  26.973  1.00  0.00     0.026 C 
BRANCH  16  17
HETATM   17  C2  UNL     1      12.500  -6.532  28.197  1.00  0.00    -0.001 C 
HETATM   18  C1  UNL     1      11.504  -6.722  29.315  1.00  0.00     0.005 C 
ENDBRANCH  16  17
ENDBRANCH  15  16
ENDBRANCH  14  15
ENDBRANCH  12  14
ENDBRANCH  11  12
ENDBRANCH   8  10
ENDBRANCH   7   8
ENDBRANCH   4   7
ENDBRANCH   1   3
BRANCH   1  19
HETATM   19  O4  UNL     1      10.572  -5.305  35.400  1.00  0.00    -0.362 OA
ATOM     20  H4  UNL     1      10.490  -5.839  36.181  1.00  0.00     0.217 HD
ENDBRANCH   1  19
BRANCH   2  21
HETATM   21  C16 UNL     1      10.274  -8.074  32.976  1.00  0.00     0.016 C 
HETATM   22  C17 UNL     1       9.930  -9.347  33.008  1.00  0.00     0.020 C 
HETATM   23  C18 UNL     1       9.583  -9.976  34.297  1.00  0.00     0.067 C 
HETATM   24  C23 UNL     1       9.877 -10.172  31.817  1.00  0.00     0.306 C 
HETATM   25  C19 UNL     1       9.004 -11.337  33.989  1.00  0.00     0.097 C 
HETATM   26  C20 UNL     1       8.813 -12.172  35.225  1.00  0.00     0.058 C 
HETATM   27  N1  UNL     1       9.911 -12.148  33.201  1.00  0.00    -0.151 NA
HETATM   28  C21 UNL     1       8.896 -13.581  34.678  1.00  0.00     0.165 C 
HETATM   29  C22 UNL     1       9.240 -13.433  33.210  1.00  0.00     0.247 C 
HETATM   30  O7  UNL     1       9.907 -11.586  31.929  1.00  0.00    -0.218 OA
HETATM   31  O8  UNL     1       9.806  -9.603  30.699  1.00  0.00    -0.258 OA
BRANCH  28  32
HETATM   32  O5  UNL     1       7.675 -14.229  34.860  1.00  0.00    -0.392 OA
ATOM     33  H5  UNL     1       7.694 -14.730  35.666  1.00  0.00     0.210 HD
ENDBRANCH  28  32
BRANCH  29  34
HETATM   34  O6  UNL     1       8.089 -13.344  32.427  1.00  0.00    -0.377 OA
ATOM     35  H6  UNL     1       8.301 -13.131  31.525  1.00  0.00     0.211 HD
ENDBRANCH  29  34
ENDBRANCH   2  21
TORSDOF 13
ENDMDL
MODEL 3
REMARK VINA RESULT: -9.060877972      0.930      2.208
REMARK  13 active torsions:
REMARK  status: ('A' for Active; 'I' for Inactive)
REMARK    1  A    between atoms: C2_2  and  C3_3 
REMARK    2  A    between atoms: C3_3  and  C4_4 
REMARK    3  A    between atoms: C4_4  and  C5_5 
REMARK    4  A    between atoms: C5_5  and  C6_6 
REMARK    5  A    between atoms: C6_6  and  C8_8 
REMARK    6  A    between atoms: C9_9  and  C10_10 
REMARK    7  A    between atoms: C10_10  and  O2_12 
REMARK    8  A    between atoms: O2_12  and  C11_13 
REMARK    9  A    between atoms: C13_16  and  C14_17 
REMARK   10  A    between atoms: C14_17  and  O4_18 
REMARK   11  A    between atoms: C15_20  and  C16_21 
REMARK   12  A    between atoms: C21_26  and  O5_27 
REMARK   13  A    between atoms: C22_29  and  O6_30 
ROOT
HETATM    1  C14 UNL     1       9.534  -2.183  34.217  1.00  0.00     0.074 C 
HETATM    2  C15 UNL     1       8.959  -1.042  34.289  1.00  0.00     0.035 C 
ENDROOT
BRANCH   1   3
HETATM    3  C13 UNL     1      10.231  -2.686  33.025  1.00  0.00     0.209 C 
HETATM    4  C11 UNL     1      11.142  -3.866  33.354  1.00  0.00     0.191 C 
HETATM    5  C12 UNL     1      12.190  -2.841  33.636  1.00  0.00     0.204 C 
HETATM    6  O3  UNL     1      11.433  -1.945  32.846  1.00  0.00    -0.374 OA
BRANCH   4   7
HETATM    7  O2  UNL     1      11.366  -4.750  32.305  1.00  0.00    -0.307 OA
BRANCH   7   8
HETATM    8  C10 UNL     1      10.385  -5.311  31.532  1.00  0.00     0.283 C 
HETATM    9  O1  UNL     1       9.497  -5.982  32.105  1.00  0.00    -0.260 OA
BRANCH   8  10
HETATM   10  C9  UNL     1      10.336  -5.151  30.054  1.00  0.00     0.079 C 
HETATM   11  C8  UNL     1      10.541  -3.975  29.540  1.00  0.00    -0.012 C 
BRANCH  11  12
HETATM   12  C6  UNL     1      10.549  -3.519  28.146  1.00  0.00     0.026 C 
HETATM   13  C7  UNL     1       9.981  -2.045  28.227  1.00  0.00     0.018 C 
BRANCH  12  14
HETATM   14  C5  UNL     1      11.746  -3.460  27.340  1.00  0.00    -0.023 C 
BRANCH  14  15
HETATM   15  C4  UNL     1      12.300  -4.617  26.624  1.00  0.00    -0.030 C 
BRANCH  15  16
HETATM   16  C3  UNL     1      11.850  -5.995  26.823  1.00  0.00     0.026 C 
BRANCH  16  17
HETATM   17  C2  UNL     1      12.783  -6.662  27.869  1.00  0.00    -0.001 C 
HETATM   18  C1  UNL     1      12.225  -8.015  28.236  1.00  0.00     0.005 C 
ENDBRANCH  16  17
ENDBRANCH  15  16
ENDBRANCH  14  15
ENDBRANCH  12  14
ENDBRANCH  11  12
ENDBRANCH   8  10
ENDBRANCH   7   8
ENDBRANCH   4   7
ENDBRANCH   1   3
BRANCH   1  19
HETATM   19  O4  UNL     1       9.510  -3.042  35.336  1.00  0.00    -0.362 OA
ATOM     20  H4  UNL     1      10.114  -3.774  35.317  1.00  0.00     0.217 HD
ENDBRANCH   1  19
BRANCH   2  21
HETATM   21  C16 UNL     1       8.902  -0.077  33.221  1.00  0.00     0.016 C 
HETATM   22  C17 UNL     1       9.714   0.960  33.155  1.00  0.00     0.020 C 
HETATM   23  C18 UNL     1      10.729   1.159  34.208  1.00  0.00     0.067 C 
HETATM   24  C23 UNL     1       9.654   1.933  32.082  1.00  0.00     0.306 C 
HETATM   25  C19 UNL     1      11.649   2.262  33.739  1.00  0.00     0.097 C 
HETATM   26  C20 UNL     1      12.597   2.714  34.816  1.00  0.00     0.058 C 
HETATM   27  N1  UNL     1      10.925   3.479  33.429  1.00  0.00    -0.151 NA
HETATM   28  C21 UNL     1      12.893   4.140  34.406  1.00  0.00     0.165 C 
HETATM   29  C22 UNL     1      12.008   4.417  33.208  1.00  0.00     0.247 C 
HETATM   30  O7  UNL     1      10.237   3.215  32.250  1.00  0.00    -0.218 OA
HETATM   31  O8  UNL     1       9.077   1.608  31.014  1.00  0.00    -0.258 OA
BRANCH  28  32
HETATM   32  O5  UNL     1      14.245   4.269  34.090  1.00  0.00    -0.392 OA
ATOM     33  H5  UNL     1      14.765   4.233  34.884  1.00  0.00     0.210 HD
ENDBRANCH  28  32
BRANCH  29  34
HETATM   34  O6  UNL     1      12.652   4.086  32.015  1.00  0.00    -0.377 OA
ATOM     35  H6  UNL     1      12.032   4.006  31.299  1.00  0.00     0.211 HD
ENDBRANCH  29  34
ENDBRANCH   2  21
TORSDOF 13
ENDMDL
MODEL 4
REMARK VINA RESULT: -8.988017845      2.310      3.713
REMARK  13 active torsions:
REMARK  status: ('A' for Active; 'I' for Inactive)
REMARK    1  A    between atoms: C2_2  and  C3_3 
REMARK    2  A    between atoms: C3_3  and  C4_4 
REMARK    3  A    between atoms: C4_4  and  C5_5 
REMARK    4  A    between atoms: C5_5  and  C6_6 
REMARK    5  A    between atoms: C6_6  and  C8_8 
REMARK    6  A    between atoms: C9_9  and  C10_10 
REMARK    7  A    between atoms: C10_10  and  O2_12 
REMARK    8  A    between atoms: O2_12  and  C11_13 
REMARK    9  A    between atoms: C13_16  and  C14_17 
REMARK   10  A    between atoms: C14_17  and  O4_18 
REMARK   11  A    between atoms: C15_20  and  C16_21 
REMARK   12  A    between atoms: C21_26  and  O5_27 
REMARK   13  A    between atoms: C22_29  and  O6_30 
ROOT
HETATM    1  C14 UNL     1      11.950  -6.888  35.248  1.00  0.00     0.074 C 
HETATM    2  C15 UNL     1      11.701  -5.635  35.178  1.00  0.00     0.035 C 
ENDROOT
BRANCH   1   3
HETATM    3  C13 UNL     1      11.854  -7.817  34.113  1.00  0.00     0.209 C 
HETATM    4  C11 UNL     1      10.415  -7.974  33.627  1.00  0.00     0.191 C 
HETATM    5  C12 UNL     1      10.306  -9.068  34.637  1.00  0.00     0.204 C 
HETATM    6  O3  UNL     1      11.718  -9.143  34.612  1.00  0.00    -0.374 OA
BRANCH   4   7
HETATM    7  O2  UNL     1      10.280  -8.314  32.286  1.00  0.00    -0.307 OA
BRANCH   7   8
HETATM    8  C10 UNL     1      10.307  -7.425  31.247  1.00  0.00     0.283 C 
HETATM    9  O1  UNL     1       9.570  -6.416  31.317  1.00  0.00    -0.260 OA
BRANCH   8  10
HETATM   10  C9  UNL     1      11.174  -7.612  30.051  1.00  0.00     0.079 C 
HETATM   11  C8  UNL     1      11.617  -6.562  29.425  1.00  0.00    -0.012 C 
BRANCH  11  12
HETATM   12  C6  UNL     1      12.467  -6.436  28.237  1.00  0.00     0.026 C 
HETATM   13  C7  UNL     1      12.758  -7.934  27.820  1.00  0.00     0.018 C 
BRANCH  12  14
HETATM   14  C5  UNL     1      12.055  -5.743  27.039  1.00  0.00    -0.023 C 
BRANCH  14  15
HETATM   15  C4  UNL     1      11.536  -4.369  27.034  1.00  0.00    -0.030 C 
BRANCH  15  16
HETATM   16  C3  UNL     1      12.322  -3.198  26.643  1.00  0.00     0.026 C 
BRANCH  16  17
HETATM   17  C2  UNL     1      11.720  -1.953  27.348  1.00  0.00    -0.001 C 
HETATM   18  C1  UNL     1      10.300  -2.256  27.755  1.00  0.00     0.005 C 
ENDBRANCH  16  17
ENDBRANCH  15  16
ENDBRANCH  14  15
ENDBRANCH  12  14
ENDBRANCH  11  12
ENDBRANCH   8  10
ENDBRANCH   7   8
ENDBRANCH   4   7
ENDBRANCH   1   3
BRANCH   1  19
HETATM   19  O4  UNL     1      12.341  -7.448  36.483  1.00  0.00    -0.362 OA
ATOM     20  H4  UNL     1      12.928  -6.925  37.015  1.00  0.00     0.217 HD
ENDBRANCH   1  19
BRANCH   2  21
HETATM   21  C16 UNL     1      11.286  -4.941  33.986  1.00  0.00     0.016 C 
HETATM   22  C17 UNL     1      11.539  -3.663  33.783  1.00  0.00     0.020 C 
HETATM   23  C18 UNL     1      12.277  -2.894  34.805  1.00  0.00     0.067 C 
HETATM   24  C23 UNL     1      11.118  -2.963  32.585  1.00  0.00     0.306 C 
HETATM   25  C19 UNL     1      12.625  -1.557  34.195  1.00  0.00     0.097 C 
HETATM   26  C20 UNL     1      13.184  -0.594  35.205  1.00  0.00     0.058 C 
HETATM   27  N1  UNL     1      11.450  -0.857  33.713  1.00  0.00    -0.151 NA
HETATM   28  C21 UNL     1      12.827   0.748  34.603  1.00  0.00     0.165 C 
HETATM   29  C22 UNL     1      11.999   0.441  33.372  1.00  0.00     0.247 C 
HETATM   30  O7  UNL     1      11.042  -1.547  32.577  1.00  0.00    -0.218 OA
HETATM   31  O8  UNL     1      10.828  -3.643  31.569  1.00  0.00    -0.258 OA
BRANCH  28  32
HETATM   32  O5  UNL     1      13.991   1.445  34.281  1.00  0.00    -0.392 OA
ATOM     33  H5  UNL     1      13.774   2.210  33.762  1.00  0.00     0.210 HD
ENDBRANCH  28  32
BRANCH  29  34
HETATM   34  O6  UNL     1      12.805   0.303  32.241  1.00  0.00    -0.377 OA
ATOM     35  H6  UNL     1      13.389  -0.443  32.323  1.00  0.00     0.211 HD
ENDBRANCH  29  34
ENDBRANCH   2  21
TORSDOF 13
ENDMDL
MODEL 5
REMARK VINA RESULT: -8.970676542      2.419      4.347
REMARK  13 active torsions:
REMARK  status: ('A' for Active; 'I' for Inactive)
REMARK    1  A    between atoms: C2_2  and  C3_3 
REMARK    2  A    between atoms: C3_3  and  C4_4 
REMARK    3  A    between atoms: C4_4  and  C5_5 
REMARK    4  A    between atoms: C5_5  and  C6_6 
REMARK    5  A    between atoms: C6_6  and  C8_8 
REMARK    6  A    between atoms: C9_9  and  C10_10 
REMARK    7  A    between atoms: C10_10  and  O2_12 
REMARK    8  A    between atoms: O2_12  and  C11_13 
REMARK    9  A    between atoms: C13_16  and  C14_17 
REMARK   10  A    between atoms: C14_17  and  O4_18 
REMARK   11  A    between atoms: C15_20  and  C16_21 
REMARK   12  A    between atoms: C21_26  and  O5_27 
REMARK   13  A    between atoms: C22_29  and  O6_30 
ROOT
HETATM    1  C14 UNL     1      12.277   1.401  34.930  1.00  0.00     0.074 C 
HETATM    2  C15 UNL     1      11.269   2.169  34.746  1.00  0.00     0.035 C 
ENDROOT
BRANCH   1   3
HETATM    3  C13 UNL     1      12.716   0.368  33.982  1.00  0.00     0.209 C 
HETATM    4  C11 UNL     1      11.769  -0.830  33.968  1.00  0.00     0.191 C 
HETATM    5  C12 UNL     1      12.611  -1.372  35.075  1.00  0.00     0.204 C 
HETATM    6  O3  UNL     1      13.634  -0.500  34.637  1.00  0.00    -0.374 OA
BRANCH   4   7
HETATM    7  O2  UNL     1      11.734  -1.540  32.774  1.00  0.00    -0.307 OA
BRANCH   7   8
HETATM    8  C10 UNL     1      10.643  -1.637  31.953  1.00  0.00     0.283 C 
HETATM    9  O1  UNL     1       9.573  -1.109  32.332  1.00  0.00    -0.260 OA
BRANCH   8  10
HETATM   10  C9  UNL     1      10.683  -2.338  30.642  1.00  0.00     0.079 C 
HETATM   11  C8  UNL     1      10.388  -1.675  29.564  1.00  0.00    -0.012 C 
BRANCH  11  12
HETATM   12  C6  UNL     1      10.336  -2.091  28.159  1.00  0.00     0.026 C 
HETATM   13  C7  UNL     1      11.389  -1.149  27.446  1.00  0.00     0.018 C 
BRANCH  12  14
HETATM   14  C5  UNL     1      10.620  -3.438  27.721  1.00  0.00    -0.023 C 
BRANCH  14  15
HETATM   15  C4  UNL     1      11.855  -3.822  27.025  1.00  0.00    -0.030 C 
BRANCH  15  16
HETATM   16  C3  UNL     1      12.265  -5.207  26.789  1.00  0.00     0.026 C 
BRANCH  16  17
HETATM   17  C2  UNL     1      11.997  -6.018  28.085  1.00  0.00    -0.001 C 
HETATM   18  C1  UNL     1      12.525  -7.420  27.907  1.00  0.00     0.005 C 
ENDBRANCH  16  17
ENDBRANCH  15  16
ENDBRANCH  14  15
ENDBRANCH  12  14
ENDBRANCH  11  12
ENDBRANCH   8  10
ENDBRANCH   7   8
ENDBRANCH   4   7
ENDBRANCH   1   3
BRANCH   1  19
HETATM   19  O4  UNL     1      13.035   1.527  36.113  1.00  0.00    -0.362 OA
ATOM     20  H4  UNL     1      13.465   0.739  36.423  1.00  0.00     0.217 HD
ENDBRANCH   1  19
BRANCH   2  21
HETATM   21  C16 UNL     1      10.409   2.139  33.592  1.00  0.00     0.016 C 
HETATM   22  C17 UNL     1      10.499   3.021  32.615  1.00  0.00     0.020 C 
HETATM   23  C18 UNL     1      11.515   4.089  32.689  1.00  0.00     0.067 C 
HETATM   24  C23 UNL     1       9.630   2.994  31.455  1.00  0.00     0.306 C 
HETATM   25  C19 UNL     1      11.541   4.775  31.343  1.00  0.00     0.097 C 
HETATM   26  C20 UNL     1      12.377   6.025  31.353  1.00  0.00     0.058 C 
HETATM   27  N1  UNL     1      10.234   5.277  30.964  1.00  0.00    -0.151 NA
HETATM   28  C21 UNL     1      11.751   6.841  30.243  1.00  0.00     0.165 C 
HETATM   29  C22 UNL     1      10.548   6.046  29.776  1.00  0.00     0.247 C 
HETATM   30  O7  UNL     1       9.478   4.153  30.652  1.00  0.00    -0.218 OA
HETATM   31  O8  UNL     1       9.027   1.925  31.187  1.00  0.00    -0.258 OA
BRANCH  28  32
HETATM   32  O5  UNL     1      12.675   7.029  29.217  1.00  0.00    -0.392 OA
ATOM     33  H5  UNL     1      13.217   7.785  29.408  1.00  0.00     0.210 HD
ENDBRANCH  28  32
BRANCH  29  34
HETATM   34  O6  UNL     1      10.890   5.166  28.749  1.00  0.00    -0.377 OA
ATOM     35  H6  UNL     1      11.043   5.630  27.934  1.00  0.00     0.211 HD
ENDBRANCH  29  34
ENDBRANCH   2  21
TORSDOF 13
ENDMDL
