MODEL 1
REMARK VINA RESULT: -8.231369132      0.000      0.000
REMARK  13 active torsions:
REMARK  status: ('A' for Active; 'I' for Inactive)
REMARK    1  A    between atoms: O1_2  and  C2_3 
REMARK    2  A    between atoms: C2_3  and  C3_5 
REMARK    3  A    between atoms: C3_5  and  C4_6 
REMARK    4  A    between atoms: C4_6  and  C5_7 
REMARK    5  A    between atoms: C5_7  and  C6_8 
REMARK    6  A    between atoms: C7_9  and  C8_10 
REMARK    7  A    between atoms: C8_10  and  C9_11 
REMARK    8  A    between atoms: C11_16  and  C12_17 
REMARK    9  A    between atoms: C12_17  and  N2_18 
REMARK       I    between atoms: N3_21  and  C15_22 
REMARK   10  A    between atoms: C18_27  and  N4_28 
REMARK   11  A    between atoms: N4_28  and  C19_30 
REMARK   12  A    between atoms: C19_30  and  O6_31 
REMARK   13  A    between atoms: N5_33  and  O7_35 
ROOT
HETATM    1  C9  UNL     1      10.125  -0.577  32.081  1.00  0.00     0.110 C 
HETATM    2  C10 UNL     1       9.053  -0.156  33.030  1.00  0.00     0.228 C 
HETATM    3  O3  UNL     1       8.052  -0.733  33.490  1.00  0.00    -0.273 OA
HETATM    4  N1  UNL     1       9.441   1.207  33.356  1.00  0.00    -0.330 N 
ATOM      5  H1  UNL     1       8.793   1.930  33.669  1.00  0.00     0.168 HD
HETATM    6  C11 UNL     1      10.697   1.385  33.201  1.00  0.00     0.030 C 
HETATM    7  C18 UNL     1      11.306   0.096  32.759  1.00  0.00     0.146 C 
ENDROOT
BRANCH   1   8
HETATM    8  C8  UNL     1      10.236  -2.030  31.882  1.00  0.00     0.043 C 
BRANCH   8   9
HETATM    9  C7  UNL     1      10.609  -2.305  30.447  1.00  0.00    -0.030 C 
HETATM   10  C6  UNL     1      10.590  -1.287  29.611  1.00  0.00    -0.031 C 
BRANCH  10  11
HETATM   11  C5  UNL     1      10.946  -1.485  28.185  1.00  0.00     0.027 C 
BRANCH  11  12
HETATM   12  C4  UNL     1      10.473  -2.825  27.727  1.00  0.00     0.013 C 
BRANCH  12  13
HETATM   13  C3  UNL     1      11.600  -3.604  27.136  1.00  0.00     0.111 C 
BRANCH  13  14
HETATM   14  C2  UNL     1      11.649  -5.022  27.473  1.00  0.00     0.258 C 
HETATM   15  O2  UNL     1      11.910  -5.981  26.726  1.00  0.00    -0.265 OA
BRANCH  14  16
HETATM   16  O1  UNL     1      11.368  -5.376  28.813  1.00  0.00    -0.326 OA
HETATM   17  C1  UNL     1      11.528  -6.705  29.261  1.00  0.00     0.213 C 
ENDBRANCH  14  16
ENDBRANCH  13  14
ENDBRANCH  12  13
ENDBRANCH  11  12
ENDBRANCH  10  11
ENDBRANCH   8   9
ENDBRANCH   1   8
BRANCH   7  18
HETATM   18  N4  UNL     1      11.673  -0.602  33.961  1.00  0.00    -0.344 N 
ATOM     19  H4  UNL     1      10.992  -0.662  34.717  1.00  0.00     0.163 HD
BRANCH  18  20
HETATM   20  C19 UNL     1      12.948  -1.213  34.144  1.00  0.00     0.237 C 
HETATM   21  N5  UNL     1      14.009  -0.566  34.393  1.00  0.00    -0.233 N 
ATOM     22  H5  UNL     1      14.875  -1.095  34.507  1.00  0.00     0.198 HD
BRANCH  20  23
HETATM   23  O6  UNL     1      13.005  -2.594  34.036  1.00  0.00    -0.331 OA
ATOM     24  H6  UNL     1      13.649  -3.042  34.572  1.00  0.00     0.221 HD
ENDBRANCH  20  23
BRANCH  21  25
HETATM   25  O7  UNL     1      14.071   0.802  34.521  1.00  0.00    -0.287 OA
ATOM     26  H7  UNL     1      14.879   1.298  34.577  1.00  0.00     0.244 HD
ENDBRANCH  21  25
ENDBRANCH  18  20
ENDBRANCH   7  18
BRANCH   6  27
HETATM   27  C12 UNL     1      11.428   2.676  33.448  1.00  0.00     0.171 C 
BRANCH  27  28
HETATM   28  N2  UNL     1      10.609   3.736  32.967  1.00  0.00    -0.404 N 
HETATM   29  C13 UNL     1       9.967   3.485  31.725  1.00  0.00     0.137 C 
HETATM   30  C14 UNL     1      10.011   4.730  30.855  1.00  0.00     0.148 C 
HETATM   31  N3  UNL     1      11.329   5.309  30.795  1.00  0.00    -0.323 N 
HETATM   32  C15 UNL     1      11.884   5.756  29.582  1.00  0.00     0.285 C 
HETATM   33  C16 UNL     1      12.091   5.428  32.015  1.00  0.00     0.148 C 
HETATM   34  O4  UNL     1      13.031   6.252  29.559  1.00  0.00    -0.630 OA
HETATM   35  O5  UNL     1      11.147   5.640  28.419  1.00  0.00    -0.630 OA
HETATM   36  C17 UNL     1      11.164   5.043  33.145  1.00  0.00     0.137 C 
ENDBRANCH  27  28
ENDBRANCH   6  27
TORSDOF 13
ENDMDL
MODEL 2
REMARK VINA RESULT: -8.217436578      1.490      1.831
REMARK  13 active torsions:
REMARK  status: ('A' for Active; 'I' for Inactive)
REMARK    1  A    between atoms: O1_2  and  C2_3 
REMARK    2  A    between atoms: C2_3  and  C3_5 
REMARK    3  A    between atoms: C3_5  and  C4_6 
REMARK    4  A    between atoms: C4_6  and  C5_7 
REMARK    5  A    between atoms: C5_7  and  C6_8 
REMARK    6  A    between atoms: C7_9  and  C8_10 
REMARK    7  A    between atoms: C8_10  and  C9_11 
REMARK    8  A    between atoms: C11_16  and  C12_17 
REMARK    9  A    between atoms: C12_17  and  N2_18 
REMARK       I    between atoms: N3_21  and  C15_22 
REMARK   10  A    between atoms: C18_27  and  N4_28 
REMARK   11  A    between atoms: N4_28  and  C19_30 
REMARK   12  A    between atoms: C19_30  and  O6_31 
REMARK   13  A    between atoms: N5_33  and  O7_35 
ROOT
HETATM    1  C9  UNL     1      10.217  -0.393  32.185  1.00  0.00     0.110 C 
HETATM    2  C10 UNL     1       9.075  -0.160  33.117  1.00  0.00     0.228 C 
HETATM    3  O3  UNL     1       8.098  -0.853  33.452  1.00  0.00    -0.273 OA
HETATM    4  N1  UNL     1       9.348   1.177  33.619  1.00  0.00    -0.330 N 
ATOM      5  H1  UNL     1       8.635   1.813  33.978  1.00  0.00     0.168 HD
HETATM    6  C11 UNL     1      10.593   1.455  33.555  1.00  0.00     0.030 C 
HETATM    7  C18 UNL     1      11.313   0.271  33.000  1.00  0.00     0.146 C 
ENDROOT
BRANCH   1   8
HETATM    8  C8  UNL     1      10.441  -1.801  31.826  1.00  0.00     0.043 C 
BRANCH   8   9
HETATM    9  C7  UNL     1      11.079  -1.867  30.460  1.00  0.00    -0.030 C 
HETATM   10  C6  UNL     1      10.550  -1.125  29.509  1.00  0.00    -0.031 C 
BRANCH  10  11
HETATM   11  C5  UNL     1      11.126  -1.140  28.142  1.00  0.00     0.027 C 
BRANCH  11  12
HETATM   12  C4  UNL     1      10.685  -2.371  27.422  1.00  0.00     0.013 C 
BRANCH  12  13
HETATM   13  C3  UNL     1      11.863  -3.203  27.039  1.00  0.00     0.111 C 
BRANCH  13  14
HETATM   14  C2  UNL     1      11.793  -4.618  27.386  1.00  0.00     0.258 C 
HETATM   15  O2  UNL     1      12.201  -5.592  26.730  1.00  0.00    -0.265 OA
BRANCH  14  16
HETATM   16  O1  UNL     1      11.187  -4.950  28.620  1.00  0.00    -0.326 OA
HETATM   17  C1  UNL     1      11.493  -6.161  29.277  1.00  0.00     0.213 C 
ENDBRANCH  14  16
ENDBRANCH  13  14
ENDBRANCH  12  13
ENDBRANCH  11  12
ENDBRANCH  10  11
ENDBRANCH   8   9
ENDBRANCH   1   8
BRANCH   7  18
HETATM   18  N4  UNL     1      11.675  -0.539  34.131  1.00  0.00    -0.344 N 
ATOM     19  H4  UNL     1      10.985  -0.680  34.869  1.00  0.00     0.163 HD
BRANCH  18  20
HETATM   20  C19 UNL     1      12.954  -1.154  34.267  1.00  0.00     0.237 C 
HETATM   21  N5  UNL     1      14.034  -0.506  34.411  1.00  0.00    -0.233 N 
ATOM     22  H5  UNL     1      14.900  -1.038  34.500  1.00  0.00     0.198 HD
BRANCH  20  23
HETATM   23  O6  UNL     1      12.993  -2.539  34.236  1.00  0.00    -0.331 OA
ATOM     24  H6  UNL     1      13.425  -2.975  34.961  1.00  0.00     0.221 HD
ENDBRANCH  20  23
BRANCH  21  25
HETATM   25  O7  UNL     1      14.115   0.865  34.455  1.00  0.00    -0.287 OA
ATOM     26  H7  UNL     1      14.397   1.409  33.729  1.00  0.00     0.244 HD
ENDBRANCH  21  25
ENDBRANCH  18  20
ENDBRANCH   7  18
BRANCH   6  27
HETATM   27  C12 UNL     1      11.217   2.753  33.989  1.00  0.00     0.171 C 
BRANCH  27  28
HETATM   28  N2  UNL     1      11.691   3.417  32.822  1.00  0.00    -0.404 N 
HETATM   29  C13 UNL     1      12.988   3.985  32.938  1.00  0.00     0.137 C 
HETATM   30  C14 UNL     1      13.021   5.349  32.267  1.00  0.00     0.148 C 
HETATM   31  N3  UNL     1      11.914   6.180  32.666  1.00  0.00    -0.323 N 
HETATM   32  C15 UNL     1      12.091   7.537  32.993  1.00  0.00     0.285 C 
HETATM   33  C16 UNL     1      10.595   5.598  32.729  1.00  0.00     0.148 C 
HETATM   34  O4  UNL     1      11.113   8.235  33.338  1.00  0.00    -0.630 OA
HETATM   35  O5  UNL     1      13.357   8.087  32.928  1.00  0.00    -0.630 OA
HETATM   36  C17 UNL     1      10.706   4.207  32.147  1.00  0.00     0.137 C 
ENDBRANCH  27  28
ENDBRANCH   6  27
TORSDOF 13
ENDMDL
MODEL 3
REMARK VINA RESULT: -8.120925066      1.113      1.361
REMARK  13 active torsions:
REMARK  status: ('A' for Active; 'I' for Inactive)
REMARK    1  A    between atoms: O1_2  and  C2_3 
REMARK    2  A    between atoms: C2_3  and  C3_5 
REMARK    3  A    between atoms: C3_5  and  C4_6 
REMARK    4  A    between atoms: C4_6  and  C5_7 
REMARK    5  A    between atoms: C5_7  and  C6_8 
REMARK    6  A    between atoms: C7_9  and  C8_10 
REMARK    7  A    between atoms: C8_10  and  C9_11 
REMARK    8  A    between atoms: C11_16  and  C12_17 
REMARK    9  A    between atoms: C12_17  and  N2_18 
REMARK       I    between atoms: N3_21  and  C15_22 
REMARK   10  A    between atoms: C18_27  and  N4_28 
REMARK   11  A    between atoms: N4_28  and  C19_30 
REMARK   12  A    between atoms: C19_30  and  O6_31 
REMARK   13  A    between atoms: N5_33  and  O7_35 
ROOT
HETATM    1  C9  UNL     1      10.189  -0.467  32.056  1.00  0.00     0.110 C 
HETATM    2  C10 UNL     1       9.116   0.005  32.980  1.00  0.00     0.228 C 
HETATM    3  O3  UNL     1       8.090  -0.532  33.434  1.00  0.00    -0.273 OA
HETATM    4  N1  UNL     1       9.541   1.361  33.287  1.00  0.00    -0.330 N 
ATOM      5  H1  UNL     1       8.911   2.110  33.577  1.00  0.00     0.168 HD
HETATM    6  C11 UNL     1      10.805   1.497  33.149  1.00  0.00     0.030 C 
HETATM    7  C18 UNL     1      11.379   0.182  32.740  1.00  0.00     0.146 C 
ENDROOT
BRANCH   1   8
HETATM    8  C8  UNL     1      10.256  -1.926  31.885  1.00  0.00     0.043 C 
BRANCH   8   9
HETATM    9  C7  UNL     1      10.731  -2.238  30.488  1.00  0.00    -0.030 C 
HETATM   10  C6  UNL     1      10.564  -1.308  29.570  1.00  0.00    -0.031 C 
BRANCH  10  11
HETATM   11  C5  UNL     1      11.009  -1.547  28.175  1.00  0.00     0.027 C 
BRANCH  11  12
HETATM   12  C4  UNL     1      10.435  -2.831  27.675  1.00  0.00     0.013 C 
BRANCH  12  13
HETATM   13  C3  UNL     1      11.522  -3.763  27.257  1.00  0.00     0.111 C 
BRANCH  13  14
HETATM   14  C2  UNL     1      11.518  -5.080  27.883  1.00  0.00     0.258 C 
HETATM   15  O2  UNL     1      11.253  -5.370  29.063  1.00  0.00    -0.265 OA
BRANCH  14  16
HETATM   16  O1  UNL     1      11.854  -6.184  27.066  1.00  0.00    -0.326 OA
HETATM   17  C1  UNL     1      12.330  -7.387  27.630  1.00  0.00     0.213 C 
ENDBRANCH  14  16
ENDBRANCH  13  14
ENDBRANCH  12  13
ENDBRANCH  11  12
ENDBRANCH  10  11
ENDBRANCH   8   9
ENDBRANCH   1   8
BRANCH   7  18
HETATM   18  N4  UNL     1      11.706  -0.504  33.960  1.00  0.00    -0.344 N 
ATOM     19  H4  UNL     1      11.015  -0.521  34.710  1.00  0.00     0.163 HD
BRANCH  18  20
HETATM   20  C19 UNL     1      12.954  -1.162  34.169  1.00  0.00     0.237 C 
HETATM   21  N5  UNL     1      14.035  -0.553  34.427  1.00  0.00    -0.233 N 
ATOM     22  H5  UNL     1      14.878  -1.113  34.560  1.00  0.00     0.198 HD
BRANCH  20  23
HETATM   23  O6  UNL     1      12.960  -2.545  34.077  1.00  0.00    -0.331 OA
ATOM     24  H6  UNL     1      12.573  -2.927  33.298  1.00  0.00     0.221 HD
ENDBRANCH  20  23
BRANCH  21  25
HETATM   25  O7  UNL     1      14.148   0.812  34.541  1.00  0.00    -0.287 OA
ATOM     26  H7  UNL     1      14.553   1.257  35.276  1.00  0.00     0.244 HD
ENDBRANCH  21  25
ENDBRANCH  18  20
ENDBRANCH   7  18
BRANCH   6  27
HETATM   27  C12 UNL     1      11.572   2.769  33.384  1.00  0.00     0.171 C 
BRANCH  27  28
HETATM   28  N2  UNL     1      10.668   3.857  33.217  1.00  0.00    -0.404 N 
HETATM   29  C13 UNL     1      10.455   4.261  31.873  1.00  0.00     0.137 C 
HETATM   30  C14 UNL     1      10.411   5.778  31.786  1.00  0.00     0.148 C 
HETATM   31  N3  UNL     1      11.513   6.397  32.478  1.00  0.00    -0.323 N 
HETATM   32  C15 UNL     1      12.234   7.464  31.913  1.00  0.00     0.285 C 
HETATM   33  C16 UNL     1      11.878   5.902  33.784  1.00  0.00     0.148 C 
HETATM   34  O4  UNL     1      13.186   7.981  32.536  1.00  0.00    -0.630 OA
HETATM   35  O5  UNL     1      11.876   7.933  30.663  1.00  0.00    -0.630 OA
HETATM   36  C17 UNL     1      10.815   4.903  34.183  1.00  0.00     0.137 C 
ENDBRANCH  27  28
ENDBRANCH   6  27
TORSDOF 13
ENDMDL
MODEL 4
REMARK VINA RESULT: -8.112459278      1.442      1.920
REMARK  13 active torsions:
REMARK  status: ('A' for Active; 'I' for Inactive)
REMARK    1  A    between atoms: O1_2  and  C2_3 
REMARK    2  A    between atoms: C2_3  and  C3_5 
REMARK    3  A    between atoms: C3_5  and  C4_6 
REMARK    4  A    between atoms: C4_6  and  C5_7 
REMARK    5  A    between atoms: C5_7  and  C6_8 
REMARK    6  A    between atoms: C7_9  and  C8_10 
REMARK    7  A    between atoms: C8_10  and  C9_11 
REMARK    8  A    between atoms: C11_16  and  C12_17 
REMARK    9  A    between atoms: C12_17  and  N2_18 
REMARK       I    between atoms: N3_21  and  C15_22 
REMARK   10  A    between atoms: C18_27  and  N4_28 
REMARK   11  A    between atoms: N4_28  and  C19_30 
REMARK   12  A    between atoms: C19_30  and  O6_31 
REMARK   13  A    between atoms: N5_33  and  O7_35 
ROOT
HETATM    1  C9  UNL     1      10.232  -0.462  32.113  1.00  0.00     0.110 C 
HETATM    2  C10 UNL     1       9.161   0.005  33.042  1.00  0.00     0.228 C 
HETATM    3  O3  UNL     1       8.087  -0.496  33.419  1.00  0.00    -0.273 OA
HETATM    4  N1  UNL     1       9.665   1.298  33.477  1.00  0.00    -0.330 N 
ATOM      5  H1  UNL     1       9.076   2.061  33.811  1.00  0.00     0.168 HD
HETATM    6  C11 UNL     1      10.938   1.357  33.388  1.00  0.00     0.030 C 
HETATM    7  C18 UNL     1      11.438   0.044  32.885  1.00  0.00     0.146 C 
ENDROOT
BRANCH   1   8
HETATM    8  C8  UNL     1      10.208  -1.902  31.820  1.00  0.00     0.043 C 
BRANCH   8   9
HETATM    9  C7  UNL     1      10.756  -2.134  30.434  1.00  0.00    -0.030 C 
HETATM   10  C6  UNL     1      10.599  -1.167  29.552  1.00  0.00    -0.031 C 
BRANCH  10  11
HETATM   11  C5  UNL     1      11.114  -1.326  28.170  1.00  0.00     0.027 C 
BRANCH  11  12
HETATM   12  C4  UNL     1      10.635  -2.619  27.598  1.00  0.00     0.013 C 
BRANCH  12  13
HETATM   13  C3  UNL     1      11.785  -3.430  27.102  1.00  0.00     0.111 C 
BRANCH  13  14
HETATM   14  C2  UNL     1      11.740  -4.858  27.395  1.00  0.00     0.258 C 
HETATM   15  O2  UNL     1      12.052  -5.806  26.653  1.00  0.00    -0.265 OA
BRANCH  14  16
HETATM   16  O1  UNL     1      11.288  -5.239  28.680  1.00  0.00    -0.326 OA
HETATM   17  C1  UNL     1      11.686  -6.464  29.256  1.00  0.00     0.213 C 
ENDBRANCH  14  16
ENDBRANCH  13  14
ENDBRANCH  12  13
ENDBRANCH  11  12
ENDBRANCH  10  11
ENDBRANCH   8   9
ENDBRANCH   1   8
BRANCH   7  18
HETATM   18  N4  UNL     1      11.676  -0.763  34.051  1.00  0.00    -0.344 N 
ATOM     19  H4  UNL     1      10.924  -0.868  34.732  1.00  0.00     0.163 HD
BRANCH  18  20
HETATM   20  C19 UNL     1      12.916  -1.422  34.297  1.00  0.00     0.237 C 
HETATM   21  N5  UNL     1      13.019  -2.667  34.517  1.00  0.00    -0.233 N 
ATOM     22  H5  UNL     1      13.952  -3.046  34.684  1.00  0.00     0.198 HD
BRANCH  20  23
HETATM   23  O6  UNL     1      14.058  -0.637  34.294  1.00  0.00    -0.331 OA
ATOM     24  H6  UNL     1      14.580  -0.640  33.500  1.00  0.00     0.221 HD
ENDBRANCH  20  23
BRANCH  21  25
HETATM   25  O7  UNL     1      11.957  -3.540  34.545  1.00  0.00    -0.287 OA
ATOM     26  H7  UNL     1      11.437  -3.725  35.318  1.00  0.00     0.244 HD
ENDBRANCH  21  25
ENDBRANCH  18  20
ENDBRANCH   7  18
BRANCH   6  27
HETATM   27  C12 UNL     1      11.780   2.548  33.754  1.00  0.00     0.171 C 
BRANCH  27  28
HETATM   28  N2  UNL     1      10.952   3.704  33.673  1.00  0.00    -0.404 N 
HETATM   29  C13 UNL     1      10.873   4.299  32.385  1.00  0.00     0.137 C 
HETATM   30  C14 UNL     1      10.917   5.813  32.508  1.00  0.00     0.148 C 
HETATM   31  N3  UNL     1      11.988   6.262  33.361  1.00  0.00    -0.323 N 
HETATM   32  C15 UNL     1      12.809   7.347  33.005  1.00  0.00     0.285 C 
HETATM   33  C16 UNL     1      12.216   5.573  34.609  1.00  0.00     0.148 C 
HETATM   34  O4  UNL     1      13.733   7.713  33.765  1.00  0.00    -0.630 OA
HETATM   35  O5  UNL     1      12.583   8.001  31.810  1.00  0.00    -0.630 OA
HETATM   36  C17 UNL     1      11.072   4.600  34.783  1.00  0.00     0.137 C 
ENDBRANCH  27  28
ENDBRANCH   6  27
TORSDOF 13
ENDMDL
MODEL 5
REMARK VINA RESULT: -8.049000867      3.184      4.401
REMARK  13 active torsions:
REMARK  status: ('A' for Active; 'I' for Inactive)
REMARK    1  A    between atoms: O1_2  and  C2_3 
REMARK    2  A    between atoms: C2_3  and  C3_5 
REMARK    3  A    between atoms: C3_5  and  C4_6 
REMARK    4  A    between atoms: C4_6  and  C5_7 
REMARK    5  A    between atoms: C5_7  and  C6_8 
REMARK    6  A    between atoms: C7_9  and  C8_10 
REMARK    7  A    between atoms: C8_10  and  C9_11 
REMARK    8  A    between atoms: C11_16  and  C12_17 
REMARK    9  A    between atoms: C12_17  and  N2_18 
REMARK       I    between atoms: N3_21  and  C15_22 
REMARK   10  A    between atoms: C18_27  and  N4_28 
REMARK   11  A    between atoms: N4_28  and  C19_30 
REMARK   12  A    between atoms: C19_30  and  O6_31 
REMARK   13  A    between atoms: N5_33  and  O7_35 
ROOT
HETATM    1  C9  UNL     1      11.123  -3.067  31.921  1.00  0.00     0.110 C 
HETATM    2  C10 UNL     1      10.815  -1.901  31.042  1.00  0.00     0.228 C 
HETATM    3  O3  UNL     1      10.149  -1.778  29.999  1.00  0.00    -0.273 OA
HETATM    4  N1  UNL     1      11.513  -0.814  31.708  1.00  0.00    -0.330 N 
ATOM      5  H1  UNL     1      11.841   0.031  31.239  1.00  0.00     0.168 HD
HETATM    6  C11 UNL     1      11.666  -1.050  32.954  1.00  0.00     0.030 C 
HETATM    7  C18 UNL     1      11.037  -2.367  33.266  1.00  0.00     0.146 C 
ENDROOT
BRANCH   1   8
HETATM    8  C8  UNL     1      10.239  -4.228  31.738  1.00  0.00     0.043 C 
BRANCH   8   9
HETATM    9  C7  UNL     1      10.972  -5.289  30.956  1.00  0.00    -0.030 C 
HETATM   10  C6  UNL     1      10.887  -5.239  29.642  1.00  0.00    -0.031 C 
BRANCH  10  11
HETATM   11  C5  UNL     1      11.583  -6.251  28.810  1.00  0.00     0.027 C 
BRANCH  11  12
HETATM   12  C4  UNL     1      11.957  -5.652  27.495  1.00  0.00     0.013 C 
BRANCH  12  13
HETATM   13  C3  UNL     1      11.377  -4.284  27.358  1.00  0.00     0.111 C 
BRANCH  13  14
HETATM   14  C2  UNL     1      12.268  -3.255  26.833  1.00  0.00     0.258 C 
HETATM   15  O2  UNL     1      13.028  -3.325  25.852  1.00  0.00    -0.265 OA
BRANCH  14  16
HETATM   16  O1  UNL     1      12.287  -2.013  27.508  1.00  0.00    -0.326 OA
HETATM   17  C1  UNL     1      11.542  -0.915  27.029  1.00  0.00     0.213 C 
ENDBRANCH  14  16
ENDBRANCH  13  14
ENDBRANCH  12  13
ENDBRANCH  11  12
ENDBRANCH  10  11
ENDBRANCH   8   9
ENDBRANCH   1   8
BRANCH   7  18
HETATM   18  N4  UNL     1       9.670  -2.082  33.609  1.00  0.00    -0.344 N 
ATOM     19  H4  UNL     1       8.997  -1.947  32.855  1.00  0.00     0.163 HD
BRANCH  18  20
HETATM   20  C19 UNL     1       9.214  -1.979  34.956  1.00  0.00     0.237 C 
HETATM   21  N5  UNL     1       9.126  -2.966  35.746  1.00  0.00    -0.233 N 
ATOM     22  H5  UNL     1       8.787  -2.791  36.692  1.00  0.00     0.198 HD
BRANCH  20  23
HETATM   23  O6  UNL     1       8.851  -0.718  35.403  1.00  0.00    -0.331 OA
ATOM     24  H6  UNL     1       7.998  -0.396  35.137  1.00  0.00     0.221 HD
ENDBRANCH  20  23
BRANCH  21  25
HETATM   25  O7  UNL     1       9.457  -4.258  35.412  1.00  0.00    -0.287 OA
ATOM     26  H7  UNL     1       8.839  -4.979  35.384  1.00  0.00     0.244 HD
ENDBRANCH  21  25
ENDBRANCH  18  20
ENDBRANCH   7  18
BRANCH   6  27
HETATM   27  C12 UNL     1      12.348  -0.135  33.934  1.00  0.00     0.171 C 
BRANCH  27  28
HETATM   28  N2  UNL     1      12.177   1.200  33.471  1.00  0.00    -0.404 N 
HETATM   29  C13 UNL     1      13.358   1.988  33.459  1.00  0.00     0.137 C 
HETATM   30  C14 UNL     1      13.051   3.395  33.948  1.00  0.00     0.148 C 
HETATM   31  N3  UNL     1      12.289   3.394  35.171  1.00  0.00    -0.323 N 
HETATM   32  C15 UNL     1      12.604   4.256  36.237  1.00  0.00     0.285 C 
HETATM   33  C16 UNL     1      11.177   2.481  35.295  1.00  0.00     0.148 C 
HETATM   34  O4  UNL     1      11.927   4.232  37.287  1.00  0.00    -0.630 OA
HETATM   35  O5  UNL     1      13.668   5.127  36.108  1.00  0.00    -0.630 OA
HETATM   36  C17 UNL     1      10.986   1.842  33.938  1.00  0.00     0.137 C 
ENDBRANCH  27  28
ENDBRANCH   6  27
TORSDOF 13
ENDMDL
