MODEL 1
REMARK VINA RESULT: -6.951148599      0.000      0.000
REMARK  12 active torsions:
REMARK  status: ('A' for Active; 'I' for Inactive)
REMARK    1  A    between atoms: O1_2  and  C2_3 
REMARK    2  A    between atoms: C2_3  and  C3_5 
REMARK    3  A    between atoms: C4_8  and  C5_9 
REMARK    4  A    between atoms: C8_13  and  S1_14 
REMARK    5  A    between atoms: S1_14  and  N2_15 
REMARK    6  A    between atoms: C10_21  and  O5_22 
REMARK    7  A    between atoms: O5_22  and  S2_23 
REMARK    8  A    between atoms: S2_23  and  N3_24 
REMARK    9  A    between atoms: C11_31  and  C12_32 
REMARK   10  A    between atoms: C13_33  and  C14_34 
REMARK   11  A    between atoms: C15_37  and  N6_38 
REMARK   12  A    between atoms: C17_48  and  N10_49 
ROOT
HETATM    1  C3  UNL     1     -11.059   4.466  -3.020  1.00  0.00     0.138 A 
HETATM    2  N1  UNL     1     -12.318   4.907  -2.689  1.00  0.00    -0.335 N 
ATOM      3  H1  UNL     1     -13.188   4.501  -3.034  1.00  0.00     0.168 HD
HETATM    4  C4  UNL     1     -12.237   5.926  -1.867  1.00  0.00     0.119 A 
HETATM    5  N4  UNL     1     -10.918   6.138  -1.670  1.00  0.00    -0.339 N 
ATOM      6  H4  UNL     1     -10.537   6.872  -1.072  1.00  0.00     0.167 HD
HETATM    7  C11 UNL     1     -10.175   5.265  -2.360  1.00  0.00     0.082 A 
ENDROOT
BRANCH   7   8
HETATM    8  C12 UNL     1      -8.677   5.209  -2.370  1.00  0.00     0.056 A 
HETATM    9  C13 UNL     1      -7.948   6.161  -3.020  1.00  0.00     0.067 A 
HETATM   10  S3  UNL     1      -6.337   5.668  -2.759  1.00  0.00    -0.058 SA
HETATM   11  C17 UNL     1      -6.624   4.268  -1.834  1.00  0.00     0.183 A 
HETATM   12  C18 UNL     1      -7.986   4.223  -1.753  1.00  0.00     0.170 A 
HETATM   13  F2  UNL     1      -8.587   3.182  -1.050  1.00  0.00    -0.202 F 
BRANCH   9  14
HETATM   14  C14 UNL     1      -8.353   7.354  -3.774  1.00  0.00     0.141 A 
HETATM   15  N5  UNL     1      -8.652   7.338  -5.060  1.00  0.00    -0.175 N 
HETATM   16  C15 UNL     1      -9.023   8.451  -5.714  1.00  0.00     0.679 A 
ATOM     17  H5  UNL     1      -8.601   6.456  -5.570  1.00  0.00     0.186 HD
HETATM   18  N7  UNL     1      -9.097   9.625  -5.067  1.00  0.00    -0.164 N 
HETATM   19  C16 UNL     1      -8.801   9.681  -3.756  1.00  0.00     0.208 A 
ATOM     20  H7  UNL     1      -9.378  10.469  -5.566  1.00  0.00     0.187 HD
HETATM   21  N8  UNL     1      -8.856  10.880  -3.004  1.00  0.00    -0.063 NA
HETATM   22  N9  UNL     1      -8.437   8.548  -3.142  1.00  0.00    -0.315 N 
ATOM     23  H9  UNL     1      -8.210   8.588  -2.149  1.00  0.00     0.170 HD
BRANCH  16  24
HETATM   24  N6  UNL     1      -9.306   8.406  -6.963  1.00  0.00    -0.234 N 
ATOM     25  H62 UNL     1      -9.232   7.518  -7.458  1.00  0.00     0.174 HD
ATOM     26  H61 UNL     1      -9.604   9.249  -7.456  1.00  0.00     0.174 HD
ENDBRANCH  16  24
ENDBRANCH   9  14
BRANCH  11  27
HETATM   27  N10 UNL     1      -5.657   3.352  -1.272  1.00  0.00    -0.105 N 
HETATM   28  O8  UNL     1      -5.306   3.565  -0.096  1.00  0.00    -0.531 OA
HETATM   29  O9  UNL     1      -5.192   2.334  -2.031  1.00  0.00    -0.531 OA
ENDBRANCH  11  27
ENDBRANCH   7   8
BRANCH   1  30
HETATM   30  C2  UNL     1     -10.754   3.359  -3.900  1.00  0.00     0.312 C 
HETATM   31  O2  UNL     1     -11.089   2.200  -3.585  1.00  0.00    -0.258 OA
BRANCH  30  32
HETATM   32  O1  UNL     1     -10.094   3.593  -5.084  1.00  0.00    -0.321 OA
HETATM   33  C1  UNL     1      -8.823   2.976  -5.286  1.00  0.00     0.213 C 
ENDBRANCH  30  32
ENDBRANCH   1  30
BRANCH   4  34
HETATM   34  C5  UNL     1     -13.270   6.755  -1.245  1.00  0.00     0.046 A 
HETATM   35  C6  UNL     1     -14.572   6.703  -1.766  1.00  0.00     0.062 A 
HETATM   36  C7  UNL     1     -15.587   7.455  -1.261  1.00  0.00     0.140 A 
HETATM   37  F1  UNL     1     -16.818   7.317  -1.855  1.00  0.00    -0.204 F 
HETATM   38  C8  UNL     1     -15.373   8.297  -0.218  1.00  0.00     0.120 A 
HETATM   39  C9  UNL     1     -14.107   8.370   0.315  1.00  0.00     0.067 A 
HETATM   40  C10 UNL     1     -13.056   7.597  -0.198  1.00  0.00     0.106 A 
BRANCH  38  41
HETATM   41  S1  UNL     1     -16.709   9.245   0.397  1.00  0.00     0.259 S 
HETATM   42  O3  UNL     1     -16.855  10.446  -0.496  1.00  0.00    -0.201 OA
HETATM   43  O4  UNL     1     -17.956   8.425   0.450  1.00  0.00    -0.201 OA
BRANCH  41  44
HETATM   44  N2  UNL     1     -16.314   9.739   2.017  1.00  0.00    -0.324 N 
ATOM     45  H22 UNL     1     -16.034  10.679   2.294  1.00  0.00     0.169 HD
ATOM     46  H21 UNL     1     -16.414   8.927   2.626  1.00  0.00     0.169 HD
ENDBRANCH  41  44
ENDBRANCH  38  41
BRANCH  40  47
HETATM   47  O5  UNL     1     -11.800   7.714   0.390  1.00  0.00    -0.216 OA
BRANCH  47  48
HETATM   48  S2  UNL     1     -10.806   9.061  -0.000  1.00  0.00     0.360 S 
HETATM   49  O6  UNL     1      -9.433   8.556  -0.264  1.00  0.00    -0.176 OA
HETATM   50  O7  UNL     1     -10.814  10.097   1.055  1.00  0.00    -0.176 OA
BRANCH  48  51
HETATM   51  N3  UNL     1     -11.400   9.755  -1.479  1.00  0.00    -0.305 N 
ATOM     52  H32 UNL     1     -11.602   9.235  -2.333  1.00  0.00     0.171 HD
ATOM     53  H31 UNL     1     -11.507  10.759  -1.335  1.00  0.00     0.171 HD
ENDBRANCH  48  51
ENDBRANCH  47  48
ENDBRANCH  40  47
ENDBRANCH   4  34
TORSDOF 12
ENDMDL
MODEL 2
REMARK VINA RESULT: -6.931648293      0.716      1.490
REMARK  12 active torsions:
REMARK  status: ('A' for Active; 'I' for Inactive)
REMARK    1  A    between atoms: O1_2  and  C2_3 
REMARK    2  A    between atoms: C2_3  and  C3_5 
REMARK    3  A    between atoms: C4_8  and  C5_9 
REMARK    4  A    between atoms: C8_13  and  S1_14 
REMARK    5  A    between atoms: S1_14  and  N2_15 
REMARK    6  A    between atoms: C10_21  and  O5_22 
REMARK    7  A    between atoms: O5_22  and  S2_23 
REMARK    8  A    between atoms: S2_23  and  N3_24 
REMARK    9  A    between atoms: C11_31  and  C12_32 
REMARK   10  A    between atoms: C13_33  and  C14_34 
REMARK   11  A    between atoms: C15_37  and  N6_38 
REMARK   12  A    between atoms: C17_48  and  N10_49 
ROOT
HETATM    1  C3  UNL     1     -11.086   4.427  -2.981  1.00  0.00     0.138 A 
HETATM    2  N1  UNL     1     -12.346   4.870  -2.656  1.00  0.00    -0.335 N 
ATOM      3  H1  UNL     1     -13.216   4.461  -2.999  1.00  0.00     0.168 HD
HETATM    4  C4  UNL     1     -12.266   5.894  -1.841  1.00  0.00     0.119 A 
HETATM    5  N4  UNL     1     -10.949   6.109  -1.644  1.00  0.00    -0.339 N 
ATOM      6  H4  UNL     1     -10.569   6.846  -1.050  1.00  0.00     0.167 HD
HETATM    7  C11 UNL     1     -10.203   5.231  -2.326  1.00  0.00     0.082 A 
ENDROOT
BRANCH   7   8
HETATM    8  C12 UNL     1      -8.706   5.175  -2.334  1.00  0.00     0.056 A 
HETATM    9  C13 UNL     1      -7.974   6.172  -2.910  1.00  0.00     0.067 A 
HETATM   10  S3  UNL     1      -6.365   5.661  -2.677  1.00  0.00    -0.058 SA
HETATM   11  C17 UNL     1      -6.655   4.198  -1.858  1.00  0.00     0.183 A 
HETATM   12  C18 UNL     1      -8.017   4.148  -1.786  1.00  0.00     0.170 A 
HETATM   13  F2  UNL     1      -8.621   3.058  -1.164  1.00  0.00    -0.202 F 
BRANCH   9  14
HETATM   14  C14 UNL     1      -8.376   7.416  -3.577  1.00  0.00     0.141 A 
HETATM   15  N5  UNL     1      -8.702   8.519  -2.929  1.00  0.00    -0.175 N 
HETATM   16  C15 UNL     1      -9.063   9.640  -3.575  1.00  0.00     0.679 A 
ATOM     17  H5  UNL     1      -8.680   8.520  -1.909  1.00  0.00     0.186 HD
HETATM   18  N7  UNL     1      -9.101   9.666  -4.917  1.00  0.00    -0.164 N 
HETATM   19  C16 UNL     1      -8.775   8.562  -5.612  1.00  0.00     0.208 A 
ATOM     20  H7  UNL     1      -9.376  10.518  -5.406  1.00  0.00     0.187 HD
HETATM   21  N8  UNL     1      -8.792   8.510  -7.028  1.00  0.00    -0.063 NA
HETATM   22  N9  UNL     1      -8.422   7.467  -4.929  1.00  0.00    -0.315 N 
ATOM     23  H9  UNL     1      -8.175   6.628  -5.454  1.00  0.00     0.170 HD
BRANCH  16  24
HETATM   24  N6  UNL     1      -9.375  10.696  -2.921  1.00  0.00    -0.234 N 
ATOM     25  H62 UNL     1     -10.355  10.876  -2.706  1.00  0.00     0.174 HD
ATOM     26  H61 UNL     1      -8.652  11.349  -2.617  1.00  0.00     0.174 HD
ENDBRANCH  16  24
ENDBRANCH   9  14
BRANCH  11  27
HETATM   27  N10 UNL     1      -5.691   3.244  -1.359  1.00  0.00    -0.105 N 
HETATM   28  O8  UNL     1      -5.221   3.466  -0.228  1.00  0.00    -0.531 OA
HETATM   29  O9  UNL     1      -5.353   2.183  -2.127  1.00  0.00    -0.531 OA
ENDBRANCH  11  27
ENDBRANCH   7   8
BRANCH   1  30
HETATM   30  C2  UNL     1     -10.780   3.313  -3.853  1.00  0.00     0.312 C 
HETATM   31  O2  UNL     1     -11.193   2.171  -3.575  1.00  0.00    -0.258 OA
BRANCH  30  32
HETATM   32  O1  UNL     1     -10.031   3.524  -4.988  1.00  0.00    -0.321 OA
HETATM   33  C1  UNL     1     -10.471   4.513  -5.918  1.00  0.00     0.213 C 
ENDBRANCH  30  32
ENDBRANCH   1  30
BRANCH   4  34
HETATM   34  C5  UNL     1     -13.301   6.728  -1.227  1.00  0.00     0.046 A 
HETATM   35  C6  UNL     1     -14.581   6.734  -1.801  1.00  0.00     0.062 A 
HETATM   36  C7  UNL     1     -15.596   7.494  -1.306  1.00  0.00     0.140 A 
HETATM   37  F1  UNL     1     -16.804   7.416  -1.953  1.00  0.00    -0.204 F 
HETATM   38  C8  UNL     1     -15.401   8.287  -0.220  1.00  0.00     0.120 A 
HETATM   39  C9  UNL     1     -14.156   8.301   0.365  1.00  0.00     0.067 A 
HETATM   40  C10 UNL     1     -13.107   7.520  -0.138  1.00  0.00     0.106 A 
BRANCH  38  41
HETATM   41  S1  UNL     1     -16.735   9.248   0.380  1.00  0.00     0.259 S 
HETATM   42  O3  UNL     1     -16.866  10.445  -0.521  1.00  0.00    -0.201 OA
HETATM   43  O4  UNL     1     -17.988   8.436   0.429  1.00  0.00    -0.201 OA
BRANCH  41  44
HETATM   44  N2  UNL     1     -16.348   9.748   1.999  1.00  0.00    -0.324 N 
ATOM     45  H22 UNL     1     -16.844   9.455   2.841  1.00  0.00     0.169 HD
ATOM     46  H21 UNL     1     -15.547  10.378   1.950  1.00  0.00     0.169 HD
ENDBRANCH  41  44
ENDBRANCH  38  41
BRANCH  40  47
HETATM   47  O5  UNL     1     -11.873   7.576   0.504  1.00  0.00    -0.216 OA
BRANCH  47  48
HETATM   48  S2  UNL     1     -10.842   8.925   0.235  1.00  0.00     0.360 S 
HETATM   49  O6  UNL     1     -11.520   9.835  -0.726  1.00  0.00    -0.176 OA
HETATM   50  O7  UNL     1      -9.501   8.527  -0.243  1.00  0.00    -0.176 OA
BRANCH  48  51
HETATM   51  N3  UNL     1     -10.677   9.782   1.738  1.00  0.00    -0.305 N 
ATOM     52  H32 UNL     1      -9.830   9.816   2.305  1.00  0.00     0.171 HD
ATOM     53  H31 UNL     1     -11.568  10.235   1.941  1.00  0.00     0.171 HD
ENDBRANCH  48  51
ENDBRANCH  47  48
ENDBRANCH  40  47
ENDBRANCH   4  34
TORSDOF 12
ENDMDL
MODEL 3
REMARK VINA RESULT: -6.722928897      3.119      8.225
REMARK  12 active torsions:
REMARK  status: ('A' for Active; 'I' for Inactive)
REMARK    1  A    between atoms: O1_2  and  C2_3 
REMARK    2  A    between atoms: C2_3  and  C3_5 
REMARK    3  A    between atoms: C4_8  and  C5_9 
REMARK    4  A    between atoms: C8_13  and  S1_14 
REMARK    5  A    between atoms: S1_14  and  N2_15 
REMARK    6  A    between atoms: C10_21  and  O5_22 
REMARK    7  A    between atoms: O5_22  and  S2_23 
REMARK    8  A    between atoms: S2_23  and  N3_24 
REMARK    9  A    between atoms: C11_31  and  C12_32 
REMARK   10  A    between atoms: C13_33  and  C14_34 
REMARK   11  A    between atoms: C15_37  and  N6_38 
REMARK   12  A    between atoms: C17_48  and  N10_49 
ROOT
HETATM    1  C3  UNL     1     -12.933   8.591  -3.203  1.00  0.00     0.138 A 
HETATM    2  N1  UNL     1     -12.186   7.837  -4.076  1.00  0.00    -0.335 N 
ATOM      3  H1  UNL     1     -11.606   8.214  -4.826  1.00  0.00     0.168 HD
HETATM    4  C4  UNL     1     -12.328   6.562  -3.804  1.00  0.00     0.119 A 
HETATM    5  N4  UNL     1     -13.170   6.499  -2.751  1.00  0.00    -0.339 N 
ATOM      6  H4  UNL     1     -13.473   5.631  -2.308  1.00  0.00     0.167 HD
HETATM    7  C11 UNL     1     -13.557   7.720  -2.362  1.00  0.00     0.082 A 
ENDROOT
BRANCH   7   8
HETATM    8  C12 UNL     1     -14.485   8.022  -1.224  1.00  0.00     0.056 A 
HETATM    9  C13 UNL     1     -13.996   8.401  -0.008  1.00  0.00     0.067 A 
HETATM   10  S3  UNL     1     -15.403   8.615   0.930  1.00  0.00    -0.058 SA
HETATM   11  C17 UNL     1     -16.576   8.219  -0.237  1.00  0.00     0.183 A 
HETATM   12  C18 UNL     1     -15.829   7.927  -1.342  1.00  0.00     0.170 A 
HETATM   13  F2  UNL     1     -16.477   7.552  -2.516  1.00  0.00    -0.202 F 
BRANCH   9  14
HETATM   14  C14 UNL     1     -12.624   8.612   0.469  1.00  0.00     0.141 A 
HETATM   15  N5  UNL     1     -11.575   8.674  -0.331  1.00  0.00    -0.175 N 
HETATM   16  C15 UNL     1     -10.334   8.872   0.144  1.00  0.00     0.679 A 
ATOM     17  H5  UNL     1     -11.711   8.570  -1.336  1.00  0.00     0.186 HD
HETATM   18  N7  UNL     1     -10.126   9.011   1.463  1.00  0.00    -0.164 N 
HETATM   19  C16 UNL     1     -11.171   8.953   2.309  1.00  0.00     0.208 A 
ATOM     20  H7  UNL     1      -9.183   9.159   1.822  1.00  0.00     0.187 HD
HETATM   21  N8  UNL     1     -11.033   9.091   3.713  1.00  0.00    -0.063 NA
HETATM   22  N9  UNL     1     -12.390   8.755   1.795  1.00  0.00    -0.315 N 
ATOM     23  H9  UNL     1     -13.184   8.710   2.434  1.00  0.00     0.170 HD
BRANCH  16  24
HETATM   24  N6  UNL     1      -9.334   8.927  -0.655  1.00  0.00    -0.234 N 
ATOM     25  H62 UNL     1      -9.377   9.549  -1.463  1.00  0.00     0.174 HD
ATOM     26  H61 UNL     1      -8.504   8.358  -0.486  1.00  0.00     0.174 HD
ENDBRANCH  16  24
ENDBRANCH   9  14
BRANCH  11  27
HETATM   27  N10 UNL     1     -18.014   8.198  -0.091  1.00  0.00    -0.105 N 
HETATM   28  O8  UNL     1     -18.515   7.137   0.328  1.00  0.00    -0.531 OA
HETATM   29  O9  UNL     1     -18.727   9.302  -0.409  1.00  0.00    -0.531 OA
ENDBRANCH  11  27
ENDBRANCH   7   8
BRANCH   1  30
HETATM   30  C2  UNL     1     -13.021  10.035  -3.194  1.00  0.00     0.312 C 
HETATM   31  O2  UNL     1     -13.918  10.610  -3.841  1.00  0.00    -0.258 OA
BRANCH  30  32
HETATM   32  O1  UNL     1     -12.109  10.767  -2.469  1.00  0.00    -0.321 OA
HETATM   33  C1  UNL     1     -10.896  11.165  -3.108  1.00  0.00     0.213 C 
ENDBRANCH  30  32
ENDBRANCH   1  30
BRANCH   4  34
HETATM   34  C5  UNL     1     -11.771   5.366  -4.439  1.00  0.00     0.046 A 
HETATM   35  C6  UNL     1     -12.632   4.539  -5.176  1.00  0.00     0.062 A 
HETATM   36  C7  UNL     1     -12.202   3.400  -5.783  1.00  0.00     0.140 A 
HETATM   37  F1  UNL     1     -13.138   2.674  -6.477  1.00  0.00    -0.204 F 
HETATM   38  C8  UNL     1     -10.903   3.016  -5.694  1.00  0.00     0.120 A 
HETATM   39  C9  UNL     1     -10.034   3.806  -4.979  1.00  0.00     0.067 A 
HETATM   40  C10 UNL     1     -10.469   4.983  -4.352  1.00  0.00     0.106 A 
BRANCH  38  41
HETATM   41  S1  UNL     1     -10.396   1.542  -6.490  1.00  0.00     0.259 S 
HETATM   42  O3  UNL     1      -8.962   1.297  -6.110  1.00  0.00    -0.201 OA
HETATM   43  O4  UNL     1     -11.285   0.404  -6.107  1.00  0.00    -0.201 OA
BRANCH  41  44
HETATM   44  N2  UNL     1     -10.535   1.785  -8.206  1.00  0.00    -0.324 N 
ATOM     45  H22 UNL     1     -11.386   2.062  -8.695  1.00  0.00     0.169 HD
ATOM     46  H21 UNL     1      -9.623   1.603  -8.624  1.00  0.00     0.169 HD
ENDBRANCH  41  44
ENDBRANCH  38  41
BRANCH  40  47
HETATM   47  O5  UNL     1      -9.537   5.741  -3.648  1.00  0.00    -0.216 OA
BRANCH  47  48
HETATM   48  S2  UNL     1      -9.321   5.462  -1.966  1.00  0.00     0.360 S 
HETATM   49  O6  UNL     1     -10.544   5.931  -1.262  1.00  0.00    -0.176 OA
HETATM   50  O7  UNL     1      -8.103   6.110  -1.435  1.00  0.00    -0.176 OA
BRANCH  48  51
HETATM   51  N3  UNL     1      -9.203   3.746  -1.717  1.00  0.00    -0.305 N 
ATOM     52  H32 UNL     1      -8.928   3.066  -2.427  1.00  0.00     0.171 HD
ATOM     53  H31 UNL     1      -9.455   3.550  -0.749  1.00  0.00     0.171 HD
ENDBRANCH  48  51
ENDBRANCH  47  48
ENDBRANCH  40  47
ENDBRANCH   4  34
TORSDOF 12
ENDMDL
MODEL 4
REMARK VINA RESULT: -6.575353800      2.030      3.289
REMARK  12 active torsions:
REMARK  status: ('A' for Active; 'I' for Inactive)
REMARK    1  A    between atoms: O1_2  and  C2_3 
REMARK    2  A    between atoms: C2_3  and  C3_5 
REMARK    3  A    between atoms: C4_8  and  C5_9 
REMARK    4  A    between atoms: C8_13  and  S1_14 
REMARK    5  A    between atoms: S1_14  and  N2_15 
REMARK    6  A    between atoms: C10_21  and  O5_22 
REMARK    7  A    between atoms: O5_22  and  S2_23 
REMARK    8  A    between atoms: S2_23  and  N3_24 
REMARK    9  A    between atoms: C11_31  and  C12_32 
REMARK   10  A    between atoms: C13_33  and  C14_34 
REMARK   11  A    between atoms: C15_37  and  N6_38 
REMARK   12  A    between atoms: C17_48  and  N10_49 
ROOT
HETATM    1  C3  UNL     1      -9.436   5.306  -1.776  1.00  0.00     0.138 A 
HETATM    2  N1  UNL     1     -10.197   6.026  -0.887  1.00  0.00    -0.335 N 
ATOM      3  H1  UNL     1      -9.888   6.327   0.037  1.00  0.00     0.168 HD
HETATM    4  C4  UNL     1     -11.379   6.270  -1.401  1.00  0.00     0.119 A 
HETATM    5  N4  UNL     1     -11.374   5.703  -2.626  1.00  0.00    -0.339 N 
ATOM      6  H4  UNL     1     -12.162   5.725  -3.273  1.00  0.00     0.167 HD
HETATM    7  C11 UNL     1     -10.203   5.107  -2.884  1.00  0.00     0.082 A 
ENDROOT
BRANCH   7   8
HETATM    8  C12 UNL     1      -9.849   4.385  -4.149  1.00  0.00     0.056 A 
HETATM    9  C13 UNL     1      -9.000   4.945  -5.057  1.00  0.00     0.067 A 
HETATM   10  S3  UNL     1      -8.922   3.775  -6.294  1.00  0.00    -0.058 SA
HETATM   11  C17 UNL     1      -9.967   2.605  -5.633  1.00  0.00     0.183 A 
HETATM   12  C18 UNL     1     -10.353   3.166  -4.450  1.00  0.00     0.170 A 
HETATM   13  F2  UNL     1     -11.231   2.467  -3.626  1.00  0.00    -0.202 F 
BRANCH   9  14
HETATM   14  C14 UNL     1      -8.275   6.222  -5.056  1.00  0.00     0.141 A 
HETATM   15  N5  UNL     1      -8.799   7.359  -5.474  1.00  0.00    -0.175 N 
HETATM   16  C15 UNL     1      -8.105   8.508  -5.455  1.00  0.00     0.679 A 
ATOM     17  H5  UNL     1      -9.758   7.364  -5.821  1.00  0.00     0.186 HD
HETATM   18  N7  UNL     1      -6.840   8.529  -5.004  1.00  0.00    -0.164 N 
HETATM   19  C16 UNL     1      -6.272   7.389  -4.569  1.00  0.00     0.208 A 
ATOM     20  H7  UNL     1      -6.314   9.402  -4.991  1.00  0.00     0.187 HD
HETATM   21  N8  UNL     1      -4.943   7.330  -4.079  1.00  0.00    -0.063 NA
HETATM   22  N9  UNL     1      -6.999   6.267  -4.605  1.00  0.00    -0.315 N 
ATOM     23  H9  UNL     1      -6.570   5.402  -4.277  1.00  0.00     0.170 HD
BRANCH  16  24
HETATM   24  N6  UNL     1      -8.639   9.597  -5.868  1.00  0.00    -0.234 N 
ATOM     25  H62 UNL     1      -9.642   9.621  -6.049  1.00  0.00     0.174 HD
ATOM     26  H61 UNL     1      -8.068  10.430  -6.013  1.00  0.00     0.174 HD
ENDBRANCH  16  24
ENDBRANCH   9  14
BRANCH  11  27
HETATM   27  N10 UNL     1     -10.350   1.329  -6.193  1.00  0.00    -0.105 N 
HETATM   28  O8  UNL     1     -11.572   1.123  -6.325  1.00  0.00    -0.531 OA
HETATM   29  O9  UNL     1      -9.389   0.441  -6.536  1.00  0.00    -0.531 OA
ENDBRANCH  11  27
ENDBRANCH   7   8
BRANCH   1  30
HETATM   30  C2  UNL     1      -8.077   4.860  -1.558  1.00  0.00     0.312 C 
HETATM   31  O2  UNL     1      -7.146   5.688  -1.515  1.00  0.00    -0.258 OA
BRANCH  30  32
HETATM   32  O1  UNL     1      -7.820   3.517  -1.399  1.00  0.00    -0.321 OA
HETATM   33  C1  UNL     1      -6.832   2.911  -2.233  1.00  0.00     0.213 C 
ENDBRANCH  30  32
ENDBRANCH   1  30
BRANCH   4  34
HETATM   34  C5  UNL     1     -12.546   6.970  -0.862  1.00  0.00     0.046 A 
HETATM   35  C6  UNL     1     -13.795   6.742  -1.459  1.00  0.00     0.062 A 
HETATM   36  C7  UNL     1     -14.928   7.365  -1.034  1.00  0.00     0.140 A 
HETATM   37  F1  UNL     1     -16.091   7.061  -1.696  1.00  0.00    -0.204 F 
HETATM   38  C8  UNL     1     -14.888   8.244   0.001  1.00  0.00     0.120 A 
HETATM   39  C9  UNL     1     -13.678   8.487   0.607  1.00  0.00     0.067 A 
HETATM   40  C10 UNL     1     -12.507   7.848   0.176  1.00  0.00     0.106 A 
BRANCH  38  41
HETATM   41  S1  UNL     1     -16.370   9.022   0.512  1.00  0.00     0.259 S 
HETATM   42  O3  UNL     1     -16.675  10.105  -0.486  1.00  0.00    -0.201 OA
HETATM   43  O4  UNL     1     -17.477   8.025   0.622  1.00  0.00    -0.201 OA
BRANCH  41  44
HETATM   44  N2  UNL     1     -16.099   9.708   2.086  1.00  0.00    -0.324 N 
ATOM     45  H22 UNL     1     -15.315  10.310   2.339  1.00  0.00     0.169 HD
ATOM     46  H21 UNL     1     -16.856   9.402   2.697  1.00  0.00     0.169 HD
ENDBRANCH  41  44
ENDBRANCH  38  41
BRANCH  40  47
HETATM   47  O5  UNL     1     -11.315   8.134   0.835  1.00  0.00    -0.216 OA
BRANCH  47  48
HETATM   48  S2  UNL     1     -10.450   9.564   0.433  1.00  0.00     0.360 S 
HETATM   49  O6  UNL     1     -10.538  10.494   1.590  1.00  0.00    -0.176 OA
HETATM   50  O7  UNL     1     -10.941  10.193  -0.811  1.00  0.00    -0.176 OA
BRANCH  48  51
HETATM   51  N3  UNL     1      -8.777   9.140   0.231  1.00  0.00    -0.305 N 
ATOM     52  H32 UNL     1      -8.190   8.705   0.943  1.00  0.00     0.171 HD
ATOM     53  H31 UNL     1      -8.498   9.402  -0.715  1.00  0.00     0.171 HD
ENDBRANCH  48  51
ENDBRANCH  47  48
ENDBRANCH  40  47
ENDBRANCH   4  34
TORSDOF 12
ENDMDL
MODEL 5
REMARK VINA RESULT: -6.414970382      1.411      2.123
REMARK  12 active torsions:
REMARK  status: ('A' for Active; 'I' for Inactive)
REMARK    1  A    between atoms: O1_2  and  C2_3 
REMARK    2  A    between atoms: C2_3  and  C3_5 
REMARK    3  A    between atoms: C4_8  and  C5_9 
REMARK    4  A    between atoms: C8_13  and  S1_14 
REMARK    5  A    between atoms: S1_14  and  N2_15 
REMARK    6  A    between atoms: C10_21  and  O5_22 
REMARK    7  A    between atoms: O5_22  and  S2_23 
REMARK    8  A    between atoms: S2_23  and  N3_24 
REMARK    9  A    between atoms: C11_31  and  C12_32 
REMARK   10  A    between atoms: C13_33  and  C14_34 
REMARK   11  A    between atoms: C15_37  and  N6_38 
REMARK   12  A    between atoms: C17_48  and  N10_49 
ROOT
HETATM    1  C3  UNL     1     -11.148   3.902  -3.505  1.00  0.00     0.138 A 
HETATM    2  N1  UNL     1     -12.334   4.442  -3.070  1.00  0.00    -0.335 N 
ATOM      3  H1  UNL     1     -13.261   4.122  -3.352  1.00  0.00     0.168 HD
HETATM    4  C4  UNL     1     -12.101   5.429  -2.238  1.00  0.00     0.119 A 
HETATM    5  N4  UNL     1     -10.758   5.522  -2.140  1.00  0.00    -0.339 N 
ATOM      6  H4  UNL     1     -10.269   6.204  -1.561  1.00  0.00     0.167 HD
HETATM    7  C11 UNL     1     -10.149   4.604  -2.901  1.00  0.00     0.082 A 
ENDROOT
BRANCH   7   8
HETATM    8  C12 UNL     1      -8.667   4.418  -3.029  1.00  0.00     0.056 A 
HETATM    9  C13 UNL     1      -7.989   4.931  -4.096  1.00  0.00     0.067 A 
HETATM   10  S3  UNL     1      -6.378   4.460  -3.801  1.00  0.00    -0.058 SA
HETATM   11  C17 UNL     1      -6.600   3.625  -2.335  1.00  0.00     0.183 A 
HETATM   12  C18 UNL     1      -7.942   3.738  -2.112  1.00  0.00     0.170 A 
HETATM   13  F2  UNL     1      -8.489   3.156  -0.972  1.00  0.00    -0.202 F 
BRANCH   9  14
HETATM   14  C14 UNL     1      -8.441   5.714  -5.253  1.00  0.00     0.141 A 
HETATM   15  N5  UNL     1      -8.737   6.999  -5.193  1.00  0.00    -0.175 N 
HETATM   16  C15 UNL     1      -9.144   7.683  -6.276  1.00  0.00     0.679 A 
ATOM     17  H5  UNL     1      -8.654   7.486  -4.301  1.00  0.00     0.186 HD
HETATM   18  N7  UNL     1      -9.263   7.066  -7.462  1.00  0.00    -0.164 N 
HETATM   19  C16 UNL     1      -8.969   5.757  -7.563  1.00  0.00     0.208 A 
ATOM     20  H7  UNL     1      -9.573   7.587  -8.283  1.00  0.00     0.187 HD
HETATM   21  N8  UNL     1      -9.069   5.037  -8.779  1.00  0.00    -0.063 NA
HETATM   22  N9  UNL     1      -8.567   5.114  -6.460  1.00  0.00    -0.315 N 
ATOM     23  H9  UNL     1      -8.345   4.121  -6.533  1.00  0.00     0.170 HD
BRANCH  16  24
HETATM   24  N6  UNL     1      -9.426   8.930  -6.188  1.00  0.00    -0.234 N 
ATOM     25  H62 UNL     1     -10.385   9.210  -5.985  1.00  0.00     0.174 HD
ATOM     26  H61 UNL     1      -8.700   9.634  -6.320  1.00  0.00     0.174 HD
ENDBRANCH  16  24
ENDBRANCH   9  14
BRANCH  11  27
HETATM   27  N10 UNL     1      -5.605   2.958  -1.524  1.00  0.00    -0.105 N 
HETATM   28  O8  UNL     1      -5.412   3.424  -0.385  1.00  0.00    -0.531 OA
HETATM   29  O9  UNL     1      -4.948   1.889  -2.029  1.00  0.00    -0.531 OA
ENDBRANCH  11  27
ENDBRANCH   7   8
BRANCH   1  30
HETATM   30  C2  UNL     1     -11.010   2.794  -4.425  1.00  0.00     0.312 C 
HETATM   31  O2  UNL     1     -11.242   1.631  -4.042  1.00  0.00    -0.258 OA
BRANCH  30  32
HETATM   32  O1  UNL     1     -10.621   3.033  -5.723  1.00  0.00    -0.321 OA
HETATM   33  C1  UNL     1     -11.634   3.186  -6.718  1.00  0.00     0.213 C 
ENDBRANCH  30  32
ENDBRANCH   1  30
BRANCH   4  34
HETATM   34  C5  UNL     1     -13.006   6.330  -1.523  1.00  0.00     0.046 A 
HETATM   35  C6  UNL     1     -14.331   6.440  -1.972  1.00  0.00     0.062 A 
HETATM   36  C7  UNL     1     -15.234   7.267  -1.378  1.00  0.00     0.140 A 
HETATM   37  F1  UNL     1     -16.500   7.288  -1.908  1.00  0.00    -0.204 F 
HETATM   38  C8  UNL     1     -14.877   8.029  -0.312  1.00  0.00     0.120 A 
HETATM   39  C9  UNL     1     -13.585   7.943   0.152  1.00  0.00     0.067 A 
HETATM   40  C10 UNL     1     -12.650   7.091  -0.454  1.00  0.00     0.106 A 
BRANCH  38  41
HETATM   41  S1  UNL     1     -16.072   9.079   0.418  1.00  0.00     0.259 S 
HETATM   42  O3  UNL     1     -15.485   9.602   1.701  1.00  0.00    -0.201 OA
HETATM   43  O4  UNL     1     -16.451  10.178  -0.520  1.00  0.00    -0.201 OA
BRANCH  41  44
HETATM   44  N2  UNL     1     -17.491   8.129   0.745  1.00  0.00    -0.324 N 
ATOM     45  H22 UNL     1     -17.982   8.092   1.638  1.00  0.00     0.169 HD
ATOM     46  H21 UNL     1     -17.736   7.626  -0.108  1.00  0.00     0.169 HD
ENDBRANCH  41  44
ENDBRANCH  38  41
BRANCH  40  47
HETATM   47  O5  UNL     1     -11.361   7.046   0.068  1.00  0.00    -0.216 OA
BRANCH  47  48
HETATM   48  S2  UNL     1     -10.262   8.320  -0.287  1.00  0.00     0.360 S 
HETATM   49  O6  UNL     1      -9.081   7.728  -0.972  1.00  0.00    -0.176 OA
HETATM   50  O7  UNL     1      -9.869   9.083   0.916  1.00  0.00    -0.176 OA
BRANCH  48  51
HETATM   51  N3  UNL     1     -11.033   9.395  -1.414  1.00  0.00    -0.305 N 
ATOM     52  H32 UNL     1     -11.786  10.044  -1.186  1.00  0.00     0.171 HD
ATOM     53  H31 UNL     1     -10.599   9.257  -2.327  1.00  0.00     0.171 HD
ENDBRANCH  48  51
ENDBRANCH  47  48
ENDBRANCH  40  47
ENDBRANCH   4  34
TORSDOF 12
ENDMDL
