MODEL 1
REMARK VINA RESULT: -7.356597012      0.000      0.000
REMARK  11 active torsions:
REMARK  status: ('A' for Active; 'I' for Inactive)
REMARK    1  A    between atoms: O1_2  and  N1_3 
REMARK    2  A    between atoms: C3_5  and  C4_6 
REMARK    3  A    between atoms: C4_6  and  O2_7 
REMARK    4  A    between atoms: O2_7  and  C5_8 
REMARK    5  A    between atoms: C5_8  and  C6_10 
REMARK    6  A    between atoms: C9_14  and  O4_15 
REMARK    7  A    between atoms: O4_15  and  C10_16 
REMARK    8  A    between atoms: C12_21  and  S1_22 
REMARK    9  A    between atoms: S1_22  and  N3_23 
REMARK   10  A    between atoms: C21_46  and  O8_47 
REMARK   11  A    between atoms: C21_46  and  C22_49 
ROOT
HETATM    1  C6  UNL     1      19.376 -18.921  38.902  1.00  0.00     0.071 A 
HETATM    2  C7  UNL     1      19.017 -18.714  37.590  1.00  0.00     0.065 A 
HETATM    3  C8  UNL     1      18.041 -17.785  37.241  1.00  0.00     0.153 A 
HETATM    4  F1  UNL     1      17.746 -17.642  35.923  1.00  0.00    -0.203 F 
HETATM    5  C9  UNL     1      17.428 -17.064  38.238  1.00  0.00     0.147 A 
HETATM    6  C13 UNL     1      17.795 -17.278  39.552  1.00  0.00     0.099 A 
HETATM    7  N4  UNL     1      17.201 -16.576  40.535  1.00  0.00    -0.334 N 
ATOM      8  H4  UNL     1      16.481 -15.886  40.319  1.00  0.00     0.168 HD
HETATM    9  C14 UNL     1      17.572 -16.800  41.808  1.00  0.00     0.162 A 
HETATM   10  C15 UNL     1      18.540 -17.722  42.150  1.00  0.00     0.147 A 
HETATM   11  N5  UNL     1      19.148 -18.436  41.168  1.00  0.00    -0.337 N 
ATOM     12  H5  UNL     1      19.869 -19.124  41.390  1.00  0.00     0.167 HD
HETATM   13  C16 UNL     1      18.776 -18.213  39.894  1.00  0.00     0.080 A 
HETATM   14  N6  UNL     1      19.106 -18.143  43.381  1.00  0.00    -0.373 N 
ATOM     15  H6  UNL     1      19.566 -19.047  43.275  1.00  0.00     0.161 HD
HETATM   16  C17 UNL     1      19.224 -17.666  44.748  1.00  0.00     0.122 C 
HETATM   17  C18 UNL     1      18.689 -16.228  44.768  1.00  0.00     0.037 C 
HETATM   18  C19 UNL     1      17.188 -16.242  44.812  1.00  0.00     0.136 C 
HETATM   19  N7  UNL     1      16.658 -15.354  43.813  1.00  0.00    -0.140 NA
HETATM   20  N8  UNL     1      16.748 -15.899  42.536  1.00  0.00    -0.286 N 
ATOM     21  H8  UNL     1      15.996 -15.546  41.943  1.00  0.00     0.184 HD
ENDROOT
BRANCH   1  22
HETATM   22  C5  UNL     1      20.413 -19.910  39.248  1.00  0.00     0.295 C 
HETATM   23  O3  UNL     1      20.102 -20.779  40.094  1.00  0.00    -0.259 OA
BRANCH  22  24
HETATM   24  O2  UNL     1      21.645 -19.947  38.729  1.00  0.00    -0.317 OA
BRANCH  24  25
HETATM   25  C4  UNL     1      22.374 -20.757  37.934  1.00  0.00     0.185 C 
BRANCH  25  26
HETATM   26  C3  UNL     1      22.105 -20.915  36.488  1.00  0.00     0.034 C 
HETATM   27  C2  UNL     1      20.838 -21.586  36.080  1.00  0.00     0.161 C 
HETATM   28  N1  UNL     1      20.900 -21.964  34.693  1.00  0.00    -0.270 N 
HETATM   29  C23 UNL     1      21.962 -21.420  33.953  1.00  0.00     0.138 C 
HETATM   30  C21 UNL     1      22.155 -19.949  34.246  1.00  0.00     0.180 C 
HETATM   31  C20 UNL     1      22.289 -19.623  35.706  1.00  0.00     0.063 C 
BRANCH  28  32
HETATM   32  O1  UNL     1      20.606 -23.236  34.457  1.00  0.00    -0.284 OA
HETATM   33  C1  UNL     1      20.136 -23.936  35.545  1.00  0.00     0.237 C 
ENDBRANCH  28  32
BRANCH  30  34
HETATM   34  O8  UNL     1      23.377 -19.552  33.644  1.00  0.00    -0.374 OA
ATOM     35  H8  UNL     1      23.920 -20.331  33.619  1.00  0.00     0.211 HD
ENDBRANCH  30  34
BRANCH  30  36
HETATM   36  C22 UNL     1      21.072 -19.161  33.597  1.00  0.00     0.214 C 
HETATM   37  O9  UNL     1      20.144 -18.585  34.211  1.00  0.00    -0.645 OA
HETATM   38  O10 UNL     1      21.076 -19.045  32.221  1.00  0.00    -0.645 OA
ENDBRANCH  30  36
ENDBRANCH  25  26
ENDBRANCH  24  25
ENDBRANCH  22  24
ENDBRANCH   1  22
BRANCH   5  39
HETATM   39  O4  UNL     1      16.461 -16.144  37.878  1.00  0.00    -0.268 OA
BRANCH  39  40
HETATM   40  C10 UNL     1      16.758 -14.877  37.396  1.00  0.00     0.277 A 
HETATM   41  N2  UNL     1      17.127 -14.676  36.107  1.00  0.00    -0.303 N 
HETATM   42  C11 UNL     1      17.342 -13.378  35.949  1.00  0.00     0.154 A 
ATOM     43  H2  UNL     1      17.220 -15.393  35.388  1.00  0.00     0.171 HD
HETATM   44 CL1  UNL     1      17.840 -12.541  34.489  1.00  0.00    -0.060 Cl
HETATM   45  C12 UNL     1      17.089 -12.801  37.198  1.00  0.00     0.232 A 
HETATM   46  O7  UNL     1      16.744 -13.741  38.029  1.00  0.00    -0.256 OA
BRANCH  45  47
HETATM   47  S1  UNL     1      17.225 -11.102  37.548  1.00  0.00     0.282 S 
HETATM   48  O5  UNL     1      17.413 -10.955  39.040  1.00  0.00    -0.199 OA
HETATM   49  O6  UNL     1      18.379 -10.544  36.790  1.00  0.00    -0.199 OA
BRANCH  47  50
HETATM   50  N3  UNL     1      15.733 -10.331  37.153  1.00  0.00    -0.323 N 
ATOM     51  H32 UNL     1      15.648  -9.389  36.770  1.00  0.00     0.169 HD
ATOM     52  H31 UNL     1      14.965 -10.968  37.365  1.00  0.00     0.169 HD
ENDBRANCH  47  50
ENDBRANCH  45  47
ENDBRANCH  39  40
ENDBRANCH   5  39
TORSDOF 11
ENDMDL
MODEL 2
REMARK VINA RESULT: -7.347148056      4.873      9.737
REMARK  11 active torsions:
REMARK  status: ('A' for Active; 'I' for Inactive)
REMARK    1  A    between atoms: O1_2  and  N1_3 
REMARK    2  A    between atoms: C3_5  and  C4_6 
REMARK    3  A    between atoms: C4_6  and  O2_7 
REMARK    4  A    between atoms: O2_7  and  C5_8 
REMARK    5  A    between atoms: C5_8  and  C6_10 
REMARK    6  A    between atoms: C9_14  and  O4_15 
REMARK    7  A    between atoms: O4_15  and  C10_16 
REMARK    8  A    between atoms: C12_21  and  S1_22 
REMARK    9  A    between atoms: S1_22  and  N3_23 
REMARK   10  A    between atoms: C21_46  and  O8_47 
REMARK   11  A    between atoms: C21_46  and  C22_49 
ROOT
HETATM    1  C6  UNL     1      21.950 -17.888  37.944  1.00  0.00     0.071 A 
HETATM    2  C7  UNL     1      21.585 -18.932  38.762  1.00  0.00     0.065 A 
HETATM    3  C8  UNL     1      21.175 -20.155  38.240  1.00  0.00     0.153 A 
HETATM    4  F1  UNL     1      20.831 -21.134  39.116  1.00  0.00    -0.203 F 
HETATM    5  C9  UNL     1      21.136 -20.312  36.874  1.00  0.00     0.147 A 
HETATM    6  C13 UNL     1      21.504 -19.258  36.061  1.00  0.00     0.099 A 
HETATM    7  N4  UNL     1      21.470 -19.402  34.723  1.00  0.00    -0.334 N 
ATOM      8  H4  UNL     1      21.175 -20.284  34.303  1.00  0.00     0.168 HD
HETATM    9  C14 UNL     1      21.832 -18.364  33.949  1.00  0.00     0.162 A 
HETATM   10  C15 UNL     1      22.238 -17.153  34.470  1.00  0.00     0.147 A 
HETATM   11  N5  UNL     1      22.278 -16.994  35.819  1.00  0.00    -0.337 N 
ATOM     12  H5  UNL     1      22.576 -16.111  36.234  1.00  0.00     0.167 HD
HETATM   13  C16 UNL     1      21.915 -18.033  36.594  1.00  0.00     0.080 A 
HETATM   14  N6  UNL     1      22.662 -15.926  33.896  1.00  0.00    -0.373 N 
ATOM     15  H6  UNL     1      22.588 -15.168  34.572  1.00  0.00     0.161 HD
HETATM   16  C17 UNL     1      23.171 -15.434  32.627  1.00  0.00     0.122 C 
HETATM   17  C18 UNL     1      23.440 -16.662  31.746  1.00  0.00     0.037 C 
HETATM   18  C19 UNL     1      22.153 -17.146  31.140  1.00  0.00     0.136 C 
HETATM   19  N7  UNL     1      22.024 -18.565  31.329  1.00  0.00    -0.140 NA
HETATM   20  N8  UNL     1      21.669 -18.883  32.636  1.00  0.00    -0.286 N 
ATOM     21  H8  UNL     1      21.131 -19.750  32.659  1.00  0.00     0.184 HD
ENDROOT
BRANCH   1  22
HETATM   22  C5  UNL     1      22.382 -16.601  38.520  1.00  0.00     0.295 C 
HETATM   23  O3  UNL     1      23.571 -16.527  38.904  1.00  0.00    -0.259 OA
BRANCH  22  24
HETATM   24  O2  UNL     1      21.605 -15.521  38.659  1.00  0.00    -0.317 OA
BRANCH  24  25
HETATM   25  C4  UNL     1      20.379 -15.223  39.137  1.00  0.00     0.185 C 
BRANCH  25  26
HETATM   26  C3  UNL     1      19.137 -15.481  38.376  1.00  0.00     0.034 C 
HETATM   27  C2  UNL     1      19.179 -15.329  36.894  1.00  0.00     0.161 C 
HETATM   28  N1  UNL     1      17.844 -15.270  36.362  1.00  0.00    -0.270 N 
HETATM   29  C23 UNL     1      16.812 -15.623  37.247  1.00  0.00     0.138 C 
HETATM   30  C21 UNL     1      17.153 -16.865  38.040  1.00  0.00     0.180 C 
HETATM   31  C20 UNL     1      18.475 -16.800  38.749  1.00  0.00     0.063 C 
BRANCH  28  32
HETATM   32  O1  UNL     1      17.613 -14.230  35.570  1.00  0.00    -0.284 OA
HETATM   33  C1  UNL     1      17.261 -13.070  36.222  1.00  0.00     0.237 C 
ENDBRANCH  28  32
BRANCH  30  34
HETATM   34  O8  UNL     1      16.173 -17.002  39.056  1.00  0.00    -0.374 OA
ATOM     35  H8  UNL     1      15.657 -16.205  39.030  1.00  0.00     0.211 HD
ENDBRANCH  30  34
BRANCH  30  36
HETATM   36  C22 UNL     1      17.048 -18.064  37.166  1.00  0.00     0.214 C 
HETATM   37  O9  UNL     1      18.022 -18.652  36.641  1.00  0.00    -0.645 OA
HETATM   38  O10 UNL     1      15.794 -18.581  36.904  1.00  0.00    -0.645 OA
ENDBRANCH  30  36
ENDBRANCH  25  26
ENDBRANCH  24  25
ENDBRANCH  22  24
ENDBRANCH   1  22
BRANCH   5  39
HETATM   39  O4  UNL     1      20.727 -21.531  36.369  1.00  0.00    -0.268 OA
BRANCH  39  40
HETATM   40  C10 UNL     1      21.533 -22.662  36.365  1.00  0.00     0.277 A 
HETATM   41  N2  UNL     1      21.188 -23.782  37.047  1.00  0.00    -0.303 N 
HETATM   42  C11 UNL     1      22.145 -24.679  36.853  1.00  0.00     0.154 A 
ATOM     43  H2  UNL     1      20.346 -23.911  37.607  1.00  0.00     0.171 HD
HETATM   44 CL1  UNL     1      22.232 -26.311  37.492  1.00  0.00    -0.060 Cl
HETATM   45  C12 UNL     1      23.083 -24.055  36.025  1.00  0.00     0.232 A 
HETATM   46  O7  UNL     1      22.670 -22.848  35.762  1.00  0.00    -0.256 OA
BRANCH  45  47
HETATM   47  S1  UNL     1      24.551 -24.797  35.458  1.00  0.00     0.282 S 
HETATM   48  O5  UNL     1      24.185 -26.126  34.842  1.00  0.00    -0.199 OA
HETATM   49  O6  UNL     1      25.198 -23.891  34.468  1.00  0.00    -0.199 OA
BRANCH  47  50
HETATM   50  N3  UNL     1      25.565 -25.134  36.813  1.00  0.00    -0.323 N 
ATOM     51  H32 UNL     1      25.717 -24.501  37.598  1.00  0.00     0.169 HD
ATOM     52  H31 UNL     1      25.977 -26.059  36.694  1.00  0.00     0.169 HD
ENDBRANCH  47  50
ENDBRANCH  45  47
ENDBRANCH  39  40
ENDBRANCH   5  39
TORSDOF 11
ENDMDL
MODEL 3
REMARK VINA RESULT: -7.324557855      4.804      7.059
REMARK  11 active torsions:
REMARK  status: ('A' for Active; 'I' for Inactive)
REMARK    1  A    between atoms: O1_2  and  N1_3 
REMARK    2  A    between atoms: C3_5  and  C4_6 
REMARK    3  A    between atoms: C4_6  and  O2_7 
REMARK    4  A    between atoms: O2_7  and  C5_8 
REMARK    5  A    between atoms: C5_8  and  C6_10 
REMARK    6  A    between atoms: C9_14  and  O4_15 
REMARK    7  A    between atoms: O4_15  and  C10_16 
REMARK    8  A    between atoms: C12_21  and  S1_22 
REMARK    9  A    between atoms: S1_22  and  N3_23 
REMARK   10  A    between atoms: C21_46  and  O8_47 
REMARK   11  A    between atoms: C21_46  and  C22_49 
ROOT
HETATM    1  C6  UNL     1      23.090 -17.236  32.328  1.00  0.00     0.071 A 
HETATM    2  C7  UNL     1      23.991 -16.771  31.397  1.00  0.00     0.065 A 
HETATM    3  C8  UNL     1      24.563 -15.508  31.508  1.00  0.00     0.153 A 
HETATM    4  F1  UNL     1      25.443 -15.125  30.547  1.00  0.00    -0.203 F 
HETATM    5  C9  UNL     1      24.214 -14.714  32.575  1.00  0.00     0.147 A 
HETATM    6  C13 UNL     1      23.309 -15.189  33.505  1.00  0.00     0.099 A 
HETATM    7  N4  UNL     1      22.961 -14.420  34.553  1.00  0.00    -0.334 N 
ATOM      8  H4  UNL     1      23.360 -13.488  34.668  1.00  0.00     0.168 HD
HETATM    9  C14 UNL     1      22.078 -14.901  35.446  1.00  0.00     0.162 A 
HETATM   10  C15 UNL     1      21.513 -16.154  35.333  1.00  0.00     0.147 A 
HETATM   11  N5  UNL     1      21.856 -16.941  34.280  1.00  0.00    -0.337 N 
ATOM     12  H5  UNL     1      21.456 -17.874  34.170  1.00  0.00     0.167 HD
HETATM   13  C16 UNL     1      22.739 -16.459  33.386  1.00  0.00     0.080 A 
HETATM   14  N6  UNL     1      20.581 -16.888  36.113  1.00  0.00    -0.373 N 
ATOM     15  H6  UNL     1      20.171 -17.644  35.566  1.00  0.00     0.161 HD
HETATM   16  C17 UNL     1      20.041 -16.878  37.461  1.00  0.00     0.122 C 
HETATM   17  C18 UNL     1      20.853 -15.852  38.262  1.00  0.00     0.037 C 
HETATM   18  C19 UNL     1      20.359 -14.465  37.963  1.00  0.00     0.136 C 
HETATM   19  N7  UNL     1      21.469 -13.603  37.657  1.00  0.00    -0.140 NA
HETATM   20  N8  UNL     1      21.966 -13.834  36.378  1.00  0.00    -0.286 N 
ATOM     21  H8  UNL     1      22.372 -12.980  35.994  1.00  0.00     0.184 HD
ENDROOT
BRANCH   1  22
HETATM   22  C5  UNL     1      22.497 -18.579  32.190  1.00  0.00     0.295 C 
HETATM   23  O3  UNL     1      21.287 -18.630  31.871  1.00  0.00    -0.259 OA
BRANCH  22  24
HETATM   24  O2  UNL     1      23.148 -19.731  32.379  1.00  0.00    -0.317 OA
BRANCH  24  25
HETATM   25  C4  UNL     1      23.545 -20.500  33.415  1.00  0.00     0.185 C 
BRANCH  25  26
HETATM   26  C3  UNL     1      22.597 -21.085  34.388  1.00  0.00     0.034 C 
HETATM   27  C2  UNL     1      22.991 -22.345  35.081  1.00  0.00     0.161 C 
HETATM   28  N1  UNL     1      21.844 -22.949  35.704  1.00  0.00    -0.270 N 
HETATM   29  C23 UNL     1      20.691 -22.152  35.778  1.00  0.00     0.138 C 
HETATM   30  C21 UNL     1      21.012 -20.739  36.214  1.00  0.00     0.180 C 
HETATM   31  C20 UNL     1      22.082 -20.070  35.399  1.00  0.00     0.063 C 
BRANCH  28  32
HETATM   32  O1  UNL     1      21.660 -24.226  35.395  1.00  0.00    -0.284 OA
HETATM   33  C1  UNL     1      20.649 -24.852  36.091  1.00  0.00     0.237 C 
ENDBRANCH  28  32
BRANCH  30  34
HETATM   34  O8  UNL     1      19.840 -19.961  36.032  1.00  0.00    -0.374 OA
ATOM     35  H8  UNL     1      19.256 -20.200  36.742  1.00  0.00     0.211 HD
ENDBRANCH  30  34
BRANCH  30  36
HETATM   36  C22 UNL     1      21.327 -20.721  37.668  1.00  0.00     0.214 C 
HETATM   37  O9  UNL     1      22.476 -20.850  38.150  1.00  0.00    -0.645 OA
HETATM   38  O10 UNL     1      20.291 -20.550  38.565  1.00  0.00    -0.645 OA
ENDBRANCH  30  36
ENDBRANCH  25  26
ENDBRANCH  24  25
ENDBRANCH  22  24
ENDBRANCH   1  22
BRANCH   5  39
HETATM   39  O4  UNL     1      24.789 -13.461  32.673  1.00  0.00    -0.268 OA
BRANCH  39  40
HETATM   40  C10 UNL     1      24.129 -12.292  32.322  1.00  0.00     0.277 A 
HETATM   41  N2  UNL     1      24.696 -11.375  31.500  1.00  0.00    -0.303 N 
HETATM   42  C11 UNL     1      23.833 -10.380  31.352  1.00  0.00     0.154 A 
ATOM     43  H2  UNL     1      25.620 -11.440  31.072  1.00  0.00     0.171 HD
HETATM   44 CL1  UNL     1      24.029  -8.921  30.399  1.00  0.00    -0.060 Cl
HETATM   45  C12 UNL     1      22.719 -10.733  32.120  1.00  0.00     0.232 A 
HETATM   46  O7  UNL     1      22.946 -11.886  32.681  1.00  0.00    -0.256 OA
BRANCH  45  47
HETATM   47  S1  UNL     1      21.280  -9.767  32.279  1.00  0.00     0.282 S 
HETATM   48  O5  UNL     1      20.201 -10.643  32.870  1.00  0.00    -0.199 OA
HETATM   49  O6  UNL     1      21.579  -8.597  33.153  1.00  0.00    -0.199 OA
BRANCH  47  50
HETATM   50  N3  UNL     1      20.744  -9.302  30.707  1.00  0.00    -0.323 N 
ATOM     51  H32 UNL     1      20.953  -9.810  29.847  1.00  0.00     0.169 HD
ATOM     52  H31 UNL     1      20.192  -8.448  30.785  1.00  0.00     0.169 HD
ENDBRANCH  47  50
ENDBRANCH  45  47
ENDBRANCH  39  40
ENDBRANCH   5  39
TORSDOF 11
ENDMDL
MODEL 4
REMARK VINA RESULT: -7.259600108      4.114      7.853
REMARK  11 active torsions:
REMARK  status: ('A' for Active; 'I' for Inactive)
REMARK    1  A    between atoms: O1_2  and  N1_3 
REMARK    2  A    between atoms: C3_5  and  C4_6 
REMARK    3  A    between atoms: C4_6  and  O2_7 
REMARK    4  A    between atoms: O2_7  and  C5_8 
REMARK    5  A    between atoms: C5_8  and  C6_10 
REMARK    6  A    between atoms: C9_14  and  O4_15 
REMARK    7  A    between atoms: O4_15  and  C10_16 
REMARK    8  A    between atoms: C12_21  and  S1_22 
REMARK    9  A    between atoms: S1_22  and  N3_23 
REMARK   10  A    between atoms: C21_46  and  O8_47 
REMARK   11  A    between atoms: C21_46  and  C22_49 
ROOT
HETATM    1  C6  UNL     1      22.874 -20.945  34.788  1.00  0.00     0.071 A 
HETATM    2  C7  UNL     1      21.618 -21.253  35.261  1.00  0.00     0.065 A 
HETATM    3  C8  UNL     1      20.564 -20.351  35.163  1.00  0.00     0.153 A 
HETATM    4  F1  UNL     1      19.357 -20.733  35.655  1.00  0.00    -0.203 F 
HETATM    5  C9  UNL     1      20.792 -19.127  34.579  1.00  0.00     0.147 A 
HETATM    6  C13 UNL     1      22.054 -18.827  34.107  1.00  0.00     0.099 A 
HETATM    7  N4  UNL     1      22.288 -17.632  33.533  1.00  0.00    -0.334 N 
ATOM      8  H4  UNL     1      21.539 -16.944  33.443  1.00  0.00     0.168 HD
HETATM    9  C14 UNL     1      23.524 -17.359  33.081  1.00  0.00     0.162 A 
HETATM   10  C15 UNL     1      24.568 -18.256  33.180  1.00  0.00     0.147 A 
HETATM   11  N5  UNL     1      24.346 -19.467  33.756  1.00  0.00    -0.337 N 
ATOM     12  H5  UNL     1      25.098 -20.151  33.842  1.00  0.00     0.167 HD
HETATM   13  C16 UNL     1      23.108 -19.739  34.210  1.00  0.00     0.080 A 
HETATM   14  N6  UNL     1      25.933 -18.224  32.795  1.00  0.00    -0.373 N 
ATOM     15  H6  UNL     1      26.465 -18.934  33.298  1.00  0.00     0.161 HD
HETATM   16  C17 UNL     1      26.795 -17.478  31.894  1.00  0.00     0.122 C 
HETATM   17  C18 UNL     1      25.886 -16.584  31.043  1.00  0.00     0.037 C 
HETATM   18  C19 UNL     1      25.498 -15.360  31.822  1.00  0.00     0.136 C 
HETATM   19  N7  UNL     1      24.077 -15.157  31.744  1.00  0.00    -0.140 NA
HETATM   20  N8  UNL     1      23.381 -16.045  32.559  1.00  0.00    -0.286 N 
ATOM     21  H8  UNL     1      22.507 -15.628  32.877  1.00  0.00     0.184 HD
ENDROOT
BRANCH   1  22
HETATM   22  C5  UNL     1      23.976 -21.917  34.903  1.00  0.00     0.295 C 
HETATM   23  O3  UNL     1      24.267 -22.563  33.871  1.00  0.00    -0.259 OA
BRANCH  22  24
HETATM   24  O2  UNL     1      24.679 -22.157  36.016  1.00  0.00    -0.317 OA
BRANCH  24  25
HETATM   25  C4  UNL     1      24.963 -23.206  36.815  1.00  0.00     0.185 C 
BRANCH  25  26
HETATM   26  C3  UNL     1      23.916 -24.057  37.423  1.00  0.00     0.034 C 
HETATM   27  C2  UNL     1      22.930 -23.411  38.335  1.00  0.00     0.161 C 
HETATM   28  N1  UNL     1      22.227 -24.411  39.094  1.00  0.00    -0.270 N 
HETATM   29  C23 UNL     1      22.389 -25.738  38.664  1.00  0.00     0.138 C 
HETATM   30  C21 UNL     1      22.288 -25.858  37.160  1.00  0.00     0.180 C 
HETATM   31  C20 UNL     1      23.196 -24.930  36.405  1.00  0.00     0.063 C 
BRANCH  28  32
HETATM   32  O1  UNL     1      22.230 -24.210  40.405  1.00  0.00    -0.284 OA
HETATM   33  C1  UNL     1      22.265 -22.888  40.790  1.00  0.00     0.237 C 
ENDBRANCH  28  32
BRANCH  30  34
HETATM   34  O8  UNL     1      22.694 -27.171  36.810  1.00  0.00    -0.374 OA
ATOM     35  H8  UNL     1      22.865 -27.618  37.631  1.00  0.00     0.211 HD
ENDBRANCH  30  34
BRANCH  30  36
HETATM   36  C22 UNL     1      20.869 -25.713  36.738  1.00  0.00     0.214 C 
HETATM   37  O9  UNL     1      20.344 -24.641  36.356  1.00  0.00    -0.645 OA
HETATM   38  O10 UNL     1      20.056 -26.830  36.762  1.00  0.00    -0.645 OA
ENDBRANCH  30  36
ENDBRANCH  25  26
ENDBRANCH  24  25
ENDBRANCH  22  24
ENDBRANCH   1  22
BRANCH   5  39
HETATM   39  O4  UNL     1      19.735 -18.241  34.488  1.00  0.00    -0.268 OA
BRANCH  39  40
HETATM   40  C10 UNL     1      19.160 -17.629  35.593  1.00  0.00     0.277 A 
HETATM   41  N2  UNL     1      19.906 -16.950  36.499  1.00  0.00    -0.303 N 
HETATM   42  C11 UNL     1      19.084 -16.484  37.428  1.00  0.00     0.154 A 
ATOM     43  H2  UNL     1      20.918 -16.820  36.469  1.00  0.00     0.171 HD
HETATM   44 CL1  UNL     1      19.493 -15.532  38.844  1.00  0.00    -0.060 Cl
HETATM   45  C12 UNL     1      17.808 -16.910  37.047  1.00  0.00     0.232 A 
HETATM   46  O7  UNL     1      17.907 -17.592  35.943  1.00  0.00    -0.256 OA
BRANCH  45  47
HETATM   47  S1  UNL     1      16.347 -16.568  37.929  1.00  0.00     0.282 S 
HETATM   48  O5  UNL     1      15.220 -17.314  37.256  1.00  0.00    -0.199 OA
HETATM   49  O6  UNL     1      16.526 -17.000  39.344  1.00  0.00    -0.199 OA
BRANCH  47  50
HETATM   50  N3  UNL     1      15.991 -14.886  37.787  1.00  0.00    -0.323 N 
ATOM     51  H32 UNL     1      15.054 -14.484  37.827  1.00  0.00     0.169 HD
ATOM     52  H31 UNL     1      16.863 -14.373  37.659  1.00  0.00     0.169 HD
ENDBRANCH  47  50
ENDBRANCH  45  47
ENDBRANCH  39  40
ENDBRANCH   5  39
TORSDOF 11
ENDMDL
MODEL 5
REMARK VINA RESULT: -7.224244416      7.353     12.069
REMARK  11 active torsions:
REMARK  status: ('A' for Active; 'I' for Inactive)
REMARK    1  A    between atoms: O1_2  and  N1_3 
REMARK    2  A    between atoms: C3_5  and  C4_6 
REMARK    3  A    between atoms: C4_6  and  O2_7 
REMARK    4  A    between atoms: O2_7  and  C5_8 
REMARK    5  A    between atoms: C5_8  and  C6_10 
REMARK    6  A    between atoms: C9_14  and  O4_15 
REMARK    7  A    between atoms: O4_15  and  C10_16 
REMARK    8  A    between atoms: C12_21  and  S1_22 
REMARK    9  A    between atoms: S1_22  and  N3_23 
REMARK   10  A    between atoms: C21_46  and  O8_47 
REMARK   11  A    between atoms: C21_46  and  C22_49 
ROOT
HETATM    1  C6  UNL     1      20.976 -24.580  35.840  1.00  0.00     0.071 A 
HETATM    2  C7  UNL     1      20.276 -25.680  36.283  1.00  0.00     0.065 A 
HETATM    3  C8  UNL     1      20.883 -26.663  37.058  1.00  0.00     0.153 A 
HETATM    4  F1  UNL     1      20.122 -27.715  37.455  1.00  0.00    -0.203 F 
HETATM    5  C9  UNL     1      22.212 -26.523  37.383  1.00  0.00     0.147 A 
HETATM    6  C13 UNL     1      22.906 -25.417  36.934  1.00  0.00     0.099 A 
HETATM    7  N4  UNL     1      24.207 -25.272  37.246  1.00  0.00    -0.334 N 
ATOM      8  H4  UNL     1      24.686 -25.971  37.813  1.00  0.00     0.168 HD
HETATM    9  C14 UNL     1      24.865 -24.187  36.799  1.00  0.00     0.162 A 
HETATM   10  C15 UNL     1      24.259 -23.215  36.030  1.00  0.00     0.147 A 
HETATM   11  N5  UNL     1      22.946 -23.348  35.708  1.00  0.00    -0.337 N 
ATOM     12  H5  UNL     1      22.471 -22.644  35.142  1.00  0.00     0.167 HD
HETATM   13  C16 UNL     1      22.289 -24.434  36.155  1.00  0.00     0.080 A 
HETATM   14  N6  UNL     1      24.709 -22.003  35.443  1.00  0.00    -0.373 N 
ATOM     15  H6  UNL     1      24.076 -21.707  34.701  1.00  0.00     0.161 HD
HETATM   16  C17 UNL     1      25.805 -21.061  35.589  1.00  0.00     0.122 C 
HETATM   17  C18 UNL     1      26.584 -21.471  36.846  1.00  0.00     0.037 C 
HETATM   18  C19 UNL     1      27.500 -22.618  36.527  1.00  0.00     0.136 C 
HETATM   19  N7  UNL     1      27.346 -23.658  37.509  1.00  0.00    -0.140 NA
HETATM   20  N8  UNL     1      26.174 -24.382  37.317  1.00  0.00    -0.286 N 
ATOM     21  H8  UNL     1      26.287 -25.340  37.648  1.00  0.00     0.184 HD
ENDROOT
BRANCH   1  22
HETATM   22  C5  UNL     1      20.311 -23.551  35.020  1.00  0.00     0.295 C 
HETATM   23  O3  UNL     1      20.178 -23.801  33.801  1.00  0.00    -0.259 OA
BRANCH  22  24
HETATM   24  O2  UNL     1      19.846 -22.384  35.478  1.00  0.00    -0.317 OA
BRANCH  24  25
HETATM   25  C4  UNL     1      20.326 -21.293  36.111  1.00  0.00     0.185 C 
BRANCH  25  26
HETATM   26  C3  UNL     1      20.969 -20.169  35.397  1.00  0.00     0.034 C 
HETATM   27  C2  UNL     1      22.109 -19.475  36.061  1.00  0.00     0.161 C 
HETATM   28  N1  UNL     1      22.376 -18.221  35.408  1.00  0.00    -0.270 N 
HETATM   29  C23 UNL     1      21.738 -18.021  34.174  1.00  0.00     0.138 C 
HETATM   30  C21 UNL     1      21.813 -19.250  33.296  1.00  0.00     0.180 C 
HETATM   31  C20 UNL     1      21.329 -20.510  33.957  1.00  0.00     0.063 C 
BRANCH  28  32
HETATM   32  O1  UNL     1      22.424 -17.176  36.225  1.00  0.00    -0.284 OA
HETATM   33  C1  UNL     1      21.370 -16.299  36.109  1.00  0.00     0.237 C 
ENDBRANCH  28  32
BRANCH  30  34
HETATM   34  O8  UNL     1      20.951 -19.036  32.190  1.00  0.00    -0.374 OA
ATOM     35  H8  UNL     1      20.362 -18.338  32.450  1.00  0.00     0.211 HD
ENDBRANCH  30  34
BRANCH  30  36
HETATM   36  C22 UNL     1      23.190 -19.399  32.756  1.00  0.00     0.214 C 
HETATM   37  O9  UNL     1      23.858 -18.474  32.239  1.00  0.00    -0.645 OA
HETATM   38  O10 UNL     1      23.793 -20.641  32.821  1.00  0.00    -0.645 OA
ENDBRANCH  30  36
ENDBRANCH  25  26
ENDBRANCH  24  25
ENDBRANCH  22  24
ENDBRANCH   1  22
BRANCH   5  39
HETATM   39  O4  UNL     1      22.802 -27.507  38.153  1.00  0.00    -0.268 OA
BRANCH  39  40
HETATM   40  C10 UNL     1      23.227 -28.724  37.637  1.00  0.00     0.277 A 
HETATM   41  N2  UNL     1      22.914 -29.899  38.237  1.00  0.00    -0.303 N 
HETATM   42  C11 UNL     1      23.454 -30.873  37.519  1.00  0.00     0.154 A 
ATOM     43  H2  UNL     1      22.362 -30.012  39.087  1.00  0.00     0.171 HD
HETATM   44 CL1  UNL     1      23.376 -32.600  37.820  1.00  0.00    -0.060 Cl
HETATM   45  C12 UNL     1      24.108 -30.238  36.458  1.00  0.00     0.232 A 
HETATM   46  O7  UNL     1      23.943 -28.952  36.575  1.00  0.00    -0.256 OA
BRANCH  45  47
HETATM   47  S1  UNL     1      24.991 -31.062  35.205  1.00  0.00     0.282 S 
HETATM   48  O5  UNL     1      25.461 -30.022  34.215  1.00  0.00    -0.199 OA
HETATM   49  O6  UNL     1      26.134 -31.793  35.821  1.00  0.00    -0.199 OA
BRANCH  47  50
HETATM   50  N3  UNL     1      23.912 -32.108  34.358  1.00  0.00    -0.323 N 
ATOM     51  H32 UNL     1      23.024 -31.819  33.946  1.00  0.00     0.169 HD
ATOM     52  H31 UNL     1      24.308 -33.048  34.341  1.00  0.00     0.169 HD
ENDBRANCH  47  50
ENDBRANCH  45  47
ENDBRANCH  39  40
ENDBRANCH   5  39
TORSDOF 11
ENDMDL
