MODEL 1
REMARK VINA RESULT: -6.927747581      0.000      0.000
REMARK  15 active torsions:
REMARK  status: ('A' for Active; 'I' for Inactive)
REMARK    1  A    between atoms: C2_3  and  C3_4 
REMARK    2  A    between atoms: C4_8  and  O4_9 
REMARK    3  A    between atoms: O4_9  and  C5_10 
REMARK    4  A    between atoms: C5_10  and  N6_29 
REMARK    5  A    between atoms: N2_11  and  C6_13 
REMARK    6  A    between atoms: C6_13  and  C7_14 
REMARK    7  A    between atoms: C7_14  and  N3_15 
REMARK    8  A    between atoms: C9_17  and  N4_18 
REMARK    9  A    between atoms: N4_18  and  C10_20 
REMARK   10  A    between atoms: C10_20  and  N5_22 
REMARK   11  A    between atoms: N5_22  and  O5_24 
REMARK       I    between atoms: N6_29  and  C13_31 
REMARK   12  A    between atoms: C13_31  and  O9_33 
REMARK   13  A    between atoms: C18_39  and  O11_40 
REMARK   14  A    between atoms: C18_39  and  C19_42 
REMARK   15  A    between atoms: C19_42  and  O12_43 
ROOT
HETATM    1  C1  UNL     1      22.810 -15.539  32.795  1.00  0.00     0.226 C 
HETATM    2  N1  UNL     1      22.700 -16.681  32.957  1.00  0.00    -0.416 NA
HETATM    3  C2  UNL     1      22.550 -18.078  33.175  1.00  0.00     0.357 C 
HETATM    4  O3  UNL     1      22.141 -18.369  34.443  1.00  0.00    -0.301 OA
HETATM    5  C4  UNL     1      23.184 -18.920  35.166  1.00  0.00     0.326 C 
HETATM    6  C15 UNL     1      24.441 -18.701  34.387  1.00  0.00     0.232 C 
HETATM    7  O10 UNL     1      25.415 -19.627  34.650  1.00  0.00    -0.351 OA
HETATM    8  C16 UNL     1      26.229 -19.172  35.685  1.00  0.00     0.157 C 
HETATM    9  C17 UNL     1      26.731 -20.332  36.551  1.00  0.00     0.043 C 
HETATM   10  C18 UNL     1      27.412 -18.466  35.059  1.00  0.00     0.113 C 
HETATM   11  C20 UNL     1      26.958 -17.250  34.301  1.00  0.00     0.120 C 
HETATM   12  S2  UNL     1      25.168 -17.054  34.659  1.00  0.00    -0.117 SA
HETATM   13  C21 UNL     1      23.925 -18.714  32.964  1.00  0.00     0.360 C 
HETATM   14  F1  UNL     1      23.834 -19.975  32.439  1.00  0.00    -0.194 F 
HETATM   15  F2  UNL     1      24.675 -17.885  32.173  1.00  0.00    -0.194 F 
ENDROOT
BRANCH   3  16
HETATM   16  C3  UNL     1      21.576 -18.589  32.183  1.00  0.00     0.253 C 
HETATM   17  O1  UNL     1      20.676 -19.369  32.583  1.00  0.00    -0.643 OA
HETATM   18  O2  UNL     1      21.656 -18.216  30.833  1.00  0.00    -0.643 OA
ENDBRANCH   3  16
BRANCH   5  19
HETATM   19  O4  UNL     1      23.028 -20.340  35.302  1.00  0.00    -0.286 OA
BRANCH  19  20
HETATM   20  C5  UNL     1      22.078 -20.837  36.219  1.00  0.00     0.226 C 
HETATM   21  N2  UNL     1      21.513 -19.943  36.949  1.00  0.00    -0.354 N 
ATOM     22  H2  UNL     1      21.760 -18.959  36.843  1.00  0.00     0.163 HD
BRANCH  21  23
HETATM   23  C6  UNL     1      20.528 -20.346  37.917  1.00  0.00     0.145 C 
BRANCH  23  24
HETATM   24  C7  UNL     1      19.990 -19.175  38.702  1.00  0.00     0.175 C 
BRANCH  24  25
HETATM   25  N3  UNL     1      19.043 -18.496  37.798  1.00  0.00    -0.256 N 
HETATM   26  C8  UNL     1      18.264 -17.473  38.176  1.00  0.00     0.153 A 
HETATM   27  C9  UNL     1      17.509 -17.080  37.100  1.00  0.00     0.130 A 
HETATM   28  C12 UNL     1      17.921 -17.959  36.079  1.00  0.00     0.333 A 
HETATM   29  O6  UNL     1      17.494 -17.974  34.897  1.00  0.00    -0.256 OA
HETATM   30  O7  UNL     1      18.820 -18.752  36.580  1.00  0.00    -0.192 OA
BRANCH  27  31
HETATM   31  N4  UNL     1      16.538 -16.063  36.943  1.00  0.00    -0.326 N 
ATOM     32  H4  UNL     1      16.078 -16.022  36.033  1.00  0.00     0.168 HD
BRANCH  31  33
HETATM   33  C10 UNL     1      16.132 -15.114  37.870  1.00  0.00     0.196 C 
HETATM   34  S1  UNL     1      16.967 -13.777  38.188  1.00  0.00    -0.039 SA
BRANCH  33  35
HETATM   35  N5  UNL     1      14.914 -15.318  38.587  1.00  0.00    -0.241 N 
ATOM     36  H5  UNL     1      14.286 -14.529  38.739  1.00  0.00     0.197 HD
BRANCH  35  37
HETATM   37  O5  UNL     1      14.574 -16.536  39.069  1.00  0.00    -0.283 OA
HETATM   38  C11 UNL     1      13.206 -16.465  39.372  1.00  0.00     0.237 C 
ENDBRANCH  35  37
ENDBRANCH  33  35
ENDBRANCH  31  33
ENDBRANCH  27  31
ENDBRANCH  24  25
ENDBRANCH  23  24
ENDBRANCH  21  23
BRANCH  20  39
HETATM   39  N6  UNL     1      21.804 -22.232  36.293  1.00  0.00    -0.268 N 
HETATM   40  C13 UNL     1      21.197 -22.910  35.201  1.00  0.00     0.367 C 
HETATM   41  O8  UNL     1      20.885 -22.303  34.144  1.00  0.00    -0.238 OA
ATOM     42  H6  UNL     1      22.045 -22.750  37.138  1.00  0.00     0.174 HD
BRANCH  40  43
HETATM   43  O9  UNL     1      20.921 -24.260  35.245  1.00  0.00    -0.309 OA
HETATM   44  C14 UNL     1      19.594 -24.756  35.263  1.00  0.00     0.215 C 
ENDBRANCH  40  43
ENDBRANCH  20  39
ENDBRANCH  19  20
ENDBRANCH   5  19
BRANCH  10  45
HETATM   45  O11 UNL     1      28.299 -18.040  36.046  1.00  0.00    -0.384 OA
ATOM     46  H11 UNL     1      28.181 -17.114  36.219  1.00  0.00     0.210 HD
ENDBRANCH  10  45
BRANCH  10  47
HETATM   47  C19 UNL     1      28.131 -19.457  34.177  1.00  0.00     0.205 C 
BRANCH  47  48
HETATM   48  O12 UNL     1      27.670 -19.474  32.875  1.00  0.00    -0.398 OA
ATOM     49  H12 UNL     1      28.307 -19.161  32.243  1.00  0.00     0.209 HD
ENDBRANCH  47  48
ENDBRANCH  10  47
TORSDOF 15
ENDMDL
MODEL 2
REMARK VINA RESULT: -6.787105443      1.396      2.014
REMARK  15 active torsions:
REMARK  status: ('A' for Active; 'I' for Inactive)
REMARK    1  A    between atoms: C2_3  and  C3_4 
REMARK    2  A    between atoms: C4_8  and  O4_9 
REMARK    3  A    between atoms: O4_9  and  C5_10 
REMARK    4  A    between atoms: C5_10  and  N6_29 
REMARK    5  A    between atoms: N2_11  and  C6_13 
REMARK    6  A    between atoms: C6_13  and  C7_14 
REMARK    7  A    between atoms: C7_14  and  N3_15 
REMARK    8  A    between atoms: C9_17  and  N4_18 
REMARK    9  A    between atoms: N4_18  and  C10_20 
REMARK   10  A    between atoms: C10_20  and  N5_22 
REMARK   11  A    between atoms: N5_22  and  O5_24 
REMARK       I    between atoms: N6_29  and  C13_31 
REMARK   12  A    between atoms: C13_31  and  O9_33 
REMARK   13  A    between atoms: C18_39  and  O11_40 
REMARK   14  A    between atoms: C18_39  and  C19_42 
REMARK   15  A    between atoms: C19_42  and  O12_43 
ROOT
HETATM    1  C1  UNL     1      23.074 -15.502  32.412  1.00  0.00     0.226 C 
HETATM    2  N1  UNL     1      22.912 -16.604  32.730  1.00  0.00    -0.416 NA
HETATM    3  C2  UNL     1      22.699 -17.948  33.141  1.00  0.00     0.357 C 
HETATM    4  O3  UNL     1      22.357 -18.047  34.458  1.00  0.00    -0.301 OA
HETATM    5  C4  UNL     1      23.412 -18.563  35.188  1.00  0.00     0.326 C 
HETATM    6  C15 UNL     1      24.627 -18.527  34.317  1.00  0.00     0.232 C 
HETATM    7  O10 UNL     1      25.563 -19.471  34.646  1.00  0.00    -0.351 OA
HETATM    8  C16 UNL     1      26.465 -18.938  35.563  1.00  0.00     0.157 C 
HETATM    9  C17 UNL     1      26.957 -20.006  36.546  1.00  0.00     0.043 C 
HETATM   10  C18 UNL     1      27.643 -18.396  34.783  1.00  0.00     0.113 C 
HETATM   11  C20 UNL     1      27.209 -17.263  33.897  1.00  0.00     0.120 C 
HETATM   12  S2  UNL     1      25.460 -16.909  34.325  1.00  0.00    -0.117 SA
HETATM   13  C21 UNL     1      24.021 -18.692  32.940  1.00  0.00     0.360 C 
HETATM   14  F1  UNL     1      23.826 -20.002  32.594  1.00  0.00    -0.194 F 
HETATM   15  F2  UNL     1      24.763 -18.022  32.005  1.00  0.00    -0.194 F 
ENDROOT
BRANCH   3  16
HETATM   16  C3  UNL     1      21.637 -18.522  32.283  1.00  0.00     0.253 C 
HETATM   17  O1  UNL     1      21.658 -18.257  31.055  1.00  0.00    -0.643 OA
HETATM   18  O2  UNL     1      20.632 -19.337  32.824  1.00  0.00    -0.643 OA
ENDBRANCH   3  16
BRANCH   5  19
HETATM   19  O4  UNL     1      23.187 -19.941  35.521  1.00  0.00    -0.286 OA
BRANCH  19  20
HETATM   20  C5  UNL     1      21.958 -20.308  36.108  1.00  0.00     0.226 C 
HETATM   21  N2  UNL     1      21.785 -19.885  37.309  1.00  0.00    -0.354 N 
ATOM     22  H2  UNL     1      22.505 -19.329  37.768  1.00  0.00     0.163 HD
BRANCH  21  23
HETATM   23  C6  UNL     1      20.563 -20.205  37.997  1.00  0.00     0.145 C 
BRANCH  23  24
HETATM   24  C7  UNL     1      19.964 -19.001  38.682  1.00  0.00     0.175 C 
BRANCH  24  25
HETATM   25  N3  UNL     1      19.113 -18.354  37.665  1.00  0.00    -0.256 N 
HETATM   26  C8  UNL     1      18.594 -17.126  37.809  1.00  0.00     0.153 A 
HETATM   27  C9  UNL     1      17.858 -16.830  36.689  1.00  0.00     0.130 A 
HETATM   28  C12 UNL     1      18.002 -17.987  35.896  1.00  0.00     0.333 A 
HETATM   29  O6  UNL     1      17.494 -18.174  34.762  1.00  0.00    -0.256 OA
HETATM   30  O7  UNL     1      18.751 -18.823  36.548  1.00  0.00    -0.192 OA
BRANCH  27  31
HETATM   31  N4  UNL     1      17.111 -15.688  36.320  1.00  0.00    -0.326 N 
ATOM     32  H4  UNL     1      16.255 -15.867  35.793  1.00  0.00     0.168 HD
BRANCH  31  33
HETATM   33  C10 UNL     1      17.394 -14.356  36.582  1.00  0.00     0.196 C 
HETATM   34  S1  UNL     1      16.685 -13.518  37.758  1.00  0.00    -0.039 SA
BRANCH  33  35
HETATM   35  N5  UNL     1      18.361 -13.678  35.778  1.00  0.00    -0.241 N 
ATOM     36  H5  UNL     1      19.340 -13.691  36.060  1.00  0.00     0.197 HD
BRANCH  35  37
HETATM   37  O5  UNL     1      18.005 -13.021  34.650  1.00  0.00    -0.283 OA
HETATM   38  C11 UNL     1      19.140 -12.301  34.247  1.00  0.00     0.237 C 
ENDBRANCH  35  37
ENDBRANCH  33  35
ENDBRANCH  31  33
ENDBRANCH  27  31
ENDBRANCH  24  25
ENDBRANCH  23  24
ENDBRANCH  21  23
BRANCH  20  39
HETATM   39  N6  UNL     1      21.014 -21.091  35.383  1.00  0.00    -0.268 N 
HETATM   40  C13 UNL     1      21.314 -22.431  35.016  1.00  0.00     0.367 C 
HETATM   41  O8  UNL     1      22.413 -22.964  35.316  1.00  0.00    -0.238 OA
ATOM     42  H6  UNL     1      20.115 -20.685  35.124  1.00  0.00     0.174 HD
BRANCH  40  43
HETATM   43  O9  UNL     1      20.418 -23.211  34.315  1.00  0.00    -0.309 OA
HETATM   44  C14 UNL     1      19.769 -24.323  34.904  1.00  0.00     0.215 C 
ENDBRANCH  40  43
ENDBRANCH  20  39
ENDBRANCH  19  20
ENDBRANCH   5  19
BRANCH  10  45
HETATM   45  O11 UNL     1      28.614 -17.903  35.653  1.00  0.00    -0.384 OA
ATOM     46  H11 UNL     1      29.455 -17.849  35.213  1.00  0.00     0.210 HD
ENDBRANCH  10  45
BRANCH  10  47
HETATM   47  C19 UNL     1      28.248 -19.537  34.002  1.00  0.00     0.205 C 
BRANCH  47  48
HETATM   48  O12 UNL     1      27.781 -19.628  32.705  1.00  0.00    -0.398 OA
ATOM     49  H12 UNL     1      28.472 -19.698  32.057  1.00  0.00     0.209 HD
ENDBRANCH  47  48
ENDBRANCH  10  47
TORSDOF 15
ENDMDL
MODEL 3
REMARK VINA RESULT: -6.754445831      3.461      8.865
REMARK  15 active torsions:
REMARK  status: ('A' for Active; 'I' for Inactive)
REMARK    1  A    between atoms: C2_3  and  C3_4 
REMARK    2  A    between atoms: C4_8  and  O4_9 
REMARK    3  A    between atoms: O4_9  and  C5_10 
REMARK    4  A    between atoms: C5_10  and  N6_29 
REMARK    5  A    between atoms: N2_11  and  C6_13 
REMARK    6  A    between atoms: C6_13  and  C7_14 
REMARK    7  A    between atoms: C7_14  and  N3_15 
REMARK    8  A    between atoms: C9_17  and  N4_18 
REMARK    9  A    between atoms: N4_18  and  C10_20 
REMARK   10  A    between atoms: C10_20  and  N5_22 
REMARK   11  A    between atoms: N5_22  and  O5_24 
REMARK       I    between atoms: N6_29  and  C13_31 
REMARK   12  A    between atoms: C13_31  and  O9_33 
REMARK   13  A    between atoms: C18_39  and  O11_40 
REMARK   14  A    between atoms: C18_39  and  C19_42 
REMARK   15  A    between atoms: C19_42  and  O12_43 
ROOT
HETATM    1  C1  UNL     1      20.960 -17.939  39.809  1.00  0.00     0.226 C 
HETATM    2  N1  UNL     1      20.909 -17.656  38.687  1.00  0.00    -0.416 NA
HETATM    3  C2  UNL     1      20.871 -17.300  37.311  1.00  0.00     0.357 C 
HETATM    4  O3  UNL     1      21.810 -16.366  36.984  1.00  0.00    -0.301 OA
HETATM    5  C4  UNL     1      21.206 -15.142  36.758  1.00  0.00     0.326 C 
HETATM    6  C15 UNL     1      19.800 -15.231  37.257  1.00  0.00     0.232 C 
HETATM    7  O10 UNL     1      18.942 -14.368  36.628  1.00  0.00    -0.351 OA
HETATM    8  C16 UNL     1      18.889 -13.165  37.327  1.00  0.00     0.157 C 
HETATM    9  C17 UNL     1      18.689 -11.977  36.379  1.00  0.00     0.043 C 
HETATM   10  C18 UNL     1      17.719 -13.244  38.284  1.00  0.00     0.113 C 
HETATM   11  C20 UNL     1      17.946 -14.325  39.303  1.00  0.00     0.120 C 
HETATM   12  S2  UNL     1      19.660 -14.929  39.046  1.00  0.00    -0.117 SA
HETATM   13  C21 UNL     1      19.491 -16.697  37.042  1.00  0.00     0.360 C 
HETATM   14  F1  UNL     1      19.047 -16.971  35.777  1.00  0.00    -0.194 F 
HETATM   15  F2  UNL     1      18.622 -17.150  37.998  1.00  0.00    -0.194 F 
ENDROOT
BRANCH   3  16
HETATM   16  C3  UNL     1      21.068 -18.535  36.518  1.00  0.00     0.253 C 
HETATM   17  O1  UNL     1      21.973 -18.543  35.646  1.00  0.00    -0.643 OA
HETATM   18  O2  UNL     1      20.267 -19.667  36.731  1.00  0.00    -0.643 OA
ENDBRANCH   3  16
BRANCH   5  19
HETATM   19  O4  UNL     1      21.126 -14.855  35.354  1.00  0.00    -0.286 OA
BRANCH  19  20
HETATM   20  C5  UNL     1      22.315 -14.588  34.644  1.00  0.00     0.226 C 
HETATM   21  N2  UNL     1      22.932 -15.629  34.212  1.00  0.00    -0.354 N 
ATOM     22  H2  UNL     1      22.559 -16.560  34.390  1.00  0.00     0.163 HD
BRANCH  21  23
HETATM   23  C6  UNL     1      24.157 -15.464  33.475  1.00  0.00     0.145 C 
BRANCH  23  24
HETATM   24  C7  UNL     1      24.065 -16.043  32.084  1.00  0.00     0.175 C 
BRANCH  24  25
HETATM   25  N3  UNL     1      23.363 -17.331  32.239  1.00  0.00    -0.256 N 
HETATM   26  C8  UNL     1      23.985 -18.482  32.529  1.00  0.00     0.153 A 
HETATM   27  C9  UNL     1      23.046 -19.479  32.601  1.00  0.00     0.130 A 
HETATM   28  C12 UNL     1      21.838 -18.803  32.330  1.00  0.00     0.333 A 
HETATM   29  O6  UNL     1      20.694 -19.321  32.289  1.00  0.00    -0.256 OA
HETATM   30  O7  UNL     1      22.122 -17.552  32.131  1.00  0.00    -0.192 OA
BRANCH  27  31
HETATM   31  N4  UNL     1      23.150 -20.863  32.873  1.00  0.00    -0.326 N 
ATOM     32  H4  UNL     1      23.481 -21.445  32.103  1.00  0.00     0.168 HD
BRANCH  31  33
HETATM   33  C10 UNL     1      22.859 -21.529  34.054  1.00  0.00     0.196 C 
HETATM   34  S1  UNL     1      23.976 -22.246  34.962  1.00  0.00    -0.039 SA
BRANCH  33  35
HETATM   35  N5  UNL     1      21.503 -21.592  34.502  1.00  0.00    -0.241 N 
ATOM     36  H5  UNL     1      21.127 -20.826  35.059  1.00  0.00     0.197 HD
BRANCH  35  37
HETATM   37  O5  UNL     1      20.709 -22.645  34.203  1.00  0.00    -0.283 OA
HETATM   38  C11 UNL     1      20.261 -23.154  35.431  1.00  0.00     0.237 C 
ENDBRANCH  35  37
ENDBRANCH  33  35
ENDBRANCH  31  33
ENDBRANCH  27  31
ENDBRANCH  24  25
ENDBRANCH  23  24
ENDBRANCH  21  23
BRANCH  20  39
HETATM   39  N6  UNL     1      22.756 -13.248  34.448  1.00  0.00    -0.268 N 
HETATM   40  C13 UNL     1      21.911 -12.291  33.822  1.00  0.00     0.367 C 
HETATM   41  O8  UNL     1      20.757 -12.596  33.424  1.00  0.00    -0.238 OA
ATOM     42  H6  UNL     1      23.687 -12.972  34.760  1.00  0.00     0.174 HD
BRANCH  40  43
HETATM   43  O9  UNL     1      22.312 -10.987  33.621  1.00  0.00    -0.309 OA
HETATM   44  C14 UNL     1      22.625 -10.488  32.334  1.00  0.00     0.215 C 
ENDBRANCH  40  43
ENDBRANCH  20  39
ENDBRANCH  19  20
ENDBRANCH   5  19
BRANCH  10  45
HETATM   45  O11 UNL     1      17.574 -12.040  38.971  1.00  0.00    -0.384 OA
ATOM     46  H11 UNL     1      17.135 -11.399  38.425  1.00  0.00     0.210 HD
ENDBRANCH  10  45
BRANCH  10  47
HETATM   47  C19 UNL     1      16.469 -13.473  37.471  1.00  0.00     0.205 C 
BRANCH  47  48
HETATM   48  O12 UNL     1      15.311 -13.470  38.225  1.00  0.00    -0.398 OA
ATOM     49  H12 UNL     1      14.984 -14.339  38.422  1.00  0.00     0.209 HD
ENDBRANCH  47  48
ENDBRANCH  10  47
TORSDOF 15
ENDMDL
MODEL 4
REMARK VINA RESULT: -6.701674513      1.564      2.178
REMARK  15 active torsions:
REMARK  status: ('A' for Active; 'I' for Inactive)
REMARK    1  A    between atoms: C2_3  and  C3_4 
REMARK    2  A    between atoms: C4_8  and  O4_9 
REMARK    3  A    between atoms: O4_9  and  C5_10 
REMARK    4  A    between atoms: C5_10  and  N6_29 
REMARK    5  A    between atoms: N2_11  and  C6_13 
REMARK    6  A    between atoms: C6_13  and  C7_14 
REMARK    7  A    between atoms: C7_14  and  N3_15 
REMARK    8  A    between atoms: C9_17  and  N4_18 
REMARK    9  A    between atoms: N4_18  and  C10_20 
REMARK   10  A    between atoms: C10_20  and  N5_22 
REMARK   11  A    between atoms: N5_22  and  O5_24 
REMARK       I    between atoms: N6_29  and  C13_31 
REMARK   12  A    between atoms: C13_31  and  O9_33 
REMARK   13  A    between atoms: C18_39  and  O11_40 
REMARK   14  A    between atoms: C18_39  and  C19_42 
REMARK   15  A    between atoms: C19_42  and  O12_43 
ROOT
HETATM    1  C1  UNL     1      23.639 -15.468  32.258  1.00  0.00     0.226 C 
HETATM    2  N1  UNL     1      23.308 -16.524  32.601  1.00  0.00    -0.416 NA
HETATM    3  C2  UNL     1      22.887 -17.810  33.038  1.00  0.00     0.357 C 
HETATM    4  O3  UNL     1      22.350 -17.787  34.292  1.00  0.00    -0.301 OA
HETATM    5  C4  UNL     1      23.225 -18.365  35.195  1.00  0.00     0.326 C 
HETATM    6  C15 UNL     1      24.547 -18.514  34.515  1.00  0.00     0.232 C 
HETATM    7  O10 UNL     1      25.313 -19.529  35.024  1.00  0.00    -0.351 OA
HETATM    8  C16 UNL     1      26.130 -19.037  36.039  1.00  0.00     0.157 C 
HETATM    9  C17 UNL     1      26.351 -20.086  37.134  1.00  0.00     0.043 C 
HETATM   10  C18 UNL     1      27.461 -18.673  35.418  1.00  0.00     0.113 C 
HETATM   11  C20 UNL     1      27.291 -17.560  34.425  1.00  0.00     0.120 C 
HETATM   12  S2  UNL     1      25.550 -16.996  34.570  1.00  0.00    -0.117 SA
HETATM   13  C21 UNL     1      24.130 -18.701  33.072  1.00  0.00     0.360 C 
HETATM   14  F1  UNL     1      23.838 -20.002  32.764  1.00  0.00    -0.194 F 
HETATM   15  F2  UNL     1      25.069 -18.174  32.227  1.00  0.00    -0.194 F 
ENDROOT
BRANCH   3  16
HETATM   16  C3  UNL     1      21.899 -18.320  32.060  1.00  0.00     0.253 C 
HETATM   17  O1  UNL     1      21.032 -19.135  32.462  1.00  0.00    -0.643 OA
HETATM   18  O2  UNL     1      21.931 -17.908  30.719  1.00  0.00    -0.643 OA
ENDBRANCH   3  16
BRANCH   5  19
HETATM   19  O4  UNL     1      22.798 -19.688  35.556  1.00  0.00    -0.286 OA
BRANCH  19  20
HETATM   20  C5  UNL     1      21.423 -19.998  35.505  1.00  0.00     0.226 C 
HETATM   21  N2  UNL     1      20.667 -19.214  36.186  1.00  0.00    -0.354 N 
ATOM     22  H2  UNL     1      21.068 -18.437  36.710  1.00  0.00     0.163 HD
BRANCH  21  23
HETATM   23  C6  UNL     1      19.247 -19.444  36.200  1.00  0.00     0.145 C 
BRANCH  23  24
HETATM   24  C7  UNL     1      18.512 -18.520  35.260  1.00  0.00     0.175 C 
BRANCH  24  25
HETATM   25  N3  UNL     1      17.596 -17.738  36.112  1.00  0.00    -0.256 N 
HETATM   26  C8  UNL     1      17.687 -16.410  36.270  1.00  0.00     0.153 A 
HETATM   27  C9  UNL     1      16.690 -16.004  37.121  1.00  0.00     0.130 A 
HETATM   28  C12 UNL     1      16.024 -17.206  37.434  1.00  0.00     0.333 A 
HETATM   29  O6  UNL     1      15.029 -17.326  38.192  1.00  0.00    -0.256 OA
HETATM   30  O7  UNL     1      16.624 -18.167  36.798  1.00  0.00    -0.192 OA
BRANCH  27  31
HETATM   31  N4  UNL     1      16.330 -14.731  37.621  1.00  0.00    -0.326 N 
ATOM     32  H4  UNL     1      15.491 -14.701  38.201  1.00  0.00     0.168 HD
BRANCH  31  33
HETATM   33  C10 UNL     1      16.973 -13.518  37.423  1.00  0.00     0.196 C 
HETATM   34  S1  UNL     1      17.980 -12.866  38.495  1.00  0.00    -0.039 SA
BRANCH  33  35
HETATM   35  N5  UNL     1      16.741 -12.797  36.211  1.00  0.00    -0.241 N 
ATOM     36  H5  UNL     1      16.219 -11.922  36.244  1.00  0.00     0.197 HD
BRANCH  35  37
HETATM   37  O5  UNL     1      17.200 -13.250  35.022  1.00  0.00    -0.283 OA
HETATM   38  C11 UNL     1      18.412 -12.583  34.794  1.00  0.00     0.237 C 
ENDBRANCH  35  37
ENDBRANCH  33  35
ENDBRANCH  31  33
ENDBRANCH  27  31
ENDBRANCH  24  25
ENDBRANCH  23  24
ENDBRANCH  21  23
BRANCH  20  39
HETATM   39  N6  UNL     1      20.959 -21.108  34.743  1.00  0.00    -0.268 N 
HETATM   40  C13 UNL     1      20.683 -22.353  35.370  1.00  0.00     0.367 C 
HETATM   41  O8  UNL     1      20.839 -22.513  36.608  1.00  0.00    -0.238 OA
ATOM     42  H6  UNL     1      20.824 -21.008  33.736  1.00  0.00     0.174 HD
BRANCH  40  43
HETATM   43  O9  UNL     1      20.231 -23.443  34.656  1.00  0.00    -0.309 OA
HETATM   44  C14 UNL     1      19.533 -24.509  35.273  1.00  0.00     0.215 C 
ENDBRANCH  40  43
ENDBRANCH  20  39
ENDBRANCH  19  20
ENDBRANCH   5  19
BRANCH  10  45
HETATM   45  O11 UNL     1      28.348 -18.232  36.399  1.00  0.00    -0.384 OA
ATOM     46  H11 UNL     1      29.237 -18.480  36.175  1.00  0.00     0.210 HD
ENDBRANCH  10  45
BRANCH  10  47
HETATM   47  C19 UNL     1      28.037 -19.920  34.792  1.00  0.00     0.205 C 
BRANCH  47  48
HETATM   48  O12 UNL     1      27.874 -19.975  33.421  1.00  0.00    -0.398 OA
ATOM     49  H12 UNL     1      28.302 -20.720  33.017  1.00  0.00     0.209 HD
ENDBRANCH  47  48
ENDBRANCH  10  47
TORSDOF 15
ENDMDL
MODEL 5
REMARK VINA RESULT: -6.692257677      3.496      8.237
REMARK  15 active torsions:
REMARK  status: ('A' for Active; 'I' for Inactive)
REMARK    1  A    between atoms: C2_3  and  C3_4 
REMARK    2  A    between atoms: C4_8  and  O4_9 
REMARK    3  A    between atoms: O4_9  and  C5_10 
REMARK    4  A    between atoms: C5_10  and  N6_29 
REMARK    5  A    between atoms: N2_11  and  C6_13 
REMARK    6  A    between atoms: C6_13  and  C7_14 
REMARK    7  A    between atoms: C7_14  and  N3_15 
REMARK    8  A    between atoms: C9_17  and  N4_18 
REMARK    9  A    between atoms: N4_18  and  C10_20 
REMARK   10  A    between atoms: C10_20  and  N5_22 
REMARK   11  A    between atoms: N5_22  and  O5_24 
REMARK       I    between atoms: N6_29  and  C13_31 
REMARK   12  A    between atoms: C13_31  and  O9_33 
REMARK   13  A    between atoms: C18_39  and  O11_40 
REMARK   14  A    between atoms: C18_39  and  C19_42 
REMARK   15  A    between atoms: C19_42  and  O12_43 
ROOT
HETATM    1  C1  UNL     1      21.015 -17.191  41.964  1.00  0.00     0.226 C 
HETATM    2  N1  UNL     1      20.683 -18.134  41.379  1.00  0.00    -0.416 NA
HETATM    3  C2  UNL     1      20.299 -19.294  40.653  1.00  0.00     0.357 C 
HETATM    4  O3  UNL     1      21.176 -19.602  39.655  1.00  0.00    -0.301 OA
HETATM    5  C4  UNL     1      20.618 -19.310  38.423  1.00  0.00     0.326 C 
HETATM    6  C15 UNL     1      19.395 -18.484  38.663  1.00  0.00     0.232 C 
HETATM    7  O10 UNL     1      18.460 -18.590  37.668  1.00  0.00    -0.351 OA
HETATM    8  C16 UNL     1      18.679 -17.605  36.710  1.00  0.00     0.157 C 
HETATM    9  C17 UNL     1      18.312 -18.100  35.306  1.00  0.00     0.043 C 
HETATM   10  C18 UNL     1      17.808 -16.419  37.066  1.00  0.00     0.113 C 
HETATM   11  C20 UNL     1      18.227 -15.838  38.386  1.00  0.00     0.120 C 
HETATM   12  S2  UNL     1      19.764 -16.714  38.876  1.00  0.00    -0.117 SA
HETATM   13  C21 UNL     1      18.942 -18.994  40.014  1.00  0.00     0.360 C 
HETATM   14  F1  UNL     1      18.156 -20.111  39.928  1.00  0.00    -0.194 F 
HETATM   15  F2  UNL     1      18.334 -17.995  40.726  1.00  0.00    -0.194 F 
ENDROOT
BRANCH   3  16
HETATM   16  C3  UNL     1      20.191 -20.415  41.615  1.00  0.00     0.253 C 
HETATM   17  O1  UNL     1      20.621 -21.543  41.263  1.00  0.00    -0.643 OA
HETATM   18  O2  UNL     1      19.624 -20.227  42.884  1.00  0.00    -0.643 OA
ENDBRANCH   3  16
BRANCH   5  19
HETATM   19  O4  UNL     1      20.182 -20.504  37.755  1.00  0.00    -0.286 OA
BRANCH  19  20
HETATM   20  C5  UNL     1      20.988 -21.047  36.733  1.00  0.00     0.226 C 
HETATM   21  N2  UNL     1      22.247 -20.820  36.861  1.00  0.00    -0.354 N 
ATOM     22  H2  UNL     1      22.597 -20.285  37.655  1.00  0.00     0.163 HD
BRANCH  21  23
HETATM   23  C6  UNL     1      23.156 -21.332  35.871  1.00  0.00     0.145 C 
BRANCH  23  24
HETATM   24  C7  UNL     1      24.122 -20.278  35.387  1.00  0.00     0.175 C 
BRANCH  24  25
HETATM   25  N3  UNL     1      23.429 -19.586  34.283  1.00  0.00    -0.256 N 
HETATM   26  C8  UNL     1      23.958 -18.555  33.609  1.00  0.00     0.153 A 
HETATM   27  C9  UNL     1      23.058 -18.150  32.656  1.00  0.00     0.130 A 
HETATM   28  C12 UNL     1      21.976 -19.035  32.839  1.00  0.00     0.333 A 
HETATM   29  O6  UNL     1      20.906 -19.043  32.179  1.00  0.00    -0.256 OA
HETATM   30  O7  UNL     1      22.283 -19.838  33.812  1.00  0.00    -0.192 OA
BRANCH  27  31
HETATM   31  N4  UNL     1      23.103 -17.124  31.684  1.00  0.00    -0.326 N 
ATOM     32  H4  UNL     1      22.619 -17.320  30.807  1.00  0.00     0.168 HD
BRANCH  31  33
HETATM   33  C10 UNL     1      23.721 -15.886  31.772  1.00  0.00     0.196 C 
HETATM   34  S1  UNL     1      23.451 -14.846  32.969  1.00  0.00    -0.039 SA
BRANCH  33  35
HETATM   35  N5  UNL     1      24.648 -15.497  30.756  1.00  0.00    -0.241 N 
ATOM     36  H5  UNL     1      24.497 -14.624  30.251  1.00  0.00     0.197 HD
BRANCH  35  37
HETATM   37  O5  UNL     1      25.721 -16.262  30.450  1.00  0.00    -0.283 OA
HETATM   38  C11 UNL     1      26.639 -16.078  31.494  1.00  0.00     0.237 C 
ENDBRANCH  35  37
ENDBRANCH  33  35
ENDBRANCH  31  33
ENDBRANCH  27  31
ENDBRANCH  24  25
ENDBRANCH  23  24
ENDBRANCH  21  23
BRANCH  20  39
HETATM   39  N6  UNL     1      20.404 -21.781  35.663  1.00  0.00    -0.268 N 
HETATM   40  C13 UNL     1      20.305 -23.198  35.725  1.00  0.00     0.367 C 
HETATM   41  O8  UNL     1      20.729 -23.842  36.719  1.00  0.00    -0.238 OA
ATOM     42  H6  UNL     1      20.052 -21.286  34.843  1.00  0.00     0.174 HD
BRANCH  40  43
HETATM   43  O9  UNL     1      19.743 -23.934  34.703  1.00  0.00    -0.309 OA
HETATM   44  C14 UNL     1      19.311 -25.269  34.888  1.00  0.00     0.215 C 
ENDBRANCH  40  43
ENDBRANCH  20  39
ENDBRANCH  19  20
ENDBRANCH   5  19
BRANCH  10  45
HETATM   45  O11 UNL     1      17.936 -15.419  36.104  1.00  0.00    -0.384 OA
ATOM     46  H11 UNL     1      17.900 -14.562  36.513  1.00  0.00     0.210 HD
ENDBRANCH  10  45
BRANCH  10  47
HETATM   47  C19 UNL     1      16.372 -16.884  37.072  1.00  0.00     0.205 C 
BRANCH  47  48
HETATM   48  O12 UNL     1      15.978 -17.443  38.272  1.00  0.00    -0.398 OA
ATOM     49  H12 UNL     1      16.043 -16.846  39.009  1.00  0.00     0.209 HD
ENDBRANCH  47  48
ENDBRANCH  10  47
TORSDOF 15
ENDMDL
