MODEL 1
REMARK VINA RESULT: -7.439550318      0.000      0.000
REMARK  10 active torsions:
REMARK  status: ('A' for Active; 'I' for Inactive)
REMARK    1  A    between atoms: N3_5  and  C2_6 
REMARK    2  A    between atoms: C8_14  and  C9_15 
REMARK    3  A    between atoms: C9_15  and  N4_16 
REMARK    4  A    between atoms: C10_19  and  N6_20 
REMARK    5  A    between atoms: C16_29  and  C17_30 
REMARK    6  A    between atoms: N7_31  and  N8_33 
REMARK       I    between atoms: N8_33  and  C18_35 
REMARK    7  A    between atoms: C18_35  and  C19_37 
REMARK    8  A    between atoms: C19_37  and  N9_38 
REMARK    9  A    between atoms: C19_37  and  C20_42 
REMARK   10  A    between atoms: C21_43  and  O3_44 
ROOT
HETATM    1  N1  UNL     1      22.136 -19.343  32.284  1.00  0.00    -0.080 NA
HETATM    2  C1  UNL     1      21.659 -19.920  33.506  1.00  0.00     0.145 A 
HETATM    3  N2  UNL     1      21.637 -21.241  33.795  1.00  0.00    -0.280 N 
ATOM      4  H2  UNL     1      21.959 -21.982  33.172  1.00  0.00     0.189 HD
HETATM    5  N3  UNL     1      21.127 -21.435  35.028  1.00  0.00    -0.257 N 
HETATM    6  C8  UNL     1      20.806 -20.250  35.577  1.00  0.00     0.069 A 
HETATM    7  C16 UNL     1      21.140 -19.288  34.607  1.00  0.00     0.050 A 
ENDROOT
BRANCH   7   8
HETATM    8  C17 UNL     1      20.911 -17.857  34.774  1.00  0.00     0.124 C 
HETATM    9  N7  UNL     1      21.693 -16.941  34.620  1.00  0.00    -0.308 N 
ATOM     10  H7  UNL     1      21.118 -16.127  34.839  1.00  0.00     0.186 HD
BRANCH   9  11
HETATM   11  N8  UNL     1      22.844 -16.396  34.335  1.00  0.00    -0.268 N 
HETATM   12  C18 UNL     1      23.229 -15.927  33.051  1.00  0.00     0.271 C 
HETATM   13  O2  UNL     1      22.372 -16.063  32.114  1.00  0.00    -0.269 OA
ATOM     14  H8  UNL     1      23.519 -16.299  35.093  1.00  0.00     0.190 HD
BRANCH  12  15
HETATM   15  C19 UNL     1      24.502 -15.310  32.680  1.00  0.00     0.319 C 
BRANCH  15  16
HETATM   16  N9  UNL     1      25.011 -14.536  33.857  1.00  0.00    -0.062 N 
ATOM     17  H93 UNL     1      24.409 -13.748  34.098  1.00  0.00     0.275 HD
ATOM     18  H92 UNL     1      24.922 -15.050  34.734  1.00  0.00     0.275 HD
ATOM     19  H91 UNL     1      25.971 -14.253  33.664  1.00  0.00     0.275 HD
ENDBRANCH  15  16
BRANCH  15  20
HETATM   20  C20 UNL     1      25.542 -16.351  32.481  1.00  0.00     0.100 A 
HETATM   21  C21 UNL     1      26.087 -16.561  31.200  1.00  0.00     0.158 A 
HETATM   22  N10 UNL     1      27.021 -17.484  30.949  1.00  0.00    -0.288 N 
HETATM   23  C22 UNL     1      27.486 -18.267  31.928  1.00  0.00     0.329 A 
ATOM     24  H10 UNL     1      27.381 -17.591  30.001  1.00  0.00     0.172 HD
HETATM   25  O4  UNL     1      28.365 -19.132  31.680  1.00  0.00    -0.247 OA
HETATM   26  N11 UNL     1      26.999 -18.107  33.169  1.00  0.00    -0.275 N 
HETATM   27  C23 UNL     1      26.043 -17.169  33.452  1.00  0.00     0.262 A 
ATOM     28  H11 UNL     1      27.351 -18.700  33.921  1.00  0.00     0.173 HD
HETATM   29  O5  UNL     1      25.665 -17.109  34.627  1.00  0.00    -0.267 OA
BRANCH  21  30
HETATM   30  O3  UNL     1      25.636 -15.776  30.157  1.00  0.00    -0.345 OA
ATOM     31  H3  UNL     1      24.870 -15.232  30.298  1.00  0.00     0.219 HD
ENDBRANCH  21  30
ENDBRANCH  15  20
ENDBRANCH  12  15
ENDBRANCH   9  11
ENDBRANCH   7   8
BRANCH   6  32
HETATM   32  C9  UNL     1      20.273 -20.019  36.916  1.00  0.00     0.213 C 
BRANCH  32  33
HETATM   33  N4  UNL     1      21.309 -20.123  37.980  1.00  0.00    -0.244 N 
HETATM   34  N5  UNL     1      22.543 -20.073  37.677  1.00  0.00    -0.274 N 
HETATM   35  C10 UNL     1      23.498 -20.172  38.569  1.00  0.00     0.166 A 
ATOM     36  H5  UNL     1      22.800 -19.951  36.698  1.00  0.00     0.189 HD
HETATM   37  S2  UNL     1      22.575 -20.354  39.992  1.00  0.00     0.010 SA
HETATM   38  C15 UNL     1      21.002 -20.283  39.275  1.00  0.00     0.308 A 
HETATM   39  O1  UNL     1      19.875 -20.363  39.870  1.00  0.00    -0.258 OA
BRANCH  35  40
HETATM   40  N6  UNL     1      24.906 -20.133  38.366  1.00  0.00    -0.359 N 
HETATM   41  C11 UNL     1      25.459 -19.389  37.276  1.00  0.00     0.135 C 
HETATM   42  C12 UNL     1      26.004 -20.308  36.208  1.00  0.00     0.093 C 
HETATM   43  S1  UNL     1      27.175 -21.469  36.989  1.00  0.00    -0.166 SA
HETATM   44  C13 UNL     1      26.563 -21.937  38.634  1.00  0.00     0.093 C 
HETATM   45  C14 UNL     1      25.761 -20.846  39.267  1.00  0.00     0.135 C 
ENDBRANCH  35  40
ENDBRANCH  32  33
ENDBRANCH   6  32
BRANCH   5  46
HETATM   46  C2  UNL     1      20.982 -22.755  35.528  1.00  0.00     0.059 A 
HETATM   47  C3  UNL     1      21.917 -23.273  36.380  1.00  0.00     0.033 A 
HETATM   48  C4  UNL     1      21.829 -24.540  36.898  1.00  0.00     0.029 A 
HETATM   49  C5  UNL     1      20.757 -25.325  36.547  1.00  0.00     0.072 A 
HETATM   50 CL1  UNL     1      20.601 -26.970  37.191  1.00  0.00    -0.081 Cl
HETATM   51  C6  UNL     1      19.804 -24.821  35.691  1.00  0.00     0.140 A 
HETATM   52  F1  UNL     1      18.753 -25.571  35.339  1.00  0.00    -0.204 F 
HETATM   53  C7  UNL     1      19.907 -23.524  35.169  1.00  0.00     0.075 A 
ENDBRANCH   5  46
TORSDOF 10
ENDMDL
MODEL 2
REMARK VINA RESULT: -7.403103341      2.501      4.175
REMARK  10 active torsions:
REMARK  status: ('A' for Active; 'I' for Inactive)
REMARK    1  A    between atoms: N3_5  and  C2_6 
REMARK    2  A    between atoms: C8_14  and  C9_15 
REMARK    3  A    between atoms: C9_15  and  N4_16 
REMARK    4  A    between atoms: C10_19  and  N6_20 
REMARK    5  A    between atoms: C16_29  and  C17_30 
REMARK    6  A    between atoms: N7_31  and  N8_33 
REMARK       I    between atoms: N8_33  and  C18_35 
REMARK    7  A    between atoms: C18_35  and  C19_37 
REMARK    8  A    between atoms: C19_37  and  N9_38 
REMARK    9  A    between atoms: C19_37  and  C20_42 
REMARK   10  A    between atoms: C21_43  and  O3_44 
ROOT
HETATM    1  N1  UNL     1      21.268 -18.986  32.045  1.00  0.00    -0.080 NA
HETATM    2  C1  UNL     1      21.313 -19.556  33.360  1.00  0.00     0.145 A 
HETATM    3  N2  UNL     1      21.189 -20.871  33.651  1.00  0.00    -0.280 N 
ATOM      4  H2  UNL     1      21.049 -21.612  32.964  1.00  0.00     0.189 HD
HETATM    5  N3  UNL     1      21.280 -21.059  34.983  1.00  0.00    -0.257 N 
HETATM    6  C8  UNL     1      21.468 -19.877  35.596  1.00  0.00     0.069 A 
HETATM    7  C16 UNL     1      21.484 -18.921  34.564  1.00  0.00     0.050 A 
ENDROOT
BRANCH   7   8
HETATM    8  C17 UNL     1      21.619 -17.487  34.792  1.00  0.00     0.124 C 
HETATM    9  N7  UNL     1      22.390 -16.707  34.271  1.00  0.00    -0.308 N 
ATOM     10  H7  UNL     1      22.139 -15.825  34.719  1.00  0.00     0.186 HD
BRANCH   9  11
HETATM   11  N8  UNL     1      23.354 -16.343  33.469  1.00  0.00    -0.268 N 
HETATM   12  C18 UNL     1      24.253 -15.271  33.710  1.00  0.00     0.271 C 
HETATM   13  O2  UNL     1      24.087 -14.621  34.796  1.00  0.00    -0.269 OA
ATOM     14  H8  UNL     1      23.469 -16.869  32.604  1.00  0.00     0.190 HD
BRANCH  12  15
HETATM   15  C19 UNL     1      25.346 -14.824  32.848  1.00  0.00     0.319 C 
BRANCH  15  16
HETATM   16  N9  UNL     1      26.239 -13.925  33.646  1.00  0.00    -0.062 N 
ATOM     17  H93 UNL     1      25.719 -13.223  34.173  1.00  0.00     0.275 HD
ATOM     18  H92 UNL     1      26.670 -14.402  34.439  1.00  0.00     0.275 HD
ATOM     19  H91 UNL     1      26.927 -13.513  33.016  1.00  0.00     0.275 HD
ENDBRANCH  15  16
BRANCH  15  20
HETATM   20  C20 UNL     1      26.232 -15.965  32.502  1.00  0.00     0.100 A 
HETATM   21  C21 UNL     1      26.317 -16.407  31.169  1.00  0.00     0.158 A 
HETATM   22  N10 UNL     1      27.089 -17.430  30.789  1.00  0.00    -0.288 N 
HETATM   23  C22 UNL     1      27.829 -18.095  31.683  1.00  0.00     0.329 A 
ATOM     24  H10 UNL     1      27.114 -17.707  29.808  1.00  0.00     0.172 HD
HETATM   25  O4  UNL     1      28.551 -19.056  31.315  1.00  0.00    -0.247 OA
HETATM   26  N11 UNL     1      27.784 -17.713  32.970  1.00  0.00    -0.275 N 
HETATM   27  C23 UNL     1      27.002 -16.668  33.383  1.00  0.00     0.262 A 
ATOM     28  H11 UNL     1      28.347 -18.214  33.658  1.00  0.00     0.173 HD
HETATM   29  O5  UNL     1      27.035 -16.403  34.590  1.00  0.00    -0.267 OA
BRANCH  21  30
HETATM   30  O3  UNL     1      25.571 -15.752  30.209  1.00  0.00    -0.345 OA
ATOM     31  H3  UNL     1      24.841 -15.214  30.493  1.00  0.00     0.219 HD
ENDBRANCH  21  30
ENDBRANCH  15  20
ENDBRANCH  12  15
ENDBRANCH   9  11
ENDBRANCH   7   8
BRANCH   6  32
HETATM   32  C9  UNL     1      21.664 -19.651  37.025  1.00  0.00     0.213 C 
BRANCH  32  33
HETATM   33  N4  UNL     1      20.410 -19.271  37.731  1.00  0.00    -0.244 N 
HETATM   34  N5  UNL     1      19.639 -18.390  37.234  1.00  0.00    -0.274 N 
HETATM   35  C10 UNL     1      18.529 -18.007  37.817  1.00  0.00     0.166 A 
ATOM     36  H5  UNL     1      19.896 -17.962  36.345  1.00  0.00     0.189 HD
HETATM   37  S2  UNL     1      18.560 -18.985  39.214  1.00  0.00     0.010 SA
HETATM   38  C15 UNL     1      20.046 -19.816  38.900  1.00  0.00     0.308 A 
HETATM   39  O1  UNL     1      20.602 -20.709  39.624  1.00  0.00    -0.258 OA
BRANCH  35  40
HETATM   40  N6  UNL     1      17.585 -17.039  37.374  1.00  0.00    -0.359 N 
HETATM   41  C11 UNL     1      17.985 -15.996  36.481  1.00  0.00     0.135 C 
HETATM   42  C12 UNL     1      18.022 -14.659  37.183  1.00  0.00     0.093 C 
HETATM   43  S1  UNL     1      16.404 -14.380  37.979  1.00  0.00    -0.166 SA
HETATM   44  C13 UNL     1      15.770 -15.951  38.637  1.00  0.00     0.093 C 
HETATM   45  C14 UNL     1      16.231 -17.123  37.833  1.00  0.00     0.135 C 
ENDBRANCH  35  40
ENDBRANCH  32  33
ENDBRANCH   6  32
BRANCH   5  46
HETATM   46  C2  UNL     1      21.147 -22.366  35.518  1.00  0.00     0.059 A 
HETATM   47  C3  UNL     1      22.094 -22.859  36.372  1.00  0.00     0.033 A 
HETATM   48  C4  UNL     1      22.018 -24.113  36.922  1.00  0.00     0.029 A 
HETATM   49  C5  UNL     1      20.946 -24.912  36.604  1.00  0.00     0.072 A 
HETATM   50 CL1  UNL     1      20.806 -26.540  37.291  1.00  0.00    -0.081 Cl
HETATM   51  C6  UNL     1      19.982 -24.434  35.746  1.00  0.00     0.140 A 
HETATM   52  F1  UNL     1      18.930 -25.197  35.424  1.00  0.00    -0.204 F 
HETATM   53  C7  UNL     1      20.072 -23.150  35.191  1.00  0.00     0.075 A 
ENDBRANCH   5  46
TORSDOF 10
ENDMDL
MODEL 3
REMARK VINA RESULT: -7.223407360      2.315      3.845
REMARK  10 active torsions:
REMARK  status: ('A' for Active; 'I' for Inactive)
REMARK    1  A    between atoms: N3_5  and  C2_6 
REMARK    2  A    between atoms: C8_14  and  C9_15 
REMARK    3  A    between atoms: C9_15  and  N4_16 
REMARK    4  A    between atoms: C10_19  and  N6_20 
REMARK    5  A    between atoms: C16_29  and  C17_30 
REMARK    6  A    between atoms: N7_31  and  N8_33 
REMARK       I    between atoms: N8_33  and  C18_35 
REMARK    7  A    between atoms: C18_35  and  C19_37 
REMARK    8  A    between atoms: C19_37  and  N9_38 
REMARK    9  A    between atoms: C19_37  and  C20_42 
REMARK   10  A    between atoms: C21_43  and  O3_44 
ROOT
HETATM    1  N1  UNL     1      23.233 -19.829  32.809  1.00  0.00    -0.080 NA
HETATM    2  C1  UNL     1      22.321 -20.402  33.754  1.00  0.00     0.145 A 
HETATM    3  N2  UNL     1      22.312 -21.694  34.153  1.00  0.00    -0.280 N 
ATOM      4  H2  UNL     1      22.957 -22.413  33.824  1.00  0.00     0.189 HD
HETATM    5  N3  UNL     1      21.325 -21.893  35.051  1.00  0.00    -0.257 N 
HETATM    6  C8  UNL     1      20.667 -20.740  35.264  1.00  0.00     0.069 A 
HETATM    7  C16 UNL     1      21.297 -19.794  34.435  1.00  0.00     0.050 A 
ENDROOT
BRANCH   7   8
HETATM    8  C17 UNL     1      20.866 -18.404  34.320  1.00  0.00     0.124 C 
HETATM    9  N7  UNL     1      21.544 -17.414  34.141  1.00  0.00    -0.308 N 
ATOM     10  H7  UNL     1      20.842 -16.673  34.125  1.00  0.00     0.186 HD
BRANCH   9  11
HETATM   11  N8  UNL     1      22.651 -16.747  33.957  1.00  0.00    -0.268 N 
HETATM   12  C18 UNL     1      23.147 -16.325  32.695  1.00  0.00     0.271 C 
HETATM   13  O2  UNL     1      22.446 -16.635  31.674  1.00  0.00    -0.269 OA
ATOM     14  H8  UNL     1      23.202 -16.513  34.782  1.00  0.00     0.190 HD
BRANCH  12  15
HETATM   15  C19 UNL     1      24.377 -15.578  32.434  1.00  0.00     0.319 C 
BRANCH  15  16
HETATM   16  N9  UNL     1      24.699 -14.762  33.648  1.00  0.00    -0.062 N 
ATOM     17  H93 UNL     1      23.994 -14.851  34.379  1.00  0.00     0.275 HD
ATOM     18  H92 UNL     1      25.491 -15.134  34.173  1.00  0.00     0.275 HD
ATOM     19  H91 UNL     1      24.842 -13.795  33.356  1.00  0.00     0.275 HD
ENDBRANCH  15  16
BRANCH  15  20
HETATM   20  C20 UNL     1      25.533 -16.506  32.331  1.00  0.00     0.100 A 
HETATM   21  C21 UNL     1      26.232 -16.622  31.115  1.00  0.00     0.158 A 
HETATM   22  N10 UNL     1      27.276 -17.440  30.951  1.00  0.00    -0.288 N 
HETATM   23  C22 UNL     1      27.709 -18.204  31.959  1.00  0.00     0.329 A 
ATOM     24  H10 UNL     1      27.746 -17.483  30.047  1.00  0.00     0.172 HD
HETATM   25  O4  UNL     1      28.691 -18.971  31.793  1.00  0.00    -0.247 OA
HETATM   26  N11 UNL     1      27.076 -18.132  33.141  1.00  0.00    -0.275 N 
HETATM   27  C23 UNL     1      26.005 -17.301  33.335  1.00  0.00     0.262 A 
ATOM     28  H11 UNL     1      27.402 -18.711  33.916  1.00  0.00     0.173 HD
HETATM   29  O5  UNL     1      25.498 -17.314  34.461  1.00  0.00    -0.267 OA
BRANCH  21  30
HETATM   30  O3  UNL     1      25.821 -15.853  30.044  1.00  0.00    -0.345 OA
ATOM     31  H3  UNL     1      24.908 -15.890  29.784  1.00  0.00     0.219 HD
ENDBRANCH  21  30
ENDBRANCH  15  20
ENDBRANCH  12  15
ENDBRANCH   9  11
ENDBRANCH   7   8
BRANCH   6  32
HETATM   32  C9  UNL     1      19.567 -20.517  36.197  1.00  0.00     0.213 C 
BRANCH  32  33
HETATM   33  N4  UNL     1      19.900 -19.536  37.265  1.00  0.00    -0.244 N 
HETATM   34  N5  UNL     1      19.519 -18.327  37.163  1.00  0.00    -0.274 N 
HETATM   35  C10 UNL     1      19.794 -17.417  38.066  1.00  0.00     0.166 A 
ATOM     36  H5  UNL     1      18.977 -18.054  36.344  1.00  0.00     0.189 HD
HETATM   37  S2  UNL     1      20.682 -18.350  39.185  1.00  0.00     0.010 SA
HETATM   38  C15 UNL     1      20.610 -19.866  38.353  1.00  0.00     0.308 A 
HETATM   39  O1  UNL     1      21.114 -20.979  38.725  1.00  0.00    -0.258 OA
BRANCH  35  40
HETATM   40  N6  UNL     1      19.432 -16.041  38.075  1.00  0.00    -0.359 N 
HETATM   41  C11 UNL     1      19.237 -15.353  39.314  1.00  0.00     0.135 C 
HETATM   42  C12 UNL     1      17.775 -15.049  39.546  1.00  0.00     0.093 C 
HETATM   43  S1  UNL     1      17.133 -14.159  38.089  1.00  0.00    -0.166 SA
HETATM   44  C13 UNL     1      17.890 -14.833  36.581  1.00  0.00     0.093 C 
HETATM   45  C14 UNL     1      19.268 -15.355  36.829  1.00  0.00     0.135 C 
ENDBRANCH  35  40
ENDBRANCH  32  33
ENDBRANCH   6  32
BRANCH   5  46
HETATM   46  C2  UNL     1      21.112 -23.191  35.583  1.00  0.00     0.059 A 
HETATM   47  C3  UNL     1      21.897 -23.652  36.602  1.00  0.00     0.033 A 
HETATM   48  C4  UNL     1      21.737 -24.896  37.159  1.00  0.00     0.029 A 
HETATM   49  C5  UNL     1      20.746 -25.715  36.674  1.00  0.00     0.072 A 
HETATM   50 CL1  UNL     1      20.502 -27.331  37.363  1.00  0.00    -0.081 Cl
HETATM   51  C6  UNL     1      19.944 -25.268  35.649  1.00  0.00     0.140 A 
HETATM   52  F1  UNL     1      18.974 -26.053  35.165  1.00  0.00    -0.204 F 
HETATM   53  C7  UNL     1      20.119 -23.995  35.089  1.00  0.00     0.075 A 
ENDBRANCH   5  46
TORSDOF 10
ENDMDL
MODEL 4
REMARK VINA RESULT: -7.215024877      2.887      4.384
REMARK  10 active torsions:
REMARK  status: ('A' for Active; 'I' for Inactive)
REMARK    1  A    between atoms: N3_5  and  C2_6 
REMARK    2  A    between atoms: C8_14  and  C9_15 
REMARK    3  A    between atoms: C9_15  and  N4_16 
REMARK    4  A    between atoms: C10_19  and  N6_20 
REMARK    5  A    between atoms: C16_29  and  C17_30 
REMARK    6  A    between atoms: N7_31  and  N8_33 
REMARK       I    between atoms: N8_33  and  C18_35 
REMARK    7  A    between atoms: C18_35  and  C19_37 
REMARK    8  A    between atoms: C19_37  and  N9_38 
REMARK    9  A    between atoms: C19_37  and  C20_42 
REMARK   10  A    between atoms: C21_43  and  O3_44 
ROOT
HETATM    1  N1  UNL     1      21.631 -18.610  31.642  1.00  0.00    -0.080 NA
HETATM    2  C1  UNL     1      21.670 -19.147  32.970  1.00  0.00     0.145 A 
HETATM    3  N2  UNL     1      21.497 -20.448  33.297  1.00  0.00    -0.280 N 
ATOM      4  H2  UNL     1      21.317 -21.200  32.631  1.00  0.00     0.189 HD
HETATM    5  N3  UNL     1      21.599 -20.605  34.632  1.00  0.00    -0.257 N 
HETATM    6  C8  UNL     1      21.843 -19.416  35.212  1.00  0.00     0.069 A 
HETATM    7  C16 UNL     1      21.883 -18.489  34.154  1.00  0.00     0.050 A 
ENDROOT
BRANCH   7   8
HETATM    8  C17 UNL     1      22.081 -17.055  34.343  1.00  0.00     0.124 C 
HETATM    9  N7  UNL     1      22.726 -16.284  33.663  1.00  0.00    -0.308 N 
ATOM     10  H7  UNL     1      22.589 -15.399  34.153  1.00  0.00     0.186 HD
BRANCH   9  11
HETATM   11  N8  UNL     1      23.495 -15.932  32.669  1.00  0.00    -0.268 N 
HETATM   12  C18 UNL     1      24.650 -16.639  32.241  1.00  0.00     0.271 C 
HETATM   13  O2  UNL     1      24.947 -17.694  32.896  1.00  0.00    -0.269 OA
ATOM     14  H8  UNL     1      23.246 -15.084  32.160  1.00  0.00     0.190 HD
BRANCH  12  15
HETATM   15  C19 UNL     1      25.542 -16.288  31.137  1.00  0.00     0.319 C 
BRANCH  15  16
HETATM   16  N9  UNL     1      24.914 -15.172  30.361  1.00  0.00    -0.062 N 
ATOM     17  H93 UNL     1      25.487 -14.872  29.571  1.00  0.00     0.275 HD
ATOM     18  H92 UNL     1      24.096 -15.473  29.831  1.00  0.00     0.275 HD
ATOM     19  H91 UNL     1      24.705 -14.410  31.006  1.00  0.00     0.275 HD
ENDBRANCH  15  16
BRANCH  15  20
HETATM   20  C20 UNL     1      26.794 -15.680  31.657  1.00  0.00     0.100 A 
HETATM   21  C21 UNL     1      27.934 -16.482  31.849  1.00  0.00     0.158 A 
HETATM   22  N10 UNL     1      29.090 -16.002  32.318  1.00  0.00    -0.288 N 
HETATM   23  C22 UNL     1      29.214 -14.709  32.634  1.00  0.00     0.329 A 
ATOM     24  H10 UNL     1      29.886 -16.629  32.436  1.00  0.00     0.172 HD
HETATM   25  O4  UNL     1      30.306 -14.268  33.076  1.00  0.00    -0.247 OA
HETATM   26  N11 UNL     1      28.154 -13.900  32.470  1.00  0.00    -0.275 N 
HETATM   27  C23 UNL     1      26.960 -14.367  31.990  1.00  0.00     0.262 A 
ATOM     28  H11 UNL     1      28.241 -12.912  32.708  1.00  0.00     0.173 HD
HETATM   29  O5  UNL     1      26.052 -13.537  31.880  1.00  0.00    -0.267 OA
BRANCH  21  30
HETATM   30  O3  UNL     1      27.855 -17.825  31.537  1.00  0.00    -0.345 OA
ATOM     31  H3  UNL     1      27.222 -18.101  30.885  1.00  0.00     0.219 HD
ENDBRANCH  21  30
ENDBRANCH  15  20
ENDBRANCH  12  15
ENDBRANCH   9  11
ENDBRANCH   7   8
BRANCH   6  32
HETATM   32  C9  UNL     1      22.067 -19.161  36.631  1.00  0.00     0.213 C 
BRANCH  32  33
HETATM   33  N4  UNL     1      20.804 -18.962  37.393  1.00  0.00    -0.244 N 
HETATM   34  N5  UNL     1      20.104 -17.918  37.207  1.00  0.00    -0.274 N 
HETATM   35  C10 UNL     1      18.990 -17.683  37.857  1.00  0.00     0.166 A 
ATOM     36  H5  UNL     1      20.422 -17.233  36.522  1.00  0.00     0.189 HD
HETATM   37  S2  UNL     1      18.908 -19.075  38.840  1.00  0.00     0.010 SA
HETATM   38  C15 UNL     1      20.360 -19.845  38.299  1.00  0.00     0.308 A 
HETATM   39  O1  UNL     1      20.836 -20.963  38.690  1.00  0.00    -0.258 OA
BRANCH  35  40
HETATM   40  N6  UNL     1      18.118 -16.564  37.746  1.00  0.00    -0.359 N 
HETATM   41  C11 UNL     1      17.915 -15.930  36.480  1.00  0.00     0.135 C 
HETATM   42  C12 UNL     1      18.576 -14.573  36.435  1.00  0.00     0.093 C 
HETATM   43  S1  UNL     1      17.988 -13.598  37.861  1.00  0.00    -0.166 SA
HETATM   44  C13 UNL     1      17.802 -14.683  39.306  1.00  0.00     0.093 C 
HETATM   45  C14 UNL     1      17.449 -16.082  38.916  1.00  0.00     0.135 C 
ENDBRANCH  35  40
ENDBRANCH  32  33
ENDBRANCH   6  32
BRANCH   5  46
HETATM   46  C2  UNL     1      21.419 -21.891  35.203  1.00  0.00     0.059 A 
HETATM   47  C3  UNL     1      22.426 -22.468  35.926  1.00  0.00     0.033 A 
HETATM   48  C4  UNL     1      22.310 -23.707  36.503  1.00  0.00     0.029 A 
HETATM   49  C5  UNL     1      21.134 -24.401  36.350  1.00  0.00     0.072 A 
HETATM   50 CL1  UNL     1      20.939 -26.006  37.078  1.00  0.00    -0.081 Cl
HETATM   51  C6  UNL     1      20.109 -23.837  35.626  1.00  0.00     0.140 A 
HETATM   52  F1  UNL     1      18.956 -24.499  35.467  1.00  0.00    -0.204 F 
HETATM   53  C7  UNL     1      20.241 -22.570  35.042  1.00  0.00     0.075 A 
ENDBRANCH   5  46
TORSDOF 10
ENDMDL
MODEL 5
REMARK VINA RESULT: -7.212699370      1.855      2.248
REMARK  10 active torsions:
REMARK  status: ('A' for Active; 'I' for Inactive)
REMARK    1  A    between atoms: N3_5  and  C2_6 
REMARK    2  A    between atoms: C8_14  and  C9_15 
REMARK    3  A    between atoms: C9_15  and  N4_16 
REMARK    4  A    between atoms: C10_19  and  N6_20 
REMARK    5  A    between atoms: C16_29  and  C17_30 
REMARK    6  A    between atoms: N7_31  and  N8_33 
REMARK       I    between atoms: N8_33  and  C18_35 
REMARK    7  A    between atoms: C18_35  and  C19_37 
REMARK    8  A    between atoms: C19_37  and  N9_38 
REMARK    9  A    between atoms: C19_37  and  C20_42 
REMARK   10  A    between atoms: C21_43  and  O3_44 
ROOT
HETATM    1  N1  UNL     1      22.892 -19.706  32.478  1.00  0.00    -0.080 NA
HETATM    2  C1  UNL     1      22.122 -20.270  33.547  1.00  0.00     0.145 A 
HETATM    3  N2  UNL     1      22.100 -21.576  33.896  1.00  0.00    -0.280 N 
ATOM      4  H2  UNL     1      22.633 -22.314  33.435  1.00  0.00     0.189 HD
HETATM    5  N3  UNL     1      21.272 -21.760  34.944  1.00  0.00    -0.257 N 
HETATM    6  C8  UNL     1      20.733 -20.583  35.308  1.00  0.00     0.069 A 
HETATM    7  C16 UNL     1      21.271 -19.637  34.417  1.00  0.00     0.050 A 
ENDROOT
BRANCH   7   8
HETATM    8  C17 UNL     1      20.915 -18.222  34.428  1.00  0.00     0.124 C 
HETATM    9  N7  UNL     1      21.634 -17.259  34.259  1.00  0.00    -0.308 N 
ATOM     10  H7  UNL     1      20.978 -16.482  34.348  1.00  0.00     0.186 HD
BRANCH   9  11
HETATM   11  N8  UNL     1      22.760 -16.641  34.029  1.00  0.00    -0.268 N 
HETATM   12  C18 UNL     1      23.186 -16.169  32.759  1.00  0.00     0.271 C 
HETATM   13  O2  UNL     1      22.395 -16.378  31.778  1.00  0.00    -0.269 OA
ATOM     14  H8  UNL     1      23.382 -16.487  34.821  1.00  0.00     0.190 HD
BRANCH  12  15
HETATM   15  C19 UNL     1      24.435 -15.474  32.448  1.00  0.00     0.319 C 
BRANCH  15  16
HETATM   16  N9  UNL     1      24.840 -14.674  33.648  1.00  0.00    -0.062 N 
ATOM     17  H93 UNL     1      24.074 -14.117  34.026  1.00  0.00     0.275 HD
ATOM     18  H92 UNL     1      25.007 -15.256  34.469  1.00  0.00     0.275 HD
ATOM     19  H91 UNL     1      25.651 -14.108  33.398  1.00  0.00     0.275 HD
ENDBRANCH  15  16
BRANCH  15  20
HETATM   20  C20 UNL     1      25.545 -16.448  32.296  1.00  0.00     0.100 A 
HETATM   21  C21 UNL     1      26.190 -16.586  31.053  1.00  0.00     0.158 A 
HETATM   22  N10 UNL     1      27.192 -17.447  30.845  1.00  0.00    -0.288 N 
HETATM   23  C22 UNL     1      27.631 -18.234  31.833  1.00  0.00     0.329 A 
ATOM     24  H10 UNL     1      27.624 -17.504  29.923  1.00  0.00     0.172 HD
HETATM   25  O4  UNL     1      28.574 -19.040  31.625  1.00  0.00    -0.247 OA
HETATM   26  N11 UNL     1      27.049 -18.141  33.039  1.00  0.00    -0.275 N 
HETATM   27  C23 UNL     1      26.022 -17.267  33.277  1.00  0.00     0.262 A 
ATOM     28  H11 UNL     1      27.380 -18.737  33.798  1.00  0.00     0.173 HD
HETATM   29  O5  UNL     1      25.559 -17.266  34.423  1.00  0.00    -0.267 OA
BRANCH  21  30
HETATM   30  O3  UNL     1      25.770 -15.795  30.002  1.00  0.00    -0.345 OA
ATOM     31  H3  UNL     1      25.877 -16.124  29.117  1.00  0.00     0.219 HD
ENDBRANCH  21  30
ENDBRANCH  15  20
ENDBRANCH  12  15
ENDBRANCH   9  11
ENDBRANCH   7   8
BRANCH   6  32
HETATM   32  C9  UNL     1      19.826 -20.341  36.426  1.00  0.00     0.213 C 
BRANCH  32  33
HETATM   33  N4  UNL     1      20.533 -19.950  37.675  1.00  0.00    -0.244 N 
HETATM   34  N5  UNL     1      21.144 -20.827  38.365  1.00  0.00    -0.274 N 
HETATM   35  C10 UNL     1      21.774 -20.543  39.479  1.00  0.00     0.166 A 
ATOM     36  H5  UNL     1      21.144 -21.792  38.037  1.00  0.00     0.189 HD
HETATM   37  S2  UNL     1      21.484 -18.865  39.579  1.00  0.00     0.010 SA
HETATM   38  C15 UNL     1      20.552 -18.690  38.131  1.00  0.00     0.308 A 
HETATM   39  O1  UNL     1      20.042 -17.616  37.662  1.00  0.00    -0.258 OA
BRANCH  35  40
HETATM   40  N6  UNL     1      22.490 -21.420  40.340  1.00  0.00    -0.359 N 
HETATM   41  C11 UNL     1      23.122 -22.591  39.814  1.00  0.00     0.135 C 
HETATM   42  C12 UNL     1      22.396 -23.844  40.242  1.00  0.00     0.093 C 
HETATM   43  S1  UNL     1      22.244 -23.831  42.060  1.00  0.00    -0.166 SA
HETATM   44  C13 UNL     1      21.941 -22.134  42.634  1.00  0.00     0.093 C 
HETATM   45  C14 UNL     1      22.569 -21.117  41.737  1.00  0.00     0.135 C 
ENDBRANCH  35  40
ENDBRANCH  32  33
ENDBRANCH   6  32
BRANCH   5  46
HETATM   46  C2  UNL     1      21.072 -23.067  35.460  1.00  0.00     0.059 A 
HETATM   47  C3  UNL     1      22.025 -23.647  36.249  1.00  0.00     0.033 A 
HETATM   48  C4  UNL     1      21.887 -24.905  36.778  1.00  0.00     0.029 A 
HETATM   49  C5  UNL     1      20.743 -25.616  36.505  1.00  0.00     0.072 A 
HETATM   50 CL1  UNL     1      20.521 -27.245  37.166  1.00  0.00    -0.081 Cl
HETATM   51  C6  UNL     1      19.771 -25.049  35.712  1.00  0.00     0.140 A 
HETATM   52  F1  UNL     1      18.650 -25.726  35.436  1.00  0.00    -0.204 F 
HETATM   53  C7  UNL     1      19.926 -23.762  35.178  1.00  0.00     0.075 A 
ENDBRANCH   5  46
TORSDOF 10
ENDMDL
