MODEL 1
REMARK VINA RESULT: -6.464623280      0.000      0.000
REMARK  11 active torsions:
REMARK  status: ('A' for Active; 'I' for Inactive)
REMARK    1  A    between atoms: N1_1  and  C1_4 
REMARK    2  A    between atoms: C2_7  and  C3_8 
REMARK    3  A    between atoms: C3_8  and  N3_9 
REMARK    4  A    between atoms: C3_8  and  C7_18 
REMARK    5  A    between atoms: N3_9  and  O1_10 
REMARK    6  A    between atoms: O1_10  and  C4_11 
REMARK       I    between atoms: C7_18  and  N6_20 
REMARK    7  A    between atoms: N6_20  and  C8_22 
REMARK    8  A    between atoms: C10_25  and  C11_26 
REMARK    9  A    between atoms: N7_27  and  O3_29 
REMARK   10  A    between atoms: C12_31  and  C13_32 
REMARK   11  A    between atoms: C15_40  and  O6_41 
ROOT
HETATM    1  C7  UNL     1       8.452  -6.262   1.906  1.00  0.00     0.245 C 
HETATM    2  O2  UNL     1       8.432  -5.637   0.798  1.00  0.00    -0.271 OA
HETATM    3  N6  UNL     1       7.210  -6.744   2.398  1.00  0.00    -0.348 N 
ATOM      4  H6  UNL     1       7.194  -7.247   3.285  1.00  0.00     0.163 HD
ENDROOT
BRANCH   3   5
HETATM    5  C8  UNL     1       5.963  -6.546   1.683  1.00  0.00     0.172 C 
HETATM    6  C9  UNL     1       5.373  -7.802   1.182  1.00  0.00     0.147 C 
HETATM    7 CL1  UNL     1       5.714  -9.122   2.359  1.00  0.00    -0.117 Cl
HETATM    8  C10 UNL     1       3.890  -7.842   0.964  1.00  0.00     0.015 C 
HETATM    9  C12 UNL     1       3.145  -7.187   1.860  1.00  0.00     0.140 C 
HETATM   10  N8  UNL     1       3.890  -6.489   2.919  1.00  0.00    -0.239 N 
HETATM   11  N9  UNL     1       4.129  -6.164   4.185  1.00  0.00    -0.281 N 
HETATM   12  C15 UNL     1       5.034  -5.724   2.518  1.00  0.00     0.233 A 
HETATM   13  C14 UNL     1       5.174  -5.544   3.920  1.00  0.00     0.168 A 
ATOM     14  H9  UNL     1       3.635  -6.355   5.057  1.00  0.00     0.188 HD
HETATM   15  N10 UNL     1       6.109  -4.847   4.777  1.00  0.00    -0.081 NA
BRANCH   8  16
HETATM   16  C11 UNL     1       3.370  -8.565  -0.168  1.00  0.00     0.125 C 
HETATM   17  N7  UNL     1       3.732  -8.824  -1.314  1.00  0.00    -0.280 N 
ATOM     18  H7  UNL     1       4.636  -8.465  -1.623  1.00  0.00     0.193 HD
BRANCH  17  19
HETATM   19  O3  UNL     1       3.004  -9.560  -2.198  1.00  0.00    -0.290 OA
ATOM     20  H3  UNL     1       2.368  -9.194  -2.802  1.00  0.00     0.244 HD
ENDBRANCH  17  19
ENDBRANCH   8  16
BRANCH   9  21
HETATM   21  C13 UNL     1       1.732  -7.105   1.841  1.00  0.00     0.229 C 
HETATM   22  O4  UNL     1       0.990  -6.596   1.018  1.00  0.00    -0.643 OA
HETATM   23  O5  UNL     1       1.018  -7.693   2.919  1.00  0.00    -0.643 OA
ENDBRANCH   9  21
BRANCH  12  24
HETATM   24  O6  UNL     1       4.718  -4.473   1.905  1.00  0.00    -0.362 OA
ATOM     25  H6  UNL     1       3.787  -4.289   1.923  1.00  0.00     0.213 HD
ENDBRANCH  12  24
ENDBRANCH   3   5
BRANCH   1  26
HETATM   26  C3  UNL     1       9.734  -6.444   2.595  1.00  0.00     0.249 C 
BRANCH  26  27
HETATM   27  C2  UNL     1      10.555  -5.164   2.567  1.00  0.00     0.049 A 
HETATM   28  N2  UNL     1      11.385  -4.855   1.593  1.00  0.00    -0.338 N 
HETATM   29  C1  UNL     1      12.047  -3.699   1.673  1.00  0.00     0.142 A 
ATOM     30  H2  UNL     1      11.519  -5.481   0.799  1.00  0.00     0.168 HD
HETATM   31  S1  UNL     1      11.500  -3.030   3.137  1.00  0.00    -0.064 SA
HETATM   32  C16 UNL     1      10.430  -4.272   3.597  1.00  0.00     0.080 A 
BRANCH  29  33
HETATM   33  N1  UNL     1      12.913  -3.223   0.801  1.00  0.00    -0.380 N 
ATOM     34  H12 UNL     1      13.807  -3.607   0.496  1.00  0.00     0.158 HD
ATOM     35  H11 UNL     1      12.831  -2.358   0.267  1.00  0.00     0.158 HD
ENDBRANCH  29  33
ENDBRANCH  26  27
BRANCH  26  36
HETATM   36  N3  UNL     1      10.512  -7.517   1.958  1.00  0.00    -0.070 NA
BRANCH  36  37
HETATM   37  O1  UNL     1       9.779  -8.648   1.833  1.00  0.00    -0.208 OA
BRANCH  37  38
HETATM   38  C4  UNL     1       9.521  -9.267   0.609  1.00  0.00     0.235 C 
HETATM   39  N4  UNL     1       8.540  -8.911  -0.149  1.00  0.00    -0.354 N 
HETATM   40  C5  UNL     1       8.512  -9.722  -1.351  1.00  0.00     0.143 C 
ATOM     41  H4  UNL     1       7.878  -8.166   0.066  1.00  0.00     0.163 HD
HETATM   42  C6  UNL     1       9.425 -10.894  -1.054  1.00  0.00     0.143 C 
HETATM   43  N5  UNL     1      10.254 -10.335   0.020  1.00  0.00    -0.354 N 
ATOM     44  H5  UNL     1      11.184 -10.653   0.293  1.00  0.00     0.163 HD
ENDBRANCH  37  38
ENDBRANCH  36  37
ENDBRANCH  26  36
ENDBRANCH   1  26
TORSDOF 11
ENDMDL
MODEL 2
REMARK VINA RESULT: -6.462871130      7.070     11.151
REMARK  11 active torsions:
REMARK  status: ('A' for Active; 'I' for Inactive)
REMARK    1  A    between atoms: N1_1  and  C1_4 
REMARK    2  A    between atoms: C2_7  and  C3_8 
REMARK    3  A    between atoms: C3_8  and  N3_9 
REMARK    4  A    between atoms: C3_8  and  C7_18 
REMARK    5  A    between atoms: N3_9  and  O1_10 
REMARK    6  A    between atoms: O1_10  and  C4_11 
REMARK       I    between atoms: C7_18  and  N6_20 
REMARK    7  A    between atoms: N6_20  and  C8_22 
REMARK    8  A    between atoms: C10_25  and  C11_26 
REMARK    9  A    between atoms: N7_27  and  O3_29 
REMARK   10  A    between atoms: C12_31  and  C13_32 
REMARK   11  A    between atoms: C15_40  and  O6_41 
ROOT
HETATM    1  C7  UNL     1      -1.708 -11.132   0.212  1.00  0.00     0.245 C 
HETATM    2  O2  UNL     1      -2.803 -10.742  -0.305  1.00  0.00    -0.271 OA
HETATM    3  N6  UNL     1      -0.969 -12.111  -0.505  1.00  0.00    -0.348 N 
ATOM      4  H6  UNL     1      -0.088 -12.446  -0.114  1.00  0.00     0.163 HD
ENDROOT
BRANCH   3   5
HETATM    5  C8  UNL     1      -1.423 -12.652  -1.772  1.00  0.00     0.172 C 
HETATM    6  C9  UNL     1      -0.317 -12.990  -2.690  1.00  0.00     0.147 C 
HETATM    7 CL1  UNL     1       1.081 -13.591  -1.729  1.00  0.00    -0.117 Cl
HETATM    8  C10 UNL     1      -0.565 -14.044  -3.727  1.00  0.00     0.015 C 
HETATM    9  C12 UNL     1      -1.319 -15.080  -3.345  1.00  0.00     0.140 C 
HETATM   10  N8  UNL     1      -1.827 -15.024  -1.967  1.00  0.00    -0.239 N 
HETATM   11  N9  UNL     1      -2.058 -15.542  -0.764  1.00  0.00    -0.281 N 
HETATM   12  C15 UNL     1      -2.377 -13.776  -1.523  1.00  0.00     0.233 A 
HETATM   13  C14 UNL     1      -2.479 -14.472  -0.288  1.00  0.00     0.168 A 
ATOM     14  H9  UNL     1      -1.935 -16.476  -0.374  1.00  0.00     0.188 HD
HETATM   15  N10 UNL     1      -2.958 -14.145   1.038  1.00  0.00    -0.081 NA
BRANCH   8  16
HETATM   16  C11 UNL     1       0.008 -13.882  -5.038  1.00  0.00     0.125 C 
HETATM   17  N7  UNL     1       0.843 -14.458  -5.733  1.00  0.00    -0.280 N 
ATOM     18  H7  UNL     1       1.299 -15.285  -5.346  1.00  0.00     0.193 HD
BRANCH  17  19
HETATM   19  O3  UNL     1       1.199 -14.063  -6.986  1.00  0.00    -0.290 OA
ATOM     20  H3  UNL     1       1.277 -14.650  -7.729  1.00  0.00     0.244 HD
ENDBRANCH  17  19
ENDBRANCH   8  16
BRANCH   9  21
HETATM   21  C13 UNL     1      -1.666 -16.181  -4.165  1.00  0.00     0.229 C 
HETATM   22  O4  UNL     1      -2.729 -16.456  -4.695  1.00  0.00    -0.643 OA
HETATM   23  O5  UNL     1      -0.658 -17.142  -4.448  1.00  0.00    -0.643 OA
ENDBRANCH   9  21
BRANCH  12  24
HETATM   24  O6  UNL     1      -3.684 -13.499  -2.025  1.00  0.00    -0.362 OA
ATOM     25  H6  UNL     1      -4.329 -14.123  -1.715  1.00  0.00     0.213 HD
ENDBRANCH  12  24
ENDBRANCH   3   5
BRANCH   1  26
HETATM   26  C3  UNL     1      -1.283 -10.558   1.493  1.00  0.00     0.249 C 
BRANCH  26  27
HETATM   27  C2  UNL     1      -2.115  -9.334   1.844  1.00  0.00     0.049 A 
HETATM   28  N2  UNL     1      -1.997  -8.175   1.231  1.00  0.00    -0.338 N 
HETATM   29  C1  UNL     1      -2.787  -7.173   1.621  1.00  0.00     0.142 A 
ATOM     30  H2  UNL     1      -1.320  -8.046   0.480  1.00  0.00     0.168 HD
HETATM   31  S1  UNL     1      -3.715  -7.862   2.868  1.00  0.00    -0.064 SA
HETATM   32  C16 UNL     1      -3.046  -9.428   2.842  1.00  0.00     0.080 A 
BRANCH  29  33
HETATM   33  N1  UNL     1      -2.812  -5.950   1.130  1.00  0.00    -0.380 N 
ATOM     34  H12 UNL     1      -2.836  -5.639   0.160  1.00  0.00     0.158 HD
ATOM     35  H11 UNL     1      -2.814  -5.078   1.660  1.00  0.00     0.158 HD
ENDBRANCH  29  33
ENDBRANCH  26  27
BRANCH  26  36
HETATM   36  N3  UNL     1       0.132 -10.164   1.435  1.00  0.00    -0.070 NA
BRANCH  36  37
HETATM   37  O1  UNL     1       0.414  -9.507   0.285  1.00  0.00    -0.208 OA
BRANCH  37  38
HETATM   38  C4  UNL     1       1.660  -8.945   0.005  1.00  0.00     0.235 C 
HETATM   39  N4  UNL     1       2.286  -9.174  -1.099  1.00  0.00    -0.354 N 
HETATM   40  C5  UNL     1       3.550  -8.463  -1.119  1.00  0.00     0.143 C 
ATOM     41  H4  UNL     1       1.941  -9.770  -1.851  1.00  0.00     0.163 HD
HETATM   42  C6  UNL     1       3.781  -8.036   0.316  1.00  0.00     0.143 C 
HETATM   43  N5  UNL     1       2.411  -8.071   0.840  1.00  0.00    -0.354 N 
ATOM     44  H5  UNL     1       2.062  -7.563   1.653  1.00  0.00     0.163 HD
ENDBRANCH  37  38
ENDBRANCH  36  37
ENDBRANCH  26  36
ENDBRANCH   1  26
TORSDOF 11
ENDMDL
MODEL 3
REMARK VINA RESULT: -6.403371254      3.943      8.945
REMARK  11 active torsions:
REMARK  status: ('A' for Active; 'I' for Inactive)
REMARK    1  A    between atoms: N1_1  and  C1_4 
REMARK    2  A    between atoms: C2_7  and  C3_8 
REMARK    3  A    between atoms: C3_8  and  N3_9 
REMARK    4  A    between atoms: C3_8  and  C7_18 
REMARK    5  A    between atoms: N3_9  and  O1_10 
REMARK    6  A    between atoms: O1_10  and  C4_11 
REMARK       I    between atoms: C7_18  and  N6_20 
REMARK    7  A    between atoms: N6_20  and  C8_22 
REMARK    8  A    between atoms: C10_25  and  C11_26 
REMARK    9  A    between atoms: N7_27  and  O3_29 
REMARK   10  A    between atoms: C12_31  and  C13_32 
REMARK   11  A    between atoms: C15_40  and  O6_41 
ROOT
HETATM    1  C7  UNL     1       3.071  -8.363   0.144  1.00  0.00     0.245 C 
HETATM    2  O2  UNL     1       3.581  -8.345  -1.021  1.00  0.00    -0.271 OA
HETATM    3  N6  UNL     1       3.957  -8.173   1.238  1.00  0.00    -0.348 N 
ATOM      4  H6  UNL     1       3.578  -8.185   2.185  1.00  0.00     0.163 HD
ENDROOT
BRANCH   3   5
HETATM    5  C8  UNL     1       5.381  -7.964   1.056  1.00  0.00     0.172 C 
HETATM    6  C9  UNL     1       5.848  -6.660   1.567  1.00  0.00     0.147 C 
HETATM    7 CL1  UNL     1       4.900  -6.231   3.036  1.00  0.00    -0.117 Cl
HETATM    8  C10 UNL     1       7.285  -6.542   1.977  1.00  0.00     0.015 C 
HETATM    9  C12 UNL     1       7.813  -7.608   2.586  1.00  0.00     0.140 C 
HETATM   10  N8  UNL     1       6.917  -8.763   2.739  1.00  0.00    -0.239 N 
HETATM   11  N9  UNL     1       6.349  -9.742   3.437  1.00  0.00    -0.281 N 
HETATM   12  C15 UNL     1       6.132  -9.138   1.598  1.00  0.00     0.233 A 
HETATM   13  C14 UNL     1       5.585 -10.076   2.514  1.00  0.00     0.168 A 
ATOM     14  H9  UNL     1       6.490 -10.092   4.385  1.00  0.00     0.188 HD
HETATM   15  N10 UNL     1       4.576 -11.111   2.444  1.00  0.00    -0.081 NA
BRANCH   8  16
HETATM   16  C11 UNL     1       7.992  -5.319   1.698  1.00  0.00     0.125 C 
HETATM   17  N7  UNL     1       9.035  -4.990   1.136  1.00  0.00    -0.280 N 
ATOM     18  H7  UNL     1       9.612  -5.727   0.730  1.00  0.00     0.193 HD
BRANCH  17  19
HETATM   19  O3  UNL     1       9.469  -3.705   1.020  1.00  0.00    -0.290 OA
ATOM     20  H3  UNL     1      10.345  -3.415   1.245  1.00  0.00     0.244 HD
ENDBRANCH  17  19
ENDBRANCH   8  16
BRANCH   9  21
HETATM   21  C13 UNL     1       9.145  -7.701   3.056  1.00  0.00     0.229 C 
HETATM   22  O4  UNL     1       9.575  -7.668   4.197  1.00  0.00    -0.643 OA
HETATM   23  O5  UNL     1      10.179  -7.862   2.095  1.00  0.00    -0.643 OA
ENDBRANCH   9  21
BRANCH  12  24
HETATM   24  O6  UNL     1       6.861  -9.829   0.585  1.00  0.00    -0.362 OA
ATOM     25  H6  UNL     1       7.607 -10.301   0.937  1.00  0.00     0.213 HD
ENDBRANCH  12  24
ENDBRANCH   3   5
BRANCH   1  26
HETATM   26  C3  UNL     1       1.626  -8.574   0.284  1.00  0.00     0.249 C 
BRANCH  26  27
HETATM   27  C2  UNL     1       1.188  -9.839  -0.436  1.00  0.00     0.049 A 
HETATM   28  N2  UNL     1       1.560 -10.144  -1.661  1.00  0.00    -0.338 N 
HETATM   29  C1  UNL     1       1.118 -11.287  -2.188  1.00  0.00     0.142 A 
ATOM     30  H2  UNL     1       2.171  -9.524  -2.193  1.00  0.00     0.168 HD
HETATM   31  S1  UNL     1       0.161 -11.950  -0.949  1.00  0.00    -0.064 SA
HETATM   32  C16 UNL     1       0.367 -10.722   0.213  1.00  0.00     0.080 A 
BRANCH  29  33
HETATM   33  N1  UNL     1       1.382 -11.757  -3.390  1.00  0.00    -0.380 N 
ATOM     34  H12 UNL     1       1.555 -11.256  -4.262  1.00  0.00     0.158 HD
ATOM     35  H11 UNL     1       1.460 -12.738  -3.660  1.00  0.00     0.158 HD
ENDBRANCH  29  33
ENDBRANCH  26  27
BRANCH  26  36
HETATM   36  N3  UNL     1       0.884  -7.433  -0.273  1.00  0.00    -0.070 NA
BRANCH  36  37
HETATM   37  O1  UNL     1       0.357  -6.663   0.708  1.00  0.00    -0.208 OA
BRANCH  37  38
HETATM   38  C4  UNL     1      -0.993  -6.684   1.062  1.00  0.00     0.235 C 
HETATM   39  N4  UNL     1      -1.772  -5.674   0.863  1.00  0.00    -0.354 N 
HETATM   40  C5  UNL     1      -3.113  -5.974   1.324  1.00  0.00     0.143 C 
ATOM     41  H4  UNL     1      -1.484  -4.791   0.442  1.00  0.00     0.163 HD
HETATM   42  C6  UNL     1      -2.965  -7.214   2.181  1.00  0.00     0.143 C 
HETATM   43  N5  UNL     1      -1.703  -7.758   1.665  1.00  0.00    -0.354 N 
ATOM     44  H5  UNL     1      -1.393  -8.728   1.727  1.00  0.00     0.163 HD
ENDBRANCH  37  38
ENDBRANCH  36  37
ENDBRANCH  26  36
ENDBRANCH   1  26
TORSDOF 11
ENDMDL
MODEL 4
REMARK VINA RESULT: -6.270813979      3.648      5.891
REMARK  11 active torsions:
REMARK  status: ('A' for Active; 'I' for Inactive)
REMARK    1  A    between atoms: N1_1  and  C1_4 
REMARK    2  A    between atoms: C2_7  and  C3_8 
REMARK    3  A    between atoms: C3_8  and  N3_9 
REMARK    4  A    between atoms: C3_8  and  C7_18 
REMARK    5  A    between atoms: N3_9  and  O1_10 
REMARK    6  A    between atoms: O1_10  and  C4_11 
REMARK       I    between atoms: C7_18  and  N6_20 
REMARK    7  A    between atoms: N6_20  and  C8_22 
REMARK    8  A    between atoms: C10_25  and  C11_26 
REMARK    9  A    between atoms: N7_27  and  O3_29 
REMARK   10  A    between atoms: C12_31  and  C13_32 
REMARK   11  A    between atoms: C15_40  and  O6_41 
ROOT
HETATM    1  C7  UNL     1       3.679  -8.917   3.035  1.00  0.00     0.245 C 
HETATM    2  O2  UNL     1       3.342  -8.642   4.230  1.00  0.00    -0.271 OA
HETATM    3  N6  UNL     1       2.630  -9.126   2.101  1.00  0.00    -0.348 N 
ATOM      4  H6  UNL     1       2.869  -9.351   1.135  1.00  0.00     0.163 HD
ENDROOT
BRANCH   3   5
HETATM    5  C8  UNL     1       1.230  -9.030   2.472  1.00  0.00     0.172 C 
HETATM    6  C9  UNL     1       0.487  -8.028   1.683  1.00  0.00     0.147 C 
HETATM    7 CL1  UNL     1       1.135  -8.003   0.004  1.00  0.00    -0.117 Cl
HETATM    8  C10 UNL     1      -0.993  -8.214   1.531  1.00  0.00     0.015 C 
HETATM    9  C12 UNL     1      -1.417  -9.474   1.387  1.00  0.00     0.140 C 
HETATM   10  N8  UNL     1      -0.371 -10.507   1.430  1.00  0.00    -0.239 N 
HETATM   11  N9  UNL     1       0.248 -11.590   0.972  1.00  0.00    -0.281 N 
HETATM   12  C15 UNL     1       0.617 -10.394   2.464  1.00  0.00     0.233 A 
HETATM   13  C14 UNL     1       1.179 -11.513   1.794  1.00  0.00     0.168 A 
ATOM     14  H9  UNL     1       0.036 -12.246   0.220  1.00  0.00     0.188 HD
HETATM   15  N10 UNL     1       2.346 -12.347   1.988  1.00  0.00    -0.081 NA
BRANCH   8  16
HETATM   16  C11 UNL     1      -1.848  -7.055   1.549  1.00  0.00     0.125 C 
HETATM   17  N7  UNL     1      -2.608  -6.485   0.769  1.00  0.00    -0.280 N 
ATOM     18  H7  UNL     1      -2.716  -6.879  -0.166  1.00  0.00     0.193 HD
BRANCH  17  19
HETATM   19  O3  UNL     1      -3.313  -5.361   1.072  1.00  0.00    -0.290 OA
ATOM     20  H3  UNL     1      -4.193  -5.364   1.431  1.00  0.00     0.244 HD
ENDBRANCH  17  19
ENDBRANCH   8  16
BRANCH   9  21
HETATM   21  C13 UNL     1      -2.767  -9.866   1.224  1.00  0.00     0.229 C 
HETATM   22  O4  UNL     1      -3.518 -10.425   2.005  1.00  0.00    -0.643 OA
HETATM   23  O5  UNL     1      -3.394  -9.586  -0.020  1.00  0.00    -0.643 OA
ENDBRANCH   9  21
BRANCH  12  24
HETATM   24  O6  UNL     1       0.162 -10.790   3.757  1.00  0.00    -0.362 OA
ATOM     25  H6  UNL     1       0.869 -10.840   4.388  1.00  0.00     0.213 HD
ENDBRANCH  12  24
ENDBRANCH   3   5
BRANCH   1  26
HETATM   26  C3  UNL     1       5.105  -9.001   2.701  1.00  0.00     0.249 C 
BRANCH  26  27
HETATM   27  C2  UNL     1       5.733  -7.618   2.640  1.00  0.00     0.049 A 
HETATM   28  N2  UNL     1       5.039  -6.511   2.476  1.00  0.00    -0.338 N 
HETATM   29  C1  UNL     1       5.699  -5.352   2.445  1.00  0.00     0.142 A 
ATOM     30  H2  UNL     1       4.024  -6.539   2.376  1.00  0.00     0.168 HD
HETATM   31  S1  UNL     1       7.322  -5.815   2.649  1.00  0.00    -0.064 SA
HETATM   32  C16 UNL     1       7.091  -7.498   2.767  1.00  0.00     0.080 A 
BRANCH  29  33
HETATM   33  N1  UNL     1       5.179  -4.151   2.292  1.00  0.00    -0.380 N 
ATOM     34  H12 UNL     1       4.252  -3.806   2.540  1.00  0.00     0.158 HD
ATOM     35  H11 UNL     1       5.636  -3.335   1.883  1.00  0.00     0.158 HD
ENDBRANCH  29  33
ENDBRANCH  26  27
BRANCH  26  36
HETATM   36  N3  UNL     1       5.290  -9.661   1.400  1.00  0.00    -0.070 NA
BRANCH  36  37
HETATM   37  O1  UNL     1       5.116  -8.790   0.378  1.00  0.00    -0.208 OA
BRANCH  37  38
HETATM   38  C4  UNL     1       5.915  -8.775  -0.766  1.00  0.00     0.235 C 
HETATM   39  N4  UNL     1       5.415  -8.746  -1.955  1.00  0.00    -0.354 N 
HETATM   40  C5  UNL     1       6.472  -8.736  -2.946  1.00  0.00     0.143 C 
ATOM     41  H4  UNL     1       4.418  -8.731  -2.167  1.00  0.00     0.163 HD
HETATM   42  C6  UNL     1       7.723  -9.133  -2.189  1.00  0.00     0.143 C 
HETATM   43  N5  UNL     1       7.336  -8.787  -0.816  1.00  0.00    -0.354 N 
ATOM     44  H5  UNL     1       7.970  -8.591  -0.041  1.00  0.00     0.163 HD
ENDBRANCH  37  38
ENDBRANCH  36  37
ENDBRANCH  26  36
ENDBRANCH   1  26
TORSDOF 11
ENDMDL
MODEL 5
REMARK VINA RESULT: -6.220972021      3.790      8.847
REMARK  11 active torsions:
REMARK  status: ('A' for Active; 'I' for Inactive)
REMARK    1  A    between atoms: N1_1  and  C1_4 
REMARK    2  A    between atoms: C2_7  and  C3_8 
REMARK    3  A    between atoms: C3_8  and  N3_9 
REMARK    4  A    between atoms: C3_8  and  C7_18 
REMARK    5  A    between atoms: N3_9  and  O1_10 
REMARK    6  A    between atoms: O1_10  and  C4_11 
REMARK       I    between atoms: C7_18  and  N6_20 
REMARK    7  A    between atoms: N6_20  and  C8_22 
REMARK    8  A    between atoms: C10_25  and  C11_26 
REMARK    9  A    between atoms: N7_27  and  O3_29 
REMARK   10  A    between atoms: C12_31  and  C13_32 
REMARK   11  A    between atoms: C15_40  and  O6_41 
ROOT
HETATM    1  C7  UNL     1       2.450  -7.661   2.219  1.00  0.00     0.245 C 
HETATM    2  O2  UNL     1       2.133  -6.926   1.230  1.00  0.00    -0.271 OA
HETATM    3  N6  UNL     1       3.729  -7.446   2.798  1.00  0.00    -0.348 N 
ATOM      4  H6  UNL     1       4.013  -8.021   3.591  1.00  0.00     0.163 HD
ENDROOT
BRANCH   3   5
HETATM    5  C8  UNL     1       4.646  -6.437   2.302  1.00  0.00     0.172 C 
HETATM    6  C9  UNL     1       5.149  -5.537   3.358  1.00  0.00     0.147 C 
HETATM    7 CL1  UNL     1       5.337  -6.471   4.886  1.00  0.00    -0.117 Cl
HETATM    8  C10 UNL     1       6.473  -4.869   3.138  1.00  0.00     0.015 C 
HETATM    9  C12 UNL     1       7.410  -5.605   2.531  1.00  0.00     0.140 C 
HETATM   10  N8  UNL     1       6.997  -6.959   2.133  1.00  0.00    -0.239 N 
HETATM   11  N9  UNL     1       7.161  -8.276   2.056  1.00  0.00    -0.281 N 
HETATM   12  C15 UNL     1       5.720  -7.093   1.494  1.00  0.00     0.233 A 
HETATM   13  C14 UNL     1       6.036  -8.476   1.566  1.00  0.00     0.168 A 
ATOM     14  H9  UNL     1       7.931  -8.897   2.308  1.00  0.00     0.188 HD
HETATM   15  N10 UNL     1       5.377  -9.701   1.166  1.00  0.00    -0.081 NA
BRANCH   8  16
HETATM   16  C11 UNL     1       6.653  -3.511   3.583  1.00  0.00     0.125 C 
HETATM   17  N7  UNL     1       7.282  -2.928   4.463  1.00  0.00    -0.280 N 
ATOM     18  H7  UNL     1       7.858  -3.490   5.091  1.00  0.00     0.193 HD
BRANCH  17  19
HETATM   19  O3  UNL     1       7.260  -1.580   4.655  1.00  0.00    -0.290 OA
ATOM     20  H3  UNL     1       8.003  -1.008   4.505  1.00  0.00     0.244 HD
ENDBRANCH  17  19
ENDBRANCH   8  16
BRANCH   9  21
HETATM   21  C13 UNL     1       8.723  -5.169   2.235  1.00  0.00     0.229 C 
HETATM   22  O4  UNL     1       9.262  -4.988   1.157  1.00  0.00    -0.643 OA
HETATM   23  O5  UNL     1       9.588  -4.880   3.325  1.00  0.00    -0.643 OA
ENDBRANCH   9  21
BRANCH  12  24
HETATM   24  O6  UNL     1       5.701  -6.677   0.129  1.00  0.00    -0.362 OA
ATOM     25  H6  UNL     1       5.430  -7.375  -0.456  1.00  0.00     0.213 HD
ENDBRANCH  12  24
ENDBRANCH   3   5
BRANCH   1  26
HETATM   26  C3  UNL     1       1.493  -8.666   2.692  1.00  0.00     0.249 C 
BRANCH  26  27
HETATM   27  C2  UNL     1       1.189  -9.685   1.605  1.00  0.00     0.049 A 
HETATM   28  N2  UNL     1       1.398  -9.464   0.324  1.00  0.00    -0.338 N 
HETATM   29  C1  UNL     1       1.100 -10.436  -0.540  1.00  0.00     0.142 A 
ATOM     30  H2  UNL     1       1.778  -8.574   0.000  1.00  0.00     0.168 HD
HETATM   31  S1  UNL     1       0.516 -11.685   0.456  1.00  0.00    -0.064 SA
HETATM   32  C16 UNL     1       0.678 -10.903   1.960  1.00  0.00     0.080 A 
BRANCH  29  33
HETATM   33  N1  UNL     1       1.240 -10.400  -1.850  1.00  0.00    -0.380 N 
ATOM     34  H12 UNL     1       1.312 -11.166  -2.518  1.00  0.00     0.158 HD
ATOM     35  H11 UNL     1       1.301  -9.567  -2.435  1.00  0.00     0.158 HD
ENDBRANCH  29  33
ENDBRANCH  26  27
BRANCH  26  36
HETATM   36  N3  UNL     1       0.234  -8.025   3.102  1.00  0.00    -0.070 NA
BRANCH  36  37
HETATM   37  O1  UNL     1      -0.733  -8.202   2.171  1.00  0.00    -0.208 OA
BRANCH  37  38
HETATM   38  C4  UNL     1      -1.367  -7.150   1.509  1.00  0.00     0.235 C 
HETATM   39  N4  UNL     1      -0.707  -6.237   0.879  1.00  0.00    -0.354 N 
HETATM   40  C5  UNL     1      -1.617  -5.275   0.289  1.00  0.00     0.143 C 
ATOM     41  H4  UNL     1       0.309  -6.197   0.807  1.00  0.00     0.163 HD
HETATM   42  C6  UNL     1      -2.951  -5.533   0.960  1.00  0.00     0.143 C 
HETATM   43  N5  UNL     1      -2.767  -6.916   1.418  1.00  0.00    -0.354 N 
ATOM     44  H5  UNL     1      -3.507  -7.585   1.631  1.00  0.00     0.163 HD
ENDBRANCH  37  38
ENDBRANCH  36  37
ENDBRANCH  26  36
ENDBRANCH   1  26
TORSDOF 11
ENDMDL
