MODEL 1
REMARK VINA RESULT: -6.517293521      0.000      0.000
REMARK  10 active torsions:
REMARK  status: ('A' for Active; 'I' for Inactive)
REMARK    1  A    between atoms: O1_2  and  C2_3 
REMARK    2  A    between atoms: C3_4  and  O2_5 
REMARK    3  A    between atoms: C10_23  and  C11_24 
REMARK    4  A    between atoms: C11_24  and  O5_25 
REMARK    5  A    between atoms: C11_24  and  C12_27 
REMARK    6  A    between atoms: C12_27  and  C13_29 
REMARK    7  A    between atoms: C13_29  and  N4_30 
REMARK    8  A    between atoms: C13_29  and  C14_34 
REMARK    9  A    between atoms: C14_34  and  C15_36 
REMARK   10  A    between atoms: N8_42  and  N9_43 
ROOT
HETATM    1  C2  UNL     1       5.495  -7.358   2.554  1.00  0.00     0.113 A 
HETATM    2  C3  UNL     1       4.220  -7.440   2.033  1.00  0.00     0.118 A 
HETATM    3  C4  UNL     1       4.004  -7.969   0.792  1.00  0.00     0.063 A 
HETATM    4 BR1  UNL     1       2.288  -8.120  -0.002  1.00  0.00    -0.047 Br
HETATM    5  C5  UNL     1       5.076  -8.417   0.076  1.00  0.00     0.067 A 
HETATM    6  C6  UNL     1       4.733  -8.912  -1.179  1.00  0.00     0.262 C 
HETATM    7  O3  UNL     1       3.549  -9.312  -1.254  1.00  0.00    -0.267 OA
HETATM    8  N1  UNL     1       5.543  -8.978  -2.243  1.00  0.00    -0.275 N 
ATOM      9  H1  UNL     1       5.099  -9.233  -3.126  1.00  0.00     0.173 HD
HETATM   10  C7  UNL     1       6.890  -8.749  -2.297  1.00  0.00     0.328 C 
HETATM   11  O4  UNL     1       7.362  -8.508  -3.446  1.00  0.00    -0.247 OA
HETATM   12  N2  UNL     1       7.801  -8.739  -1.308  1.00  0.00    -0.294 N 
ATOM     13  H2  UNL     1       8.783  -8.696  -1.578  1.00  0.00     0.172 HD
HETATM   14  C8  UNL     1       7.522  -8.782   0.011  1.00  0.00     0.115 C 
HETATM   15  N3  UNL     1       8.350  -9.307   0.827  1.00  0.00    -0.385 N 
ATOM     16  H31 UNL     1       8.139  -9.339   1.824  1.00  0.00     0.157 HD
ATOM     17  H32 UNL     1       9.203  -9.641   0.380  1.00  0.00     0.157 HD
HETATM   18  C9  UNL     1       6.364  -8.329   0.617  1.00  0.00     0.037 A 
HETATM   19  C10 UNL     1       6.638  -7.798   1.868  1.00  0.00     0.029 A 
ENDROOT
BRANCH  19  20
HETATM   20  C11 UNL     1       7.989  -7.663   2.328  1.00  0.00     0.227 C 
BRANCH  20  21
HETATM   21  O5  UNL     1       8.377  -7.848   3.607  1.00  0.00    -0.383 OA
ATOM     22  H5  UNL     1       9.094  -7.381   4.021  1.00  0.00     0.211 HD
ENDBRANCH  20  21
BRANCH  20  23
HETATM   23  C12 UNL     1       8.290  -6.182   2.203  1.00  0.00     0.198 C 
HETATM   24  O6  UNL     1       8.131  -5.610   1.102  1.00  0.00    -0.292 OA
BRANCH  23  25
HETATM   25  C13 UNL     1       8.781  -5.267   3.241  1.00  0.00     0.332 C 
BRANCH  25  26
HETATM   26  N4  UNL     1       7.973  -5.214   4.410  1.00  0.00    -0.061 N 
ATOM     27  H43 UNL     1       7.742  -6.156   4.725  1.00  0.00     0.275 HD
ATOM     28  H42 UNL     1       8.523  -4.892   5.206  1.00  0.00     0.275 HD
ATOM     29  H41 UNL     1       7.126  -4.654   4.314  1.00  0.00     0.275 HD
ENDBRANCH  25  26
BRANCH  25  30
HETATM   30  C14 UNL     1       9.233  -3.974   2.738  1.00  0.00     0.235 C 
HETATM   31  O7  UNL     1       8.515  -2.922   2.799  1.00  0.00    -0.286 OA
BRANCH  30  32
HETATM   32  C15 UNL     1      10.536  -3.844   2.139  1.00  0.00     0.207 A 
HETATM   33  N5  UNL     1      11.761  -3.890   2.683  1.00  0.00    -0.267 N 
HETATM   34  N6  UNL     1      12.704  -3.734   1.786  1.00  0.00    -0.223 N 
ATOM     35  H5  UNL     1      11.937  -4.029   3.677  1.00  0.00     0.190 HD
HETATM   36  N7  UNL     1      12.100  -3.583   0.621  1.00  0.00     0.018 NA
ATOM     37  H6  UNL     1      13.710  -3.731   1.955  1.00  0.00     0.205 HD
HETATM   38  N8  UNL     1      10.794  -3.646   0.818  1.00  0.00    -0.164 N 
BRANCH  38  39
HETATM   39  N9  UNL     1       9.810  -3.529  -0.180  1.00  0.00    -0.324 N 
ATOM     40  H92 UNL     1       8.905  -3.071  -0.069  1.00  0.00     0.178 HD
ATOM     41  H91 UNL     1       9.900  -3.892  -1.128  1.00  0.00     0.178 HD
ENDBRANCH  38  39
ENDBRANCH  30  32
ENDBRANCH  25  30
ENDBRANCH  23  25
ENDBRANCH  20  23
ENDBRANCH  19  20
BRANCH   1  42
HETATM   42  O1  UNL     1       5.722  -6.827   3.809  1.00  0.00    -0.352 OA
HETATM   43  C1  UNL     1       5.346  -7.628   4.916  1.00  0.00     0.210 C 
ENDBRANCH   1  42
BRANCH   2  44
HETATM   44  O2  UNL     1       3.170  -6.980   2.787  1.00  0.00    -0.357 OA
ATOM     45  H2  UNL     1       3.308  -6.228   3.351  1.00  0.00     0.218 HD
ENDBRANCH   2  44
TORSDOF 10
ENDMDL
MODEL 2
REMARK VINA RESULT: -6.028686179      2.931      6.778
REMARK  10 active torsions:
REMARK  status: ('A' for Active; 'I' for Inactive)
REMARK    1  A    between atoms: O1_2  and  C2_3 
REMARK    2  A    between atoms: C3_4  and  O2_5 
REMARK    3  A    between atoms: C10_23  and  C11_24 
REMARK    4  A    between atoms: C11_24  and  O5_25 
REMARK    5  A    between atoms: C11_24  and  C12_27 
REMARK    6  A    between atoms: C12_27  and  C13_29 
REMARK    7  A    between atoms: C13_29  and  N4_30 
REMARK    8  A    between atoms: C13_29  and  C14_34 
REMARK    9  A    between atoms: C14_34  and  C15_36 
REMARK   10  A    between atoms: N8_42  and  N9_43 
ROOT
HETATM    1  C2  UNL     1       6.926  -4.539   3.755  1.00  0.00     0.113 A 
HETATM    2  C3  UNL     1       7.160  -3.826   4.913  1.00  0.00     0.118 A 
HETATM    3  C4  UNL     1       8.410  -3.357   5.204  1.00  0.00     0.063 A 
HETATM    4 BR1  UNL     1       8.823  -2.370   6.772  1.00  0.00    -0.047 Br
HETATM    5  C5  UNL     1       9.424  -3.605   4.326  1.00  0.00     0.067 A 
HETATM    6  C6  UNL     1      10.651  -3.097   4.742  1.00  0.00     0.262 C 
HETATM    7  O3  UNL     1      10.552  -2.132   5.535  1.00  0.00    -0.267 OA
HETATM    8  N1  UNL     1      11.854  -3.552   4.371  1.00  0.00    -0.275 N 
ATOM      9  H1  UNL     1      12.652  -3.165   4.875  1.00  0.00     0.173 HD
HETATM   10  C7  UNL     1      12.149  -4.470   3.400  1.00  0.00     0.328 C 
HETATM   11  O4  UNL     1      13.291  -5.008   3.482  1.00  0.00    -0.247 OA
HETATM   12  N2  UNL     1      11.407  -4.892   2.362  1.00  0.00    -0.294 N 
ATOM     13  H2  UNL     1      11.868  -5.474   1.663  1.00  0.00     0.172 HD
HETATM   14  C8  UNL     1      10.102  -4.611   2.170  1.00  0.00     0.115 C 
HETATM   15  N3  UNL     1       9.624  -4.552   0.989  1.00  0.00    -0.385 N 
ATOM     16  H31 UNL     1       8.637  -4.339   0.843  1.00  0.00     0.157 HD
ATOM     17  H32 UNL     1      10.309  -4.760   0.263  1.00  0.00     0.157 HD
HETATM   18  C9  UNL     1       9.172  -4.328   3.155  1.00  0.00     0.037 A 
HETATM   19  C10 UNL     1       7.926  -4.830   2.813  1.00  0.00     0.029 A 
ENDROOT
BRANCH  19  20
HETATM   20  C11 UNL     1       7.754  -5.632   1.638  1.00  0.00     0.227 C 
BRANCH  20  21
HETATM   21  O5  UNL     1       6.694  -5.546   0.807  1.00  0.00    -0.383 OA
ATOM     22  H5  UNL     1       6.722  -5.152  -0.057  1.00  0.00     0.211 HD
ENDBRANCH  20  21
BRANCH  20  23
HETATM   23  C12 UNL     1       7.527  -7.038   2.163  1.00  0.00     0.198 C 
HETATM   24  O6  UNL     1       8.423  -7.602   2.827  1.00  0.00    -0.292 OA
BRANCH  23  25
HETATM   25  C13 UNL     1       6.344  -7.889   1.987  1.00  0.00     0.332 C 
BRANCH  25  26
HETATM   26  N4  UNL     1       5.516  -7.993   3.137  1.00  0.00    -0.061 N 
ATOM     27  H43 UNL     1       5.978  -8.546   3.859  1.00  0.00     0.275 HD
ATOM     28  H42 UNL     1       5.458  -7.094   3.615  1.00  0.00     0.275 HD
ATOM     29  H41 UNL     1       4.581  -8.359   2.954  1.00  0.00     0.275 HD
ENDBRANCH  25  26
BRANCH  25  30
HETATM   30  C14 UNL     1       6.606  -9.145   1.293  1.00  0.00     0.235 C 
HETATM   31  O7  UNL     1       6.342 -10.283   1.805  1.00  0.00    -0.286 OA
BRANCH  30  32
HETATM   32  C15 UNL     1       7.190  -9.140  -0.023  1.00  0.00     0.207 A 
HETATM   33  N5  UNL     1       6.655  -8.855  -1.220  1.00  0.00    -0.267 N 
HETATM   34  N6  UNL     1       7.531  -8.958  -2.189  1.00  0.00    -0.223 N 
ATOM     35  H5  UNL     1       5.680  -8.588  -1.359  1.00  0.00     0.190 HD
HETATM   36  N7  UNL     1       8.673  -9.319  -1.631  1.00  0.00     0.018 NA
ATOM     37  H6  UNL     1       7.364  -8.793  -3.181  1.00  0.00     0.205 HD
HETATM   38  N8  UNL     1       8.483  -9.432  -0.327  1.00  0.00    -0.164 N 
BRANCH  38  39
HETATM   39  N9  UNL     1       9.462  -9.799   0.613  1.00  0.00    -0.324 N 
ATOM     40  H92 UNL     1       9.302 -10.369   1.444  1.00  0.00     0.178 HD
ATOM     41  H91 UNL     1      10.444  -9.531   0.561  1.00  0.00     0.178 HD
ENDBRANCH  38  39
ENDBRANCH  30  32
ENDBRANCH  25  30
ENDBRANCH  23  25
ENDBRANCH  20  23
ENDBRANCH  19  20
BRANCH   1  42
HETATM   42  O1  UNL     1       5.665  -5.016   3.451  1.00  0.00    -0.352 OA
HETATM   43  C1  UNL     1       4.726  -4.069   2.973  1.00  0.00     0.210 C 
ENDBRANCH   1  42
BRANCH   2  44
HETATM   44  O2  UNL     1       6.112  -3.597   5.768  1.00  0.00    -0.357 OA
ATOM     45  H2  UNL     1       6.190  -2.899   6.408  1.00  0.00     0.218 HD
ENDBRANCH   2  44
TORSDOF 10
ENDMDL
MODEL 3
REMARK VINA RESULT: -6.024032014      2.115      2.859
REMARK  10 active torsions:
REMARK  status: ('A' for Active; 'I' for Inactive)
REMARK    1  A    between atoms: O1_2  and  C2_3 
REMARK    2  A    between atoms: C3_4  and  O2_5 
REMARK    3  A    between atoms: C10_23  and  C11_24 
REMARK    4  A    between atoms: C11_24  and  O5_25 
REMARK    5  A    between atoms: C11_24  and  C12_27 
REMARK    6  A    between atoms: C12_27  and  C13_29 
REMARK    7  A    between atoms: C13_29  and  N4_30 
REMARK    8  A    between atoms: C13_29  and  C14_34 
REMARK    9  A    between atoms: C14_34  and  C15_36 
REMARK   10  A    between atoms: N8_42  and  N9_43 
ROOT
HETATM    1  C2  UNL     1       5.662  -7.538   2.500  1.00  0.00     0.113 A 
HETATM    2  C3  UNL     1       4.397  -7.542   1.950  1.00  0.00     0.118 A 
HETATM    3  C4  UNL     1       4.186  -8.009   0.684  1.00  0.00     0.063 A 
HETATM    4 BR1  UNL     1       2.483  -8.050  -0.151  1.00  0.00    -0.047 Br
HETATM    5  C5  UNL     1       5.253  -8.476  -0.028  1.00  0.00     0.067 A 
HETATM    6  C6  UNL     1       4.917  -8.903  -1.309  1.00  0.00     0.262 C 
HETATM    7  O3  UNL     1       3.718  -9.247  -1.425  1.00  0.00    -0.267 OA
HETATM    8  N1  UNL     1       5.747  -8.963  -2.358  1.00  0.00    -0.275 N 
ATOM      9  H1  UNL     1       5.312  -9.162  -3.259  1.00  0.00     0.173 HD
HETATM   10  C7  UNL     1       7.104  -8.792  -2.375  1.00  0.00     0.328 C 
HETATM   11  O4  UNL     1       7.611  -8.527  -3.502  1.00  0.00    -0.247 OA
HETATM   12  N2  UNL     1       7.992  -8.863  -1.368  1.00  0.00    -0.294 N 
ATOM     13  H2  UNL     1       8.981  -8.854  -1.615  1.00  0.00     0.172 HD
HETATM   14  C8  UNL     1       7.682  -8.947  -0.058  1.00  0.00     0.115 C 
HETATM   15  N3  UNL     1       8.467  -9.541   0.753  1.00  0.00    -0.385 N 
ATOM     16  H31 UNL     1       8.232  -9.604   1.744  1.00  0.00     0.157 HD
ATOM     17  H32 UNL     1       9.315  -9.895   0.311  1.00  0.00     0.157 HD
HETATM   18  C9  UNL     1       6.531  -8.467   0.543  1.00  0.00     0.037 A 
HETATM   19  C10 UNL     1       6.800  -8.001   1.820  1.00  0.00     0.029 A 
ENDROOT
BRANCH  19  20
HETATM   20  C11 UNL     1       8.145  -7.945   2.313  1.00  0.00     0.227 C 
BRANCH  20  21
HETATM   21  O5  UNL     1       8.497  -8.206   3.589  1.00  0.00    -0.383 OA
ATOM     22  H5  UNL     1       9.364  -8.051   3.947  1.00  0.00     0.211 HD
ENDBRANCH  20  21
BRANCH  20  23
HETATM   23  C12 UNL     1       8.510  -6.473   2.265  1.00  0.00     0.198 C 
HETATM   24  O6  UNL     1       8.578  -5.889   1.162  1.00  0.00    -0.292 OA
BRANCH  23  25
HETATM   25  C13 UNL     1       8.826  -5.582   3.388  1.00  0.00     0.332 C 
BRANCH  25  26
HETATM   26  N4  UNL     1       8.702  -6.183   4.670  1.00  0.00    -0.061 N 
ATOM     27  H43 UNL     1       7.805  -5.941   5.091  1.00  0.00     0.275 HD
ATOM     28  H42 UNL     1       8.587  -7.192   4.580  1.00  0.00     0.275 HD
ATOM     29  H41 UNL     1       9.465  -5.969   5.314  1.00  0.00     0.275 HD
ENDBRANCH  25  26
BRANCH  25  30
HETATM   30  C14 UNL     1       8.259  -4.243   3.271  1.00  0.00     0.235 C 
HETATM   31  O7  UNL     1       8.979  -3.197   3.160  1.00  0.00    -0.286 OA
BRANCH  30  32
HETATM   32  C15 UNL     1       6.831  -4.057   3.279  1.00  0.00     0.207 A 
HETATM   33  N5  UNL     1       5.907  -4.309   2.339  1.00  0.00    -0.267 N 
HETATM   34  N6  UNL     1       4.698  -4.004   2.743  1.00  0.00    -0.223 N 
ATOM     35  H5  UNL     1       6.121  -4.694   1.419  1.00  0.00     0.190 HD
HETATM   36  N7  UNL     1       4.815  -3.540   3.975  1.00  0.00     0.018 NA
ATOM     37  H6  UNL     1       3.835  -4.105   2.210  1.00  0.00     0.205 HD
HETATM   38  N8  UNL     1       6.093  -3.565   4.310  1.00  0.00    -0.164 N 
BRANCH  38  39
HETATM   39  N9  UNL     1       6.623  -3.150   5.545  1.00  0.00    -0.324 N 
ATOM     40  H92 UNL     1       7.608  -2.963   5.735  1.00  0.00     0.178 HD
ATOM     41  H91 UNL     1       6.071  -2.990   6.388  1.00  0.00     0.178 HD
ENDBRANCH  38  39
ENDBRANCH  30  32
ENDBRANCH  25  30
ENDBRANCH  23  25
ENDBRANCH  20  23
ENDBRANCH  19  20
BRANCH   1  42
HETATM   42  O1  UNL     1       5.885  -7.068   3.781  1.00  0.00    -0.352 OA
HETATM   43  C1  UNL     1       5.448  -7.895   4.845  1.00  0.00     0.210 C 
ENDBRANCH   1  42
BRANCH   2  44
HETATM   44  O2  UNL     1       3.351  -7.065   2.701  1.00  0.00    -0.357 OA
ATOM     45  H2  UNL     1       2.498  -6.985   2.293  1.00  0.00     0.218 HD
ENDBRANCH   2  44
TORSDOF 10
ENDMDL
MODEL 4
REMARK VINA RESULT: -6.011767701      2.860      6.986
REMARK  10 active torsions:
REMARK  status: ('A' for Active; 'I' for Inactive)
REMARK    1  A    between atoms: O1_2  and  C2_3 
REMARK    2  A    between atoms: C3_4  and  O2_5 
REMARK    3  A    between atoms: C10_23  and  C11_24 
REMARK    4  A    between atoms: C11_24  and  O5_25 
REMARK    5  A    between atoms: C11_24  and  C12_27 
REMARK    6  A    between atoms: C12_27  and  C13_29 
REMARK    7  A    between atoms: C13_29  and  N4_30 
REMARK    8  A    between atoms: C13_29  and  C14_34 
REMARK    9  A    between atoms: C14_34  and  C15_36 
REMARK   10  A    between atoms: N8_42  and  N9_43 
ROOT
HETATM    1  C2  UNL     1       7.110  -4.868   3.534  1.00  0.00     0.113 A 
HETATM    2  C3  UNL     1       7.228  -4.215   4.743  1.00  0.00     0.118 A 
HETATM    3  C4  UNL     1       8.406  -3.624   5.106  1.00  0.00     0.063 A 
HETATM    4 BR1  UNL     1       8.658  -2.706   6.748  1.00  0.00    -0.047 Br
HETATM    5  C5  UNL     1       9.464  -3.691   4.248  1.00  0.00     0.067 A 
HETATM    6  C6  UNL     1      10.611  -3.073   4.738  1.00  0.00     0.262 C 
HETATM    7  O3  UNL     1      10.378  -2.183   5.588  1.00  0.00    -0.267 OA
HETATM    8  N1  UNL     1      11.869  -3.357   4.378  1.00  0.00    -0.275 N 
ATOM      9  H1  UNL     1      12.602  -2.915   4.933  1.00  0.00     0.173 HD
HETATM   10  C7  UNL     1      12.296  -4.165   3.360  1.00  0.00     0.328 C 
HETATM   11  O4  UNL     1      13.491  -4.571   3.444  1.00  0.00    -0.247 OA
HETATM   12  N2  UNL     1      11.636  -4.599   2.272  1.00  0.00    -0.294 N 
ATOM     13  H2  UNL     1      12.181  -5.072   1.552  1.00  0.00     0.172 HD
HETATM   14  C8  UNL     1      10.312  -4.459   2.054  1.00  0.00     0.115 C 
HETATM   15  N3  UNL     1       9.860  -4.375   0.864  1.00  0.00    -0.385 N 
ATOM     16  H31 UNL     1       8.859  -4.269   0.700  1.00  0.00     0.157 HD
ATOM     17  H32 UNL     1      10.584  -4.451   0.150  1.00  0.00     0.157 HD
HETATM   18  C9  UNL     1       9.330  -4.356   3.024  1.00  0.00     0.037 A 
HETATM   19  C10 UNL     1       8.162  -4.975   2.609  1.00  0.00     0.029 A 
ENDROOT
BRANCH  19  20
HETATM   20  C11 UNL     1       8.116  -5.709   1.378  1.00  0.00     0.227 C 
BRANCH  20  21
HETATM   21  O5  UNL     1       7.065  -5.709   0.532  1.00  0.00    -0.383 OA
ATOM     22  H5  UNL     1       6.506  -4.957   0.373  1.00  0.00     0.211 HD
ENDBRANCH  20  21
BRANCH  20  23
HETATM   23  C12 UNL     1       8.077  -7.165   1.801  1.00  0.00     0.198 C 
HETATM   24  O6  UNL     1       9.123  -7.720   2.203  1.00  0.00    -0.292 OA
BRANCH  23  25
HETATM   25  C13 UNL     1       6.927  -8.078   1.800  1.00  0.00     0.332 C 
BRANCH  25  26
HETATM   26  N4  UNL     1       6.598  -8.613   3.074  1.00  0.00    -0.061 N 
ATOM     27  H43 UNL     1       6.898  -7.980   3.815  1.00  0.00     0.275 HD
ATOM     28  H42 UNL     1       5.588  -8.587   3.220  1.00  0.00     0.275 HD
ATOM     29  H41 UNL     1       6.956  -9.553   3.244  1.00  0.00     0.275 HD
ENDBRANCH  25  26
BRANCH  25  30
HETATM   30  C14 UNL     1       6.924  -9.037   0.701  1.00  0.00     0.235 C 
HETATM   31  O7  UNL     1       7.713 -10.038   0.659  1.00  0.00    -0.286 OA
BRANCH  30  32
HETATM   32  C15 UNL     1       6.009  -8.879  -0.399  1.00  0.00     0.207 A 
HETATM   33  N5  UNL     1       4.672  -8.767  -0.420  1.00  0.00    -0.267 N 
HETATM   34  N6  UNL     1       4.208  -8.628  -1.638  1.00  0.00    -0.223 N 
ATOM     35  H5  UNL     1       4.086  -8.788   0.414  1.00  0.00     0.190 HD
HETATM   36  N7  UNL     1       5.253  -8.645  -2.447  1.00  0.00     0.018 NA
ATOM     37  H6  UNL     1       3.230  -8.525  -1.909  1.00  0.00     0.205 HD
HETATM   38  N8  UNL     1       6.344  -8.796  -1.715  1.00  0.00    -0.164 N 
BRANCH  38  39
HETATM   39  N9  UNL     1       7.658  -8.863  -2.210  1.00  0.00    -0.324 N 
ATOM     40  H92 UNL     1       8.022  -8.327  -2.999  1.00  0.00     0.178 HD
ATOM     41  H91 UNL     1       8.391  -9.459  -1.829  1.00  0.00     0.178 HD
ENDBRANCH  38  39
ENDBRANCH  30  32
ENDBRANCH  25  30
ENDBRANCH  23  25
ENDBRANCH  20  23
ENDBRANCH  19  20
BRANCH   1  42
HETATM   42  O1  UNL     1       5.923  -5.467   3.157  1.00  0.00    -0.352 OA
HETATM   43  C1  UNL     1       4.898  -4.608   2.691  1.00  0.00     0.210 C 
ENDBRANCH   1  42
BRANCH   2  44
HETATM   44  O2  UNL     1       6.139  -4.169   5.576  1.00  0.00    -0.357 OA
ATOM     45  H2  UNL     1       5.563  -4.924   5.614  1.00  0.00     0.218 HD
ENDBRANCH   2  44
TORSDOF 10
ENDMDL
MODEL 5
REMARK VINA RESULT: -6.001661781      7.240     10.349
REMARK  10 active torsions:
REMARK  status: ('A' for Active; 'I' for Inactive)
REMARK    1  A    between atoms: O1_2  and  C2_3 
REMARK    2  A    between atoms: C3_4  and  O2_5 
REMARK    3  A    between atoms: C10_23  and  C11_24 
REMARK    4  A    between atoms: C11_24  and  O5_25 
REMARK    5  A    between atoms: C11_24  and  C12_27 
REMARK    6  A    between atoms: C12_27  and  C13_29 
REMARK    7  A    between atoms: C13_29  and  N4_30 
REMARK    8  A    between atoms: C13_29  and  C14_34 
REMARK    9  A    between atoms: C14_34  and  C15_36 
REMARK   10  A    between atoms: N8_42  and  N9_43 
ROOT
HETATM    1  C2  UNL     1       0.120  -8.452   2.110  1.00  0.00     0.113 A 
HETATM    2  C3  UNL     1      -0.126  -7.328   1.349  1.00  0.00     0.118 A 
HETATM    3  C4  UNL     1      -1.377  -6.781   1.293  1.00  0.00     0.063 A 
HETATM    4 BR1  UNL     1      -1.805  -5.240   0.271  1.00  0.00    -0.047 Br
HETATM    5  C5  UNL     1      -2.381  -7.368   2.008  1.00  0.00     0.067 A 
HETATM    6  C6  UNL     1      -3.611  -6.735   1.853  1.00  0.00     0.262 C 
HETATM    7  O3  UNL     1      -3.517  -5.530   1.523  1.00  0.00    -0.267 OA
HETATM    8  N1  UNL     1      -4.811  -7.302   2.024  1.00  0.00    -0.275 N 
ATOM      9  H1  UNL     1      -5.613  -6.743   1.733  1.00  0.00     0.173 HD
HETATM   10  C7  UNL     1      -5.098  -8.537   2.538  1.00  0.00     0.328 C 
HETATM   11  O4  UNL     1      -6.243  -8.996   2.260  1.00  0.00    -0.247 OA
HETATM   12  N2  UNL     1      -4.344  -9.346   3.302  1.00  0.00    -0.294 N 
ATOM     13  H2  UNL     1      -4.799 -10.163   3.709  1.00  0.00     0.172 HD
HETATM   14  C8  UNL     1      -3.035  -9.167   3.574  1.00  0.00     0.115 C 
HETATM   15  N3  UNL     1      -2.541  -9.596   4.669  1.00  0.00    -0.385 N 
ATOM     16  H31 UNL     1      -1.550  -9.460   4.874  1.00  0.00     0.157 HD
ATOM     17  H32 UNL     1      -3.217 -10.083   5.256  1.00  0.00     0.157 HD
HETATM   18  C9  UNL     1      -2.117  -8.506   2.777  1.00  0.00     0.037 A 
HETATM   19  C10 UNL     1      -0.869  -9.103   2.866  1.00  0.00     0.029 A 
ENDROOT
BRANCH  19  20
HETATM   20  C11 UNL     1      -0.685 -10.316   3.608  1.00  0.00     0.227 C 
BRANCH  20  21
HETATM   21  O5  UNL     1       0.505 -10.749   4.072  1.00  0.00    -0.383 OA
ATOM     22  H5  UNL     1       0.779 -11.659   4.074  1.00  0.00     0.211 HD
ENDBRANCH  20  21
BRANCH  20  23
HETATM   23  C12 UNL     1      -0.965 -11.423   2.609  1.00  0.00     0.198 C 
HETATM   24  O6  UNL     1      -1.968 -12.153   2.760  1.00  0.00    -0.292 OA
BRANCH  23  25
HETATM   25  C13 UNL     1      -0.179 -11.794   1.426  1.00  0.00     0.332 C 
BRANCH  25  26
HETATM   26  N4  UNL     1       1.223 -11.865   1.648  1.00  0.00    -0.061 N 
ATOM     27  H43 UNL     1       1.715 -12.028   0.769  1.00  0.00     0.275 HD
ATOM     28  H42 UNL     1       1.592 -10.945   1.887  1.00  0.00     0.275 HD
ATOM     29  H41 UNL     1       1.507 -12.554   2.345  1.00  0.00     0.275 HD
ENDBRANCH  25  26
BRANCH  25  30
HETATM   30  C14 UNL     1      -0.580 -11.113   0.200  1.00  0.00     0.235 C 
HETATM   31  O7  UNL     1      -1.789 -10.788  -0.043  1.00  0.00    -0.286 OA
BRANCH  30  32
HETATM   32  C15 UNL     1       0.400 -10.781  -0.802  1.00  0.00     0.207 A 
HETATM   33  N5  UNL     1       1.278  -9.769  -0.870  1.00  0.00    -0.267 N 
HETATM   34  N6  UNL     1       2.012  -9.826  -1.954  1.00  0.00    -0.223 N 
ATOM     35  H5  UNL     1       1.363  -9.041  -0.161  1.00  0.00     0.190 HD
HETATM   36  N7  UNL     1       1.620 -10.896  -2.623  1.00  0.00     0.018 NA
ATOM     37  H6  UNL     1       2.745  -9.171  -2.228  1.00  0.00     0.205 HD
HETATM   38  N8  UNL     1       0.650 -11.481  -1.941  1.00  0.00    -0.164 N 
BRANCH  38  39
HETATM   39  N9  UNL     1      -0.029 -12.650  -2.326  1.00  0.00    -0.324 N 
ATOM     40  H92 UNL     1      -0.695 -12.723  -3.096  1.00  0.00     0.178 HD
ATOM     41  H91 UNL     1       0.073 -13.556  -1.871  1.00  0.00     0.178 HD
ENDBRANCH  38  39
ENDBRANCH  30  32
ENDBRANCH  25  30
ENDBRANCH  23  25
ENDBRANCH  20  23
ENDBRANCH  19  20
BRANCH   1  42
HETATM   42  O1  UNL     1       1.382  -9.011   2.175  1.00  0.00    -0.352 OA
HETATM   43  C1  UNL     1       2.353  -8.302   2.923  1.00  0.00     0.210 C 
ENDBRANCH   1  42
BRANCH   2  44
HETATM   44  O2  UNL     1       0.912  -6.769   0.646  1.00  0.00    -0.357 OA
ATOM     45  H2  UNL     1       0.791  -6.589  -0.278  1.00  0.00     0.218 HD
ENDBRANCH   2  44
TORSDOF 10
ENDMDL
