MODEL 1
REMARK VINA RESULT: -7.869416093      0.000      0.000
REMARK  9 active torsions:
REMARK  status: ('A' for Active; 'I' for Inactive)
REMARK    1  A    between atoms: C2_5  and  C3_6 
REMARK       I    between atoms: C3_6  and  N3_8 
REMARK    2  A    between atoms: N3_8  and  N4_10 
REMARK    3  A    between atoms: C4_12  and  C5_13 
REMARK    4  A    between atoms: C5_13  and  C7_21 
REMARK    5  A    between atoms: N5_14  and  N6_16 
REMARK    6  A    between atoms: N6_16  and  C6_17 
REMARK    7  A    between atoms: C6_17  and  O2_19 
REMARK    8  A    between atoms: C9_27  and  O5_28 
REMARK    9  A    between atoms: C13_36  and  C14_37 
ROOT
HETATM    1  C3  UNL     1       2.130  -8.729   0.493  1.00  0.00     0.290 C 
HETATM    2  O1  UNL     1       2.051  -7.804  -0.351  1.00  0.00    -0.264 OA
HETATM    3  N3  UNL     1       3.261  -8.932   1.281  1.00  0.00    -0.265 N 
ATOM      4  H3  UNL     1       3.197  -9.641   2.011  1.00  0.00     0.190 HD
ENDROOT
BRANCH   1   5
HETATM    5  C2  UNL     1       0.944  -9.639   0.609  1.00  0.00     0.147 A 
HETATM    6  N2  UNL     1       0.061  -9.662   1.589  1.00  0.00    -0.291 N 
HETATM    7  N1  UNL     1      -0.888 -10.595   1.290  1.00  0.00    -0.292 N 
ATOM      8  H2  UNL     1       0.084  -9.082   2.429  1.00  0.00     0.187 HD
HETATM    9  C1  UNL     1      -2.048 -10.871   2.101  1.00  0.00     0.178 C 
HETATM   10  C18 UNL     1      -0.586 -11.164   0.097  1.00  0.00     0.106 A 
HETATM   11  C10 UNL     1       0.569 -10.534  -0.301  1.00  0.00     0.097 A 
HETATM   12  C17 UNL     1      -1.154 -12.155  -0.718  1.00  0.00     0.106 A 
HETATM   13  N9  UNL     1       1.108 -10.897  -1.466  1.00  0.00    -0.348 N 
HETATM   14  C11 UNL     1       0.578 -11.834  -2.247  1.00  0.00     0.103 A 
ATOM     15  H9  UNL     1       1.964 -10.435  -1.772  1.00  0.00     0.166 HD
HETATM   16  C12 UNL     1       0.993 -12.359  -3.459  1.00  0.00     0.177 A 
HETATM   17  C16 UNL     1      -0.572 -12.491  -1.902  1.00  0.00     0.091 A 
HETATM   18  F1  UNL     1       2.102 -11.911  -4.149  1.00  0.00    -0.201 F 
HETATM   19  C13 UNL     1       0.100 -13.311  -3.832  1.00  0.00     0.141 A 
HETATM   20  N11 UNL     1      -0.872 -13.395  -2.873  1.00  0.00    -0.341 N 
HETATM   21  C15 UNL     1      -1.970 -14.302  -2.938  1.00  0.00     0.157 C 
HETATM   22  N12 UNL     1      -2.327 -12.794  -0.310  1.00  0.00    -0.097 NA
BRANCH  19  23
HETATM   23  C14 UNL     1       0.198 -14.183  -5.017  1.00  0.00     0.284 C 
HETATM   24  N10 UNL     1       0.740 -15.476  -4.910  1.00  0.00    -0.056 NA
HETATM   25  O6  UNL     1      -0.205 -13.785  -6.157  1.00  0.00    -0.269 OA
ENDBRANCH  19  23
ENDBRANCH   1   5
BRANCH   3  26
HETATM   26  N4  UNL     1       4.423  -8.280   1.164  1.00  0.00    -0.307 N 
HETATM   27  C4  UNL     1       5.433  -8.035   1.821  1.00  0.00     0.142 C 
ATOM     28  H4  UNL     1       4.493  -7.852   0.241  1.00  0.00     0.186 HD
BRANCH  27  29
HETATM   29  C5  UNL     1       6.527  -7.251   1.298  1.00  0.00     0.116 C 
HETATM   30  N5  UNL     1       7.140  -7.618   0.310  1.00  0.00    -0.228 N 
ATOM     31  H5  UNL     1       7.822  -6.869   0.190  1.00  0.00     0.202 HD
BRANCH  30  32
HETATM   32  N6  UNL     1       7.416  -8.378  -0.640  1.00  0.00    -0.283 NA
BRANCH  32  33
HETATM   33  C6  UNL     1       7.711  -9.168  -1.611  1.00  0.00     0.326 C 
HETATM   34  N7  UNL     1       7.680  -8.481  -2.978  1.00  0.00    -0.040 NA
BRANCH  33  35
HETATM   35  O2  UNL     1       8.077 -10.409  -1.938  1.00  0.00    -0.323 OA
ATOM     36  H2  UNL     1       7.807 -11.211  -2.368  1.00  0.00     0.221 HD
ENDBRANCH  33  35
ENDBRANCH  32  33
ENDBRANCH  30  32
BRANCH  29  37
HETATM   37  C7  UNL     1       6.996  -5.963   1.914  1.00  0.00     0.162 A 
HETATM   38  O3  UNL     1       6.313  -5.154   2.571  1.00  0.00    -0.254 OA
HETATM   39  C8  UNL     1       6.832  -4.124   3.059  1.00  0.00     0.372 A 
HETATM   40  O4  UNL     1       6.519  -3.122   3.753  1.00  0.00    -0.238 OA
HETATM   41  N8  UNL     1       8.189  -4.238   2.632  1.00  0.00    -0.280 N 
HETATM   42  C9  UNL     1       8.254  -5.403   1.918  1.00  0.00     0.181 A 
ATOM     43  H8  UNL     1       8.951  -3.586   2.820  1.00  0.00     0.173 HD
BRANCH  42  44
HETATM   44  O5  UNL     1       9.408  -5.842   1.334  1.00  0.00    -0.344 OA
ATOM     45  H5  UNL     1       9.856  -6.675   1.422  1.00  0.00     0.219 HD
ENDBRANCH  42  44
ENDBRANCH  29  37
ENDBRANCH  27  29
ENDBRANCH   3  26
TORSDOF 9
ENDMDL
MODEL 2
REMARK VINA RESULT: -7.765823690      1.045      1.088
REMARK  9 active torsions:
REMARK  status: ('A' for Active; 'I' for Inactive)
REMARK    1  A    between atoms: C2_5  and  C3_6 
REMARK       I    between atoms: C3_6  and  N3_8 
REMARK    2  A    between atoms: N3_8  and  N4_10 
REMARK    3  A    between atoms: C4_12  and  C5_13 
REMARK    4  A    between atoms: C5_13  and  C7_21 
REMARK    5  A    between atoms: N5_14  and  N6_16 
REMARK    6  A    between atoms: N6_16  and  C6_17 
REMARK    7  A    between atoms: C6_17  and  O2_19 
REMARK    8  A    between atoms: C9_27  and  O5_28 
REMARK    9  A    between atoms: C13_36  and  C14_37 
ROOT
HETATM    1  C3  UNL     1       2.097  -8.901   0.661  1.00  0.00     0.290 C 
HETATM    2  O1  UNL     1       2.004  -7.767   0.132  1.00  0.00    -0.264 OA
HETATM    3  N3  UNL     1       3.295  -9.395   1.173  1.00  0.00    -0.265 N 
ATOM      4  H3  UNL     1       3.255 -10.280   1.677  1.00  0.00     0.190 HD
ENDROOT
BRANCH   1   5
HETATM    5  C2  UNL     1       0.848  -9.729   0.705  1.00  0.00     0.147 A 
HETATM    6  N2  UNL     1      -0.091  -9.693   1.631  1.00  0.00    -0.291 N 
HETATM    7  N1  UNL     1      -1.081 -10.560   1.273  1.00  0.00    -0.292 N 
ATOM      8  H2  UNL     1      -0.079  -9.114   2.472  1.00  0.00     0.187 HD
HETATM    9  C1  UNL     1      -2.302 -10.757   2.013  1.00  0.00     0.178 C 
HETATM   10  C18 UNL     1      -0.747 -11.149   0.098  1.00  0.00     0.106 A 
HETATM   11  C10 UNL     1       0.469 -10.598  -0.229  1.00  0.00     0.097 A 
HETATM   12  C17 UNL     1      -1.330 -12.101  -0.752  1.00  0.00     0.106 A 
HETATM   13  N9  UNL     1       1.051 -10.996  -1.361  1.00  0.00    -0.348 N 
HETATM   14  C11 UNL     1       0.507 -11.897  -2.175  1.00  0.00     0.103 A 
ATOM     15  H9  UNL     1       1.952 -10.593  -1.615  1.00  0.00     0.166 HD
HETATM   16  C12 UNL     1       0.957 -12.450  -3.362  1.00  0.00     0.177 A 
HETATM   17  C16 UNL     1      -0.703 -12.476  -1.900  1.00  0.00     0.091 A 
HETATM   18  F1  UNL     1       2.132 -12.077  -3.984  1.00  0.00    -0.201 F 
HETATM   19  C13 UNL     1       0.025 -13.340  -3.790  1.00  0.00     0.141 A 
HETATM   20  N11 UNL     1      -1.005 -13.358  -2.890  1.00  0.00    -0.341 N 
HETATM   21  C15 UNL     1      -2.155 -14.190  -3.023  1.00  0.00     0.157 C 
HETATM   22  N12 UNL     1      -2.566 -12.659  -0.416  1.00  0.00    -0.097 NA
BRANCH  19  23
HETATM   23  C14 UNL     1       0.135 -14.218  -4.970  1.00  0.00     0.284 C 
HETATM   24  N10 UNL     1       0.659 -15.517  -4.848  1.00  0.00    -0.056 NA
HETATM   25  O6  UNL     1      -0.242 -13.819  -6.119  1.00  0.00    -0.269 OA
ENDBRANCH  19  23
ENDBRANCH   1   5
BRANCH   3  26
HETATM   26  N4  UNL     1       4.493  -8.810   1.061  1.00  0.00    -0.307 N 
HETATM   27  C4  UNL     1       5.457  -8.781   0.298  1.00  0.00     0.142 C 
ATOM     28  H4  UNL     1       4.660  -8.197   1.859  1.00  0.00     0.186 HD
BRANCH  27  29
HETATM   29  C5  UNL     1       6.623  -7.970   0.552  1.00  0.00     0.116 C 
HETATM   30  N5  UNL     1       7.729  -8.340   0.193  1.00  0.00    -0.228 N 
ATOM     31  H5  UNL     1       8.323  -7.568   0.499  1.00  0.00     0.202 HD
BRANCH  30  32
HETATM   32  N6  UNL     1       8.555  -9.114  -0.330  1.00  0.00    -0.283 NA
BRANCH  32  33
HETATM   33  C6  UNL     1       9.398  -9.923  -0.866  1.00  0.00     0.326 C 
HETATM   34  N7  UNL     1       8.772 -11.253  -1.291  1.00  0.00    -0.040 NA
BRANCH  33  35
HETATM   35  O2  UNL     1      10.667 -10.086  -1.247  1.00  0.00    -0.323 OA
ATOM     36  H2  UNL     1      11.567  -9.833  -1.081  1.00  0.00     0.221 HD
ENDBRANCH  33  35
ENDBRANCH  32  33
ENDBRANCH  30  32
BRANCH  29  37
HETATM   37  C7  UNL     1       6.579  -6.648   1.265  1.00  0.00     0.162 A 
HETATM   38  O3  UNL     1       5.566  -6.063   1.695  1.00  0.00    -0.254 OA
HETATM   39  C8  UNL     1       5.665  -4.973   2.303  1.00  0.00     0.372 A 
HETATM   40  O4  UNL     1       4.940  -4.115   2.873  1.00  0.00    -0.238 OA
HETATM   41  N8  UNL     1       7.073  -4.739   2.279  1.00  0.00    -0.280 N 
HETATM   42  C9  UNL     1       7.613  -5.811   1.621  1.00  0.00     0.181 A 
ATOM     43  H8  UNL     1       7.573  -3.941   2.670  1.00  0.00     0.173 HD
BRANCH  42  44
HETATM   44  O5  UNL     1       8.953  -5.932   1.391  1.00  0.00    -0.344 OA
ATOM     45  H5  UNL     1       9.680  -5.900   2.001  1.00  0.00     0.219 HD
ENDBRANCH  42  44
ENDBRANCH  29  37
ENDBRANCH  27  29
ENDBRANCH   3  26
TORSDOF 9
ENDMDL
MODEL 3
REMARK VINA RESULT: -7.664586917      0.605      1.136
REMARK  9 active torsions:
REMARK  status: ('A' for Active; 'I' for Inactive)
REMARK    1  A    between atoms: C2_5  and  C3_6 
REMARK       I    between atoms: C3_6  and  N3_8 
REMARK    2  A    between atoms: N3_8  and  N4_10 
REMARK    3  A    between atoms: C4_12  and  C5_13 
REMARK    4  A    between atoms: C5_13  and  C7_21 
REMARK    5  A    between atoms: N5_14  and  N6_16 
REMARK    6  A    between atoms: N6_16  and  C6_17 
REMARK    7  A    between atoms: C6_17  and  O2_19 
REMARK    8  A    between atoms: C9_27  and  O5_28 
REMARK    9  A    between atoms: C13_36  and  C14_37 
ROOT
HETATM    1  C3  UNL     1       2.448  -8.719   0.349  1.00  0.00     0.290 C 
HETATM    2  O1  UNL     1       2.477  -7.938  -0.632  1.00  0.00    -0.264 OA
HETATM    3  N3  UNL     1       3.500  -8.823   1.257  1.00  0.00    -0.265 N 
ATOM      4  H3  UNL     1       3.347  -9.405   2.080  1.00  0.00     0.190 HD
ENDROOT
BRANCH   1   5
HETATM    5  C2  UNL     1       1.221  -9.567   0.501  1.00  0.00     0.147 A 
HETATM    6  N2  UNL     1       0.354  -9.529   1.494  1.00  0.00    -0.291 N 
HETATM    7  N1  UNL     1      -0.644 -10.420   1.227  1.00  0.00    -0.292 N 
ATOM      8  H2  UNL     1       0.419  -8.936   2.322  1.00  0.00     0.187 HD
HETATM    9  C1  UNL     1      -1.803 -10.624   2.059  1.00  0.00     0.178 C 
HETATM   10  C18 UNL     1      -0.389 -11.025   0.040  1.00  0.00     0.106 A 
HETATM   11  C10 UNL     1       0.789 -10.459  -0.387  1.00  0.00     0.097 A 
HETATM   12  C17 UNL     1      -1.017 -12.001  -0.748  1.00  0.00     0.106 A 
HETATM   13  N9  UNL     1       1.291 -10.868  -1.553  1.00  0.00    -0.348 N 
HETATM   14  C11 UNL     1       0.704 -11.792  -2.309  1.00  0.00     0.103 A 
ATOM     15  H9  UNL     1       2.164 -10.454  -1.880  1.00  0.00     0.166 HD
HETATM   16  C12 UNL     1       1.074 -12.359  -3.517  1.00  0.00     0.177 A 
HETATM   17  C16 UNL     1      -0.471 -12.386  -1.934  1.00  0.00     0.091 A 
HETATM   18  F1  UNL     1       2.192 -11.978  -4.231  1.00  0.00    -0.201 F 
HETATM   19  C13 UNL     1       0.129 -13.272  -3.858  1.00  0.00     0.141 A 
HETATM   20  N11 UNL     1      -0.830 -13.291  -2.883  1.00  0.00    -0.341 N 
HETATM   21  C15 UNL     1      -1.971 -14.144  -2.915  1.00  0.00     0.157 C 
HETATM   22  N12 UNL     1      -2.213 -12.574  -0.311  1.00  0.00    -0.097 NA
BRANCH  19  23
HETATM   23  C14 UNL     1       0.167 -14.169  -5.028  1.00  0.00     0.284 C 
HETATM   24  N10 UNL     1       0.677 -15.474  -4.912  1.00  0.00    -0.056 NA
HETATM   25  O6  UNL     1      -0.262 -13.782  -6.163  1.00  0.00    -0.269 OA
ENDBRANCH  19  23
ENDBRANCH   1   5
BRANCH   3  26
HETATM   26  N4  UNL     1       4.693  -8.228   1.143  1.00  0.00    -0.307 N 
HETATM   27  C4  UNL     1       5.674  -7.950   1.831  1.00  0.00     0.142 C 
ATOM     28  H4  UNL     1       4.834  -7.904   0.187  1.00  0.00     0.186 HD
BRANCH  27  29
HETATM   29  C5  UNL     1       6.827  -7.265   1.297  1.00  0.00     0.116 C 
HETATM   30  N5  UNL     1       7.391  -7.681   0.298  1.00  0.00    -0.228 N 
ATOM     31  H5  UNL     1       8.137  -6.996   0.173  1.00  0.00     0.202 HD
BRANCH  30  32
HETATM   32  N6  UNL     1       7.584  -8.457  -0.658  1.00  0.00    -0.283 NA
BRANCH  32  33
HETATM   33  C6  UNL     1       7.784  -9.247  -1.654  1.00  0.00     0.326 C 
HETATM   34  N7  UNL     1       7.654  -8.551  -3.010  1.00  0.00    -0.040 NA
BRANCH  33  35
HETATM   35  O2  UNL     1       8.098 -10.492  -2.015  1.00  0.00    -0.323 OA
ATOM     36  H2  UNL     1       8.772 -11.047  -2.390  1.00  0.00     0.221 HD
ENDBRANCH  33  35
ENDBRANCH  32  33
ENDBRANCH  30  32
BRANCH  29  37
HETATM   37  C7  UNL     1       7.419  -6.029   1.912  1.00  0.00     0.162 A 
HETATM   38  O3  UNL     1       8.618  -5.828   2.182  1.00  0.00    -0.254 OA
HETATM   39  C8  UNL     1       8.992  -4.736   2.668  1.00  0.00     0.372 A 
HETATM   40  O4  UNL     1      10.043  -4.157   3.050  1.00  0.00    -0.238 OA
HETATM   41  N8  UNL     1       7.765  -4.014   2.769  1.00  0.00    -0.280 N 
HETATM   42  C9  UNL     1       6.801  -4.856   2.285  1.00  0.00     0.181 A 
ATOM     43  H8  UNL     1       7.633  -3.068   3.128  1.00  0.00     0.173 HD
BRANCH  42  44
HETATM   44  O5  UNL     1       5.481  -4.510   2.237  1.00  0.00    -0.344 OA
ATOM     45  H5  UNL     1       5.079  -3.670   2.047  1.00  0.00     0.219 HD
ENDBRANCH  42  44
ENDBRANCH  29  37
ENDBRANCH  27  29
ENDBRANCH   3  26
TORSDOF 9
ENDMDL
MODEL 4
REMARK VINA RESULT: -7.372281353      3.636     10.915
REMARK  9 active torsions:
REMARK  status: ('A' for Active; 'I' for Inactive)
REMARK    1  A    between atoms: C2_5  and  C3_6 
REMARK       I    between atoms: C3_6  and  N3_8 
REMARK    2  A    between atoms: N3_8  and  N4_10 
REMARK    3  A    between atoms: C4_12  and  C5_13 
REMARK    4  A    between atoms: C5_13  and  C7_21 
REMARK    5  A    between atoms: N5_14  and  N6_16 
REMARK    6  A    between atoms: N6_16  and  C6_17 
REMARK    7  A    between atoms: C6_17  and  O2_19 
REMARK    8  A    between atoms: C9_27  and  O5_28 
REMARK    9  A    between atoms: C13_36  and  C14_37 
ROOT
HETATM    1  C3  UNL     1       5.573  -7.530   0.559  1.00  0.00     0.290 C 
HETATM    2  O1  UNL     1       5.513  -7.419  -0.689  1.00  0.00    -0.264 OA
HETATM    3  N3  UNL     1       4.458  -7.830   1.340  1.00  0.00    -0.265 N 
ATOM      4  H3  UNL     1       4.619  -8.004   2.332  1.00  0.00     0.190 HD
ENDROOT
BRANCH   1   5
HETATM    5  C2  UNL     1       6.912  -7.304   1.194  1.00  0.00     0.147 A 
HETATM    6  N2  UNL     1       8.026  -7.963   0.941  1.00  0.00    -0.291 N 
HETATM    7  N1  UNL     1       9.028  -7.415   1.688  1.00  0.00    -0.292 N 
ATOM      8  H2  UNL     1       8.123  -8.748   0.297  1.00  0.00     0.187 HD
HETATM    9  C1  UNL     1      10.405  -7.836   1.642  1.00  0.00     0.178 C 
HETATM   10  C18 UNL     1       8.522  -6.394   2.423  1.00  0.00     0.106 A 
HETATM   11  C10 UNL     1       7.190  -6.352   2.081  1.00  0.00     0.097 A 
HETATM   12  C17 UNL     1       9.029  -5.476   3.355  1.00  0.00     0.106 A 
HETATM   13  N9  UNL     1       6.427  -5.424   2.659  1.00  0.00    -0.348 N 
HETATM   14  C11 UNL     1       6.897  -4.548   3.544  1.00  0.00     0.103 A 
ATOM     15  H9  UNL     1       5.438  -5.383   2.413  1.00  0.00     0.166 HD
HETATM   16  C12 UNL     1       6.271  -3.542   4.260  1.00  0.00     0.177 A 
HETATM   17  C16 UNL     1       8.214  -4.542   3.917  1.00  0.00     0.091 A 
HETATM   18  F1  UNL     1       4.938  -3.215   4.116  1.00  0.00    -0.201 F 
HETATM   19  C13 UNL     1       7.204  -2.943   5.043  1.00  0.00     0.141 A 
HETATM   20  N11 UNL     1       8.408  -3.556   4.834  1.00  0.00    -0.341 N 
HETATM   21  C15 UNL     1       9.611  -3.184   5.502  1.00  0.00     0.157 C 
HETATM   22  N12 UNL     1      10.382  -5.521   3.699  1.00  0.00    -0.097 NA
BRANCH  19  23
HETATM   23  C14 UNL     1       6.957  -1.875   6.031  1.00  0.00     0.284 C 
HETATM   24  N10 UNL     1       6.395  -2.178   7.284  1.00  0.00    -0.056 NA
HETATM   25  O6  UNL     1       7.247  -0.663   5.770  1.00  0.00    -0.269 OA
ENDBRANCH  19  23
ENDBRANCH   1   5
BRANCH   3  26
HETATM   26  N4  UNL     1       3.196  -7.910   0.903  1.00  0.00    -0.307 N 
HETATM   27  C4  UNL     1       2.069  -8.158   1.328  1.00  0.00     0.142 C 
ATOM     28  H4  UNL     1       3.156  -7.700  -0.094  1.00  0.00     0.186 HD
BRANCH  27  29
HETATM   29  C5  UNL     1       0.898  -8.132   0.483  1.00  0.00     0.116 C 
HETATM   30  N5  UNL     1       0.845  -8.815  -0.527  1.00  0.00    -0.228 N 
ATOM     31  H5  UNL     1      -0.083  -8.591  -0.888  1.00  0.00     0.202 HD
BRANCH  30  32
HETATM   32  N6  UNL     1       1.265  -9.628  -1.373  1.00  0.00    -0.283 NA
BRANCH  32  33
HETATM   33  C6  UNL     1       1.691 -10.460  -2.257  1.00  0.00     0.326 C 
HETATM   34  N7  UNL     1       1.515 -11.922  -1.842  1.00  0.00    -0.040 NA
BRANCH  33  35
HETATM   35  O2  UNL     1       2.237 -10.584  -3.467  1.00  0.00    -0.323 OA
ATOM     36  H2  UNL     1       2.548 -11.199  -4.121  1.00  0.00     0.221 HD
ENDBRANCH  33  35
ENDBRANCH  32  33
ENDBRANCH  30  32
BRANCH  29  37
HETATM   37  C7  UNL     1      -0.310  -7.282   0.759  1.00  0.00     0.162 A 
HETATM   38  O3  UNL     1      -0.756  -6.362   0.048  1.00  0.00    -0.254 OA
HETATM   39  C8  UNL     1      -1.795  -5.745   0.375  1.00  0.00     0.372 A 
HETATM   40  O4  UNL     1      -2.541  -4.819  -0.041  1.00  0.00    -0.238 OA
HETATM   41  N8  UNL     1      -2.146  -6.375   1.607  1.00  0.00    -0.280 N 
HETATM   42  C9  UNL     1      -1.192  -7.334   1.814  1.00  0.00     0.181 A 
ATOM     43  H8  UNL     1      -2.941  -6.156   2.208  1.00  0.00     0.173 HD
BRANCH  42  44
HETATM   44  O5  UNL     1      -1.191  -8.142   2.916  1.00  0.00    -0.344 OA
ATOM     45  H5  UNL     1      -1.253  -7.915   3.836  1.00  0.00     0.219 HD
ENDBRANCH  42  44
ENDBRANCH  29  37
ENDBRANCH  27  29
ENDBRANCH   3  26
TORSDOF 9
ENDMDL
MODEL 5
REMARK VINA RESULT: -7.339908992      1.180      3.502
REMARK  9 active torsions:
REMARK  status: ('A' for Active; 'I' for Inactive)
REMARK    1  A    between atoms: C2_5  and  C3_6 
REMARK       I    between atoms: C3_6  and  N3_8 
REMARK    2  A    between atoms: N3_8  and  N4_10 
REMARK    3  A    between atoms: C4_12  and  C5_13 
REMARK    4  A    between atoms: C5_13  and  C7_21 
REMARK    5  A    between atoms: N5_14  and  N6_16 
REMARK    6  A    between atoms: N6_16  and  C6_17 
REMARK    7  A    between atoms: C6_17  and  O2_19 
REMARK    8  A    between atoms: C9_27  and  O5_28 
REMARK    9  A    between atoms: C13_36  and  C14_37 
ROOT
HETATM    1  C3  UNL     1       2.109  -8.740   0.658  1.00  0.00     0.290 C 
HETATM    2  O1  UNL     1       2.356  -8.187  -0.441  1.00  0.00    -0.264 OA
HETATM    3  N3  UNL     1       2.939  -8.606   1.769  1.00  0.00    -0.265 N 
ATOM      4  H3  UNL     1       2.608  -9.004   2.648  1.00  0.00     0.190 HD
ENDROOT
BRANCH   1   5
HETATM    5  C2  UNL     1       0.873  -9.585   0.726  1.00  0.00     0.147 A 
HETATM    6  N2  UNL     1      -0.055  -9.552   1.663  1.00  0.00    -0.291 N 
HETATM    7  N1  UNL     1      -1.037 -10.437   1.327  1.00  0.00    -0.292 N 
ATOM      8  H2  UNL     1      -0.040  -8.965   2.497  1.00  0.00     0.187 HD
HETATM    9  C1  UNL     1      -2.246 -10.643   2.083  1.00  0.00     0.178 C 
HETATM   10  C18 UNL     1      -0.710 -11.034   0.154  1.00  0.00     0.106 A 
HETATM   11  C10 UNL     1       0.494 -10.469  -0.195  1.00  0.00     0.097 A 
HETATM   12  C17 UNL     1      -1.290 -12.002  -0.679  1.00  0.00     0.106 A 
HETATM   13  N9  UNL     1       1.068 -10.872  -1.330  1.00  0.00    -0.348 N 
HETATM   14  C11 UNL     1       0.526 -11.789  -2.127  1.00  0.00     0.103 A 
ATOM     15  H9  UNL     1       1.961 -10.459  -1.598  1.00  0.00     0.166 HD
HETATM   16  C12 UNL     1       0.970 -12.347  -3.314  1.00  0.00     0.177 A 
HETATM   17  C16 UNL     1      -0.672 -12.381  -1.831  1.00  0.00     0.091 A 
HETATM   18  F1  UNL     1       2.131 -11.966  -3.954  1.00  0.00    -0.201 F 
HETATM   19  C13 UNL     1       0.045 -13.255  -3.721  1.00  0.00     0.141 A 
HETATM   20  N11 UNL     1      -0.974 -13.278  -2.808  1.00  0.00    -0.341 N 
HETATM   21  C15 UNL     1      -2.113 -14.126  -2.918  1.00  0.00     0.157 C 
HETATM   22  N12 UNL     1      -2.513 -12.574  -0.322  1.00  0.00    -0.097 NA
BRANCH  19  23
HETATM   23  C14 UNL     1       0.153 -14.143  -4.893  1.00  0.00     0.284 C 
HETATM   24  N10 UNL     1       0.746 -15.413  -4.775  1.00  0.00    -0.056 NA
HETATM   25  O6  UNL     1      -0.288 -13.781  -6.031  1.00  0.00    -0.269 OA
ENDBRANCH  19  23
ENDBRANCH   1   5
BRANCH   3  26
HETATM   26  N4  UNL     1       4.133  -8.001   1.785  1.00  0.00    -0.307 N 
HETATM   27  C4  UNL     1       4.632  -6.915   2.072  1.00  0.00     0.142 C 
ATOM     28  H4  UNL     1       4.855  -8.642   1.457  1.00  0.00     0.186 HD
BRANCH  27  29
HETATM   29  C5  UNL     1       6.046  -6.652   1.943  1.00  0.00     0.116 C 
HETATM   30  N5  UNL     1       6.535  -5.635   2.406  1.00  0.00    -0.228 N 
ATOM     31  H5  UNL     1       7.521  -5.744   2.168  1.00  0.00     0.202 HD
BRANCH  30  32
HETATM   32  N6  UNL     1       6.528  -4.539   3.001  1.00  0.00    -0.283 NA
BRANCH  32  33
HETATM   33  C6  UNL     1       6.536  -3.410   3.617  1.00  0.00     0.326 C 
HETATM   34  N7  UNL     1       5.661  -3.402   4.872  1.00  0.00    -0.040 NA
BRANCH  33  35
HETATM   35  O2  UNL     1       7.038  -2.174   3.627  1.00  0.00    -0.323 OA
ATOM     36  H2  UNL     1       7.724  -1.610   3.289  1.00  0.00     0.221 HD
ENDBRANCH  33  35
ENDBRANCH  32  33
ENDBRANCH  30  32
BRANCH  29  37
HETATM   37  C7  UNL     1       7.003  -7.574   1.242  1.00  0.00     0.162 A 
HETATM   38  O3  UNL     1       6.715  -8.488   0.446  1.00  0.00    -0.254 OA
HETATM   39  C8  UNL     1       7.613  -9.171  -0.098  1.00  0.00     0.372 A 
HETATM   40  O4  UNL     1       7.743 -10.117  -0.918  1.00  0.00    -0.238 OA
HETATM   41  N8  UNL     1       8.801  -8.607   0.458  1.00  0.00    -0.280 N 
HETATM   42  C9  UNL     1       8.379  -7.608   1.292  1.00  0.00     0.181 A 
ATOM     43  H8  UNL     1       9.763  -8.890   0.272  1.00  0.00     0.173 HD
BRANCH  42  44
HETATM   44  O5  UNL     1       9.246  -6.845   2.020  1.00  0.00    -0.344 OA
ATOM     45  H5  UNL     1       9.354  -5.902   2.043  1.00  0.00     0.219 HD
ENDBRANCH  42  44
ENDBRANCH  29  37
ENDBRANCH  27  29
ENDBRANCH   3  26
TORSDOF 9
ENDMDL
