MODEL 1
REMARK VINA RESULT: -6.450382351      0.000      0.000
REMARK  13 active torsions:
REMARK  status: ('A' for Active; 'I' for Inactive)
REMARK    1  A    between atoms: C2_2  and  C3_7 
REMARK    2  A    between atoms: N1_3  and  O1_5 
REMARK       I    between atoms: C3_7  and  N2_9 
REMARK    3  A    between atoms: N2_9  and  C4_11 
REMARK    4  A    between atoms: C4_11  and  O3_12 
REMARK    5  A    between atoms: C5_14  and  O4_15 
REMARK    6  A    between atoms: C6_17  and  O5_18 
REMARK    7  A    between atoms: O5_18  and  C7_19 
REMARK    8  A    between atoms: C9_23  and  N3_24 
REMARK    9  A    between atoms: C9_23  and  C10_28 
REMARK   10  A    between atoms: C10_28  and  O9_30 
REMARK   11  A    between atoms: O9_30  and  C11_31 
REMARK   12  A    between atoms: C16_36  and  N4_37 
REMARK   13  A    between atoms: C17_41  and  N5_43 
ROOT
HETATM    1  C4  UNL     1       0.546  -9.107   1.662  1.00  0.00     0.182 C 
HETATM    2  C5  UNL     1       0.725  -9.696   0.282  1.00  0.00     0.206 C 
HETATM    3  C6  UNL     1      -0.237 -10.868   0.208  1.00  0.00     0.195 C 
HETATM    4  C17 UNL     1      -0.530 -11.212   1.642  1.00  0.00     0.169 C 
HETATM    5  C18 UNL     1      -2.008 -11.057   1.929  1.00  0.00     0.051 C 
HETATM    6  C19 UNL     1       0.316 -10.317   2.502  1.00  0.00     0.178 C 
HETATM    7 CL1  UNL     1       1.888 -11.135   2.800  1.00  0.00    -0.117 Cl
ENDROOT
BRANCH   3   8
HETATM    8  O5  UNL     1       0.306 -11.955  -0.424  1.00  0.00    -0.348 OA
BRANCH   8   9
HETATM    9  C7  UNL     1       0.125 -11.978  -1.808  1.00  0.00     0.300 C 
HETATM   10  O6  UNL     1       1.442 -12.264  -2.320  1.00  0.00    -0.285 OA
HETATM   11  C8  UNL     1       1.696 -13.537  -2.785  1.00  0.00     0.308 C 
HETATM   12  O7  UNL     1       2.602 -14.305  -2.340  1.00  0.00    -0.262 OA
HETATM   13  C9  UNL     1       0.828 -14.040  -3.901  1.00  0.00     0.297 C 
HETATM   14  C15 UNL     1      -0.512 -13.361  -3.748  1.00  0.00     0.098 C 
HETATM   15  C16 UNL     1      -0.755 -13.107  -2.279  1.00  0.00     0.242 C 
BRANCH  13  16
HETATM   16  N3  UNL     1       1.436 -13.710  -5.184  1.00  0.00    -0.051 N 
ATOM     17  H33 UNL     1       2.441 -13.555  -5.104  1.00  0.00     0.276 HD
ATOM     18  H32 UNL     1       1.460 -14.511  -5.815  1.00  0.00     0.276 HD
ATOM     19  H31 UNL     1       0.955 -12.911  -5.597  1.00  0.00     0.276 HD
ENDBRANCH  13  16
BRANCH  13  20
HETATM   20  C10 UNL     1       0.620 -15.499  -3.822  1.00  0.00     0.306 C 
HETATM   21  O8  UNL     1       1.027 -16.326  -4.673  1.00  0.00    -0.262 OA
BRANCH  20  22
HETATM   22  O9  UNL     1      -0.078 -16.020  -2.727  1.00  0.00    -0.309 OA
BRANCH  22  23
HETATM   23  C11 UNL     1      -1.276 -16.750  -2.879  1.00  0.00     0.060 C 
HETATM   24  C12 UNL     1      -2.163 -16.435  -1.677  1.00  0.00     0.045 C 
HETATM   25  C13 UNL     1      -2.034 -16.425  -4.131  1.00  0.00     0.045 C 
HETATM   26  C14 UNL     1      -0.922 -18.226  -2.775  1.00  0.00     0.045 C 
ENDBRANCH  22  23
ENDBRANCH  20  22
ENDBRANCH  13  20
BRANCH  15  27
HETATM   27  N4  UNL     1      -2.166 -12.797  -2.128  1.00  0.00    -0.070 N 
ATOM     28  H43 UNL     1      -2.300 -11.850  -1.774  1.00  0.00     0.274 HD
ATOM     29  H42 UNL     1      -2.621 -12.696  -3.035  1.00  0.00     0.274 HD
ATOM     30  H41 UNL     1      -2.647 -13.482  -1.547  1.00  0.00     0.274 HD
ENDBRANCH  15  27
ENDBRANCH   8   9
ENDBRANCH   3   8
BRANCH   2  31
HETATM   31  O4  UNL     1       2.027 -10.074   0.017  1.00  0.00    -0.388 OA
ATOM     32  H4  UNL     1       2.284  -9.923  -0.885  1.00  0.00     0.210 HD
ENDBRANCH   2  31
BRANCH   4  33
HETATM   33  N5  UNL     1      -0.119 -12.584   1.980  1.00  0.00    -0.067 N 
ATOM     34  H53 UNL     1       0.565 -12.940   1.312  1.00  0.00     0.275 HD
ATOM     35  H52 UNL     1       0.455 -12.600   2.823  1.00  0.00     0.275 HD
ATOM     36  H51 UNL     1      -0.915 -13.215   2.065  1.00  0.00     0.275 HD
ENDBRANCH   4  33
BRANCH   1  37
HETATM   37  N2  UNL     1      -0.599  -8.232   1.736  1.00  0.00    -0.321 N 
HETATM   38  C3  UNL     1      -0.749  -7.145   0.853  1.00  0.00     0.268 C 
HETATM   39  O2  UNL     1       0.148  -6.945  -0.018  1.00  0.00    -0.266 OA
ATOM     40  H2  UNL     1      -1.315  -8.405   2.443  1.00  0.00     0.166 HD
BRANCH  38  41
HETATM   41  C2  UNL     1      -1.872  -6.233   0.879  1.00  0.00     0.095 C 
HETATM   42  C1  UNL     1      -1.855  -4.917   0.165  1.00  0.00     0.076 C 
HETATM   43  N1  UNL     1      -2.951  -6.512   1.522  1.00  0.00    -0.268 N 
ATOM     44  H1  UNL     1      -2.991  -7.403   2.018  1.00  0.00     0.194 HD
BRANCH  43  45
HETATM   45  O1  UNL     1      -4.035  -5.708   1.586  1.00  0.00    -0.290 OA
ATOM     46  H1  UNL     1      -4.933  -6.014   1.584  1.00  0.00     0.244 HD
ENDBRANCH  43  45
ENDBRANCH  38  41
ENDBRANCH   1  37
BRANCH   1  47
HETATM   47  O3  UNL     1       1.692  -8.404   2.037  1.00  0.00    -0.367 OA
ATOM     48  H3  UNL     1       2.393  -9.018   2.221  1.00  0.00     0.212 HD
ENDBRANCH   1  47
TORSDOF 13
ENDMDL
MODEL 2
REMARK VINA RESULT: -6.135077444      0.785      1.076
REMARK  13 active torsions:
REMARK  status: ('A' for Active; 'I' for Inactive)
REMARK    1  A    between atoms: C2_2  and  C3_7 
REMARK    2  A    between atoms: N1_3  and  O1_5 
REMARK       I    between atoms: C3_7  and  N2_9 
REMARK    3  A    between atoms: N2_9  and  C4_11 
REMARK    4  A    between atoms: C4_11  and  O3_12 
REMARK    5  A    between atoms: C5_14  and  O4_15 
REMARK    6  A    between atoms: C6_17  and  O5_18 
REMARK    7  A    between atoms: O5_18  and  C7_19 
REMARK    8  A    between atoms: C9_23  and  N3_24 
REMARK    9  A    between atoms: C9_23  and  C10_28 
REMARK   10  A    between atoms: C10_28  and  O9_30 
REMARK   11  A    between atoms: O9_30  and  C11_31 
REMARK   12  A    between atoms: C16_36  and  N4_37 
REMARK   13  A    between atoms: C17_41  and  N5_43 
ROOT
HETATM    1  C4  UNL     1       0.249  -9.314   1.568  1.00  0.00     0.182 C 
HETATM    2  C5  UNL     1       0.427  -9.905   0.189  1.00  0.00     0.206 C 
HETATM    3  C6  UNL     1      -0.557 -11.057   0.106  1.00  0.00     0.195 C 
HETATM    4  C17 UNL     1      -0.868 -11.397   1.538  1.00  0.00     0.169 C 
HETATM    5  C18 UNL     1      -2.344 -11.213   1.814  1.00  0.00     0.051 C 
HETATM    6  C19 UNL     1      -0.011 -10.520   2.405  1.00  0.00     0.178 C 
HETATM    7 CL1  UNL     1       1.543 -11.369   2.714  1.00  0.00    -0.117 Cl
ENDROOT
BRANCH   3   8
HETATM    8  O5  UNL     1      -0.031 -12.155  -0.523  1.00  0.00    -0.348 OA
BRANCH   8   9
HETATM    9  C7  UNL     1      -0.200 -12.171  -1.909  1.00  0.00     0.300 C 
HETATM   10  O6  UNL     1       1.139 -12.347  -2.413  1.00  0.00    -0.285 OA
HETATM   11  C8  UNL     1       1.494 -13.590  -2.894  1.00  0.00     0.308 C 
HETATM   12  O7  UNL     1       2.454 -14.291  -2.453  1.00  0.00    -0.262 OA
HETATM   13  C9  UNL     1       0.676 -14.142  -4.024  1.00  0.00     0.297 C 
HETATM   14  C15 UNL     1      -0.715 -13.571  -3.873  1.00  0.00     0.098 C 
HETATM   15  C16 UNL     1      -0.986 -13.358  -2.402  1.00  0.00     0.242 C 
BRANCH  13  16
HETATM   16  N3  UNL     1       1.265 -13.747  -5.298  1.00  0.00    -0.051 N 
ATOM     17  H33 UNL     1       0.997 -12.801  -5.567  1.00  0.00     0.276 HD
ATOM     18  H32 UNL     1       2.272 -13.601  -5.226  1.00  0.00     0.276 HD
ATOM     19  H31 UNL     1       1.027 -14.433  -6.015  1.00  0.00     0.276 HD
ENDBRANCH  13  16
BRANCH  13  20
HETATM   20  C10 UNL     1       0.581 -15.614  -3.967  1.00  0.00     0.306 C 
HETATM   21  O8  UNL     1       1.194 -16.400  -4.730  1.00  0.00    -0.262 OA
BRANCH  20  22
HETATM   22  O9  UNL     1      -0.246 -16.197  -3.001  1.00  0.00    -0.309 OA
BRANCH  22  23
HETATM   23  C11 UNL     1       0.260 -17.042  -1.991  1.00  0.00     0.060 C 
HETATM   24  C12 UNL     1      -0.696 -18.226  -1.859  1.00  0.00     0.045 C 
HETATM   25  C13 UNL     1       1.636 -17.567  -2.266  1.00  0.00     0.045 C 
HETATM   26  C14 UNL     1       0.177 -16.277  -0.679  1.00  0.00     0.045 C 
ENDBRANCH  22  23
ENDBRANCH  20  22
ENDBRANCH  13  20
BRANCH  15  27
HETATM   27  N4  UNL     1      -2.418 -13.161  -2.259  1.00  0.00    -0.070 N 
ATOM     28  H43 UNL     1      -2.818 -13.825  -1.597  1.00  0.00     0.274 HD
ATOM     29  H42 UNL     1      -2.624 -12.295  -1.762  1.00  0.00     0.274 HD
ATOM     30  H41 UNL     1      -2.900 -13.196  -3.156  1.00  0.00     0.274 HD
ENDBRANCH  15  27
ENDBRANCH   8   9
ENDBRANCH   3   8
BRANCH   2  31
HETATM   31  O4  UNL     1       1.724 -10.309  -0.067  1.00  0.00    -0.388 OA
ATOM     32  H4  UNL     1       1.839 -10.667  -0.939  1.00  0.00     0.210 HD
ENDBRANCH   2  31
BRANCH   4  33
HETATM   33  N5  UNL     1      -0.486 -12.778   1.878  1.00  0.00    -0.067 N 
ATOM     34  H53 UNL     1      -1.261 -13.278   2.313  1.00  0.00     0.275 HD
ATOM     35  H52 UNL     1      -0.377 -13.347   1.039  1.00  0.00     0.275 HD
ATOM     36  H51 UNL     1       0.350 -12.814   2.460  1.00  0.00     0.275 HD
ENDBRANCH   4  33
BRANCH   1  37
HETATM   37  N2  UNL     1      -0.879  -8.417   1.635  1.00  0.00    -0.321 N 
HETATM   38  C3  UNL     1      -0.912  -7.225   0.884  1.00  0.00     0.268 C 
HETATM   39  O2  UNL     1       0.075  -6.951   0.140  1.00  0.00    -0.266 OA
ATOM     40  H2  UNL     1      -1.668  -8.650   2.238  1.00  0.00     0.166 HD
BRANCH  38  41
HETATM   41  C2  UNL     1      -2.012  -6.286   0.910  1.00  0.00     0.095 C 
HETATM   42  C1  UNL     1      -1.971  -4.980   0.179  1.00  0.00     0.076 C 
HETATM   43  N1  UNL     1      -3.090  -6.531   1.568  1.00  0.00    -0.268 N 
ATOM     44  H1  UNL     1      -3.147  -7.413   2.076  1.00  0.00     0.194 HD
BRANCH  43  45
HETATM   45  O1  UNL     1      -4.154  -5.699   1.632  1.00  0.00    -0.290 OA
ATOM     46  H1  UNL     1      -5.056  -5.968   1.509  1.00  0.00     0.244 HD
ENDBRANCH  43  45
ENDBRANCH  38  41
ENDBRANCH   1  37
BRANCH   1  47
HETATM   47  O3  UNL     1       1.406  -8.634   1.953  1.00  0.00    -0.367 OA
ATOM     48  H3  UNL     1       1.428  -8.559   2.900  1.00  0.00     0.212 HD
ENDBRANCH   1  47
TORSDOF 13
ENDMDL
MODEL 3
REMARK VINA RESULT: -5.998296178      2.651      7.920
REMARK  13 active torsions:
REMARK  status: ('A' for Active; 'I' for Inactive)
REMARK    1  A    between atoms: C2_2  and  C3_7 
REMARK    2  A    between atoms: N1_3  and  O1_5 
REMARK       I    between atoms: C3_7  and  N2_9 
REMARK    3  A    between atoms: N2_9  and  C4_11 
REMARK    4  A    between atoms: C4_11  and  O3_12 
REMARK    5  A    between atoms: C5_14  and  O4_15 
REMARK    6  A    between atoms: C6_17  and  O5_18 
REMARK    7  A    between atoms: O5_18  and  C7_19 
REMARK    8  A    between atoms: C9_23  and  N3_24 
REMARK    9  A    between atoms: C9_23  and  C10_28 
REMARK   10  A    between atoms: C10_28  and  O9_30 
REMARK   11  A    between atoms: O9_30  and  C11_31 
REMARK   12  A    between atoms: C16_36  and  N4_37 
REMARK   13  A    between atoms: C17_41  and  N5_43 
ROOT
HETATM    1  C4  UNL     1      -1.614 -13.086  -1.967  1.00  0.00     0.182 C 
HETATM    2  C5  UNL     1      -1.572 -12.058  -0.861  1.00  0.00     0.206 C 
HETATM    3  C6  UNL     1      -0.552 -12.571   0.139  1.00  0.00     0.195 C 
HETATM    4  C17 UNL     1      -0.441 -14.043  -0.151  1.00  0.00     0.169 C 
HETATM    5  C18 UNL     1       0.973 -14.394  -0.557  1.00  0.00     0.051 C 
HETATM    6  C19 UNL     1      -1.441 -14.367  -1.224  1.00  0.00     0.178 C 
HETATM    7 CL1  UNL     1      -2.996 -14.807  -0.439  1.00  0.00    -0.117 Cl
ENDROOT
BRANCH   3   8
HETATM    8  O5  UNL     1      -0.948 -12.387   1.437  1.00  0.00    -0.348 OA
BRANCH   8   9
HETATM    9  C7  UNL     1      -0.068 -11.633   2.215  1.00  0.00     0.300 C 
HETATM   10  O6  UNL     1       0.862 -11.095   1.254  1.00  0.00    -0.285 OA
HETATM   11  C8  UNL     1       0.741  -9.765   0.907  1.00  0.00     0.308 C 
HETATM   12  O7  UNL     1       0.550  -9.337  -0.271  1.00  0.00    -0.262 OA
HETATM   13  C9  UNL     1       0.846  -8.760   2.016  1.00  0.00     0.297 C 
HETATM   14  C15 UNL     1       0.341  -9.440   3.268  1.00  0.00     0.098 C 
HETATM   15  C16 UNL     1      -0.718 -10.442   2.872  1.00  0.00     0.242 C 
BRANCH  13  16
HETATM   16  N3  UNL     1       2.234  -8.344   2.175  1.00  0.00    -0.051 N 
ATOM     17  H33 UNL     1       2.834  -9.114   2.471  1.00  0.00     0.276 HD
ATOM     18  H32 UNL     1       2.680  -8.147   1.279  1.00  0.00     0.276 HD
ATOM     19  H31 UNL     1       2.285  -7.549   2.812  1.00  0.00     0.276 HD
ENDBRANCH  13  16
BRANCH  13  20
HETATM   20  C10 UNL     1       0.008  -7.572   1.764  1.00  0.00     0.306 C 
HETATM   21  O8  UNL     1       0.297  -6.650   0.964  1.00  0.00    -0.262 OA
BRANCH  20  22
HETATM   22  O9  UNL     1      -1.202  -7.443   2.456  1.00  0.00    -0.309 OA
BRANCH  22  23
HETATM   23  C11 UNL     1      -2.432  -7.261   1.789  1.00  0.00     0.060 C 
HETATM   24  C12 UNL     1      -3.540  -7.348   2.836  1.00  0.00     0.045 C 
HETATM   25  C13 UNL     1      -2.551  -5.949   1.075  1.00  0.00     0.045 C 
HETATM   26  C14 UNL     1      -2.624  -8.452   0.862  1.00  0.00     0.045 C 
ENDBRANCH  22  23
ENDBRANCH  20  22
ENDBRANCH  13  20
BRANCH  15  27
HETATM   27  N4  UNL     1      -1.429 -10.810   4.084  1.00  0.00    -0.070 N 
ATOM     28  H43 UNL     1      -1.405 -11.818   4.236  1.00  0.00     0.274 HD
ATOM     29  H42 UNL     1      -0.922 -10.510   4.916  1.00  0.00     0.274 HD
ATOM     30  H41 UNL     1      -2.386 -10.458   4.087  1.00  0.00     0.274 HD
ENDBRANCH  15  27
ENDBRANCH   8   9
ENDBRANCH   3   8
BRANCH   2  31
HETATM   31  O4  UNL     1      -2.805 -11.836  -0.278  1.00  0.00    -0.388 OA
ATOM     32  H4  UNL     1      -3.338 -12.620  -0.219  1.00  0.00     0.210 HD
ENDBRANCH   2  31
BRANCH   4  33
HETATM   33  N5  UNL     1      -0.826 -14.868   1.006  1.00  0.00    -0.067 N 
ATOM     34  H53 UNL     1      -0.403 -14.519   1.866  1.00  0.00     0.275 HD
ATOM     35  H52 UNL     1      -1.809 -14.735   1.243  1.00  0.00     0.275 HD
ATOM     36  H51 UNL     1      -0.611 -15.855   0.863  1.00  0.00     0.275 HD
ENDBRANCH   4  33
BRANCH   1  37
HETATM   37  N2  UNL     1      -0.535 -12.916  -2.910  1.00  0.00    -0.321 N 
HETATM   38  C3  UNL     1      -0.453 -13.698  -4.079  1.00  0.00     0.268 C 
HETATM   39  O2  UNL     1      -1.353 -14.564  -4.291  1.00  0.00    -0.266 OA
ATOM     40  H2  UNL     1       0.183 -12.214  -2.727  1.00  0.00     0.166 HD
BRANCH  38  41
HETATM   41  C2  UNL     1       0.603 -13.575  -5.060  1.00  0.00     0.095 C 
HETATM   42  C1  UNL     1       1.806 -12.711  -4.841  1.00  0.00     0.076 C 
HETATM   43  N1  UNL     1       0.559 -14.208  -6.179  1.00  0.00    -0.268 N 
ATOM     44  H1  UNL     1      -0.250 -14.804  -6.356  1.00  0.00     0.194 HD
BRANCH  43  45
HETATM   45  O1  UNL     1       1.510 -14.138  -7.137  1.00  0.00    -0.290 OA
ATOM     46  H1  UNL     1       1.560 -14.716  -7.889  1.00  0.00     0.244 HD
ENDBRANCH  43  45
ENDBRANCH  38  41
ENDBRANCH   1  37
BRANCH   1  47
HETATM   47  O3  UNL     1      -2.834 -13.018  -2.642  1.00  0.00    -0.367 OA
ATOM     48  H3  UNL     1      -3.261 -13.866  -2.608  1.00  0.00     0.212 HD
ENDBRANCH   1  47
TORSDOF 13
ENDMDL
MODEL 4
REMARK VINA RESULT: -5.945417683     10.506     14.268
REMARK  13 active torsions:
REMARK  status: ('A' for Active; 'I' for Inactive)
REMARK    1  A    between atoms: C2_2  and  C3_7 
REMARK    2  A    between atoms: N1_3  and  O1_5 
REMARK       I    between atoms: C3_7  and  N2_9 
REMARK    3  A    between atoms: N2_9  and  C4_11 
REMARK    4  A    between atoms: C4_11  and  O3_12 
REMARK    5  A    between atoms: C5_14  and  O4_15 
REMARK    6  A    between atoms: C6_17  and  O5_18 
REMARK    7  A    between atoms: O5_18  and  C7_19 
REMARK    8  A    between atoms: C9_23  and  N3_24 
REMARK    9  A    between atoms: C9_23  and  C10_28 
REMARK   10  A    between atoms: C10_28  and  O9_30 
REMARK   11  A    between atoms: O9_30  and  C11_31 
REMARK   12  A    between atoms: C16_36  and  N4_37 
REMARK   13  A    between atoms: C17_41  and  N5_43 
ROOT
HETATM    1  C4  UNL     1       6.622  -5.869   1.942  1.00  0.00     0.182 C 
HETATM    2  C5  UNL     1       7.991  -5.233   1.988  1.00  0.00     0.206 C 
HETATM    3  C6  UNL     1       8.917  -6.290   2.561  1.00  0.00     0.195 C 
HETATM    4  C17 UNL     1       8.004  -7.251   3.272  1.00  0.00     0.169 C 
HETATM    5  C18 UNL     1       8.117  -8.632   2.665  1.00  0.00     0.051 C 
HETATM    6  C19 UNL     1       6.610  -6.699   3.180  1.00  0.00     0.178 C 
HETATM    7 CL1  UNL     1       6.325  -5.635   4.600  1.00  0.00    -0.117 Cl
ENDROOT
BRANCH   3   8
HETATM    8  O5  UNL     1       9.822  -5.772   3.449  1.00  0.00    -0.348 OA
BRANCH   8   9
HETATM    9  C7  UNL     1      11.106  -5.585   2.933  1.00  0.00     0.300 C 
HETATM   10  O6  UNL     1      10.915  -4.609   1.890  1.00  0.00    -0.285 OA
HETATM   11  C8  UNL     1      11.311  -3.311   2.134  1.00  0.00     0.308 C 
HETATM   12  O7  UNL     1      10.550  -2.298   2.084  1.00  0.00    -0.262 OA
HETATM   13  C9  UNL     1      12.755  -3.094   2.483  1.00  0.00     0.297 C 
HETATM   14  C15 UNL     1      13.228  -4.352   3.173  1.00  0.00     0.098 C 
HETATM   15  C16 UNL     1      12.060  -4.957   3.916  1.00  0.00     0.242 C 
BRANCH  13  16
HETATM   16  N3  UNL     1      13.523  -2.846   1.269  1.00  0.00    -0.051 N 
ATOM     17  H33 UNL     1      12.962  -2.397   0.545  1.00  0.00     0.276 HD
ATOM     18  H32 UNL     1      14.216  -2.108   1.397  1.00  0.00     0.276 HD
ATOM     19  H31 UNL     1      13.945  -3.716   0.945  1.00  0.00     0.276 HD
ENDBRANCH  13  16
BRANCH  13  20
HETATM   20  C10 UNL     1      12.932  -1.960   3.411  1.00  0.00     0.306 C 
HETATM   21  O8  UNL     1      12.536  -0.790   3.194  1.00  0.00    -0.262 OA
BRANCH  20  22
HETATM   22  O9  UNL     1      13.587  -2.184   4.628  1.00  0.00    -0.309 OA
BRANCH  22  23
HETATM   23  C11 UNL     1      12.962  -1.948   5.871  1.00  0.00     0.060 C 
HETATM   24  C12 UNL     1      13.440  -0.589   6.376  1.00  0.00     0.045 C 
HETATM   25  C13 UNL     1      11.465  -1.936   5.809  1.00  0.00     0.045 C 
HETATM   26  C14 UNL     1      13.499  -2.982   6.849  1.00  0.00     0.045 C 
ENDBRANCH  22  23
ENDBRANCH  20  22
ENDBRANCH  13  20
BRANCH  15  27
HETATM   27  N4  UNL     1      12.606  -5.932   4.844  1.00  0.00    -0.070 N 
ATOM     28  H43 UNL     1      12.275  -5.765   5.794  1.00  0.00     0.274 HD
ATOM     29  H42 UNL     1      12.200  -6.855   4.692  1.00  0.00     0.274 HD
ATOM     30  H41 UNL     1      13.625  -5.965   4.808  1.00  0.00     0.274 HD
ENDBRANCH  15  27
ENDBRANCH   8   9
ENDBRANCH   3   8
BRANCH   2  31
HETATM   31  O4  UNL     1       8.023  -4.062   2.720  1.00  0.00    -0.388 OA
ATOM     32  H4  UNL     1       8.779  -3.520   2.528  1.00  0.00     0.210 HD
ENDBRANCH   2  31
BRANCH   4  33
HETATM   33  N5  UNL     1       8.299  -7.336   4.712  1.00  0.00    -0.067 N 
ATOM     34  H53 UNL     1       7.702  -8.024   5.171  1.00  0.00     0.275 HD
ATOM     35  H52 UNL     1       9.205  -7.772   4.878  1.00  0.00     0.275 HD
ATOM     36  H51 UNL     1       8.236  -6.428   5.171  1.00  0.00     0.275 HD
ENDBRANCH   4  33
BRANCH   1  37
HETATM   37  N2  UNL     1       6.451  -6.712   0.784  1.00  0.00    -0.321 N 
HETATM   38  C3  UNL     1       5.218  -7.335   0.506  1.00  0.00     0.268 C 
HETATM   39  O2  UNL     1       4.250  -7.140   1.299  1.00  0.00    -0.266 OA
ATOM     40  H2  UNL     1       7.239  -6.861   0.153  1.00  0.00     0.166 HD
BRANCH  38  41
HETATM   41  C2  UNL     1       4.986  -8.191  -0.637  1.00  0.00     0.095 C 
HETATM   42  C1  UNL     1       6.104  -8.804  -1.422  1.00  0.00     0.076 C 
HETATM   43  N1  UNL     1       3.796  -8.471  -1.037  1.00  0.00    -0.268 N 
ATOM     44  H1  UNL     1       3.014  -8.067  -0.521  1.00  0.00     0.194 HD
BRANCH  43  45
HETATM   45  O1  UNL     1       3.509  -9.262  -2.095  1.00  0.00    -0.290 OA
ATOM     46  H1  UNL     1       2.632  -9.518  -2.353  1.00  0.00     0.244 HD
ENDBRANCH  43  45
ENDBRANCH  38  41
ENDBRANCH   1  37
BRANCH   1  47
HETATM   47  O3  UNL     1       5.633  -4.884   1.948  1.00  0.00    -0.367 OA
ATOM     48  H3  UNL     1       5.634  -4.432   1.112  1.00  0.00     0.212 HD
ENDBRANCH   1  47
TORSDOF 13
ENDMDL
MODEL 5
REMARK VINA RESULT: -5.906998786      2.306      3.466
REMARK  13 active torsions:
REMARK  status: ('A' for Active; 'I' for Inactive)
REMARK    1  A    between atoms: C2_2  and  C3_7 
REMARK    2  A    between atoms: N1_3  and  O1_5 
REMARK       I    between atoms: C3_7  and  N2_9 
REMARK    3  A    between atoms: N2_9  and  C4_11 
REMARK    4  A    between atoms: C4_11  and  O3_12 
REMARK    5  A    between atoms: C5_14  and  O4_15 
REMARK    6  A    between atoms: C6_17  and  O5_18 
REMARK    7  A    between atoms: O5_18  and  C7_19 
REMARK    8  A    between atoms: C9_23  and  N3_24 
REMARK    9  A    between atoms: C9_23  and  C10_28 
REMARK   10  A    between atoms: C10_28  and  O9_30 
REMARK   11  A    between atoms: O9_30  and  C11_31 
REMARK   12  A    between atoms: C16_36  and  N4_37 
REMARK   13  A    between atoms: C17_41  and  N5_43 
ROOT
HETATM    1  C4  UNL     1       1.196  -8.168   1.912  1.00  0.00     0.182 C 
HETATM    2  C5  UNL     1       1.069  -9.482   1.178  1.00  0.00     0.206 C 
HETATM    3  C6  UNL     1       0.465 -10.453   2.176  1.00  0.00     0.195 C 
HETATM    4  C17 UNL     1       0.741  -9.839   3.520  1.00  0.00     0.169 C 
HETATM    5  C18 UNL     1      -0.556  -9.545   4.242  1.00  0.00     0.051 C 
HETATM    6  C19 UNL     1       1.561  -8.601   3.291  1.00  0.00     0.178 C 
HETATM    7 CL1  UNL     1       3.299  -9.055   3.325  1.00  0.00    -0.117 Cl
ENDROOT
BRANCH   3   8
HETATM    8  O5  UNL     1       1.036 -11.697   2.112  1.00  0.00    -0.348 OA
BRANCH   8   9
HETATM    9  C7  UNL     1       0.133 -12.745   1.921  1.00  0.00     0.300 C 
HETATM   10  O6  UNL     1      -1.103 -12.076   1.601  1.00  0.00    -0.285 OA
HETATM   11  C8  UNL     1      -1.520 -12.075   0.286  1.00  0.00     0.308 C 
HETATM   12  O7  UNL     1      -1.738 -11.034  -0.405  1.00  0.00    -0.262 OA
HETATM   13  C9  UNL     1      -1.729 -13.411  -0.363  1.00  0.00     0.297 C 
HETATM   14  C15 UNL     1      -0.772 -14.372   0.304  1.00  0.00     0.098 C 
HETATM   15  C16 UNL     1       0.458 -13.605   0.726  1.00  0.00     0.242 C 
BRANCH  13  16
HETATM   16  N3  UNL     1      -3.110 -13.839  -0.177  1.00  0.00    -0.051 N 
ATOM     17  H33 UNL     1      -3.177 -14.829   0.056  1.00  0.00     0.276 HD
ATOM     18  H32 UNL     1      -3.518 -13.458   0.677  1.00  0.00     0.276 HD
ATOM     19  H31 UNL     1      -3.659 -13.600  -1.003  1.00  0.00     0.276 HD
ENDBRANCH  13  16
BRANCH  13  20
HETATM   20  C10 UNL     1      -1.421 -13.377  -1.806  1.00  0.00     0.306 C 
HETATM   21  O8  UNL     1      -2.105 -12.776  -2.669  1.00  0.00    -0.262 OA
BRANCH  20  22
HETATM   22  O9  UNL     1      -0.288 -14.056  -2.268  1.00  0.00    -0.309 OA
BRANCH  22  23
HETATM   23  C11 UNL     1       0.781 -13.389  -2.904  1.00  0.00     0.060 C 
HETATM   24  C12 UNL     1       0.581 -13.533  -4.411  1.00  0.00     0.045 C 
HETATM   25  C13 UNL     1       0.875 -11.932  -2.571  1.00  0.00     0.045 C 
HETATM   26  C14 UNL     1       2.053 -14.151  -2.565  1.00  0.00     0.045 C 
ENDBRANCH  22  23
ENDBRANCH  20  22
ENDBRANCH  13  20
BRANCH  15  27
HETATM   27  N4  UNL     1       1.488 -14.584   1.025  1.00  0.00    -0.070 N 
ATOM     28  H43 UNL     1       2.305 -14.456   0.427  1.00  0.00     0.274 HD
ATOM     29  H42 UNL     1       1.921 -14.402   1.930  1.00  0.00     0.274 HD
ATOM     30  H41 UNL     1       1.135 -15.539   0.969  1.00  0.00     0.274 HD
ENDBRANCH  15  27
ENDBRANCH   8   9
ENDBRANCH   3   8
BRANCH   2  31
HETATM   31  O4  UNL     1       2.270  -9.939   0.669  1.00  0.00    -0.388 OA
ATOM     32  H4  UNL     1       2.394  -9.725  -0.248  1.00  0.00     0.210 HD
ENDBRANCH   2  31
BRANCH   4  33
HETATM   33  N5  UNL     1       1.573 -10.708   4.368  1.00  0.00    -0.067 N 
ATOM     34  H53 UNL     1       2.491 -10.864   3.950  1.00  0.00     0.275 HD
ATOM     35  H52 UNL     1       1.863 -10.226   5.219  1.00  0.00     0.275 HD
ATOM     36  H51 UNL     1       1.112 -11.591   4.584  1.00  0.00     0.275 HD
ENDBRANCH   4  33
BRANCH   1  37
HETATM   37  N2  UNL     1      -0.048  -7.437   1.940  1.00  0.00    -0.321 N 
HETATM   38  C3  UNL     1      -0.577  -6.846   0.775  1.00  0.00     0.268 C 
HETATM   39  O2  UNL     1       0.065  -6.969  -0.310  1.00  0.00    -0.266 OA
ATOM     40  H2  UNL     1      -0.556  -7.347   2.820  1.00  0.00     0.166 HD
BRANCH  38  41
HETATM   41  C2  UNL     1      -1.817  -6.102   0.739  1.00  0.00     0.095 C 
HETATM   42  C1  UNL     1      -2.030  -4.939  -0.180  1.00  0.00     0.076 C 
HETATM   43  N1  UNL     1      -2.807  -6.407   1.503  1.00  0.00    -0.268 N 
ATOM     44  H1  UNL     1      -2.690  -7.195   2.140  1.00  0.00     0.194 HD
BRANCH  43  45
HETATM   45  O1  UNL     1      -3.991  -5.755   1.519  1.00  0.00    -0.290 OA
ATOM     46  H1  UNL     1      -4.839  -6.180   1.512  1.00  0.00     0.244 HD
ENDBRANCH  43  45
ENDBRANCH  38  41
ENDBRANCH   1  37
BRANCH   1  47
HETATM   47  O3  UNL     1       2.183  -7.379   1.319  1.00  0.00    -0.367 OA
ATOM     48  H3  UNL     1       2.693  -7.910   0.718  1.00  0.00     0.212 HD
ENDBRANCH   1  47
TORSDOF 13
ENDMDL
