MODEL 1
REMARK VINA RESULT: -8.895842520      0.000      0.000
REMARK  6 active torsions:
REMARK  status: ('A' for Active; 'I' for Inactive)
REMARK    1  A    between atoms: N1_1  and  C1_4 
REMARK    2  A    between atoms: C5_10  and  C6_11 
REMARK    3  A    between atoms: C6_11  and  C7_12 
REMARK    4  A    between atoms: C7_12  and  C8_13 
REMARK    5  A    between atoms: C8_13  and  C9_14 
REMARK    6  A    between atoms: C8_13  and  C15_20 
ROOT
HETATM    1  C8  UNL     1       3.169  -2.191  13.086  1.00  0.00     0.052 C 
ENDROOT
BRANCH   1   2
HETATM    2  C7  UNL     1       3.811  -1.544  11.880  1.00  0.00     0.019 C 
BRANCH   2   3
HETATM    3  C6  UNL     1       2.828  -1.517  10.780  1.00  0.00     0.043 C 
BRANCH   3   4
HETATM    4  C5  UNL     1       2.287  -0.185  10.447  1.00  0.00    -0.017 A 
HETATM    5  C1  UNL     1       1.049  -0.162   9.833  1.00  0.00     0.034 A 
HETATM    6  C2  UNL     1       0.435   1.016   9.471  1.00  0.00     0.046 A 
HETATM    7  C3  UNL     1       1.097   2.195   9.742  1.00  0.00     0.090 A 
HETATM    8  N2  UNL     1       2.302   2.159  10.341  1.00  0.00    -0.375 N 
HETATM    9  C4  UNL     1       2.899   0.999  10.693  1.00  0.00     0.097 A 
ATOM     10  H2  UNL     1       2.781   3.038  10.536  1.00  0.00     0.164 HD
BRANCH   5  11
HETATM   11  N1  UNL     1       0.391  -1.255   9.559  1.00  0.00    -0.399 N 
ATOM     12  H12 UNL     1       0.712  -1.918   8.854  1.00  0.00     0.156 HD
ATOM     13  H11 UNL     1      -0.466  -1.403  10.092  1.00  0.00     0.156 HD
ENDBRANCH   5  11
ENDBRANCH   3   4
ENDBRANCH   2   3
ENDBRANCH   1   2
BRANCH   1  14
HETATM   14  C9  UNL     1       2.805  -3.612  12.844  1.00  0.00    -0.050 A 
HETATM   15  C10 UNL     1       3.715  -4.561  12.442  1.00  0.00     0.008 A 
HETATM   16  C11 UNL     1       3.361  -5.873  12.222  1.00  0.00     0.001 A 
HETATM   17  C12 UNL     1       2.057  -6.286  12.401  1.00  0.00     0.000 A 
HETATM   18  C13 UNL     1       1.119  -5.357  12.804  1.00  0.00     0.001 A 
HETATM   19  C14 UNL     1       1.492  -4.048  13.019  1.00  0.00     0.008 A 
ENDBRANCH   1  14
BRANCH   1  20
HETATM   20  C15 UNL     1       3.949  -2.033  14.332  1.00  0.00    -0.050 A 
HETATM   21  C16 UNL     1       4.668  -0.862  14.564  1.00  0.00     0.008 A 
HETATM   22  C17 UNL     1       5.397  -0.658  15.701  1.00  0.00     0.001 A 
HETATM   23  C18 UNL     1       5.449  -1.624  16.686  1.00  0.00     0.000 A 
HETATM   24  C19 UNL     1       4.744  -2.796  16.483  1.00  0.00     0.001 A 
HETATM   25  C20 UNL     1       4.015  -2.983  15.329  1.00  0.00     0.008 A 
ENDBRANCH   1  20
TORSDOF 6
ENDMDL
MODEL 2
REMARK VINA RESULT: -8.822068028      0.768      4.207
REMARK  6 active torsions:
REMARK  status: ('A' for Active; 'I' for Inactive)
REMARK    1  A    between atoms: N1_1  and  C1_4 
REMARK    2  A    between atoms: C5_10  and  C6_11 
REMARK    3  A    between atoms: C6_11  and  C7_12 
REMARK    4  A    between atoms: C7_12  and  C8_13 
REMARK    5  A    between atoms: C8_13  and  C9_14 
REMARK    6  A    between atoms: C8_13  and  C15_20 
ROOT
HETATM    1  C8  UNL     1       3.953  -2.281  12.779  1.00  0.00     0.052 C 
ENDROOT
BRANCH   1   2
HETATM    2  C7  UNL     1       3.242  -1.042  12.287  1.00  0.00     0.019 C 
BRANCH   2   3
HETATM    3  C6  UNL     1       3.337  -0.995  10.815  1.00  0.00     0.043 C 
BRANCH   3   4
HETATM    4  C5  UNL     1       2.056  -0.822  10.103  1.00  0.00    -0.017 A 
HETATM    5  C1  UNL     1       1.659   0.480   9.865  1.00  0.00     0.034 A 
HETATM    6  C2  UNL     1       0.484   0.777   9.210  1.00  0.00     0.046 A 
HETATM    7  C3  UNL     1      -0.301  -0.276   8.790  1.00  0.00     0.090 A 
HETATM    8  N2  UNL     1       0.097  -1.539   9.028  1.00  0.00    -0.375 N 
HETATM    9  C4  UNL     1       1.251  -1.824   9.672  1.00  0.00     0.097 A 
ATOM     10  H2  UNL     1      -0.492  -2.309   8.713  1.00  0.00     0.164 HD
BRANCH   5  11
HETATM   11  N1  UNL     1       2.372   1.504  10.246  1.00  0.00    -0.399 N 
ATOM     12  H12 UNL     1       2.005   2.455  10.235  1.00  0.00     0.156 HD
ATOM     13  H11 UNL     1       3.322   1.294  10.554  1.00  0.00     0.156 HD
ENDBRANCH   5  11
ENDBRANCH   3   4
ENDBRANCH   2   3
ENDBRANCH   1   2
BRANCH   1  14
HETATM   14  C9  UNL     1       4.525  -2.106  14.140  1.00  0.00    -0.050 A 
HETATM   15  C10 UNL     1       4.827  -3.163  14.968  1.00  0.00     0.008 A 
HETATM   16  C11 UNL     1       5.356  -2.982  16.227  1.00  0.00     0.001 A 
HETATM   17  C12 UNL     1       5.605  -1.713  16.707  1.00  0.00     0.000 A 
HETATM   18  C13 UNL     1       5.314  -0.633  15.900  1.00  0.00     0.001 A 
HETATM   19  C14 UNL     1       4.784  -0.832  14.643  1.00  0.00     0.008 A 
ENDBRANCH   1  14
BRANCH   1  20
HETATM   20  C15 UNL     1       3.140  -3.512  12.682  1.00  0.00    -0.050 A 
HETATM   21  C16 UNL     1       3.717  -4.699  12.234  1.00  0.00     0.008 A 
HETATM   22  C17 UNL     1       3.016  -5.867  12.135  1.00  0.00     0.001 A 
HETATM   23  C18 UNL     1       1.681  -5.918  12.485  1.00  0.00     0.000 A 
HETATM   24  C19 UNL     1       1.084  -4.756  12.934  1.00  0.00     0.001 A 
HETATM   25  C20 UNL     1       1.807  -3.587  13.026  1.00  0.00     0.008 A 
ENDBRANCH   1  20
TORSDOF 6
ENDMDL
MODEL 3
REMARK VINA RESULT: -8.754869973      0.760      4.217
REMARK  6 active torsions:
REMARK  status: ('A' for Active; 'I' for Inactive)
REMARK    1  A    between atoms: N1_1  and  C1_4 
REMARK    2  A    between atoms: C5_10  and  C6_11 
REMARK    3  A    between atoms: C6_11  and  C7_12 
REMARK    4  A    between atoms: C7_12  and  C8_13 
REMARK    5  A    between atoms: C8_13  and  C9_14 
REMARK    6  A    between atoms: C8_13  and  C15_20 
ROOT
HETATM    1  C8  UNL     1       3.946  -2.300  12.780  1.00  0.00     0.052 C 
ENDROOT
BRANCH   1   2
HETATM    2  C7  UNL     1       3.229  -1.068  12.275  1.00  0.00     0.019 C 
BRANCH   2   3
HETATM    3  C6  UNL     1       3.313  -1.043  10.802  1.00  0.00     0.043 C 
BRANCH   3   4
HETATM    4  C5  UNL     1       2.030  -0.847  10.099  1.00  0.00    -0.017 A 
HETATM    5  C1  UNL     1       1.661   0.462   9.852  1.00  0.00     0.034 A 
HETATM    6  C2  UNL     1       0.489   0.780   9.204  1.00  0.00     0.046 A 
HETATM    7  C3  UNL     1      -0.324  -0.258   8.799  1.00  0.00     0.090 A 
HETATM    8  N2  UNL     1       0.047  -1.527   9.046  1.00  0.00    -0.375 N 
HETATM    9  C4  UNL     1       1.200  -1.833   9.682  1.00  0.00     0.097 A 
ATOM     10  H2  UNL     1      -0.563  -2.287   8.742  1.00  0.00     0.164 HD
BRANCH   5  11
HETATM   11  N1  UNL     1       2.402   1.472  10.218  1.00  0.00    -0.399 N 
ATOM     12  H12 UNL     1       2.021   2.262  10.740  1.00  0.00     0.156 HD
ATOM     13  H11 UNL     1       3.384   1.424   9.949  1.00  0.00     0.156 HD
ENDBRANCH   5  11
ENDBRANCH   3   4
ENDBRANCH   2   3
ENDBRANCH   1   2
BRANCH   1  14
HETATM   14  C9  UNL     1       4.505  -2.113  14.145  1.00  0.00    -0.050 A 
HETATM   15  C10 UNL     1       4.789  -0.877  14.677  1.00  0.00     0.008 A 
HETATM   16  C11 UNL     1       5.306  -0.723  15.943  1.00  0.00     0.001 A 
HETATM   17  C12 UNL     1       5.561  -1.824  16.735  1.00  0.00     0.000 A 
HETATM   18  C13 UNL     1       5.286  -3.078  16.230  1.00  0.00     0.001 A 
HETATM   19  C14 UNL     1       4.769  -3.213  14.960  1.00  0.00     0.008 A 
ENDBRANCH   1  14
BRANCH   1  20
HETATM   20  C15 UNL     1       3.143  -3.537  12.683  1.00  0.00    -0.050 A 
HETATM   21  C16 UNL     1       3.735  -4.725  12.259  1.00  0.00     0.008 A 
HETATM   22  C17 UNL     1       3.043  -5.899  12.162  1.00  0.00     0.001 A 
HETATM   23  C18 UNL     1       1.703  -5.955  12.489  1.00  0.00     0.000 A 
HETATM   24  C19 UNL     1       1.090  -4.792  12.913  1.00  0.00     0.001 A 
HETATM   25  C20 UNL     1       1.804  -3.617  13.004  1.00  0.00     0.008 A 
ENDBRANCH   1  20
TORSDOF 6
ENDMDL
MODEL 4
REMARK VINA RESULT: -8.717507407      0.533      3.914
REMARK  6 active torsions:
REMARK  status: ('A' for Active; 'I' for Inactive)
REMARK    1  A    between atoms: N1_1  and  C1_4 
REMARK    2  A    between atoms: C5_10  and  C6_11 
REMARK    3  A    between atoms: C6_11  and  C7_12 
REMARK    4  A    between atoms: C7_12  and  C8_13 
REMARK    5  A    between atoms: C8_13  and  C9_14 
REMARK    6  A    between atoms: C8_13  and  C15_20 
ROOT
HETATM    1  C8  UNL     1       3.912  -2.469  12.867  1.00  0.00     0.052 C 
ENDROOT
BRANCH   1   2
HETATM    2  C7  UNL     1       3.039  -1.312  12.437  1.00  0.00     0.019 C 
BRANCH   2   3
HETATM    3  C6  UNL     1       3.202  -1.112  10.984  1.00  0.00     0.043 C 
BRANCH   3   4
HETATM    4  C5  UNL     1       2.437   0.012  10.411  1.00  0.00    -0.017 A 
HETATM    5  C1  UNL     1       1.318  -0.323   9.671  1.00  0.00     0.034 A 
HETATM    6  C2  UNL     1       0.519   0.632   9.083  1.00  0.00     0.046 A 
HETATM    7  C3  UNL     1       0.868   1.956   9.254  1.00  0.00     0.090 A 
HETATM    8  N2  UNL     1       1.959   2.268   9.977  1.00  0.00    -0.375 N 
HETATM    9  C4  UNL     1       2.740   1.325  10.551  1.00  0.00     0.097 A 
ATOM     10  H2  UNL     1       2.207   3.250  10.095  1.00  0.00     0.164 HD
BRANCH   5  11
HETATM   11  N1  UNL     1       0.954  -1.562   9.486  1.00  0.00    -0.399 N 
ATOM     12  H12 UNL     1       1.631  -2.306   9.319  1.00  0.00     0.156 HD
ATOM     13  H11 UNL     1      -0.050  -1.740   9.517  1.00  0.00     0.156 HD
ENDBRANCH   5  11
ENDBRANCH   3   4
ENDBRANCH   2   3
ENDBRANCH   1   2
BRANCH   1  14
HETATM   14  C9  UNL     1       4.497  -2.269  14.219  1.00  0.00    -0.050 A 
HETATM   15  C10 UNL     1       4.787  -3.308  15.072  1.00  0.00     0.008 A 
HETATM   16  C11 UNL     1       5.328  -3.104  16.322  1.00  0.00     0.001 A 
HETATM   17  C12 UNL     1       5.602  -1.828  16.767  1.00  0.00     0.000 A 
HETATM   18  C13 UNL     1       5.323  -0.763  15.934  1.00  0.00     0.001 A 
HETATM   19  C14 UNL     1       4.781  -0.987  14.687  1.00  0.00     0.008 A 
ENDBRANCH   1  14
BRANCH   1  20
HETATM   20  C15 UNL     1       3.254  -3.787  12.747  1.00  0.00    -0.050 A 
HETATM   21  C16 UNL     1       1.894  -3.919  13.024  1.00  0.00     0.008 A 
HETATM   22  C17 UNL     1       1.234  -5.110  12.919  1.00  0.00     0.001 A 
HETATM   23  C18 UNL     1       1.901  -6.253  12.526  1.00  0.00     0.000 A 
HETATM   24  C19 UNL     1       3.250  -6.152  12.245  1.00  0.00     0.001 A 
HETATM   25  C20 UNL     1       3.899  -4.941  12.357  1.00  0.00     0.008 A 
ENDBRANCH   1  20
TORSDOF 6
ENDMDL
MODEL 5
REMARK VINA RESULT: -8.711049722      2.722      5.889
REMARK  6 active torsions:
REMARK  status: ('A' for Active; 'I' for Inactive)
REMARK    1  A    between atoms: N1_1  and  C1_4 
REMARK    2  A    between atoms: C5_10  and  C6_11 
REMARK    3  A    between atoms: C6_11  and  C7_12 
REMARK    4  A    between atoms: C7_12  and  C8_13 
REMARK    5  A    between atoms: C8_13  and  C9_14 
REMARK    6  A    between atoms: C8_13  and  C15_20 
ROOT
HETATM    1  C8  UNL     1       3.750  -1.857  12.152  1.00  0.00     0.052 C 
ENDROOT
BRANCH   1   2
HETATM    2  C7  UNL     1       4.359  -1.320  13.427  1.00  0.00     0.019 C 
BRANCH   2   3
HETATM    3  C6  UNL     1       5.313  -2.317  13.951  1.00  0.00     0.043 C 
BRANCH   3   4
HETATM    4  C5  UNL     1       4.861  -3.059  15.143  1.00  0.00    -0.017 A 
HETATM    5  C1  UNL     1       4.908  -4.438  15.062  1.00  0.00     0.034 A 
HETATM    6  C2  UNL     1       4.514  -5.245  16.106  1.00  0.00     0.046 A 
HETATM    7  C3  UNL     1       4.065  -4.633  17.257  1.00  0.00     0.090 A 
HETATM    8  N2  UNL     1       4.025  -3.290  17.324  1.00  0.00    -0.375 N 
HETATM    9  C4  UNL     1       4.413  -2.503  16.295  1.00  0.00     0.097 A 
ATOM     10  H2  UNL     1       3.691  -2.849  18.181  1.00  0.00     0.164 HD
BRANCH   5  11
HETATM   11  N1  UNL     1       5.326  -5.055  13.991  1.00  0.00    -0.399 N 
ATOM     12  H12 UNL     1       4.715  -5.657  13.439  1.00  0.00     0.156 HD
ATOM     13  H11 UNL     1       6.303  -4.900  13.741  1.00  0.00     0.156 HD
ENDBRANCH   5  11
ENDBRANCH   3   4
ENDBRANCH   2   3
ENDBRANCH   1   2
BRANCH   1  14
HETATM   14  C9  UNL     1       2.929  -3.075  12.382  1.00  0.00    -0.050 A 
HETATM   15  C10 UNL     1       1.892  -3.121  13.284  1.00  0.00     0.008 A 
HETATM   16  C11 UNL     1       1.142  -4.259  13.485  1.00  0.00     0.001 A 
HETATM   17  C12 UNL     1       1.412  -5.410  12.775  1.00  0.00     0.000 A 
HETATM   18  C13 UNL     1       2.446  -5.396  11.861  1.00  0.00     0.001 A 
HETATM   19  C14 UNL     1       3.186  -4.249  11.674  1.00  0.00     0.008 A 
ENDBRANCH   1  14
BRANCH   1  20
HETATM   20  C15 UNL     1       3.010  -0.841  11.372  1.00  0.00    -0.050 A 
HETATM   21  C16 UNL     1       3.410   0.493  11.405  1.00  0.00     0.008 A 
HETATM   22  C17 UNL     1       2.770   1.470  10.696  1.00  0.00     0.001 A 
HETATM   23  C18 UNL     1       1.682   1.167   9.903  1.00  0.00     0.000 A 
HETATM   24  C19 UNL     1       1.264  -0.149   9.851  1.00  0.00     0.001 A 
HETATM   25  C20 UNL     1       1.922  -1.120  10.574  1.00  0.00     0.008 A 
ENDBRANCH   1  20
TORSDOF 6
ENDMDL
