MODEL 1
REMARK VINA RESULT: -8.961445555      0.000      0.000
REMARK  5 active torsions:
REMARK  status: ('A' for Active; 'I' for Inactive)
REMARK    1  A    between atoms: C1_2  and  N1_3 
REMARK    2  A    between atoms: N1_3  and  C2_5 
REMARK    3  A    between atoms: C2_5  and  C3_6 
REMARK    4  A    between atoms: C2_5  and  C9_12 
REMARK    5  A    between atoms: C2_5  and  C15_18 
ROOT
HETATM    1  C2  UNL     1       2.955  -2.981  13.411  1.00  0.00     0.115 C 
ENDROOT
BRANCH   1   2
HETATM    2  N1  UNL     1       1.639  -3.247  13.942  1.00  0.00    -0.346 N 
ATOM      3  H1  UNL     1       0.913  -3.553  13.294  1.00  0.00     0.163 HD
BRANCH   2   4
HETATM    4  C1  UNL     1       1.300  -3.111  15.299  1.00  0.00     0.349 C 
HETATM    5  O1  UNL     1       0.143  -3.029  15.778  1.00  0.00    -0.284 OA
ENDBRANCH   2   4
ENDBRANCH   1   2
BRANCH   1   6
HETATM    6  C3  UNL     1       2.744  -2.062  12.269  1.00  0.00    -0.021 A 
HETATM    7  C4  UNL     1       3.678  -1.171  11.860  1.00  0.00     0.010 A 
HETATM    8  C5  UNL     1       3.421  -0.349  10.755  1.00  0.00     0.001 A 
HETATM    9  C6  UNL     1       2.236  -0.421  10.071  1.00  0.00     0.000 A 
HETATM   10  C7  UNL     1       1.302  -1.340  10.511  1.00  0.00     0.001 A 
HETATM   11  C8  UNL     1       1.543  -2.141  11.581  1.00  0.00     0.010 A 
ENDBRANCH   1   6
BRANCH   1  12
HETATM   12  C9  UNL     1       3.829  -2.449  14.499  1.00  0.00    -0.021 A 
HETATM   13  C10 UNL     1       4.312  -1.171  14.574  1.00  0.00     0.010 A 
HETATM   14  C11 UNL     1       5.099  -0.723  15.625  1.00  0.00     0.001 A 
HETATM   15  C12 UNL     1       5.416  -1.587  16.644  1.00  0.00     0.000 A 
HETATM   16  C13 UNL     1       4.938  -2.873  16.583  1.00  0.00     0.001 A 
HETATM   17  C14 UNL     1       4.167  -3.311  15.554  1.00  0.00     0.010 A 
ENDBRANCH   1  12
BRANCH   1  18
HETATM   18  C15 UNL     1       3.602  -4.268  13.037  1.00  0.00    -0.021 A 
HETATM   19  C16 UNL     1       4.927  -4.383  12.817  1.00  0.00     0.010 A 
HETATM   20  C17 UNL     1       5.514  -5.614  12.443  1.00  0.00     0.001 A 
HETATM   21  C18 UNL     1       4.718  -6.724  12.301  1.00  0.00     0.000 A 
HETATM   22  C19 UNL     1       3.364  -6.625  12.522  1.00  0.00     0.001 A 
HETATM   23  C20 UNL     1       2.804  -5.393  12.891  1.00  0.00     0.010 A 
ENDBRANCH   1  18
TORSDOF 5
ENDMDL
MODEL 2
REMARK VINA RESULT: -8.944226233      0.447      1.100
REMARK  5 active torsions:
REMARK  status: ('A' for Active; 'I' for Inactive)
REMARK    1  A    between atoms: C1_2  and  N1_3 
REMARK    2  A    between atoms: N1_3  and  C2_5 
REMARK    3  A    between atoms: C2_5  and  C3_6 
REMARK    4  A    between atoms: C2_5  and  C9_12 
REMARK    5  A    between atoms: C2_5  and  C15_18 
ROOT
HETATM    1  C2  UNL     1       3.037  -2.811  13.414  1.00  0.00     0.115 C 
ENDROOT
BRANCH   1   2
HETATM    2  N1  UNL     1       1.673  -2.977  13.858  1.00  0.00    -0.346 N 
ATOM      3  H1  UNL     1       0.927  -2.851  13.173  1.00  0.00     0.163 HD
BRANCH   2   4
HETATM    4  C1  UNL     1       1.313  -3.302  15.177  1.00  0.00     0.349 C 
HETATM    5  O1  UNL     1       0.887  -4.409  15.586  1.00  0.00    -0.284 OA
ENDBRANCH   2   4
ENDBRANCH   1   2
BRANCH   1   6
HETATM    6  C3  UNL     1       2.976  -1.843  12.295  1.00  0.00    -0.021 A 
HETATM    7  C4  UNL     1       3.983  -0.983  12.011  1.00  0.00     0.010 A 
HETATM    8  C5  UNL     1       3.869  -0.112  10.920  1.00  0.00     0.001 A 
HETATM    9  C6  UNL     1       2.752  -0.104  10.126  1.00  0.00     0.000 A 
HETATM   10  C7  UNL     1       1.742  -0.993  10.440  1.00  0.00     0.001 A 
HETATM   11  C8  UNL     1       1.844  -1.842  11.495  1.00  0.00     0.010 A 
ENDBRANCH   1   6
BRANCH   1  12
HETATM   12  C9  UNL     1       3.885  -2.390  14.570  1.00  0.00    -0.021 A 
HETATM   13  C10 UNL     1       4.280  -3.202  15.598  1.00  0.00     0.010 A 
HETATM   14  C11 UNL     1       5.094  -2.764  16.634  1.00  0.00     0.001 A 
HETATM   15  C12 UNL     1       5.532  -1.463  16.642  1.00  0.00     0.000 A 
HETATM   16  C13 UNL     1       5.144  -0.637  15.615  1.00  0.00     0.001 A 
HETATM   17  C14 UNL     1       4.348  -1.066  14.602  1.00  0.00     0.010 A 
ENDBRANCH   1  12
BRANCH   1  18
HETATM   18  C15 UNL     1       3.594  -4.137  13.034  1.00  0.00    -0.021 A 
HETATM   19  C16 UNL     1       4.914  -4.357  12.870  1.00  0.00     0.010 A 
HETATM   20  C17 UNL     1       5.414  -5.623  12.489  1.00  0.00     0.001 A 
HETATM   21  C18 UNL     1       4.538  -6.659  12.281  1.00  0.00     0.000 A 
HETATM   22  C19 UNL     1       3.188  -6.454  12.445  1.00  0.00     0.001 A 
HETATM   23  C20 UNL     1       2.714  -5.189  12.823  1.00  0.00     0.010 A 
ENDBRANCH   1  18
TORSDOF 5
ENDMDL
MODEL 3
REMARK VINA RESULT: -8.927415458      0.477      1.499
REMARK  5 active torsions:
REMARK  status: ('A' for Active; 'I' for Inactive)
REMARK    1  A    between atoms: C1_2  and  N1_3 
REMARK    2  A    between atoms: N1_3  and  C2_5 
REMARK    3  A    between atoms: C2_5  and  C3_6 
REMARK    4  A    between atoms: C2_5  and  C9_12 
REMARK    5  A    between atoms: C2_5  and  C15_18 
ROOT
HETATM    1  C2  UNL     1       3.020  -2.776  13.409  1.00  0.00     0.115 C 
ENDROOT
BRANCH   1   2
HETATM    2  N1  UNL     1       1.658  -2.887  13.875  1.00  0.00    -0.346 N 
ATOM      3  H1  UNL     1       0.907  -2.701  13.210  1.00  0.00     0.163 HD
BRANCH   2   4
HETATM    4  C1  UNL     1       1.306  -3.235  15.190  1.00  0.00     0.349 C 
HETATM    5  O1  UNL     1       0.918  -4.359  15.589  1.00  0.00    -0.284 OA
ENDBRANCH   2   4
ENDBRANCH   1   2
BRANCH   1   6
HETATM    6  C3  UNL     1       2.984  -1.790  12.304  1.00  0.00    -0.021 A 
HETATM    7  C4  UNL     1       3.973  -0.890  12.088  1.00  0.00     0.010 A 
HETATM    8  C5  UNL     1       3.885  -0.003  11.009  1.00  0.00     0.001 A 
HETATM    9  C6  UNL     1       2.812  -0.019  10.156  1.00  0.00     0.000 A 
HETATM   10  C7  UNL     1       1.819  -0.948  10.401  1.00  0.00     0.001 A 
HETATM   11  C8  UNL     1       1.896  -1.812  11.446  1.00  0.00     0.010 A 
ENDBRANCH   1   6
BRANCH   1  12
HETATM   12  C9  UNL     1       3.907  -2.411  14.554  1.00  0.00    -0.021 A 
HETATM   13  C10 UNL     1       4.337  -3.272  15.527  1.00  0.00     0.010 A 
HETATM   14  C11 UNL     1       5.185  -2.885  16.555  1.00  0.00     0.001 A 
HETATM   15  C12 UNL     1       5.622  -1.584  16.613  1.00  0.00     0.000 A 
HETATM   16  C13 UNL     1       5.199  -0.709  15.642  1.00  0.00     0.001 A 
HETATM   17  C14 UNL     1       4.370  -1.089  14.636  1.00  0.00     0.010 A 
ENDBRANCH   1  12
BRANCH   1  18
HETATM   18  C15 UNL     1       3.509  -4.120  12.999  1.00  0.00    -0.021 A 
HETATM   19  C16 UNL     1       2.683  -5.160  12.769  1.00  0.00     0.010 A 
HETATM   20  C17 UNL     1       3.176  -6.433  12.400  1.00  0.00     0.001 A 
HETATM   21  C18 UNL     1       4.530  -6.619  12.270  1.00  0.00     0.000 A 
HETATM   22  C19 UNL     1       5.388  -5.569  12.499  1.00  0.00     0.001 A 
HETATM   23  C20 UNL     1       4.877  -4.316  12.865  1.00  0.00     0.010 A 
ENDBRANCH   1  18
TORSDOF 5
ENDMDL
MODEL 4
REMARK VINA RESULT: -8.833079968      0.493      1.116
REMARK  5 active torsions:
REMARK  status: ('A' for Active; 'I' for Inactive)
REMARK    1  A    between atoms: C1_2  and  N1_3 
REMARK    2  A    between atoms: N1_3  and  C2_5 
REMARK    3  A    between atoms: C2_5  and  C3_6 
REMARK    4  A    between atoms: C2_5  and  C9_12 
REMARK    5  A    between atoms: C2_5  and  C15_18 
ROOT
HETATM    1  C2  UNL     1       3.080  -2.767  13.400  1.00  0.00     0.115 C 
ENDROOT
BRANCH   1   2
HETATM    2  N1  UNL     1       1.731  -2.921  13.892  1.00  0.00    -0.346 N 
ATOM      3  H1  UNL     1       0.962  -2.756  13.242  1.00  0.00     0.163 HD
BRANCH   2   4
HETATM    4  C1  UNL     1       1.416  -3.286  15.212  1.00  0.00     0.349 C 
HETATM    5  O1  UNL     1       0.892  -4.363  15.587  1.00  0.00    -0.284 OA
ENDBRANCH   2   4
ENDBRANCH   1   2
BRANCH   1   6
HETATM    6  C3  UNL     1       2.983  -1.820  12.265  1.00  0.00    -0.021 A 
HETATM    7  C4  UNL     1       1.924  -1.788  11.422  1.00  0.00     0.010 A 
HETATM    8  C5  UNL     1       1.887  -0.848  10.384  1.00  0.00     0.001 A 
HETATM    9  C6  UNL     1       2.906   0.048  10.195  1.00  0.00     0.000 A 
HETATM   10  C7  UNL     1       3.974  -0.009  11.071  1.00  0.00     0.001 A 
HETATM   11  C8  UNL     1       4.018  -0.916  12.081  1.00  0.00     0.010 A 
ENDBRANCH   1   6
BRANCH   1  12
HETATM   12  C9  UNL     1       3.967  -2.327  14.519  1.00  0.00    -0.021 A 
HETATM   13  C10 UNL     1       4.404  -1.048  14.726  1.00  0.00     0.010 A 
HETATM   14  C11 UNL     1       5.206  -0.690  15.800  1.00  0.00     0.001 A 
HETATM   15  C12 UNL     1       5.585  -1.650  16.706  1.00  0.00     0.000 A 
HETATM   16  C13 UNL     1       5.152  -2.939  16.511  1.00  0.00     0.001 A 
HETATM   17  C14 UNL     1       4.367  -3.288  15.459  1.00  0.00     0.010 A 
ENDBRANCH   1  12
BRANCH   1  18
HETATM   18  C15 UNL     1       3.621  -4.102  13.026  1.00  0.00    -0.021 A 
HETATM   19  C16 UNL     1       4.938  -4.337  12.861  1.00  0.00     0.010 A 
HETATM   20  C17 UNL     1       5.424  -5.610  12.486  1.00  0.00     0.001 A 
HETATM   21  C18 UNL     1       4.536  -6.638  12.285  1.00  0.00     0.000 A 
HETATM   22  C19 UNL     1       3.188  -6.417  12.449  1.00  0.00     0.001 A 
HETATM   23  C20 UNL     1       2.729  -5.145  12.821  1.00  0.00     0.010 A 
ENDBRANCH   1  18
TORSDOF 5
ENDMDL
MODEL 5
REMARK VINA RESULT: -8.725251585      1.246      1.293
REMARK  5 active torsions:
REMARK  status: ('A' for Active; 'I' for Inactive)
REMARK    1  A    between atoms: C1_2  and  N1_3 
REMARK    2  A    between atoms: N1_3  and  C2_5 
REMARK    3  A    between atoms: C2_5  and  C3_6 
REMARK    4  A    between atoms: C2_5  and  C9_12 
REMARK    5  A    between atoms: C2_5  and  C15_18 
ROOT
HETATM    1  C2  UNL     1       3.180  -2.817  13.270  1.00  0.00     0.115 C 
ENDROOT
BRANCH   1   2
HETATM    2  N1  UNL     1       1.954  -3.407  13.753  1.00  0.00    -0.346 N 
ATOM      3  H1  UNL     1       1.295  -2.806  14.249  1.00  0.00     0.163 HD
BRANCH   2   4
HETATM    4  C1  UNL     1       1.615  -4.759  13.580  1.00  0.00     0.349 C 
HETATM    5  O1  UNL     1       0.676  -5.213  12.882  1.00  0.00    -0.284 OA
ENDBRANCH   2   4
ENDBRANCH   1   2
BRANCH   1   6
HETATM    6  C3  UNL     1       2.773  -1.868  12.208  1.00  0.00    -0.021 A 
HETATM    7  C4  UNL     1       3.553  -0.836  11.805  1.00  0.00     0.010 A 
HETATM    8  C5  UNL     1       3.117   0.008  10.777  1.00  0.00     0.001 A 
HETATM    9  C6  UNL     1       1.907  -0.182  10.162  1.00  0.00     0.000 A 
HETATM   10  C7  UNL     1       1.133  -1.242  10.594  1.00  0.00     0.001 A 
HETATM   11  C8  UNL     1       1.548  -2.067  11.590  1.00  0.00     0.010 A 
ENDBRANCH   1   6
BRANCH   1  12
HETATM   12  C9  UNL     1       3.920  -2.207  14.415  1.00  0.00    -0.021 A 
HETATM   13  C10 UNL     1       4.624  -1.035  14.369  1.00  0.00     0.010 A 
HETATM   14  C11 UNL     1       5.271  -0.500  15.473  1.00  0.00     0.001 A 
HETATM   15  C12 UNL     1       5.211  -1.163  16.675  1.00  0.00     0.000 A 
HETATM   16  C13 UNL     1       4.506  -2.340  16.737  1.00  0.00     0.001 A 
HETATM   17  C14 UNL     1       3.874  -2.863  15.655  1.00  0.00     0.010 A 
ENDBRANCH   1  12
BRANCH   1  18
HETATM   18  C15 UNL     1       4.090  -3.895  12.797  1.00  0.00    -0.021 A 
HETATM   19  C16 UNL     1       4.960  -4.526  13.610  1.00  0.00     0.010 A 
HETATM   20  C17 UNL     1       5.828  -5.534  13.131  1.00  0.00     0.001 A 
HETATM   21  C18 UNL     1       5.786  -5.884  11.803  1.00  0.00     0.000 A 
HETATM   22  C19 UNL     1       4.903  -5.252  10.959  1.00  0.00     0.001 A 
HETATM   23  C20 UNL     1       4.052  -4.255  11.457  1.00  0.00     0.010 A 
ENDBRANCH   1  18
TORSDOF 5
ENDMDL
