MODEL 1
REMARK VINA RESULT: -9.268610278      0.000      0.000
REMARK  6 active torsions:
REMARK  status: ('A' for Active; 'I' for Inactive)
REMARK    1  A    between atoms: O1_1  and  C1_3 
REMARK    2  A    between atoms: C4_6  and  C5_7 
REMARK    3  A    between atoms: C5_7  and  C6_8 
REMARK    4  A    between atoms: C6_8  and  C7_9 
REMARK    5  A    between atoms: C7_9  and  N1_10 
REMARK    6  A    between atoms: C11_14  and  C12_15 
ROOT
HETATM    1  N1  UNL     1       2.793  -1.778  10.708  1.00  0.00    -0.366 N 
HETATM    2  C8  UNL     1       2.887  -2.992  10.128  1.00  0.00     0.090 A 
HETATM    3  C9  UNL     1       3.459  -4.066  10.785  1.00  0.00     0.018 A 
HETATM    4  C10 UNL     1       3.938  -3.855  12.073  1.00  0.00     0.015 A 
HETATM    5  C11 UNL     1       3.850  -2.622  12.685  1.00  0.00    -0.010 A 
HETATM    6  C18 UNL     1       3.259  -1.598  11.948  1.00  0.00     0.102 A 
ENDROOT
BRANCH   1   7
HETATM    7  C7  UNL     1       2.183  -0.692   9.967  1.00  0.00     0.128 C 
BRANCH   7   8
HETATM    8  C6  UNL     1       0.734  -1.016   9.634  1.00  0.00     0.025 C 
BRANCH   8   9
HETATM    9  C5  UNL     1      -0.000   0.263   9.259  1.00  0.00     0.040 C 
BRANCH   9  10
HETATM   10  C4  UNL     1      -0.589   0.148   7.901  1.00  0.00    -0.058 A 
HETATM   11  C3  UNL     1      -0.002   0.789   6.829  1.00  0.00     0.010 A 
HETATM   12  C2  UNL     1      -0.530   0.700   5.543  1.00  0.00     0.037 A 
HETATM   13  C1  UNL     1      -1.664  -0.039   5.301  1.00  0.00     0.065 A 
HETATM   14  C20 UNL     1      -2.236  -0.673   6.389  1.00  0.00     0.037 A 
HETATM   15  C19 UNL     1      -1.726  -0.593   7.658  1.00  0.00     0.010 A 
BRANCH  13  16
HETATM   16  O1  UNL     1      -2.215  -0.145   4.023  1.00  0.00    -0.361 OA
ATOM     17  H1  UNL     1      -1.855   0.326   3.280  1.00  0.00     0.217 HD
ENDBRANCH  13  16
ENDBRANCH   9  10
ENDBRANCH   8   9
ENDBRANCH   7   8
ENDBRANCH   1   7
BRANCH   5  18
HETATM   18  C12 UNL     1       4.350  -2.392  14.037  1.00  0.00    -0.025 A 
HETATM   19  C13 UNL     1       4.555  -3.405  14.953  1.00  0.00     0.012 A 
HETATM   20  C14 UNL     1       5.030  -3.157  16.226  1.00  0.00     0.001 A 
HETATM   21  C15 UNL     1       5.320  -1.869  16.630  1.00  0.00     0.000 A 
HETATM   22  C16 UNL     1       5.120  -0.857  15.727  1.00  0.00     0.001 A 
HETATM   23  C17 UNL     1       4.645  -1.104  14.456  1.00  0.00     0.012 A 
ENDBRANCH   5  18
TORSDOF 6
ENDMDL
MODEL 2
REMARK VINA RESULT: -9.263896480      0.080      1.421
REMARK  6 active torsions:
REMARK  status: ('A' for Active; 'I' for Inactive)
REMARK    1  A    between atoms: O1_1  and  C1_3 
REMARK    2  A    between atoms: C4_6  and  C5_7 
REMARK    3  A    between atoms: C5_7  and  C6_8 
REMARK    4  A    between atoms: C6_8  and  C7_9 
REMARK    5  A    between atoms: C7_9  and  N1_10 
REMARK    6  A    between atoms: C11_14  and  C12_15 
ROOT
HETATM    1  N1  UNL     1       2.745  -1.753  10.679  1.00  0.00    -0.366 N 
HETATM    2  C8  UNL     1       2.833  -2.968  10.102  1.00  0.00     0.090 A 
HETATM    3  C9  UNL     1       3.411  -4.041  10.756  1.00  0.00     0.018 A 
HETATM    4  C10 UNL     1       3.903  -3.826  12.037  1.00  0.00     0.015 A 
HETATM    5  C11 UNL     1       3.823  -2.591  12.647  1.00  0.00    -0.010 A 
HETATM    6  C18 UNL     1       3.226  -1.569  11.913  1.00  0.00     0.102 A 
ENDROOT
BRANCH   1   7
HETATM    7  C7  UNL     1       2.128  -0.668   9.940  1.00  0.00     0.128 C 
BRANCH   7   8
HETATM    8  C6  UNL     1       0.689  -1.011   9.586  1.00  0.00     0.025 C 
BRANCH   8   9
HETATM    9  C5  UNL     1      -0.063   0.262   9.225  1.00  0.00     0.040 C 
BRANCH   9  10
HETATM   10  C4  UNL     1      -0.593   0.179   7.841  1.00  0.00    -0.058 A 
HETATM   11  C3  UNL     1      -1.739  -0.542   7.573  1.00  0.00     0.010 A 
HETATM   12  C2  UNL     1      -2.261  -0.638   6.286  1.00  0.00     0.037 A 
HETATM   13  C1  UNL     1      -1.644  -0.010   5.231  1.00  0.00     0.065 A 
HETATM   14  C20 UNL     1      -0.498   0.707   5.520  1.00  0.00     0.037 A 
HETATM   15  C19 UNL     1       0.026   0.810   6.782  1.00  0.00     0.010 A 
BRANCH  13  16
HETATM   16  O1  UNL     1      -2.145  -0.090   3.930  1.00  0.00    -0.361 OA
ATOM     17  H1  UNL     1      -1.606   0.105   3.172  1.00  0.00     0.217 HD
ENDBRANCH  13  16
ENDBRANCH   9  10
ENDBRANCH   8   9
ENDBRANCH   7   8
ENDBRANCH   1   7
BRANCH   5  18
HETATM   18  C12 UNL     1       4.338  -2.358  13.993  1.00  0.00    -0.025 A 
HETATM   19  C13 UNL     1       4.640  -1.103  14.483  1.00  0.00     0.012 A 
HETATM   20  C14 UNL     1       5.126  -0.913  15.762  1.00  0.00     0.001 A 
HETATM   21  C15 UNL     1       5.329  -1.988  16.604  1.00  0.00     0.000 A 
HETATM   22  C16 UNL     1       5.032  -3.238  16.126  1.00  0.00     0.001 A 
HETATM   23  C17 UNL     1       4.547  -3.428  14.849  1.00  0.00     0.012 A 
ENDBRANCH   5  18
TORSDOF 6
ENDMDL
MODEL 3
REMARK VINA RESULT: -9.226679544      1.383      2.244
REMARK  6 active torsions:
REMARK  status: ('A' for Active; 'I' for Inactive)
REMARK    1  A    between atoms: O1_1  and  C1_3 
REMARK    2  A    between atoms: C4_6  and  C5_7 
REMARK    3  A    between atoms: C5_7  and  C6_8 
REMARK    4  A    between atoms: C6_8  and  C7_9 
REMARK    5  A    between atoms: C7_9  and  N1_10 
REMARK    6  A    between atoms: C11_14  and  C12_15 
ROOT
HETATM    1  N1  UNL     1       2.712  -1.334  10.602  1.00  0.00    -0.366 N 
HETATM    2  C8  UNL     1       3.456  -0.215  10.703  1.00  0.00     0.090 A 
HETATM    3  C9  UNL     1       4.220   0.050  11.825  1.00  0.00     0.018 A 
HETATM    4  C10 UNL     1       4.197  -0.883  12.855  1.00  0.00     0.015 A 
HETATM    5  C11 UNL     1       3.444  -2.035  12.773  1.00  0.00    -0.010 A 
HETATM    6  C18 UNL     1       2.706  -2.218  11.606  1.00  0.00     0.102 A 
ENDROOT
BRANCH   1   7
HETATM    7  C7  UNL     1       1.932  -1.553   9.400  1.00  0.00     0.128 C 
BRANCH   7   8
HETATM    8  C6  UNL     1       0.455  -1.308   9.667  1.00  0.00     0.025 C 
BRANCH   8   9
HETATM    9  C5  UNL     1       0.083   0.098   9.219  1.00  0.00     0.040 C 
BRANCH   9  10
HETATM   10  C4  UNL     1      -0.513   0.072   7.859  1.00  0.00    -0.058 A 
HETATM   11  C3  UNL     1      -1.679  -0.629   7.621  1.00  0.00     0.010 A 
HETATM   12  C2  UNL     1      -2.263  -0.672   6.358  1.00  0.00     0.037 A 
HETATM   13  C1  UNL     1      -1.690  -0.011   5.298  1.00  0.00     0.065 A 
HETATM   14  C20 UNL     1      -0.523   0.685   5.558  1.00  0.00     0.037 A 
HETATM   15  C19 UNL     1       0.061   0.736   6.796  1.00  0.00     0.010 A 
BRANCH  13  16
HETATM   16  O1  UNL     1      -2.253  -0.037   4.020  1.00  0.00    -0.361 OA
ATOM     17  H1  UNL     1      -1.847   0.404   3.284  1.00  0.00     0.217 HD
ENDBRANCH  13  16
ENDBRANCH   9  10
ENDBRANCH   8   9
ENDBRANCH   7   8
ENDBRANCH   1   7
BRANCH   5  18
HETATM   18  C12 UNL     1       3.415  -3.019  13.851  1.00  0.00    -0.025 A 
HETATM   19  C13 UNL     1       4.510  -3.775  14.219  1.00  0.00     0.012 A 
HETATM   20  C14 UNL     1       4.453  -4.699  15.243  1.00  0.00     0.001 A 
HETATM   21  C15 UNL     1       3.280  -4.900  15.945  1.00  0.00     0.000 A 
HETATM   22  C16 UNL     1       2.187  -4.153  15.587  1.00  0.00     0.001 A 
HETATM   23  C17 UNL     1       2.244  -3.231  14.563  1.00  0.00     0.012 A 
ENDBRANCH   5  18
TORSDOF 6
ENDMDL
MODEL 4
REMARK VINA RESULT: -9.222595458      1.396      2.274
REMARK  6 active torsions:
REMARK  status: ('A' for Active; 'I' for Inactive)
REMARK    1  A    between atoms: O1_1  and  C1_3 
REMARK    2  A    between atoms: C4_6  and  C5_7 
REMARK    3  A    between atoms: C5_7  and  C6_8 
REMARK    4  A    between atoms: C6_8  and  C7_9 
REMARK    5  A    between atoms: C7_9  and  N1_10 
REMARK    6  A    between atoms: C11_14  and  C12_15 
ROOT
HETATM    1  N1  UNL     1       2.685  -1.348  10.608  1.00  0.00    -0.366 N 
HETATM    2  C8  UNL     1       3.433  -0.231  10.707  1.00  0.00     0.090 A 
HETATM    3  C9  UNL     1       4.193   0.036  11.832  1.00  0.00     0.018 A 
HETATM    4  C10 UNL     1       4.161  -0.892  12.866  1.00  0.00     0.015 A 
HETATM    5  C11 UNL     1       3.404  -2.042  12.786  1.00  0.00    -0.010 A 
HETATM    6  C18 UNL     1       2.671  -2.227  11.616  1.00  0.00     0.102 A 
ENDROOT
BRANCH   1   7
HETATM    7  C7  UNL     1       1.910  -1.569   9.403  1.00  0.00     0.128 C 
BRANCH   7   8
HETATM    8  C6  UNL     1       0.434  -1.307   9.659  1.00  0.00     0.025 C 
BRANCH   8   9
HETATM    9  C5  UNL     1       0.080   0.100   9.199  1.00  0.00     0.040 C 
BRANCH   9  10
HETATM   10  C4  UNL     1      -0.515   0.070   7.839  1.00  0.00    -0.058 A 
HETATM   11  C3  UNL     1      -1.684  -0.626   7.603  1.00  0.00     0.010 A 
HETATM   12  C2  UNL     1      -2.266  -0.672   6.339  1.00  0.00     0.037 A 
HETATM   13  C1  UNL     1      -1.688  -0.019   5.277  1.00  0.00     0.065 A 
HETATM   14  C20 UNL     1      -0.518   0.671   5.535  1.00  0.00     0.037 A 
HETATM   15  C19 UNL     1       0.065   0.725   6.773  1.00  0.00     0.010 A 
BRANCH  13  16
HETATM   16  O1  UNL     1      -2.250  -0.049   3.998  1.00  0.00    -0.361 OA
ATOM     17  H1  UNL     1      -1.951  -0.658   3.333  1.00  0.00     0.217 HD
ENDBRANCH  13  16
ENDBRANCH   9  10
ENDBRANCH   8   9
ENDBRANCH   7   8
ENDBRANCH   1   7
BRANCH   5  18
HETATM   18  C12 UNL     1       3.365  -3.021  13.868  1.00  0.00    -0.025 A 
HETATM   19  C13 UNL     1       2.246  -3.254  14.642  1.00  0.00     0.012 A 
HETATM   20  C14 UNL     1       2.239  -4.188  15.659  1.00  0.00     0.001 A 
HETATM   21  C15 UNL     1       3.370  -4.929  15.941  1.00  0.00     0.000 A 
HETATM   22  C16 UNL     1       4.487  -4.704  15.179  1.00  0.00     0.001 A 
HETATM   23  C17 UNL     1       4.494  -3.771  14.162  1.00  0.00     0.012 A 
ENDBRANCH   5  18
TORSDOF 6
ENDMDL
MODEL 5
REMARK VINA RESULT: -9.196638869      1.376      2.032
REMARK  6 active torsions:
REMARK  status: ('A' for Active; 'I' for Inactive)
REMARK    1  A    between atoms: O1_1  and  C1_3 
REMARK    2  A    between atoms: C4_6  and  C5_7 
REMARK    3  A    between atoms: C5_7  and  C6_8 
REMARK    4  A    between atoms: C6_8  and  C7_9 
REMARK    5  A    between atoms: C7_9  and  N1_10 
REMARK    6  A    between atoms: C11_14  and  C12_15 
ROOT
HETATM    1  N1  UNL     1       2.715  -1.350  10.624  1.00  0.00    -0.366 N 
HETATM    2  C8  UNL     1       3.474  -0.240  10.721  1.00  0.00     0.090 A 
HETATM    3  C9  UNL     1       4.239   0.020  11.843  1.00  0.00     0.018 A 
HETATM    4  C10 UNL     1       4.201  -0.906  12.878  1.00  0.00     0.015 A 
HETATM    5  C11 UNL     1       3.433  -2.049  12.801  1.00  0.00    -0.010 A 
HETATM    6  C18 UNL     1       2.695  -2.228  11.633  1.00  0.00     0.102 A 
ENDROOT
BRANCH   1   7
HETATM    7  C7  UNL     1       1.935  -1.566   9.421  1.00  0.00     0.128 C 
BRANCH   7   8
HETATM    8  C6  UNL     1       0.462  -1.292   9.681  1.00  0.00     0.025 C 
BRANCH   8   9
HETATM    9  C5  UNL     1       0.111   0.107   9.198  1.00  0.00     0.040 C 
BRANCH   9  10
HETATM   10  C4  UNL     1      -0.506   0.053   7.848  1.00  0.00    -0.058 A 
HETATM   11  C3  UNL     1       0.084   0.703   6.783  1.00  0.00     0.010 A 
HETATM   12  C2  UNL     1      -0.470   0.671   5.506  1.00  0.00     0.037 A 
HETATM   13  C1  UNL     1      -1.635  -0.018   5.265  1.00  0.00     0.065 A 
HETATM   14  C20 UNL     1      -2.210  -0.662   6.345  1.00  0.00     0.037 A 
HETATM   15  C19 UNL     1      -1.675  -0.638   7.606  1.00  0.00     0.010 A 
BRANCH  13  16
HETATM   16  O1  UNL     1      -2.213  -0.067   3.995  1.00  0.00    -0.361 OA
ATOM     17  H1  UNL     1      -3.062   0.319   3.815  1.00  0.00     0.217 HD
ENDBRANCH  13  16
ENDBRANCH   9  10
ENDBRANCH   8   9
ENDBRANCH   7   8
ENDBRANCH   1   7
BRANCH   5  18
HETATM   18  C12 UNL     1       3.389  -3.027  13.884  1.00  0.00    -0.025 A 
HETATM   19  C13 UNL     1       2.251  -3.295  14.618  1.00  0.00     0.012 A 
HETATM   20  C14 UNL     1       2.239  -4.227  15.637  1.00  0.00     0.001 A 
HETATM   21  C15 UNL     1       3.382  -4.931  15.961  1.00  0.00     0.000 A 
HETATM   22  C16 UNL     1       4.517  -4.671  15.237  1.00  0.00     0.001 A 
HETATM   23  C17 UNL     1       4.529  -3.741  14.219  1.00  0.00     0.012 A 
ENDBRANCH   5  18
TORSDOF 6
ENDMDL
