MODEL 1
REMARK VINA RESULT: -8.831951513      0.000      0.000
REMARK  5 active torsions:
REMARK  status: ('A' for Active; 'I' for Inactive)
REMARK    1  A    between atoms: S1_2  and  C1_3 
REMARK    2  A    between atoms: S1_2  and  C9_11 
REMARK    3  A    between atoms: C1_3  and  C2_4 
REMARK    4  A    between atoms: C2_4  and  C3_5 
REMARK    5  A    between atoms: C12_14  and  C13_15 
ROOT
HETATM    1  C9  UNL     1       2.977  -4.225  11.407  1.00  0.00     0.101 A 
HETATM    2  C10 UNL     1       3.866  -4.112  10.384  1.00  0.00     0.041 A 
HETATM    3  C11 UNL     1       3.781  -2.835   9.878  1.00  0.00     0.033 A 
HETATM    4  C12 UNL     1       2.822  -2.183  10.620  1.00  0.00     0.043 A 
HETATM    5  N1  UNL     1       2.356  -3.049  11.534  1.00  0.00    -0.348 N 
ATOM      6  H1  UNL     1       1.634  -2.841  12.223  1.00  0.00     0.166 HD
ENDROOT
BRANCH   1   7
HETATM    7  S1  UNL     1       2.624  -5.595  12.435  1.00  0.00     0.067 S 
HETATM    8  O1  UNL     1       1.012  -5.865  12.642  1.00  0.00    -0.251 OA
BRANCH   7   9
HETATM    9  C1  UNL     1       3.516  -5.555  13.927  1.00  0.00     0.120 C 
BRANCH   9  10
HETATM   10  C2  UNL     1       4.823  -4.834  13.838  1.00  0.00     0.051 C 
BRANCH  10  11
HETATM   11  C3  UNL     1       4.902  -3.536  14.531  1.00  0.00    -0.057 A 
HETATM   12  C4  UNL     1       4.989  -3.467  15.928  1.00  0.00     0.007 A 
HETATM   13  C5  UNL     1       5.029  -2.273  16.611  1.00  0.00     0.001 A 
HETATM   14  C6  UNL     1       4.986  -1.071  15.936  1.00  0.00     0.000 A 
HETATM   15  C7  UNL     1       4.901  -1.108  14.559  1.00  0.00     0.001 A 
HETATM   16  C8  UNL     1       4.860  -2.308  13.884  1.00  0.00     0.007 A 
ENDBRANCH  10  11
ENDBRANCH   9  10
ENDBRANCH   7   9
ENDBRANCH   1   7
BRANCH   4  17
HETATM   17  C13 UNL     1       2.396  -0.804  10.439  1.00  0.00    -0.009 A 
HETATM   18  C14 UNL     1       1.217  -0.472   9.796  1.00  0.00     0.013 A 
HETATM   19  C15 UNL     1       0.810   0.829   9.624  1.00  0.00     0.001 A 
HETATM   20  C16 UNL     1       1.571   1.875  10.090  1.00  0.00     0.000 A 
HETATM   21  C17 UNL     1       2.750   1.563  10.733  1.00  0.00     0.001 A 
HETATM   22  C18 UNL     1       3.160   0.240  10.907  1.00  0.00     0.013 A 
ENDBRANCH   4  17
TORSDOF 5
ENDMDL
MODEL 2
REMARK VINA RESULT: -8.825670007      0.026      1.026
REMARK  5 active torsions:
REMARK  status: ('A' for Active; 'I' for Inactive)
REMARK    1  A    between atoms: S1_2  and  C1_3 
REMARK    2  A    between atoms: S1_2  and  C9_11 
REMARK    3  A    between atoms: C1_3  and  C2_4 
REMARK    4  A    between atoms: C2_4  and  C3_5 
REMARK    5  A    between atoms: C12_14  and  C13_15 
ROOT
HETATM    1  C9  UNL     1       2.978  -4.234  11.397  1.00  0.00     0.101 A 
HETATM    2  C10 UNL     1       3.867  -4.121  10.375  1.00  0.00     0.041 A 
HETATM    3  C11 UNL     1       3.786  -2.842   9.872  1.00  0.00     0.033 A 
HETATM    4  C12 UNL     1       2.828  -2.190  10.615  1.00  0.00     0.043 A 
HETATM    5  N1  UNL     1       2.360  -3.057  11.527  1.00  0.00    -0.348 N 
ATOM      6  H1  UNL     1       1.638  -2.849  12.216  1.00  0.00     0.166 HD
ENDROOT
BRANCH   1   7
HETATM    7  S1  UNL     1       2.620  -5.607  12.422  1.00  0.00     0.067 S 
HETATM    8  O1  UNL     1       1.008  -5.860  12.643  1.00  0.00    -0.251 OA
BRANCH   7   9
HETATM    9  C1  UNL     1       3.528  -5.583  13.905  1.00  0.00     0.120 C 
BRANCH   9  10
HETATM   10  C2  UNL     1       4.826  -4.848  13.815  1.00  0.00     0.051 C 
BRANCH  10  11
HETATM   11  C3  UNL     1       4.897  -3.557  14.522  1.00  0.00    -0.057 A 
HETATM   12  C4  UNL     1       4.985  -3.503  15.919  1.00  0.00     0.007 A 
HETATM   13  C5  UNL     1       5.018  -2.316  16.615  1.00  0.00     0.001 A 
HETATM   14  C6  UNL     1       4.964  -1.107  15.955  1.00  0.00     0.000 A 
HETATM   15  C7  UNL     1       4.877  -1.129  14.577  1.00  0.00     0.001 A 
HETATM   16  C8  UNL     1       4.844  -2.322  13.889  1.00  0.00     0.007 A 
ENDBRANCH  10  11
ENDBRANCH   9  10
ENDBRANCH   7   9
ENDBRANCH   1   7
BRANCH   4  17
HETATM   17  C13 UNL     1       2.406  -0.809  10.438  1.00  0.00    -0.009 A 
HETATM   18  C14 UNL     1       3.158   0.259  10.894  1.00  0.00     0.013 A 
HETATM   19  C15 UNL     1       2.764   1.564  10.728  1.00  0.00     0.001 A 
HETATM   20  C16 UNL     1       1.585   1.871  10.091  1.00  0.00     0.000 A 
HETATM   21  C17 UNL     1       0.822   0.820   9.630  1.00  0.00     0.001 A 
HETATM   22  C18 UNL     1       1.226  -0.506   9.800  1.00  0.00     0.013 A 
ENDBRANCH   4  17
TORSDOF 5
ENDMDL
MODEL 3
REMARK VINA RESULT: -8.817717057      0.050      1.453
REMARK  5 active torsions:
REMARK  status: ('A' for Active; 'I' for Inactive)
REMARK    1  A    between atoms: S1_2  and  C1_3 
REMARK    2  A    between atoms: S1_2  and  C9_11 
REMARK    3  A    between atoms: C1_3  and  C2_4 
REMARK    4  A    between atoms: C2_4  and  C3_5 
REMARK    5  A    between atoms: C12_14  and  C13_15 
ROOT
HETATM    1  C9  UNL     1       2.958  -4.250  11.428  1.00  0.00     0.101 A 
HETATM    2  C10 UNL     1       3.866  -4.135  10.423  1.00  0.00     0.041 A 
HETATM    3  C11 UNL     1       3.791  -2.856   9.917  1.00  0.00     0.033 A 
HETATM    4  C12 UNL     1       2.817  -2.206  10.642  1.00  0.00     0.043 A 
HETATM    5  N1  UNL     1       2.334  -3.074  11.545  1.00  0.00    -0.348 N 
ATOM      6  H1  UNL     1       1.599  -2.868  12.221  1.00  0.00     0.166 HD
ENDROOT
BRANCH   1   7
HETATM    7  S1  UNL     1       2.586  -5.622  12.447  1.00  0.00     0.067 S 
HETATM    8  O1  UNL     1       0.971  -5.864  12.662  1.00  0.00    -0.251 OA
BRANCH   7   9
HETATM    9  C1  UNL     1       3.488  -5.610  13.934  1.00  0.00     0.120 C 
BRANCH   9  10
HETATM   10  C2  UNL     1       4.780  -4.861  13.859  1.00  0.00     0.051 C 
BRANCH  10  11
HETATM   11  C3  UNL     1       4.837  -3.583  14.589  1.00  0.00    -0.057 A 
HETATM   12  C4  UNL     1       4.801  -2.359  13.907  1.00  0.00     0.007 A 
HETATM   13  C5  UNL     1       4.887  -1.147  14.552  1.00  0.00     0.001 A 
HETATM   14  C6  UNL     1       5.013  -1.083  15.923  1.00  0.00     0.000 A 
HETATM   15  C7  UNL     1       5.051  -2.273  16.622  1.00  0.00     0.001 A 
HETATM   16  C8  UNL     1       4.965  -3.482  15.968  1.00  0.00     0.007 A 
ENDBRANCH  10  11
ENDBRANCH   9  10
ENDBRANCH   7   9
ENDBRANCH   1   7
BRANCH   4  17
HETATM   17  C13 UNL     1       2.394  -0.827  10.455  1.00  0.00    -0.009 A 
HETATM   18  C14 UNL     1       3.157   0.245  10.883  1.00  0.00     0.013 A 
HETATM   19  C15 UNL     1       2.761   1.549  10.709  1.00  0.00     0.001 A 
HETATM   20  C16 UNL     1       1.571   1.850  10.091  1.00  0.00     0.000 A 
HETATM   21  C17 UNL     1       0.797   0.794   9.658  1.00  0.00     0.001 A 
HETATM   22  C18 UNL     1       1.202  -0.530   9.837  1.00  0.00     0.013 A 
ENDBRANCH   4  17
TORSDOF 5
ENDMDL
MODEL 4
REMARK VINA RESULT: -8.814008391      0.077      1.032
REMARK  5 active torsions:
REMARK  status: ('A' for Active; 'I' for Inactive)
REMARK    1  A    between atoms: S1_2  and  C1_3 
REMARK    2  A    between atoms: S1_2  and  C9_11 
REMARK    3  A    between atoms: C1_3  and  C2_4 
REMARK    4  A    between atoms: C2_4  and  C3_5 
REMARK    5  A    between atoms: C12_14  and  C13_15 
ROOT
HETATM    1  C9  UNL     1       3.008  -4.252  11.336  1.00  0.00     0.101 A 
HETATM    2  C10 UNL     1       3.888  -4.126  10.308  1.00  0.00     0.041 A 
HETATM    3  C11 UNL     1       3.803  -2.841   9.821  1.00  0.00     0.033 A 
HETATM    4  C12 UNL     1       2.852  -2.198  10.581  1.00  0.00     0.043 A 
HETATM    5  N1  UNL     1       2.391  -3.076  11.486  1.00  0.00    -0.348 N 
ATOM      6  H1  UNL     1       1.676  -2.876  12.185  1.00  0.00     0.166 HD
ENDROOT
BRANCH   1   7
HETATM    7  S1  UNL     1       2.659  -5.636  12.348  1.00  0.00     0.067 S 
HETATM    8  O1  UNL     1       1.050  -5.876  12.604  1.00  0.00    -0.251 OA
BRANCH   7   9
HETATM    9  C1  UNL     1       3.602  -5.646  13.809  1.00  0.00     0.120 C 
BRANCH   9  10
HETATM   10  C2  UNL     1       4.853  -4.831  13.734  1.00  0.00     0.051 C 
BRANCH  10  11
HETATM   11  C3  UNL     1       4.869  -3.586  14.524  1.00  0.00    -0.057 A 
HETATM   12  C4  UNL     1       4.821  -2.334  13.899  1.00  0.00     0.007 A 
HETATM   13  C5  UNL     1       4.868  -1.151  14.601  1.00  0.00     0.001 A 
HETATM   14  C6  UNL     1       4.967  -1.149  15.976  1.00  0.00     0.000 A 
HETATM   15  C7  UNL     1       5.015  -2.369  16.620  1.00  0.00     0.001 A 
HETATM   16  C8  UNL     1       4.968  -3.548  15.908  1.00  0.00     0.007 A 
ENDBRANCH  10  11
ENDBRANCH   9  10
ENDBRANCH   7   9
ENDBRANCH   1   7
BRANCH   4  17
HETATM   17  C13 UNL     1       2.428  -0.815  10.424  1.00  0.00    -0.009 A 
HETATM   18  C14 UNL     1       1.245  -0.470   9.796  1.00  0.00     0.013 A 
HETATM   19  C15 UNL     1       0.841   0.835   9.647  1.00  0.00     0.001 A 
HETATM   20  C16 UNL     1       1.608   1.871  10.123  1.00  0.00     0.000 A 
HETATM   21  C17 UNL     1       2.792   1.546  10.751  1.00  0.00     0.001 A 
HETATM   22  C18 UNL     1       3.199   0.219  10.902  1.00  0.00     0.013 A 
ENDBRANCH   4  17
TORSDOF 5
ENDMDL
MODEL 5
REMARK VINA RESULT: -8.698634476      3.041      7.981
REMARK  5 active torsions:
REMARK  status: ('A' for Active; 'I' for Inactive)
REMARK    1  A    between atoms: S1_2  and  C1_3 
REMARK    2  A    between atoms: S1_2  and  C9_11 
REMARK    3  A    between atoms: C1_3  and  C2_4 
REMARK    4  A    between atoms: C2_4  and  C3_5 
REMARK    5  A    between atoms: C12_14  and  C13_15 
ROOT
HETATM    1  C9  UNL     1       2.561  -1.003  10.931  1.00  0.00     0.101 A 
HETATM    2  C10 UNL     1       3.567  -0.093  10.867  1.00  0.00     0.041 A 
HETATM    3  C11 UNL     1       4.353  -0.239  11.988  1.00  0.00     0.033 A 
HETATM    4  C12 UNL     1       3.795  -1.258  12.727  1.00  0.00     0.043 A 
HETATM    5  N1  UNL     1       2.715  -1.698  12.062  1.00  0.00    -0.348 N 
ATOM      6  H1  UNL     1       2.103  -2.452  12.373  1.00  0.00     0.166 HD
ENDROOT
BRANCH   1   7
HETATM    7  S1  UNL     1       1.252  -1.305   9.809  1.00  0.00     0.067 S 
HETATM    8  O1  UNL     1       1.746  -1.968   8.384  1.00  0.00    -0.251 OA
BRANCH   7   9
HETATM    9  C1  UNL     1       0.217   0.077   9.608  1.00  0.00     0.120 C 
BRANCH   9  10
HETATM   10  C2  UNL     1       0.356   0.758   8.285  1.00  0.00     0.051 C 
BRANCH  10  11
HETATM   11  C3  UNL     1      -0.567   0.317   7.223  1.00  0.00    -0.057 A 
HETATM   12  C4  UNL     1      -0.370   0.702   5.890  1.00  0.00     0.007 A 
HETATM   13  C5  UNL     1      -1.229   0.338   4.879  1.00  0.00     0.001 A 
HETATM   14  C6  UNL     1      -2.340  -0.435   5.139  1.00  0.00     0.000 A 
HETATM   15  C7  UNL     1      -2.560  -0.830   6.443  1.00  0.00     0.001 A 
HETATM   16  C8  UNL     1      -1.694  -0.460   7.450  1.00  0.00     0.007 A 
ENDBRANCH  10  11
ENDBRANCH   9  10
ENDBRANCH   7   9
ENDBRANCH   1   7
BRANCH   4  17
HETATM   17  C13 UNL     1       4.294  -1.762  13.997  1.00  0.00    -0.009 A 
HETATM   18  C14 UNL     1       4.748  -0.923  14.999  1.00  0.00     0.013 A 
HETATM   19  C15 UNL     1       5.219  -1.394  16.200  1.00  0.00     0.001 A 
HETATM   20  C16 UNL     1       5.260  -2.743  16.463  1.00  0.00     0.000 A 
HETATM   21  C17 UNL     1       4.812  -3.595  15.476  1.00  0.00     0.001 A 
HETATM   22  C18 UNL     1       4.334  -3.112  14.256  1.00  0.00     0.013 A 
ENDBRANCH   4  17
TORSDOF 5
ENDMDL
