MODEL 1
REMARK VINA RESULT: -8.837970561      0.000      0.000
REMARK  5 active torsions:
REMARK  status: ('A' for Active; 'I' for Inactive)
REMARK    1  A    between atoms: C3_3  and  C4_4 
REMARK    2  A    between atoms: C5_5  and  C6_6 
REMARK    3  A    between atoms: C13_15  and  C14_16 
REMARK    4  A    between atoms: C14_16  and  C15_17 
REMARK    5  A    between atoms: C15_17  and  C16_18 
ROOT
HETATM    1  C1  UNL     1       4.275  -1.193  14.365  1.00  0.00     0.012 C 
HETATM    2  C2  UNL     1       3.477  -1.833  13.732  1.00  0.00    -0.113 C 
HETATM    3  C3  UNL     1       2.524  -2.576  12.959  1.00  0.00     0.134 C 
ENDROOT
BRANCH   3   4
HETATM    4  C4  UNL     1       2.888  -2.837  11.564  1.00  0.00    -0.012 A 
HETATM    5  C5  UNL     1       2.828  -1.947  10.519  1.00  0.00    -0.001 A 
HETATM    6  C12 UNL     1       3.321  -2.655   9.415  1.00  0.00     0.101 A 
HETATM    7  N1  UNL     1       3.646  -3.880   9.799  1.00  0.00    -0.368 N 
HETATM    8  C13 UNL     1       3.401  -4.052  11.114  1.00  0.00     0.017 A 
ATOM      9  H1  UNL     1       4.030  -4.597   9.184  1.00  0.00     0.165 HD
BRANCH   5  10
HETATM   10  C6  UNL     1       2.403  -0.573  10.389  1.00  0.00    -0.024 A 
HETATM   11  C7  UNL     1       3.092   0.524  10.807  1.00  0.00     0.012 A 
HETATM   12  C8  UNL     1       2.601   1.830  10.619  1.00  0.00     0.001 A 
HETATM   13  C9  UNL     1       1.394   2.030  10.000  1.00  0.00     0.000 A 
HETATM   14  C10 UNL     1       0.681   0.945   9.570  1.00  0.00     0.001 A 
HETATM   15  C11 UNL     1       1.169  -0.326   9.759  1.00  0.00     0.012 A 
ENDBRANCH   5  10
BRANCH   8  16
HETATM   16  C14 UNL     1       3.633  -5.321  11.867  1.00  0.00     0.062 C 
BRANCH  16  17
HETATM   17  C15 UNL     1       4.826  -5.193  12.745  1.00  0.00     0.044 C 
BRANCH  17  18
HETATM   18  C16 UNL     1       4.522  -5.140  14.183  1.00  0.00    -0.058 A 
HETATM   19  C17 UNL     1       5.379  -4.546  15.080  1.00  0.00     0.007 A 
HETATM   20  C18 UNL     1       5.053  -4.513  16.441  1.00  0.00     0.001 A 
HETATM   21  C19 UNL     1       3.877  -5.068  16.895  1.00  0.00     0.000 A 
HETATM   22  C20 UNL     1       3.014  -5.663  16.014  1.00  0.00     0.001 A 
HETATM   23  C21 UNL     1       3.354  -5.687  14.664  1.00  0.00     0.007 A 
ENDBRANCH  17  18
ENDBRANCH  16  17
ENDBRANCH   8  16
ENDBRANCH   3   4
TORSDOF 5
ENDMDL
MODEL 2
REMARK VINA RESULT: -8.819441786      1.065      1.926
REMARK  5 active torsions:
REMARK  status: ('A' for Active; 'I' for Inactive)
REMARK    1  A    between atoms: C3_3  and  C4_4 
REMARK    2  A    between atoms: C5_5  and  C6_6 
REMARK    3  A    between atoms: C13_15  and  C14_16 
REMARK    4  A    between atoms: C14_16  and  C15_17 
REMARK    5  A    between atoms: C15_17  and  C16_18 
ROOT
HETATM    1  C1  UNL     1       1.016  -4.453  14.338  1.00  0.00     0.012 C 
HETATM    2  C2  UNL     1       1.624  -3.576  13.783  1.00  0.00    -0.113 C 
HETATM    3  C3  UNL     1       2.370  -2.546  13.119  1.00  0.00     0.134 C 
ENDROOT
BRANCH   3   4
HETATM    4  C4  UNL     1       2.873  -2.875  11.782  1.00  0.00    -0.012 A 
HETATM    5  C5  UNL     1       2.759  -2.107  10.650  1.00  0.00    -0.001 A 
HETATM    6  C12 UNL     1       3.435  -2.827   9.656  1.00  0.00     0.101 A 
HETATM    7  N1  UNL     1       3.913  -3.944  10.185  1.00  0.00    -0.368 N 
HETATM    8  C13 UNL     1       3.598  -4.030  11.493  1.00  0.00     0.017 A 
ATOM      9  H1  UNL     1       4.447  -4.645   9.671  1.00  0.00     0.165 HD
BRANCH   5  10
HETATM   10  C6  UNL     1       2.141  -0.836  10.352  1.00  0.00    -0.024 A 
HETATM   11  C7  UNL     1       0.902  -0.650   9.821  1.00  0.00     0.012 A 
HETATM   12  C8  UNL     1       0.378   0.635   9.582  1.00  0.00     0.001 A 
HETATM   13  C9  UNL     1       1.117   1.748   9.884  1.00  0.00     0.000 A 
HETATM   14  C10 UNL     1       2.366   1.590  10.418  1.00  0.00     0.001 A 
HETATM   15  C11 UNL     1       2.869   0.332  10.647  1.00  0.00     0.012 A 
ENDBRANCH   5  10
BRANCH   8  16
HETATM   16  C14 UNL     1       3.962  -5.170  12.386  1.00  0.00     0.062 C 
BRANCH  16  17
HETATM   17  C15 UNL     1       5.270  -4.916  13.046  1.00  0.00     0.044 C 
BRANCH  17  18
HETATM   18  C16 UNL     1       5.189  -4.097  14.265  1.00  0.00    -0.058 A 
HETATM   19  C17 UNL     1       5.594  -2.782  14.279  1.00  0.00     0.007 A 
HETATM   20  C18 UNL     1       5.498  -2.034  15.458  1.00  0.00     0.001 A 
HETATM   21  C19 UNL     1       4.998  -2.600  16.611  1.00  0.00     0.000 A 
HETATM   22  C20 UNL     1       4.591  -3.907  16.612  1.00  0.00     0.001 A 
HETATM   23  C21 UNL     1       4.694  -4.637  15.430  1.00  0.00     0.007 A 
ENDBRANCH  17  18
ENDBRANCH  16  17
ENDBRANCH   8  16
ENDBRANCH   3   4
TORSDOF 5
ENDMDL
MODEL 3
REMARK VINA RESULT: -8.716255115      2.097      7.368
REMARK  5 active torsions:
REMARK  status: ('A' for Active; 'I' for Inactive)
REMARK    1  A    between atoms: C3_3  and  C4_4 
REMARK    2  A    between atoms: C5_5  and  C6_6 
REMARK    3  A    between atoms: C13_15  and  C14_16 
REMARK    4  A    between atoms: C14_16  and  C15_17 
REMARK    5  A    between atoms: C15_17  and  C16_18 
ROOT
HETATM    1  C1  UNL     1       2.737   1.714  10.822  1.00  0.00     0.012 C 
HETATM    2  C2  UNL     1       3.246   0.642  11.021  1.00  0.00    -0.113 C 
HETATM    3  C3  UNL     1       3.845  -0.635  11.284  1.00  0.00     0.134 C 
ENDROOT
BRANCH   3   4
HETATM    4  C4  UNL     1       2.948  -1.676  11.792  1.00  0.00    -0.012 A 
HETATM    5  C5  UNL     1       3.006  -2.282  13.023  1.00  0.00    -0.001 A 
HETATM    6  C12 UNL     1       1.915  -3.162  13.043  1.00  0.00     0.101 A 
HETATM    7  N1  UNL     1       1.265  -3.067  11.893  1.00  0.00    -0.368 N 
HETATM    8  C13 UNL     1       1.855  -2.167  11.079  1.00  0.00     0.017 A 
ATOM      9  H1  UNL     1       0.431  -3.603  11.654  1.00  0.00     0.165 HD
BRANCH   5  10
HETATM   10  C6  UNL     1       3.889  -2.172  14.160  1.00  0.00    -0.024 A 
HETATM   11  C7  UNL     1       4.502  -1.037  14.593  1.00  0.00     0.012 A 
HETATM   12  C8  UNL     1       5.336  -1.026  15.728  1.00  0.00     0.001 A 
HETATM   13  C9  UNL     1       5.554  -2.180  16.434  1.00  0.00     0.000 A 
HETATM   14  C10 UNL     1       4.951  -3.335  16.020  1.00  0.00     0.001 A 
HETATM   15  C11 UNL     1       4.139  -3.335  14.912  1.00  0.00     0.012 A 
ENDBRANCH   5  10
BRANCH   8  16
HETATM   16  C14 UNL     1       1.393  -1.832   9.700  1.00  0.00     0.062 C 
BRANCH  16  17
HETATM   17  C15 UNL     1       0.153  -1.012   9.752  1.00  0.00     0.044 C 
BRANCH  17  18
HETATM   18  C16 UNL     1      -0.307  -0.520   8.445  1.00  0.00    -0.058 A 
HETATM   19  C17 UNL     1      -1.550  -0.840   7.951  1.00  0.00     0.007 A 
HETATM   20  C18 UNL     1      -1.955  -0.350   6.704  1.00  0.00     0.001 A 
HETATM   21  C19 UNL     1      -1.119   0.456   5.962  1.00  0.00     0.000 A 
HETATM   22  C20 UNL     1       0.121   0.784   6.440  1.00  0.00     0.001 A 
HETATM   23  C21 UNL     1       0.507   0.286   7.683  1.00  0.00     0.007 A 
ENDBRANCH  17  18
ENDBRANCH  16  17
ENDBRANCH   8  16
ENDBRANCH   3   4
TORSDOF 5
ENDMDL
MODEL 4
REMARK VINA RESULT: -8.656398306      1.111      1.760
REMARK  5 active torsions:
REMARK  status: ('A' for Active; 'I' for Inactive)
REMARK    1  A    between atoms: C3_3  and  C4_4 
REMARK    2  A    between atoms: C5_5  and  C6_6 
REMARK    3  A    between atoms: C13_15  and  C14_16 
REMARK    4  A    between atoms: C14_16  and  C15_17 
REMARK    5  A    between atoms: C15_17  and  C16_18 
ROOT
HETATM    1  C1  UNL     1       4.414  -1.108  13.414  1.00  0.00     0.012 C 
HETATM    2  C2  UNL     1       3.462  -1.553  12.828  1.00  0.00    -0.113 C 
HETATM    3  C3  UNL     1       2.329  -2.064  12.111  1.00  0.00     0.134 C 
ENDROOT
BRANCH   3   4
HETATM    4  C4  UNL     1       2.567  -2.446  10.716  1.00  0.00    -0.012 A 
HETATM    5  C5  UNL     1       2.051  -1.838   9.598  1.00  0.00    -0.001 A 
HETATM    6  C12 UNL     1       2.608  -2.537   8.519  1.00  0.00     0.101 A 
HETATM    7  N1  UNL     1       3.400  -3.490   8.986  1.00  0.00    -0.368 N 
HETATM    8  C13 UNL     1       3.416  -3.485  10.335  1.00  0.00     0.017 A 
ATOM      9  H1  UNL     1       3.927  -4.141   8.404  1.00  0.00     0.165 HD
BRANCH   5  10
HETATM   10  C6  UNL     1       1.149  -0.733   9.379  1.00  0.00    -0.024 A 
HETATM   11  C7  UNL     1       1.338   0.552   9.786  1.00  0.00     0.012 A 
HETATM   12  C8  UNL     1       0.405   1.569   9.508  1.00  0.00     0.001 A 
HETATM   13  C9  UNL     1      -0.738   1.282   8.808  1.00  0.00     0.000 A 
HETATM   14  C10 UNL     1      -0.954  -0.001   8.387  1.00  0.00     0.001 A 
HETATM   15  C11 UNL     1      -0.037  -0.986   8.664  1.00  0.00     0.012 A 
ENDBRANCH   5  10
BRANCH   8  16
HETATM   16  C14 UNL     1       4.187  -4.441  11.184  1.00  0.00     0.062 C 
BRANCH  16  17
HETATM   17  C15 UNL     1       3.262  -5.279  11.992  1.00  0.00     0.044 C 
BRANCH  17  18
HETATM   18  C16 UNL     1       3.373  -5.080  13.446  1.00  0.00    -0.058 A 
HETATM   19  C17 UNL     1       2.260  -5.024  14.253  1.00  0.00     0.007 A 
HETATM   20  C18 UNL     1       2.406  -4.837  15.632  1.00  0.00     0.001 A 
HETATM   21  C19 UNL     1       3.657  -4.709  16.195  1.00  0.00     0.000 A 
HETATM   22  C20 UNL     1       4.774  -4.764  15.405  1.00  0.00     0.001 A 
HETATM   23  C21 UNL     1       4.610  -4.950  14.034  1.00  0.00     0.007 A 
ENDBRANCH  17  18
ENDBRANCH  16  17
ENDBRANCH   8  16
ENDBRANCH   3   4
TORSDOF 5
ENDMDL
MODEL 5
REMARK VINA RESULT: -8.620213237      2.244      7.377
REMARK  5 active torsions:
REMARK  status: ('A' for Active; 'I' for Inactive)
REMARK    1  A    between atoms: C3_3  and  C4_4 
REMARK    2  A    between atoms: C5_5  and  C6_6 
REMARK    3  A    between atoms: C13_15  and  C14_16 
REMARK    4  A    between atoms: C14_16  and  C15_17 
REMARK    5  A    between atoms: C15_17  and  C16_18 
ROOT
HETATM    1  C1  UNL     1       2.729  -5.523  12.102  1.00  0.00     0.012 C 
HETATM    2  C2  UNL     1       2.236  -4.434  12.235  1.00  0.00    -0.113 C 
HETATM    3  C3  UNL     1       1.669  -3.127  12.410  1.00  0.00     0.134 C 
ENDROOT
BRANCH   3   4
HETATM    4  C4  UNL     1       2.503  -2.000  11.983  1.00  0.00    -0.012 A 
HETATM    5  C5  UNL     1       3.590  -1.485  12.647  1.00  0.00    -0.001 A 
HETATM    6  C12 UNL     1       4.065  -0.460  11.818  1.00  0.00     0.101 A 
HETATM    7  N1  UNL     1       3.300  -0.389  10.739  1.00  0.00    -0.368 N 
HETATM    8  C13 UNL     1       2.318  -1.314  10.784  1.00  0.00     0.017 A 
ATOM      9  H1  UNL     1       3.434   0.275   9.977  1.00  0.00     0.165 HD
BRANCH   5  10
HETATM   10  C6  UNL     1       4.245  -1.791  13.896  1.00  0.00    -0.024 A 
HETATM   11  C7  UNL     1       4.563  -3.033  14.354  1.00  0.00     0.012 A 
HETATM   12  C8  UNL     1       5.221  -3.230  15.583  1.00  0.00     0.001 A 
HETATM   13  C9  UNL     1       5.562  -2.155  16.362  1.00  0.00     0.000 A 
HETATM   14  C10 UNL     1       5.254  -0.896  15.927  1.00  0.00     0.001 A 
HETATM   15  C11 UNL     1       4.611  -0.714  14.726  1.00  0.00     0.012 A 
ENDBRANCH   5  10
BRANCH   8  16
HETATM   16  C14 UNL     1       1.267  -1.494   9.740  1.00  0.00     0.062 C 
BRANCH  16  17
HETATM   17  C15 UNL     1       0.455  -0.255   9.602  1.00  0.00     0.044 C 
BRANCH  17  18
HETATM   18  C16 UNL     1      -0.243  -0.124   8.314  1.00  0.00    -0.058 A 
HETATM   19  C17 UNL     1       0.284   0.614   7.281  1.00  0.00     0.007 A 
HETATM   20  C18 UNL     1      -0.408   0.714   6.068  1.00  0.00     0.001 A 
HETATM   21  C19 UNL     1      -1.617   0.076   5.896  1.00  0.00     0.000 A 
HETATM   22  C20 UNL     1      -2.155  -0.663   6.915  1.00  0.00     0.001 A 
HETATM   23  C21 UNL     1      -1.452  -0.750   8.115  1.00  0.00     0.007 A 
ENDBRANCH  17  18
ENDBRANCH  16  17
ENDBRANCH   8  16
ENDBRANCH   3   4
TORSDOF 5
ENDMDL
