MODEL 1
REMARK VINA RESULT: -5.021568322      0.000      0.000
REMARK  7 active torsions:
REMARK  status: ('A' for Active; 'I' for Inactive)
REMARK    1  A    between atoms: N1_2  and  N2_3 
REMARK       I    between atoms: N2_3  and  C2_5 
REMARK       I    between atoms: C2_5  and  N4_9 
REMARK    2  A    between atoms: N4_9  and  C3_11 
REMARK    3  A    between atoms: C3_11  and  C4_12 
REMARK       I    between atoms: C4_12  and  N5_14 
REMARK    4  A    between atoms: N5_14  and  C5_16 
REMARK    5  A    between atoms: C5_16  and  C6_17 
REMARK       I    between atoms: C6_17  and  N6_19 
REMARK    6  A    between atoms: N6_19  and  C7_21 
REMARK    7  A    between atoms: N7_22  and  N8_24 
ROOT
HETATM    1  C4  UNL     1      27.394  26.239   8.615  1.00  0.00     0.236 C 
HETATM    2  O1  UNL     1      27.918  27.142   9.319  1.00  0.00    -0.272 OA
HETATM    3  N5  UNL     1      28.220  25.506   7.716  1.00  0.00    -0.351 N 
ATOM      4  H5  UNL     1      27.829  24.766   7.131  1.00  0.00     0.163 HD
ENDROOT
BRANCH   1   5
HETATM    5  C3  UNL     1      25.947  25.926   8.705  1.00  0.00     0.240 C 
BRANCH   5   6
HETATM    6  N4  UNL     1      25.207  27.035   8.158  1.00  0.00    -0.217 N 
HETATM    7  C2  UNL     1      23.971  27.401   8.755  1.00  0.00     0.683 C 
HETATM    8  N2  UNL     1      23.829  27.431  10.186  1.00  0.00    -0.137 N 
HETATM    9  N3  UNL     1      22.987  27.701   7.981  1.00  0.00    -0.234 N 
ATOM     10  H2  UNL     1      23.544  26.592  10.690  1.00  0.00     0.201 HD
ATOM     11  H32 UNL     1      22.099  27.964   8.409  1.00  0.00     0.174 HD
ATOM     12  H31 UNL     1      23.088  27.680   6.966  1.00  0.00     0.174 HD
ATOM     13  H4  UNL     1      25.566  27.551   7.354  1.00  0.00     0.178 HD
BRANCH   8  14
HETATM   14  N1  UNL     1      24.082  28.611  10.879  1.00  0.00    -0.131 NA
HETATM   15  C1  UNL     1      25.418  28.572  11.467  1.00  0.00     0.159 C 
ENDBRANCH   8  14
ENDBRANCH   5   6
ENDBRANCH   1   5
BRANCH   3  16
HETATM   16  C5  UNL     1      29.607  25.830   7.655  1.00  0.00     0.225 C 
BRANCH  16  17
HETATM   17  C6  UNL     1      30.497  25.152   8.582  1.00  0.00     0.240 C 
HETATM   18  O2  UNL     1      30.147  23.991   8.986  1.00  0.00    -0.271 OA
HETATM   19  N6  UNL     1      31.703  25.710   9.045  1.00  0.00    -0.321 N 
ATOM     20  H6  UNL     1      31.975  26.637   8.717  1.00  0.00     0.169 HD
BRANCH  19  21
HETATM   21  C7  UNL     1      32.563  25.021   9.959  1.00  0.00     0.199 C 
HETATM   22  N7  UNL     1      32.159  24.784  11.148  1.00  0.00    -0.303 N 
ATOM     23  H7  UNL     1      31.225  25.095  11.418  1.00  0.00     0.187 HD
BRANCH  22  24
HETATM   24  N8  UNL     1      32.941  24.118  12.093  1.00  0.00    -0.344 N 
ATOM     25  H82 UNL     1      33.920  23.952  11.862  1.00  0.00     0.176 HD
ATOM     26  H81 UNL     1      32.573  23.799  12.989  1.00  0.00     0.176 HD
ENDBRANCH  22  24
ENDBRANCH  19  21
ENDBRANCH  16  17
ENDBRANCH   3  16
TORSDOF 7
ENDMDL
MODEL 2
REMARK VINA RESULT: -4.890102188      2.044      7.354
REMARK  7 active torsions:
REMARK  status: ('A' for Active; 'I' for Inactive)
REMARK    1  A    between atoms: N1_2  and  N2_3 
REMARK       I    between atoms: N2_3  and  C2_5 
REMARK       I    between atoms: C2_5  and  N4_9 
REMARK    2  A    between atoms: N4_9  and  C3_11 
REMARK    3  A    between atoms: C3_11  and  C4_12 
REMARK       I    between atoms: C4_12  and  N5_14 
REMARK    4  A    between atoms: N5_14  and  C5_16 
REMARK    5  A    between atoms: C5_16  and  C6_17 
REMARK       I    between atoms: C6_17  and  N6_19 
REMARK    6  A    between atoms: N6_19  and  C7_21 
REMARK    7  A    between atoms: N7_22  and  N8_24 
ROOT
HETATM    1  C4  UNL     1      28.881  26.500   8.730  1.00  0.00     0.236 C 
HETATM    2  O1  UNL     1      28.935  26.538   9.987  1.00  0.00    -0.272 OA
HETATM    3  N5  UNL     1      28.055  27.440   8.051  1.00  0.00    -0.351 N 
ATOM      4  H5  UNL     1      27.988  27.438   7.032  1.00  0.00     0.163 HD
ENDROOT
BRANCH   1   5
HETATM    5  C3  UNL     1      29.655  25.504   7.949  1.00  0.00     0.240 C 
BRANCH   5   6
HETATM    6  N4  UNL     1      30.750  25.040   8.763  1.00  0.00    -0.217 N 
HETATM    7  C2  UNL     1      32.066  25.486   8.466  1.00  0.00     0.683 C 
HETATM    8  N2  UNL     1      32.314  26.861   8.124  1.00  0.00    -0.137 N 
HETATM    9  N3  UNL     1      33.025  24.628   8.512  1.00  0.00    -0.234 N 
ATOM     10  H2  UNL     1      32.256  27.166   7.153  1.00  0.00     0.201 HD
ATOM     11  H32 UNL     1      33.969  24.948   8.299  1.00  0.00     0.174 HD
ATOM     12  H31 UNL     1      32.848  23.653   8.755  1.00  0.00     0.174 HD
ATOM     13  H4  UNL     1      30.584  24.402   9.541  1.00  0.00     0.178 HD
BRANCH   8  14
HETATM   14  N1  UNL     1      32.635  27.774   9.125  1.00  0.00    -0.131 NA
HETATM   15  C1  UNL     1      31.646  28.848   9.160  1.00  0.00     0.159 C 
ENDBRANCH   8  14
ENDBRANCH   5   6
ENDBRANCH   1   5
BRANCH   3  16
HETATM   16  C5  UNL     1      27.324  28.384   8.830  1.00  0.00     0.225 C 
BRANCH  16  17
HETATM   17  C6  UNL     1      25.890  28.185   8.955  1.00  0.00     0.240 C 
HETATM   18  O2  UNL     1      25.248  29.002   9.700  1.00  0.00    -0.271 OA
HETATM   19  N6  UNL     1      25.193  27.149   8.305  1.00  0.00    -0.321 N 
ATOM     20  H6  UNL     1      25.712  26.502   7.713  1.00  0.00     0.169 HD
BRANCH  19  21
HETATM   21  C7  UNL     1      23.779  26.974   8.446  1.00  0.00     0.199 C 
HETATM   22  N7  UNL     1      22.981  27.759   7.830  1.00  0.00    -0.303 N 
ATOM     23  H7  UNL     1      23.376  28.498   7.247  1.00  0.00     0.187 HD
BRANCH  22  24
HETATM   24  N8  UNL     1      21.593  27.649   7.919  1.00  0.00    -0.344 N 
ATOM     25  H82 UNL     1      21.213  26.797   8.332  1.00  0.00     0.176 HD
ATOM     26  H81 UNL     1      20.958  28.377   7.593  1.00  0.00     0.176 HD
ENDBRANCH  22  24
ENDBRANCH  19  21
ENDBRANCH  16  17
ENDBRANCH   3  16
TORSDOF 7
ENDMDL
MODEL 3
REMARK VINA RESULT: -4.866208220      1.919      2.132
REMARK  7 active torsions:
REMARK  status: ('A' for Active; 'I' for Inactive)
REMARK    1  A    between atoms: N1_2  and  N2_3 
REMARK       I    between atoms: N2_3  and  C2_5 
REMARK       I    between atoms: C2_5  and  N4_9 
REMARK    2  A    between atoms: N4_9  and  C3_11 
REMARK    3  A    between atoms: C3_11  and  C4_12 
REMARK       I    between atoms: C4_12  and  N5_14 
REMARK    4  A    between atoms: N5_14  and  C5_16 
REMARK    5  A    between atoms: C5_16  and  C6_17 
REMARK       I    between atoms: C6_17  and  N6_19 
REMARK    6  A    between atoms: N6_19  and  C7_21 
REMARK    7  A    between atoms: N7_22  and  N8_24 
ROOT
HETATM    1  C4  UNL     1      26.456  26.702   9.104  1.00  0.00     0.236 C 
HETATM    2  O1  UNL     1      26.751  26.255  10.243  1.00  0.00    -0.272 OA
HETATM    3  N5  UNL     1      27.353  27.607   8.470  1.00  0.00    -0.351 N 
ATOM      4  H5  UNL     1      27.146  27.989   7.546  1.00  0.00     0.163 HD
ENDROOT
BRANCH   1   5
HETATM    5  C3  UNL     1      25.203  26.306   8.415  1.00  0.00     0.240 C 
BRANCH   5   6
HETATM    6  N4  UNL     1      24.423  27.494   8.173  1.00  0.00    -0.217 N 
HETATM    7  C2  UNL     1      23.008  27.421   8.276  1.00  0.00     0.683 C 
HETATM    8  N2  UNL     1      22.387  26.690   9.348  1.00  0.00    -0.137 N 
HETATM    9  N3  UNL     1      22.301  28.026   7.386  1.00  0.00    -0.234 N 
ATOM     10  H2  UNL     1      22.185  25.696   9.240  1.00  0.00     0.201 HD
ATOM     11  H32 UNL     1      21.285  27.975   7.460  1.00  0.00     0.174 HD
ATOM     12  H31 UNL     1      22.741  28.545   6.625  1.00  0.00     0.174 HD
ATOM     13  H4  UNL     1      24.880  28.373   7.931  1.00  0.00     0.178 HD
BRANCH   8  14
HETATM   14  N1  UNL     1      22.064  27.345  10.533  1.00  0.00    -0.131 NA
HETATM   15  C1  UNL     1      23.124  27.153  11.518  1.00  0.00     0.159 C 
ENDBRANCH   8  14
ENDBRANCH   5   6
ENDBRANCH   1   5
BRANCH   3  16
HETATM   16  C5  UNL     1      28.549  27.967   9.158  1.00  0.00     0.225 C 
BRANCH  16  17
HETATM   17  C6  UNL     1      29.736  27.167   8.905  1.00  0.00     0.240 C 
HETATM   18  O2  UNL     1      30.835  27.793   8.723  1.00  0.00    -0.271 OA
HETATM   19  N6  UNL     1      29.724  25.761   8.853  1.00  0.00    -0.321 N 
ATOM     20  H6  UNL     1      28.843  25.270   9.000  1.00  0.00     0.169 HD
BRANCH  19  21
HETATM   21  C7  UNL     1      30.908  24.996   8.601  1.00  0.00     0.199 C 
HETATM   22  N7  UNL     1      31.848  24.984   9.467  1.00  0.00    -0.303 N 
ATOM     23  H7  UNL     1      31.729  25.526  10.323  1.00  0.00     0.187 HD
BRANCH  22  24
HETATM   24  N8  UNL     1      33.029  24.263   9.291  1.00  0.00    -0.344 N 
ATOM     25  H82 UNL     1      32.965  23.245   9.296  1.00  0.00     0.176 HD
ATOM     26  H81 UNL     1      33.936  24.710   9.159  1.00  0.00     0.176 HD
ENDBRANCH  22  24
ENDBRANCH  19  21
ENDBRANCH  16  17
ENDBRANCH   3  16
TORSDOF 7
ENDMDL
MODEL 4
REMARK VINA RESULT: -4.785887512      2.602      7.404
REMARK  7 active torsions:
REMARK  status: ('A' for Active; 'I' for Inactive)
REMARK    1  A    between atoms: N1_2  and  N2_3 
REMARK       I    between atoms: N2_3  and  C2_5 
REMARK       I    between atoms: C2_5  and  N4_9 
REMARK    2  A    between atoms: N4_9  and  C3_11 
REMARK    3  A    between atoms: C3_11  and  C4_12 
REMARK       I    between atoms: C4_12  and  N5_14 
REMARK    4  A    between atoms: N5_14  and  C5_16 
REMARK    5  A    between atoms: C5_16  and  C6_17 
REMARK       I    between atoms: C6_17  and  N6_19 
REMARK    6  A    between atoms: N6_19  and  C7_21 
REMARK    7  A    between atoms: N7_22  and  N8_24 
ROOT
HETATM    1  C4  UNL     1      26.236  27.650   9.622  1.00  0.00     0.236 C 
HETATM    2  O1  UNL     1      26.035  28.710  10.271  1.00  0.00    -0.272 OA
HETATM    3  N5  UNL     1      25.150  27.064   8.913  1.00  0.00    -0.351 N 
ATOM      4  H5  UNL     1      25.277  26.206   8.376  1.00  0.00     0.163 HD
ENDROOT
BRANCH   1   5
HETATM    5  C3  UNL     1      27.572  27.006   9.581  1.00  0.00     0.240 C 
BRANCH   5   6
HETATM    6  N4  UNL     1      27.621  26.134   8.435  1.00  0.00    -0.217 N 
HETATM    7  C2  UNL     1      28.878  25.856   7.834  1.00  0.00     0.683 C 
HETATM    8  N2  UNL     1      30.036  25.593   8.645  1.00  0.00    -0.137 N 
HETATM    9  N3  UNL     1      28.949  25.847   6.549  1.00  0.00    -0.234 N 
ATOM     10  H2  UNL     1      30.631  26.362   8.954  1.00  0.00     0.201 HD
ATOM     11  H32 UNL     1      29.851  25.647   6.117  1.00  0.00     0.174 HD
ATOM     12  H31 UNL     1      28.127  26.033   5.973  1.00  0.00     0.174 HD
ATOM     13  H4  UNL     1      26.766  25.722   8.061  1.00  0.00     0.178 HD
BRANCH   8  14
HETATM   14  N1  UNL     1      30.343  24.284   9.007  1.00  0.00    -0.131 NA
HETATM   15  C1  UNL     1      31.550  24.259   9.828  1.00  0.00     0.159 C 
ENDBRANCH   8  14
ENDBRANCH   5   6
ENDBRANCH   1   5
BRANCH   3  16
HETATM   16  C5  UNL     1      23.879  27.708   8.971  1.00  0.00     0.225 C 
BRANCH  16  17
HETATM   17  C6  UNL     1      22.975  27.315  10.039  1.00  0.00     0.240 C 
HETATM   18  O2  UNL     1      21.752  27.115   9.727  1.00  0.00    -0.271 OA
HETATM   19  N6  UNL     1      23.383  27.148  11.376  1.00  0.00    -0.321 N 
ATOM     20  H6  UNL     1      24.361  27.310  11.616  1.00  0.00     0.169 HD
BRANCH  19  21
HETATM   21  C7  UNL     1      22.472  26.760  12.410  1.00  0.00     0.199 C 
HETATM   22  N7  UNL     1      21.329  27.324  12.489  1.00  0.00    -0.303 N 
ATOM     23  H7  UNL     1      21.092  28.045  11.806  1.00  0.00     0.187 HD
BRANCH  22  24
HETATM   24  N8  UNL     1      20.390  26.998  13.469  1.00  0.00    -0.344 N 
ATOM     25  H82 UNL     1      20.632  26.254  14.124  1.00  0.00     0.176 HD
ATOM     26  H81 UNL     1      19.489  27.468  13.551  1.00  0.00     0.176 HD
ENDBRANCH  22  24
ENDBRANCH  19  21
ENDBRANCH  16  17
ENDBRANCH   3  16
TORSDOF 7
ENDMDL
MODEL 5
REMARK VINA RESULT: -4.780853327      1.853      7.281
REMARK  7 active torsions:
REMARK  status: ('A' for Active; 'I' for Inactive)
REMARK    1  A    between atoms: N1_2  and  N2_3 
REMARK       I    between atoms: N2_3  and  C2_5 
REMARK       I    between atoms: C2_5  and  N4_9 
REMARK    2  A    between atoms: N4_9  and  C3_11 
REMARK    3  A    between atoms: C3_11  and  C4_12 
REMARK       I    between atoms: C4_12  and  N5_14 
REMARK    4  A    between atoms: N5_14  and  C5_16 
REMARK    5  A    between atoms: C5_16  and  C6_17 
REMARK       I    between atoms: C6_17  and  N6_19 
REMARK    6  A    between atoms: N6_19  and  C7_21 
REMARK    7  A    between atoms: N7_22  and  N8_24 
ROOT
HETATM    1  C4  UNL     1      28.457  26.558   8.386  1.00  0.00     0.236 C 
HETATM    2  O1  UNL     1      28.152  26.159   9.540  1.00  0.00    -0.272 OA
HETATM    3  N5  UNL     1      28.015  27.846   7.968  1.00  0.00    -0.351 N 
ATOM      4  H5  UNL     1      28.244  28.202   7.040  1.00  0.00     0.163 HD
ENDROOT
BRANCH   1   5
HETATM    5  C3  UNL     1      29.262  25.723   7.461  1.00  0.00     0.240 C 
BRANCH   5   6
HETATM    6  N4  UNL     1      30.625  26.189   7.497  1.00  0.00    -0.217 N 
HETATM    7  C2  UNL     1      31.304  26.235   8.744  1.00  0.00     0.683 C 
HETATM    8  N2  UNL     1      31.175  25.159   9.690  1.00  0.00    -0.137 N 
HETATM    9  N3  UNL     1      32.035  27.264   9.001  1.00  0.00    -0.234 N 
ATOM     10  H2  UNL     1      30.423  25.170  10.378  1.00  0.00     0.201 HD
ATOM     11  H32 UNL     1      32.523  27.298   9.896  1.00  0.00     0.174 HD
ATOM     12  H31 UNL     1      32.126  28.027   8.330  1.00  0.00     0.174 HD
ATOM     13  H4  UNL     1      31.095  26.481   6.641  1.00  0.00     0.178 HD
BRANCH   8  14
HETATM   14  N1  UNL     1      32.082  24.104   9.662  1.00  0.00    -0.131 NA
HETATM   15  C1  UNL     1      33.030  24.226  10.765  1.00  0.00     0.159 C 
ENDBRANCH   8  14
ENDBRANCH   5   6
ENDBRANCH   1   5
BRANCH   3  16
HETATM   16  C5  UNL     1      27.244  28.625   8.880  1.00  0.00     0.225 C 
BRANCH  16  17
HETATM   17  C6  UNL     1      25.821  28.342   8.969  1.00  0.00     0.240 C 
HETATM   18  O2  UNL     1      25.106  29.146   9.658  1.00  0.00    -0.271 OA
HETATM   19  N6  UNL     1      25.210  27.241   8.339  1.00  0.00    -0.321 N 
ATOM     20  H6  UNL     1      25.788  26.605   7.791  1.00  0.00     0.169 HD
BRANCH  19  21
HETATM   21  C7  UNL     1      23.805  26.985   8.442  1.00  0.00     0.199 C 
HETATM   22  N7  UNL     1      22.977  27.765   7.861  1.00  0.00    -0.303 N 
ATOM     23  H7  UNL     1      23.342  28.559   7.333  1.00  0.00     0.187 HD
BRANCH  22  24
HETATM   24  N8  UNL     1      21.595  27.578   7.917  1.00  0.00    -0.344 N 
ATOM     25  H82 UNL     1      21.034  28.331   8.316  1.00  0.00     0.176 HD
ATOM     26  H81 UNL     1      21.137  26.732   7.579  1.00  0.00     0.176 HD
ENDBRANCH  22  24
ENDBRANCH  19  21
ENDBRANCH  16  17
ENDBRANCH   3  16
TORSDOF 7
ENDMDL
