MODEL 1
REMARK VINA RESULT: -4.894106364      0.000      0.000
REMARK  7 active torsions:
REMARK  status: ('A' for Active; 'I' for Inactive)
REMARK    1  A    between atoms: C1_4  and  N2_5 
REMARK    2  A    between atoms: N2_5  and  C2_7 
REMARK    3  A    between atoms: C3_8  and  O1_9 
REMARK    4  A    between atoms: C4_11  and  O2_12 
REMARK    5  A    between atoms: C5_14  and  N3_15 
REMARK    6  A    between atoms: N3_15  and  C6_17 
REMARK    7  A    between atoms: C7_19  and  N4_20 
ROOT
HETATM    1  C2  UNL     1      25.969  27.019   9.731  1.00  0.00     0.138 C 
HETATM    2  C3  UNL     1      26.677  27.688  10.885  1.00  0.00     0.173 C 
HETATM    3  C4  UNL     1      25.701  27.851  11.999  1.00  0.00     0.173 C 
HETATM    4  C5  UNL     1      24.318  27.624  11.418  1.00  0.00     0.140 C 
HETATM    5  C7  UNL     1      24.491  27.024  10.063  1.00  0.00     0.134 C 
ENDROOT
BRANCH   1   6
HETATM    6  N2  UNL     1      26.258  27.651   8.471  1.00  0.00    -0.377 N 
ATOM      7  H2  UNL     1      25.581  27.553   7.714  1.00  0.00     0.160 HD
BRANCH   6   8
HETATM    8  C1  UNL     1      27.436  28.403   8.228  1.00  0.00     0.169 C 
HETATM    9  N1  UNL     1      28.434  27.808   7.672  1.00  0.00    -0.396 N 
ATOM     10  H12 UNL     1      28.363  26.823   7.420  1.00  0.00     0.156 HD
ATOM     11  H11 UNL     1      29.281  28.349   7.498  1.00  0.00     0.156 HD
ENDBRANCH   6   8
ENDBRANCH   1   6
BRANCH   2  12
HETATM   12  O1  UNL     1      27.785  26.919  11.228  1.00  0.00    -0.391 OA
ATOM     13  H1  UNL     1      27.677  26.617  12.122  1.00  0.00     0.210 HD
ENDBRANCH   2  12
BRANCH   5  14
HETATM   14  N4  UNL     1      23.813  27.709   9.014  1.00  0.00    -0.358 N 
HETATM   15  C8  UNL     1      22.587  27.753   8.763  1.00  0.00     0.197 C 
HETATM   16  N5  UNL     1      22.088  28.490   7.670  1.00  0.00    -0.067 NA
HETATM   17  N6  UNL     1      21.678  27.056   9.584  1.00  0.00    -0.067 NA
ATOM     18  H4  UNL     1      24.410  28.237   8.377  1.00  0.00     0.162 HD
ENDBRANCH   5  14
BRANCH   3  19
HETATM   19  O2  UNL     1      25.802  29.152  12.547  1.00  0.00    -0.391 OA
ATOM     20  H2  UNL     1      25.977  29.784  11.860  1.00  0.00     0.210 HD
ENDBRANCH   3  19
BRANCH   4  21
HETATM   21  N3  UNL     1      23.605  26.758  12.312  1.00  0.00    -0.359 N 
ATOM     22  H3  UNL     1      23.824  25.762  12.337  1.00  0.00     0.162 HD
BRANCH  21  23
HETATM   23  C6  UNL     1      22.608  27.276  13.154  1.00  0.00     0.349 C 
HETATM   24  O3  UNL     1      22.389  28.488  13.390  1.00  0.00    -0.284 OA
ENDBRANCH  21  23
ENDBRANCH   4  21
TORSDOF 7
ENDMDL
MODEL 2
REMARK VINA RESULT: -4.715368228      1.786      2.010
REMARK  7 active torsions:
REMARK  status: ('A' for Active; 'I' for Inactive)
REMARK    1  A    between atoms: C1_4  and  N2_5 
REMARK    2  A    between atoms: N2_5  and  C2_7 
REMARK    3  A    between atoms: C3_8  and  O1_9 
REMARK    4  A    between atoms: C4_11  and  O2_12 
REMARK    5  A    between atoms: C5_14  and  N3_15 
REMARK    6  A    between atoms: N3_15  and  C6_17 
REMARK    7  A    between atoms: C7_19  and  N4_20 
ROOT
HETATM    1  C2  UNL     1      25.956  26.636   9.413  1.00  0.00     0.138 C 
HETATM    2  C3  UNL     1      27.223  27.452   9.500  1.00  0.00     0.173 C 
HETATM    3  C4  UNL     1      26.908  28.732  10.193  1.00  0.00     0.173 C 
HETATM    4  C5  UNL     1      25.396  28.870  10.208  1.00  0.00     0.140 C 
HETATM    5  C7  UNL     1      24.819  27.551   9.819  1.00  0.00     0.134 C 
ENDROOT
BRANCH   1   6
HETATM    6  N2  UNL     1      25.765  26.059   8.109  1.00  0.00    -0.377 N 
ATOM      7  H2  UNL     1      25.127  26.524   7.462  1.00  0.00     0.160 HD
BRANCH   6   8
HETATM    8  C1  UNL     1      26.418  24.876   7.676  1.00  0.00     0.169 C 
HETATM    9  N1  UNL     1      27.686  24.926   7.457  1.00  0.00    -0.396 N 
ATOM     10  H12 UNL     1      28.193  25.800   7.596  1.00  0.00     0.156 HD
ATOM     11  H11 UNL     1      28.155  24.075   7.146  1.00  0.00     0.156 HD
ENDBRANCH   6   8
ENDBRANCH   1   6
BRANCH   2  12
HETATM   12  O1  UNL     1      28.191  26.694  10.153  1.00  0.00    -0.391 OA
ATOM     13  H1  UNL     1      28.987  26.711   9.635  1.00  0.00     0.210 HD
ENDBRANCH   2  12
BRANCH   5  14
HETATM   14  N4  UNL     1      23.891  27.598   8.739  1.00  0.00    -0.358 N 
HETATM   15  C8  UNL     1      22.650  27.435   8.757  1.00  0.00     0.197 C 
HETATM   16  N5  UNL     1      21.882  27.518   7.578  1.00  0.00    -0.067 NA
HETATM   17  N6  UNL     1      21.996  27.163   9.975  1.00  0.00    -0.067 NA
ATOM     18  H4  UNL     1      24.295  27.791   7.822  1.00  0.00     0.162 HD
ENDBRANCH   5  14
BRANCH   3  19
HETATM   19  O2  UNL     1      27.499  29.817   9.503  1.00  0.00    -0.391 OA
ATOM     20  H2  UNL     1      26.831  30.326   9.060  1.00  0.00     0.210 HD
ENDBRANCH   3  19
BRANCH   4  21
HETATM   21  N3  UNL     1      25.007  29.270  11.530  1.00  0.00    -0.359 N 
ATOM     22  H3  UNL     1      25.140  30.236  11.828  1.00  0.00     0.162 HD
BRANCH  21  23
HETATM   23  C6  UNL     1      24.445  28.337  12.414  1.00  0.00     0.349 C 
HETATM   24  O3  UNL     1      23.315  28.409  12.953  1.00  0.00    -0.284 OA
ENDBRANCH  21  23
ENDBRANCH   4  21
TORSDOF 7
ENDMDL
MODEL 3
REMARK VINA RESULT: -4.607189142      2.605      3.868
REMARK  7 active torsions:
REMARK  status: ('A' for Active; 'I' for Inactive)
REMARK    1  A    between atoms: C1_4  and  N2_5 
REMARK    2  A    between atoms: N2_5  and  C2_7 
REMARK    3  A    between atoms: C3_8  and  O1_9 
REMARK    4  A    between atoms: C4_11  and  O2_12 
REMARK    5  A    between atoms: C5_14  and  N3_15 
REMARK    6  A    between atoms: N3_15  and  C6_17 
REMARK    7  A    between atoms: C7_19  and  N4_20 
ROOT
HETATM    1  C2  UNL     1      25.522  28.693  10.396  1.00  0.00     0.138 C 
HETATM    2  C3  UNL     1      26.496  28.096   9.410  1.00  0.00     0.173 C 
HETATM    3  C4  UNL     1      25.744  27.176   8.511  1.00  0.00     0.173 C 
HETATM    4  C5  UNL     1      24.396  26.922   9.160  1.00  0.00     0.140 C 
HETATM    5  C7  UNL     1      24.227  27.920  10.255  1.00  0.00     0.134 C 
ENDROOT
BRANCH   1   6
HETATM    6  N2  UNL     1      26.031  28.683  11.742  1.00  0.00    -0.377 N 
ATOM      7  H2  UNL     1      25.838  27.869  12.326  1.00  0.00     0.160 HD
BRANCH   6   8
HETATM    8  C1  UNL     1      26.786  29.747  12.298  1.00  0.00     0.169 C 
HETATM    9  N1  UNL     1      27.054  30.760  11.549  1.00  0.00    -0.396 N 
ATOM     10  H12 UNL     1      26.726  30.781  10.584  1.00  0.00     0.156 HD
ATOM     11  H11 UNL     1      27.598  31.525  11.949  1.00  0.00     0.156 HD
ENDBRANCH   6   8
ENDBRANCH   1   6
BRANCH   2  12
HETATM   12  O1  UNL     1      27.130  29.134   8.733  1.00  0.00    -0.391 OA
ATOM     13  H1  UNL     1      27.023  28.995   7.800  1.00  0.00     0.210 HD
ENDBRANCH   2  12
BRANCH   5  14
HETATM   14  N4  UNL     1      23.912  27.364  11.529  1.00  0.00    -0.358 N 
HETATM   15  C8  UNL     1      22.810  26.954  11.960  1.00  0.00     0.197 C 
HETATM   16  N5  UNL     1      22.681  26.430  13.262  1.00  0.00    -0.067 NA
HETATM   17  N6  UNL     1      21.668  27.014  11.136  1.00  0.00    -0.067 NA
ATOM     18  H4  UNL     1      24.693  27.290  12.180  1.00  0.00     0.162 HD
ENDBRANCH   5  14
BRANCH   3  19
HETATM   19  O2  UNL     1      26.456  25.963   8.352  1.00  0.00    -0.391 OA
ATOM     20  H2  UNL     1      26.307  25.608   7.484  1.00  0.00     0.210 HD
ENDBRANCH   3  19
BRANCH   4  21
HETATM   21  N3  UNL     1      23.391  27.049   8.143  1.00  0.00    -0.359 N 
ATOM     22  H3  UNL     1      23.230  26.283   7.490  1.00  0.00     0.162 HD
BRANCH  21  23
HETATM   23  C6  UNL     1      22.630  28.225   8.045  1.00  0.00     0.349 C 
HETATM   24  O3  UNL     1      21.425  28.306   7.708  1.00  0.00    -0.284 OA
ENDBRANCH  21  23
ENDBRANCH   4  21
TORSDOF 7
ENDMDL
MODEL 4
REMARK VINA RESULT: -4.589568625      1.786      4.677
REMARK  7 active torsions:
REMARK  status: ('A' for Active; 'I' for Inactive)
REMARK    1  A    between atoms: C1_4  and  N2_5 
REMARK    2  A    between atoms: N2_5  and  C2_7 
REMARK    3  A    between atoms: C3_8  and  O1_9 
REMARK    4  A    between atoms: C4_11  and  O2_12 
REMARK    5  A    between atoms: C5_14  and  N3_15 
REMARK    6  A    between atoms: N3_15  and  C6_17 
REMARK    7  A    between atoms: C7_19  and  N4_20 
ROOT
HETATM    1  C2  UNL     1      22.963  27.391  12.181  1.00  0.00     0.138 C 
HETATM    2  C3  UNL     1      23.964  26.648  13.033  1.00  0.00     0.173 C 
HETATM    3  C4  UNL     1      25.265  26.620  12.308  1.00  0.00     0.173 C 
HETATM    4  C5  UNL     1      24.982  27.014  10.870  1.00  0.00     0.140 C 
HETATM    5  C7  UNL     1      23.600  27.575  10.819  1.00  0.00     0.134 C 
ENDROOT
BRANCH   1   6
HETATM    6  N2  UNL     1      21.694  26.716  12.114  1.00  0.00    -0.377 N 
ATOM      7  H2  UNL     1      21.589  25.947  11.451  1.00  0.00     0.160 HD
BRANCH   6   8
HETATM    8  C1  UNL     1      20.581  27.066  12.921  1.00  0.00     0.169 C 
HETATM    9  N1  UNL     1      20.775  27.865  13.912  1.00  0.00    -0.396 N 
ATOM     10  H12 UNL     1      21.710  28.228  14.098  1.00  0.00     0.156 HD
ATOM     11  H11 UNL     1      19.975  28.116  14.493  1.00  0.00     0.156 HD
ENDBRANCH   6   8
ENDBRANCH   1   6
BRANCH   2  12
HETATM   12  O1  UNL     1      24.037  27.274  14.275  1.00  0.00    -0.391 OA
ATOM     13  H1  UNL     1      24.845  27.011  14.697  1.00  0.00     0.210 HD
ENDBRANCH   2  12
BRANCH   5  14
HETATM   14  N4  UNL     1      22.744  26.972   9.854  1.00  0.00    -0.358 N 
HETATM   15  C8  UNL     1      22.276  27.459   8.799  1.00  0.00     0.197 C 
HETATM   16  N5  UNL     1      21.435  26.708   7.954  1.00  0.00    -0.067 NA
HETATM   17  N6  UNL     1      22.590  28.785   8.441  1.00  0.00    -0.067 NA
ATOM     18  H4  UNL     1      22.474  26.008  10.048  1.00  0.00     0.162 HD
ENDBRANCH   5  14
BRANCH   3  19
HETATM   19  O2  UNL     1      25.825  25.321  12.365  1.00  0.00    -0.391 OA
ATOM     20  H2  UNL     1      26.748  25.373  12.585  1.00  0.00     0.210 HD
ENDBRANCH   3  19
BRANCH   4  21
HETATM   21  N3  UNL     1      25.976  27.971  10.476  1.00  0.00    -0.359 N 
ATOM     22  H3  UNL     1      25.809  28.967  10.624  1.00  0.00     0.162 HD
BRANCH  21  23
HETATM   23  C6  UNL     1      27.176  27.543   9.888  1.00  0.00     0.349 C 
HETATM   24  O3  UNL     1      27.681  26.398   9.975  1.00  0.00    -0.284 OA
ENDBRANCH  21  23
ENDBRANCH   4  21
TORSDOF 7
ENDMDL
MODEL 5
REMARK VINA RESULT: -4.544857151      2.593      3.861
REMARK  7 active torsions:
REMARK  status: ('A' for Active; 'I' for Inactive)
REMARK    1  A    between atoms: C1_4  and  N2_5 
REMARK    2  A    between atoms: N2_5  and  C2_7 
REMARK    3  A    between atoms: C3_8  and  O1_9 
REMARK    4  A    between atoms: C4_11  and  O2_12 
REMARK    5  A    between atoms: C5_14  and  N3_15 
REMARK    6  A    between atoms: N3_15  and  C6_17 
REMARK    7  A    between atoms: C7_19  and  N4_20 
ROOT
HETATM    1  C2  UNL     1      25.526  28.672  10.390  1.00  0.00     0.138 C 
HETATM    2  C3  UNL     1      26.490  28.067   9.397  1.00  0.00     0.173 C 
HETATM    3  C4  UNL     1      25.726  27.154   8.502  1.00  0.00     0.173 C 
HETATM    4  C5  UNL     1      24.379  26.911   9.158  1.00  0.00     0.140 C 
HETATM    5  C7  UNL     1      24.224  27.909  10.255  1.00  0.00     0.134 C 
ENDROOT
BRANCH   1   6
HETATM    6  N2  UNL     1      26.042  28.656  11.733  1.00  0.00    -0.377 N 
ATOM      7  H2  UNL     1      25.487  29.092  12.470  1.00  0.00     0.160 HD
BRANCH   6   8
HETATM    8  C1  UNL     1      27.283  28.065  12.084  1.00  0.00     0.169 C 
HETATM    9  N1  UNL     1      27.268  27.006  12.816  1.00  0.00    -0.396 N 
ATOM     10  H12 UNL     1      26.379  26.614  13.126  1.00  0.00     0.156 HD
ATOM     11  H11 UNL     1      28.160  26.581  13.069  1.00  0.00     0.156 HD
ENDBRANCH   6   8
ENDBRANCH   1   6
BRANCH   2  12
HETATM   12  O1  UNL     1      27.130  29.100   8.718  1.00  0.00    -0.391 OA
ATOM     13  H1  UNL     1      28.060  29.049   8.900  1.00  0.00     0.210 HD
ENDBRANCH   2  12
BRANCH   5  14
HETATM   14  N4  UNL     1      23.910  27.355  11.529  1.00  0.00    -0.358 N 
HETATM   15  C8  UNL     1      22.809  26.948  11.964  1.00  0.00     0.197 C 
HETATM   16  N5  UNL     1      22.683  26.425  13.266  1.00  0.00    -0.067 NA
HETATM   17  N6  UNL     1      21.666  27.010  11.143  1.00  0.00    -0.067 NA
ATOM     18  H4  UNL     1      24.693  27.280  12.179  1.00  0.00     0.162 HD
ENDBRANCH   5  14
BRANCH   3  19
HETATM   19  O2  UNL     1      26.426  25.934   8.338  1.00  0.00    -0.391 OA
ATOM     20  H2  UNL     1      27.119  25.866   8.984  1.00  0.00     0.210 HD
ENDBRANCH   3  19
BRANCH   4  21
HETATM   21  N3  UNL     1      23.370  27.048   8.146  1.00  0.00    -0.359 N 
ATOM     22  H3  UNL     1      23.199  26.284   7.492  1.00  0.00     0.162 HD
BRANCH  21  23
HETATM   23  C6  UNL     1      22.617  28.229   8.054  1.00  0.00     0.349 C 
HETATM   24  O3  UNL     1      21.413  28.320   7.717  1.00  0.00    -0.284 OA
ENDBRANCH  21  23
ENDBRANCH   4  21
TORSDOF 7
ENDMDL
