MODEL 1
REMARK VINA RESULT: -5.495286717      0.000      0.000
REMARK  6 active torsions:
REMARK  status: ('A' for Active; 'I' for Inactive)
REMARK    1  A    between atoms: N2_4  and  N3_6 
REMARK    2  A    between atoms: N3_6  and  C1_8 
REMARK    3  A    between atoms: C1_8  and  C2_9 
REMARK    4  A    between atoms: C2_9  and  N4_10 
REMARK    5  A    between atoms: C2_9  and  N8_22 
REMARK    6  A    between atoms: C3_12  and  C4_13 
ROOT
HETATM    1  C2  UNL     1      28.657  27.516   8.379  1.00  0.00     0.202 C 
ENDROOT
BRANCH   1   2
HETATM    2  C1  UNL     1      29.233  28.475   9.396  1.00  0.00     0.187 C 
BRANCH   2   3
HETATM    3  N3  UNL     1      30.430  29.108   8.945  1.00  0.00    -0.319 N 
ATOM      4  H3  UNL     1      30.380  29.877   8.276  1.00  0.00     0.181 HD
BRANCH   3   5
HETATM    5  N2  UNL     1      31.667  28.676   9.417  1.00  0.00    -0.254 N 
HETATM    6  N1  UNL     1      32.631  28.628   8.588  1.00  0.00    -0.331 N 
ATOM      7  H12 UNL     1      32.486  28.899   7.616  1.00  0.00     0.178 HD
ATOM      8  H11 UNL     1      33.537  28.311   8.934  1.00  0.00     0.178 HD
ATOM      9  H2  UNL     1      31.796  28.409  10.393  1.00  0.00     0.207 HD
ENDBRANCH   3   5
ENDBRANCH   2   3
ENDBRANCH   1   2
BRANCH   1  10
HETATM   10  N4  UNL     1      27.225  27.645   8.261  1.00  0.00    -0.374 N 
HETATM   11  C3  UNL     1      26.479  27.044   9.117  1.00  0.00     0.118 C 
ATOM     12  H4  UNL     1      26.813  28.203   7.514  1.00  0.00     0.161 HD
BRANCH  11  13
HETATM   13  C4  UNL     1      25.010  27.135   9.052  1.00  0.00     0.093 A 
HETATM   14  N5  UNL     1      24.225  27.011   7.992  1.00  0.00    -0.304 N 
HETATM   15  C5  UNL     1      22.946  27.163   8.368  1.00  0.00     0.326 A 
ATOM     16  H5  UNL     1      24.542  26.829   7.040  1.00  0.00     0.171 HD
HETATM   17  O1  UNL     1      21.955  27.101   7.595  1.00  0.00    -0.247 OA
HETATM   18  N6  UNL     1      22.963  27.385   9.692  1.00  0.00    -0.295 N 
HETATM   19  C6  UNL     1      24.226  27.375  10.158  1.00  0.00     0.148 A 
ATOM     20  H6  UNL     1      22.134  27.539  10.266  1.00  0.00     0.172 HD
HETATM   21  N7  UNL     1      24.644  27.572  11.495  1.00  0.00    -0.080 NA
ENDBRANCH  11  13
ENDBRANCH   1  10
BRANCH   1  22
HETATM   22  N8  UNL     1      28.921  26.145   8.791  1.00  0.00    -0.344 N 
HETATM   23  C7  UNL     1      29.993  25.506   8.450  1.00  0.00     0.198 C 
HETATM   24  N9  UNL     1      30.144  24.180   8.907  1.00  0.00    -0.067 NA
HETATM   25  N10 UNL     1      30.936  26.185   7.641  1.00  0.00    -0.067 NA
ATOM     26  H8  UNL     1      28.232  25.668   9.373  1.00  0.00     0.164 HD
ENDBRANCH   1  22
TORSDOF 6
ENDMDL
MODEL 2
REMARK VINA RESULT: -5.403125290      1.422      1.920
REMARK  6 active torsions:
REMARK  status: ('A' for Active; 'I' for Inactive)
REMARK    1  A    between atoms: N2_4  and  N3_6 
REMARK    2  A    between atoms: N3_6  and  C1_8 
REMARK    3  A    between atoms: C1_8  and  C2_9 
REMARK    4  A    between atoms: C2_9  and  N4_10 
REMARK    5  A    between atoms: C2_9  and  N8_22 
REMARK    6  A    between atoms: C3_12  and  C4_13 
ROOT
HETATM    1  C2  UNL     1      28.543  27.374   8.445  1.00  0.00     0.202 C 
ENDROOT
BRANCH   1   2
HETATM    2  C1  UNL     1      28.971  28.689   9.056  1.00  0.00     0.187 C 
BRANCH   2   3
HETATM    3  N3  UNL     1      29.178  28.603  10.466  1.00  0.00    -0.319 N 
ATOM      4  H3  UNL     1      30.063  28.253  10.832  1.00  0.00     0.181 HD
BRANCH   3   5
HETATM    5  N2  UNL     1      28.169  28.997  11.343  1.00  0.00    -0.254 N 
HETATM    6  N1  UNL     1      27.426  29.967  10.989  1.00  0.00    -0.331 N 
ATOM      7  H12 UNL     1      27.577  30.429  10.093  1.00  0.00     0.178 HD
ATOM      8  H11 UNL     1      26.688  30.256  11.631  1.00  0.00     0.178 HD
ATOM      9  H2  UNL     1      28.031  28.524  12.236  1.00  0.00     0.207 HD
ENDBRANCH   3   5
ENDBRANCH   2   3
ENDBRANCH   1   2
BRANCH   1  10
HETATM   10  N4  UNL     1      27.189  27.026   8.798  1.00  0.00    -0.374 N 
HETATM   11  C3  UNL     1      26.237  27.814   8.446  1.00  0.00     0.118 C 
ATOM     12  H4  UNL     1      26.990  26.171   9.317  1.00  0.00     0.161 HD
BRANCH  11  13
HETATM   13  C4  UNL     1      24.833  27.517   8.776  1.00  0.00     0.093 A 
HETATM   14  N5  UNL     1      23.851  27.171   7.957  1.00  0.00    -0.304 N 
HETATM   15  C5  UNL     1      22.726  26.991   8.664  1.00  0.00     0.326 A 
ATOM     16  H5  UNL     1      23.938  27.059   6.947  1.00  0.00     0.171 HD
HETATM   17  O1  UNL     1      21.614  26.657   8.178  1.00  0.00    -0.247 OA
HETATM   18  N6  UNL     1      23.040  27.236   9.947  1.00  0.00    -0.295 N 
HETATM   19  C6  UNL     1      24.339  27.567  10.061  1.00  0.00     0.148 A 
ATOM     20  H6  UNL     1      22.384  27.180  10.726  1.00  0.00     0.172 HD
HETATM   21  N7  UNL     1      25.036  27.893  11.248  1.00  0.00    -0.080 NA
ENDBRANCH  11  13
ENDBRANCH   1  10
BRANCH   1  22
HETATM   22  N8  UNL     1      29.394  26.301   8.938  1.00  0.00    -0.344 N 
HETATM   23  C7  UNL     1      29.447  25.135   8.379  1.00  0.00     0.198 C 
HETATM   24  N9  UNL     1      30.307  24.171   8.943  1.00  0.00    -0.067 NA
HETATM   25  N10 UNL     1      28.634  24.914   7.241  1.00  0.00    -0.067 NA
ATOM     26  H8  UNL     1      29.973  26.475   9.760  1.00  0.00     0.164 HD
ENDBRANCH   1  22
TORSDOF 6
ENDMDL
MODEL 3
REMARK VINA RESULT: -5.205036353      1.081      2.462
REMARK  6 active torsions:
REMARK  status: ('A' for Active; 'I' for Inactive)
REMARK    1  A    between atoms: N2_4  and  N3_6 
REMARK    2  A    between atoms: N3_6  and  C1_8 
REMARK    3  A    between atoms: C1_8  and  C2_9 
REMARK    4  A    between atoms: C2_9  and  N4_10 
REMARK    5  A    between atoms: C2_9  and  N8_22 
REMARK    6  A    between atoms: C3_12  and  C4_13 
ROOT
HETATM    1  C2  UNL     1      28.406  26.542   8.687  1.00  0.00     0.202 C 
ENDROOT
BRANCH   1   2
HETATM    2  C1  UNL     1      29.112  25.598   7.740  1.00  0.00     0.187 C 
BRANCH   2   3
HETATM    3  N3  UNL     1      30.010  24.712   8.407  1.00  0.00    -0.319 N 
ATOM      4  H3  UNL     1      29.733  23.748   8.591  1.00  0.00     0.181 HD
BRANCH   3   5
HETATM    5  N2  UNL     1      31.266  25.164   8.807  1.00  0.00    -0.254 N 
HETATM    6  N1  UNL     1      31.910  25.908   8.000  1.00  0.00    -0.331 N 
ATOM      7  H12 UNL     1      31.507  26.155   7.096  1.00  0.00     0.178 HD
ATOM      8  H11 UNL     1      32.829  26.238   8.292  1.00  0.00     0.178 HD
ATOM      9  H2  UNL     1      31.656  24.908   9.714  1.00  0.00     0.207 HD
ENDBRANCH   3   5
ENDBRANCH   2   3
ENDBRANCH   1   2
BRANCH   1  10
HETATM   10  N4  UNL     1      26.971  26.467   8.559  1.00  0.00    -0.374 N 
HETATM   11  C3  UNL     1      26.249  27.302   9.216  1.00  0.00     0.118 C 
ATOM     12  H4  UNL     1      26.538  25.766   7.959  1.00  0.00     0.161 HD
BRANCH  11  13
HETATM   13  C4  UNL     1      24.779  27.279   9.130  1.00  0.00     0.093 A 
HETATM   14  N5  UNL     1      24.020  27.216   8.046  1.00  0.00    -0.304 N 
HETATM   15  C5  UNL     1      22.729  27.217   8.408  1.00  0.00     0.326 A 
ATOM     16  H5  UNL     1      24.364  27.173   7.086  1.00  0.00     0.171 HD
HETATM   17  O1  UNL     1      21.756  27.165   7.611  1.00  0.00    -0.247 OA
HETATM   18  N6  UNL     1      22.710  27.283   9.749  1.00  0.00    -0.295 N 
HETATM   19  C6  UNL     1      23.963  27.323  10.239  1.00  0.00     0.148 A 
ATOM     20  H6  UNL     1      21.863  27.302  10.318  1.00  0.00     0.172 HD
HETATM   21  N7  UNL     1      24.346  27.396  11.598  1.00  0.00    -0.080 NA
ENDBRANCH  11  13
ENDBRANCH   1  10
BRANCH   1  22
HETATM   22  N8  UNL     1      28.783  27.915   8.387  1.00  0.00    -0.344 N 
HETATM   23  C7  UNL     1      29.736  28.532   9.007  1.00  0.00     0.198 C 
HETATM   24  N9  UNL     1      30.014  29.862   8.633  1.00  0.00    -0.067 NA
HETATM   25  N10 UNL     1      30.429  27.824  10.019  1.00  0.00    -0.067 NA
ATOM     26  H8  UNL     1      28.274  28.412   7.656  1.00  0.00     0.164 HD
ENDBRANCH   1  22
TORSDOF 6
ENDMDL
MODEL 4
REMARK VINA RESULT: -5.189509701      2.767      6.769
REMARK  6 active torsions:
REMARK  status: ('A' for Active; 'I' for Inactive)
REMARK    1  A    between atoms: N2_4  and  N3_6 
REMARK    2  A    between atoms: N3_6  and  C1_8 
REMARK    3  A    between atoms: C1_8  and  C2_9 
REMARK    4  A    between atoms: C2_9  and  N4_10 
REMARK    5  A    between atoms: C2_9  and  N8_22 
REMARK    6  A    between atoms: C3_12  and  C4_13 
ROOT
HETATM    1  C2  UNL     1      25.060  27.307   9.398  1.00  0.00     0.202 C 
ENDROOT
BRANCH   1   2
HETATM    2  C1  UNL     1      25.155  28.464  10.366  1.00  0.00     0.187 C 
BRANCH   2   3
HETATM    3  N3  UNL     1      24.620  28.155  11.653  1.00  0.00    -0.319 N 
ATOM      4  H3  UNL     1      24.408  28.905  12.311  1.00  0.00     0.181 HD
BRANCH   3   5
HETATM    5  N2  UNL     1      24.386  26.829  12.009  1.00  0.00    -0.254 N 
HETATM    6  N1  UNL     1      23.291  26.561  12.600  1.00  0.00    -0.331 N 
ATOM      7  H12 UNL     1      22.620  27.303  12.798  1.00  0.00     0.178 HD
ATOM      8  H11 UNL     1      23.120  25.590  12.861  1.00  0.00     0.178 HD
ATOM      9  H2  UNL     1      25.067  26.098  11.804  1.00  0.00     0.207 HD
ENDBRANCH   3   5
ENDBRANCH   2   3
ENDBRANCH   1   2
BRANCH   1  10
HETATM   10  N4  UNL     1      26.331  27.006   8.785  1.00  0.00    -0.374 N 
HETATM   11  C3  UNL     1      27.400  27.134   9.487  1.00  0.00     0.118 C 
ATOM     12  H4  UNL     1      26.381  26.697   7.815  1.00  0.00     0.161 HD
BRANCH  11  13
HETATM   13  C4  UNL     1      28.729  26.843   8.922  1.00  0.00     0.093 A 
HETATM   14  N5  UNL     1      29.871  27.477   9.138  1.00  0.00    -0.304 N 
HETATM   15  C5  UNL     1      30.845  26.890   8.428  1.00  0.00     0.326 A 
ATOM     16  H5  UNL     1      29.991  28.285   9.749  1.00  0.00     0.171 HD
HETATM   17  O1  UNL     1      32.050  27.256   8.416  1.00  0.00    -0.247 OA
HETATM   18  N6  UNL     1      30.273  25.873   7.764  1.00  0.00    -0.295 N 
HETATM   19  C6  UNL     1      28.957  25.807   8.043  1.00  0.00     0.148 A 
ATOM     20  H6  UNL     1      30.765  25.238   7.136  1.00  0.00     0.172 HD
HETATM   21  N7  UNL     1      28.023  24.875   7.536  1.00  0.00    -0.080 NA
ENDBRANCH  11  13
ENDBRANCH   1  10
BRANCH   1  22
HETATM   22  N8  UNL     1      24.145  27.643   8.318  1.00  0.00    -0.344 N 
HETATM   23  C7  UNL     1      22.859  27.652   8.467  1.00  0.00     0.198 C 
HETATM   24  N9  UNL     1      22.068  27.993   7.351  1.00  0.00    -0.067 NA
HETATM   25  N10 UNL     1      22.341  27.317   9.741  1.00  0.00    -0.067 NA
ATOM     26  H8  UNL     1      24.532  27.882   7.405  1.00  0.00     0.164 HD
ENDBRANCH   1  22
TORSDOF 6
ENDMDL
MODEL 5
REMARK VINA RESULT: -5.161071784      3.008      6.906
REMARK  6 active torsions:
REMARK  status: ('A' for Active; 'I' for Inactive)
REMARK    1  A    between atoms: N2_4  and  N3_6 
REMARK    2  A    between atoms: N3_6  and  C1_8 
REMARK    3  A    between atoms: C1_8  and  C2_9 
REMARK    4  A    between atoms: C2_9  and  N4_10 
REMARK    5  A    between atoms: C2_9  and  N8_22 
REMARK    6  A    between atoms: C3_12  and  C4_13 
ROOT
HETATM    1  C2  UNL     1      26.291  27.168   9.895  1.00  0.00     0.202 C 
ENDROOT
BRANCH   1   2
HETATM    2  C1  UNL     1      25.695  26.408   8.731  1.00  0.00     0.187 C 
BRANCH   2   3
HETATM    3  N3  UNL     1      24.743  27.177   7.998  1.00  0.00    -0.319 N 
ATOM      4  H3  UNL     1      25.059  27.848   7.297  1.00  0.00     0.181 HD
BRANCH   3   5
HETATM    5  N2  UNL     1      23.381  27.012   8.237  1.00  0.00    -0.254 N 
HETATM    6  N1  UNL     1      22.573  27.732   7.570  1.00  0.00    -0.331 N 
ATOM      7  H12 UNL     1      22.925  28.402   6.887  1.00  0.00     0.178 HD
ATOM      8  H11 UNL     1      21.575  27.612   7.745  1.00  0.00     0.178 HD
ATOM      9  H2  UNL     1      23.043  26.337   8.924  1.00  0.00     0.207 HD
ENDBRANCH   3   5
ENDBRANCH   2   3
ENDBRANCH   1   2
BRANCH   1  10
HETATM   10  N4  UNL     1      27.733  27.162   9.866  1.00  0.00    -0.374 N 
HETATM   11  C3  UNL     1      28.328  26.638   8.854  1.00  0.00     0.118 C 
ATOM     12  H4  UNL     1      28.271  27.566  10.633  1.00  0.00     0.161 HD
BRANCH  11  13
HETATM   13  C4  UNL     1      29.797  26.600   8.763  1.00  0.00     0.093 A 
HETATM   14  N5  UNL     1      30.644  27.617   8.707  1.00  0.00    -0.304 N 
HETATM   15  C5  UNL     1      31.898  27.146   8.631  1.00  0.00     0.326 A 
ATOM     16  H5  UNL     1      30.384  28.603   8.719  1.00  0.00     0.171 HD
HETATM   17  O1  UNL     1      32.933  27.859   8.564  1.00  0.00    -0.247 OA
HETATM   18  N6  UNL     1      31.802  25.807   8.641  1.00  0.00    -0.295 N 
HETATM   19  C6  UNL     1      30.514  25.424   8.723  1.00  0.00     0.148 A 
ATOM     20  H6  UNL     1      32.596  25.167   8.593  1.00  0.00     0.172 HD
HETATM   21  N7  UNL     1      30.017  24.101   8.757  1.00  0.00    -0.080 NA
ENDBRANCH  11  13
ENDBRANCH   1  10
BRANCH   1  22
HETATM   22  N8  UNL     1      25.895  26.540  11.147  1.00  0.00    -0.344 N 
HETATM   23  C7  UNL     1      24.811  26.858  11.778  1.00  0.00     0.198 C 
HETATM   24  N9  UNL     1      24.528  26.184  12.983  1.00  0.00    -0.067 NA
HETATM   25  N10 UNL     1      23.990  27.863  11.211  1.00  0.00    -0.067 NA
ATOM     26  H8  UNL     1      26.497  25.818  11.544  1.00  0.00     0.164 HD
ENDBRANCH   1  22
TORSDOF 6
ENDMDL
