MODEL 1
REMARK VINA RESULT: -4.968394347      0.000      0.000
REMARK  7 active torsions:
REMARK  status: ('A' for Active; 'I' for Inactive)
REMARK    1  A    between atoms: C4_12  and  O1_13 
REMARK    2  A    between atoms: C5_15  and  N4_16 
REMARK    3  A    between atoms: N5_18  and  C6_20 
REMARK    4  A    between atoms: C6_20  and  C7_21 
REMARK    5  A    between atoms: C7_21  and  C8_22 
REMARK    6  A    between atoms: C8_22  and  N6_23 
REMARK    7  A    between atoms: N6_23  and  C9_25 
ROOT
HETATM    1  N1  UNL     1      30.368  30.126   8.474  1.00  0.00    -0.235 N 
ATOM      2  H11 UNL     1      29.643  30.576   7.916  1.00  0.00     0.174 HD
ATOM      3  H12 UNL     1      31.147  30.705   8.785  1.00  0.00     0.174 HD
HETATM    4  C1  UNL     1      30.280  28.879   8.763  1.00  0.00     0.669 C 
HETATM    5  N2  UNL     1      31.284  28.255   9.536  1.00  0.00    -0.225 N 
ATOM      6  H2  UNL     1      32.207  28.678   9.634  1.00  0.00     0.177 HD
HETATM    7  C2  UNL     1      30.973  27.011  10.182  1.00  0.00     0.176 C 
HETATM    8  C3  UNL     1      30.309  26.081   9.228  1.00  0.00     0.262 C 
HETATM    9  N3  UNL     1      30.836  26.098   7.859  1.00  0.00    -0.034 N 
ATOM     10  H31 UNL     1      31.610  25.501   7.568  1.00  0.00     0.281 HD
ATOM     11  H32 UNL     1      31.366  26.888   7.492  1.00  0.00     0.281 HD
HETATM   12  C4  UNL     1      29.445  25.831   7.451  1.00  0.00     0.372 C 
HETATM   13  C5  UNL     1      29.061  26.689   8.660  1.00  0.00     0.215 C 
HETATM   14  N7  UNL     1      29.190  28.069   8.328  1.00  0.00    -0.192 N 
ATOM     15  H7  UNL     1      28.467  28.499   7.752  1.00  0.00     0.180 HD
ENDROOT
BRANCH  13  16
HETATM   16  N4  UNL     1      27.864  26.283   9.318  1.00  0.00    -0.305 N 
HETATM   17  N5  UNL     1      27.148  27.055   9.929  1.00  0.00    -0.338 N 
ATOM     18  H5  UNL     1      27.393  28.043   9.987  1.00  0.00     0.179 HD
ATOM     19  H4  UNL     1      27.595  25.300   9.276  1.00  0.00     0.183 HD
BRANCH  17  20
HETATM   20  C6  UNL     1      25.959  26.572  10.566  1.00  0.00     0.140 C 
BRANCH  20  21
HETATM   21  C7  UNL     1      24.736  27.333  10.061  1.00  0.00     0.041 C 
BRANCH  21  22
HETATM   22  C8  UNL     1      24.749  27.450   8.560  1.00  0.00     0.123 C 
BRANCH  22  23
HETATM   23  N6  UNL     1      23.491  27.001   8.000  1.00  0.00    -0.368 N 
ATOM     24  H6  UNL     1      23.502  26.257   7.302  1.00  0.00     0.161 HD
BRANCH  23  25
HETATM   25  C9  UNL     1      22.248  27.554   8.384  1.00  0.00     0.348 C 
HETATM   26  O2  UNL     1      21.574  28.371   7.711  1.00  0.00    -0.284 OA
ENDBRANCH  23  25
ENDBRANCH  22  23
ENDBRANCH  21  22
ENDBRANCH  20  21
ENDBRANCH  17  20
ENDBRANCH  13  16
BRANCH  12  27
HETATM   27  O1  UNL     1      29.099  26.366   6.235  1.00  0.00    -0.366 OA
ATOM     28  H1  UNL     1      28.416  27.026   6.277  1.00  0.00     0.212 HD
ENDBRANCH  12  27
TORSDOF 7
ENDMDL
MODEL 2
REMARK VINA RESULT: -4.915707358      2.610      6.502
REMARK  7 active torsions:
REMARK  status: ('A' for Active; 'I' for Inactive)
REMARK    1  A    between atoms: C4_12  and  O1_13 
REMARK    2  A    between atoms: C5_15  and  N4_16 
REMARK    3  A    between atoms: N5_18  and  C6_20 
REMARK    4  A    between atoms: C6_20  and  C7_21 
REMARK    5  A    between atoms: C7_21  and  C8_22 
REMARK    6  A    between atoms: C8_22  and  N6_23 
REMARK    7  A    between atoms: N6_23  and  C9_25 
ROOT
HETATM    1  N1  UNL     1      23.347  27.481   7.980  1.00  0.00    -0.235 N 
ATOM      2  H11 UNL     1      23.520  27.610   6.984  1.00  0.00     0.174 HD
ATOM      3  H12 UNL     1      22.377  27.390   8.280  1.00  0.00     0.174 HD
HETATM    4  C1  UNL     1      24.329  27.438   8.806  1.00  0.00     0.669 C 
HETATM    5  N2  UNL     1      24.090  27.260  10.186  1.00  0.00    -0.225 N 
ATOM      6  H2  UNL     1      23.171  27.448  10.586  1.00  0.00     0.177 HD
HETATM    7  C2  UNL     1      25.173  26.808  11.012  1.00  0.00     0.176 C 
HETATM    8  C3  UNL     1      26.406  27.593  10.729  1.00  0.00     0.262 C 
HETATM    9  N3  UNL     1      26.203  29.025  10.487  1.00  0.00    -0.034 N 
ATOM     10  H31 UNL     1      26.200  29.708  11.245  1.00  0.00     0.281 HD
ATOM     11  H32 UNL     1      25.299  29.403  10.203  1.00  0.00     0.281 HD
HETATM   12  C4  UNL     1      27.331  28.902   9.547  1.00  0.00     0.372 C 
HETATM   13  C5  UNL     1      26.791  27.494   9.282  1.00  0.00     0.215 C 
HETATM   14  N7  UNL     1      25.685  27.566   8.386  1.00  0.00    -0.192 N 
ATOM     15  H7  UNL     1      25.874  27.715   7.395  1.00  0.00     0.180 HD
ENDROOT
BRANCH  13  16
HETATM   16  N4  UNL     1      27.792  26.517   9.011  1.00  0.00    -0.305 N 
HETATM   17  N5  UNL     1      27.917  25.978   7.928  1.00  0.00    -0.338 N 
ATOM     18  H5  UNL     1      27.289  26.219   7.161  1.00  0.00     0.179 HD
ATOM     19  H4  UNL     1      28.433  26.256   9.761  1.00  0.00     0.183 HD
BRANCH  17  20
HETATM   20  C6  UNL     1      28.948  25.003   7.731  1.00  0.00     0.140 C 
BRANCH  20  21
HETATM   21  C7  UNL     1      30.108  25.252   8.692  1.00  0.00     0.041 C 
BRANCH  21  22
HETATM   22  C8  UNL     1      31.207  26.037   8.026  1.00  0.00     0.123 C 
BRANCH  22  23
HETATM   23  N6  UNL     1      32.504  25.477   8.348  1.00  0.00    -0.368 N 
ATOM     24  H6  UNL     1      33.280  25.633   7.704  1.00  0.00     0.161 HD
BRANCH  23  25
HETATM   25  C9  UNL     1      32.736  24.722   9.521  1.00  0.00     0.348 C 
HETATM   26  O2  UNL     1      33.030  23.503   9.556  1.00  0.00    -0.284 OA
ENDBRANCH  23  25
ENDBRANCH  22  23
ENDBRANCH  21  22
ENDBRANCH  20  21
ENDBRANCH  17  20
ENDBRANCH  13  16
BRANCH  12  27
HETATM   27  O1  UNL     1      27.267  29.752   8.472  1.00  0.00    -0.366 OA
ATOM     28  H1  UNL     1      27.973  29.645   7.845  1.00  0.00     0.212 HD
ENDBRANCH  12  27
TORSDOF 7
ENDMDL
MODEL 3
REMARK VINA RESULT: -4.894438534      3.384      5.057
REMARK  7 active torsions:
REMARK  status: ('A' for Active; 'I' for Inactive)
REMARK    1  A    between atoms: C4_12  and  O1_13 
REMARK    2  A    between atoms: C5_15  and  N4_16 
REMARK    3  A    between atoms: N5_18  and  C6_20 
REMARK    4  A    between atoms: C6_20  and  C7_21 
REMARK    5  A    between atoms: C7_21  and  C8_22 
REMARK    6  A    between atoms: C8_22  and  N6_23 
REMARK    7  A    between atoms: N6_23  and  C9_25 
ROOT
HETATM    1  N1  UNL     1      26.637  30.531   9.594  1.00  0.00    -0.235 N 
ATOM      2  H11 UNL     1      26.060  31.237  10.051  1.00  0.00     0.174 HD
ATOM      3  H12 UNL     1      27.513  30.842   9.174  1.00  0.00     0.174 HD
HETATM    4  C1  UNL     1      26.256  29.306   9.563  1.00  0.00     0.669 C 
HETATM    5  N2  UNL     1      27.056  28.328   8.931  1.00  0.00    -0.225 N 
ATOM      6  H2  UNL     1      27.774  28.596   8.258  1.00  0.00     0.177 HD
HETATM    7  C2  UNL     1      26.832  26.949   9.259  1.00  0.00     0.176 C 
HETATM    8  C3  UNL     1      25.379  26.632   9.215  1.00  0.00     0.262 C 
HETATM    9  N3  UNL     1      24.625  27.270   8.131  1.00  0.00    -0.034 N 
ATOM     10  H31 UNL     1      24.528  26.839   7.211  1.00  0.00     0.281 HD
ATOM     11  H32 UNL     1      24.964  28.106   7.654  1.00  0.00     0.281 HD
HETATM   12  C4  UNL     1      23.513  27.317   9.096  1.00  0.00     0.372 C 
HETATM   13  C5  UNL     1      24.604  27.512  10.151  1.00  0.00     0.215 C 
HETATM   14  N7  UNL     1      25.032  28.871  10.151  1.00  0.00    -0.192 N 
ATOM     15  H7  UNL     1      24.433  29.568  10.594  1.00  0.00     0.180 HD
ENDROOT
BRANCH  13  16
HETATM   16  N4  UNL     1      24.322  26.915  11.413  1.00  0.00    -0.305 N 
HETATM   17  N5  UNL     1      24.436  27.508  12.469  1.00  0.00    -0.338 N 
ATOM     18  H5  UNL     1      24.746  28.480  12.479  1.00  0.00     0.179 HD
ATOM     19  H4  UNL     1      24.010  25.943  11.433  1.00  0.00     0.183 HD
BRANCH  17  20
HETATM   20  C6  UNL     1      24.133  26.840  13.699  1.00  0.00     0.140 C 
BRANCH  20  21
HETATM   21  C7  UNL     1      23.229  27.707  14.571  1.00  0.00     0.041 C 
BRANCH  21  22
HETATM   22  C8  UNL     1      21.870  27.081  14.737  1.00  0.00     0.123 C 
BRANCH  22  23
HETATM   23  N6  UNL     1      20.938  27.615  13.764  1.00  0.00    -0.368 N 
ATOM     24  H6  UNL     1      20.472  28.500  13.965  1.00  0.00     0.161 HD
BRANCH  23  25
HETATM   25  C9  UNL     1      20.649  26.955  12.548  1.00  0.00     0.348 C 
HETATM   26  O2  UNL     1      21.299  27.075  11.481  1.00  0.00    -0.284 OA
ENDBRANCH  23  25
ENDBRANCH  22  23
ENDBRANCH  21  22
ENDBRANCH  20  21
ENDBRANCH  17  20
ENDBRANCH  13  16
BRANCH  12  27
HETATM   27  O1  UNL     1      22.670  28.388   8.937  1.00  0.00    -0.366 OA
ATOM     28  H1  UNL     1      22.441  28.830   9.746  1.00  0.00     0.212 HD
ENDBRANCH  12  27
TORSDOF 7
ENDMDL
MODEL 4
REMARK VINA RESULT: -4.784560599      1.971      2.437
REMARK  7 active torsions:
REMARK  status: ('A' for Active; 'I' for Inactive)
REMARK    1  A    between atoms: C4_12  and  O1_13 
REMARK    2  A    between atoms: C5_15  and  N4_16 
REMARK    3  A    between atoms: N5_18  and  C6_20 
REMARK    4  A    between atoms: C6_20  and  C7_21 
REMARK    5  A    between atoms: C7_21  and  C8_22 
REMARK    6  A    between atoms: C8_22  and  N6_23 
REMARK    7  A    between atoms: N6_23  and  C9_25 
ROOT
HETATM    1  N1  UNL     1      29.890  30.146   8.468  1.00  0.00    -0.235 N 
ATOM      2  H11 UNL     1      29.405  30.596   7.692  1.00  0.00     0.174 HD
ATOM      3  H12 UNL     1      30.557  30.710   8.995  1.00  0.00     0.174 HD
HETATM    4  C1  UNL     1      29.653  28.917   8.753  1.00  0.00     0.669 C 
HETATM    5  N2  UNL     1      30.324  28.294   9.828  1.00  0.00    -0.225 N 
ATOM      6  H2  UNL     1      31.187  28.686  10.203  1.00  0.00     0.177 HD
HETATM    7  C2  UNL     1      29.762  27.093  10.378  1.00  0.00     0.176 C 
HETATM    8  C3  UNL     1      29.392  26.145   9.292  1.00  0.00     0.262 C 
HETATM    9  N3  UNL     1      30.329  26.079   8.165  1.00  0.00    -0.034 N 
ATOM     10  H31 UNL     1      31.125  25.441   8.158  1.00  0.00     0.281 HD
ATOM     11  H32 UNL     1      30.987  26.831   7.963  1.00  0.00     0.281 HD
HETATM   12  C4  UNL     1      29.130  25.845   7.341  1.00  0.00     0.372 C 
HETATM   13  C5  UNL     1      28.423  26.772   8.333  1.00  0.00     0.215 C 
HETATM   14  N7  UNL     1      28.720  28.129   8.017  1.00  0.00    -0.192 N 
ATOM     15  H7  UNL     1      28.242  28.558   7.226  1.00  0.00     0.180 HD
ENDROOT
BRANCH  13  16
HETATM   16  N4  UNL     1      27.060  26.441   8.585  1.00  0.00    -0.305 N 
HETATM   17  N5  UNL     1      26.145  27.225   8.416  1.00  0.00    -0.338 N 
ATOM     18  H5  UNL     1      26.335  28.169   8.079  1.00  0.00     0.179 HD
ATOM     19  H4  UNL     1      26.841  25.504   8.922  1.00  0.00     0.183 HD
BRANCH  17  20
HETATM   20  C6  UNL     1      24.799  26.820   8.690  1.00  0.00     0.140 C 
BRANCH  20  21
HETATM   21  C7  UNL     1      24.030  27.947   9.375  1.00  0.00     0.041 C 
BRANCH  21  22
HETATM   22  C8  UNL     1      24.591  28.236  10.742  1.00  0.00     0.123 C 
BRANCH  22  23
HETATM   23  N6  UNL     1      24.430  27.091  11.615  1.00  0.00    -0.368 N 
ATOM     24  H6  UNL     1      23.487  26.799  11.872  1.00  0.00     0.161 HD
BRANCH  23  25
HETATM   25  C9  UNL     1      25.530  26.364  12.125  1.00  0.00     0.348 C 
HETATM   26  O2  UNL     1      26.656  26.267  11.579  1.00  0.00    -0.284 OA
ENDBRANCH  23  25
ENDBRANCH  22  23
ENDBRANCH  21  22
ENDBRANCH  20  21
ENDBRANCH  17  20
ENDBRANCH  13  16
BRANCH  12  27
HETATM   27  O1  UNL     1      29.218  26.335   6.062  1.00  0.00    -0.366 OA
ATOM     28  H1  UNL     1      29.037  25.695   5.383  1.00  0.00     0.212 HD
ENDBRANCH  12  27
TORSDOF 7
ENDMDL
MODEL 5
REMARK VINA RESULT: -4.758883521      2.941      4.486
REMARK  7 active torsions:
REMARK  status: ('A' for Active; 'I' for Inactive)
REMARK    1  A    between atoms: C4_12  and  O1_13 
REMARK    2  A    between atoms: C5_15  and  N4_16 
REMARK    3  A    between atoms: N5_18  and  C6_20 
REMARK    4  A    between atoms: C6_20  and  C7_21 
REMARK    5  A    between atoms: C7_21  and  C8_22 
REMARK    6  A    between atoms: C8_22  and  N6_23 
REMARK    7  A    between atoms: N6_23  and  C9_25 
ROOT
HETATM    1  N1  UNL     1      28.008  29.767   8.875  1.00  0.00    -0.235 N 
ATOM      2  H11 UNL     1      27.760  30.532   9.502  1.00  0.00     0.174 HD
ATOM      3  H12 UNL     1      28.738  29.944   8.185  1.00  0.00     0.174 HD
HETATM    4  C1  UNL     1      27.410  28.635   8.969  1.00  0.00     0.669 C 
HETATM    5  N2  UNL     1      27.752  27.576   8.101  1.00  0.00    -0.225 N 
ATOM      6  H2  UNL     1      28.245  27.755   7.226  1.00  0.00     0.177 HD
HETATM    7  C2  UNL     1      27.390  26.239   8.480  1.00  0.00     0.176 C 
HETATM    8  C3  UNL     1      25.971  26.192   8.927  1.00  0.00     0.262 C 
HETATM    9  N3  UNL     1      25.039  27.028   8.163  1.00  0.00    -0.034 N 
ATOM     10  H31 UNL     1      24.562  26.685   7.329  1.00  0.00     0.281 HD
ATOM     11  H32 UNL     1      25.355  27.820   7.604  1.00  0.00     0.281 HD
HETATM   12  C4  UNL     1      24.338  27.207   9.447  1.00  0.00     0.372 C 
HETATM   13  C5  UNL     1      25.733  27.131  10.073  1.00  0.00     0.215 C 
HETATM   14  N7  UNL     1      26.390  28.388   9.934  1.00  0.00    -0.192 N 
ATOM     15  H7  UNL     1      26.117  29.149  10.556  1.00  0.00     0.180 HD
ENDROOT
BRANCH  13  16
HETATM   16  N4  UNL     1      25.775  26.509  11.354  1.00  0.00    -0.305 N 
HETATM   17  N5  UNL     1      26.404  26.962  12.292  1.00  0.00    -0.338 N 
ATOM     18  H5  UNL     1      26.934  27.827  12.183  1.00  0.00     0.179 HD
ATOM     19  H4  UNL     1      25.254  25.643  11.491  1.00  0.00     0.183 HD
BRANCH  17  20
HETATM   20  C6  UNL     1      26.398  26.279  13.551  1.00  0.00     0.140 C 
BRANCH  20  21
HETATM   21  C7  UNL     1      25.289  25.231  13.585  1.00  0.00     0.041 C 
BRANCH  21  22
HETATM   22  C8  UNL     1      24.111  25.710  14.392  1.00  0.00     0.123 C 
BRANCH  22  23
HETATM   23  N6  UNL     1      23.087  26.260  13.527  1.00  0.00    -0.368 N 
ATOM     24  H6  UNL     1      22.468  25.618  13.030  1.00  0.00     0.161 HD
BRANCH  23  25
HETATM   25  C9  UNL     1      22.912  27.650  13.345  1.00  0.00     0.348 C 
HETATM   26  O2  UNL     1      23.624  28.385  12.618  1.00  0.00    -0.284 OA
ENDBRANCH  23  25
ENDBRANCH  22  23
ENDBRANCH  21  22
ENDBRANCH  20  21
ENDBRANCH  17  20
ENDBRANCH  13  16
BRANCH  12  27
HETATM   27  O1  UNL     1      23.713  28.421   9.586  1.00  0.00    -0.366 OA
ATOM     28  H1  UNL     1      23.308  28.746   8.790  1.00  0.00     0.212 HD
ENDBRANCH  12  27
TORSDOF 7
ENDMDL
