MODEL 1
REMARK VINA RESULT: -8.516558308      0.000      0.000
REMARK  6 active torsions:
REMARK  status: ('A' for Active; 'I' for Inactive)
REMARK    1  A    between atoms: C4_4  and  C5_5 
REMARK    2  A    between atoms: C5_5  and  C6_6 
REMARK    3  A    between atoms: C6_6  and  C7_7 
REMARK    4  A    between atoms: C7_7  and  N2_16 
REMARK    5  A    between atoms: N1_8  and  C8_10 
REMARK    6  A    between atoms: N2_16  and  C14_18 
ROOT
HETATM    1  C7  UNL     1      15.417  -1.826 -11.169  1.00  0.00     0.082 C 
HETATM    2  N1  UNL     1      15.134  -3.012 -10.800  1.00  0.00    -0.346 N 
ATOM      3  H1  UNL     1      14.903  -3.192  -9.823  1.00  0.00     0.167 HD
ENDROOT
BRANCH   1   4
HETATM    4  C6  UNL     1      15.753  -1.538 -12.568  1.00  0.00     0.081 C 
BRANCH   4   5
HETATM    5  C5  UNL     1      14.547  -0.981 -13.335  1.00  0.00     0.046 C 
BRANCH   5   6
HETATM    6  C4  UNL     1      14.362  -1.865 -14.521  1.00  0.00    -0.058 A 
HETATM    7  C3  UNL     1      15.439  -2.575 -14.964  1.00  0.00     0.007 A 
HETATM    8  C2  UNL     1      15.325  -3.404 -16.051  1.00  0.00     0.001 A 
HETATM    9  C1  UNL     1      14.111  -3.532 -16.714  1.00  0.00     0.000 A 
HETATM   10  C21 UNL     1      13.043  -2.806 -16.247  1.00  0.00     0.001 A 
HETATM   11  C20 UNL     1      13.150  -1.970 -15.154  1.00  0.00     0.007 A 
ENDBRANCH   5   6
ENDBRANCH   4   5
ENDBRANCH   1   4
BRANCH   1  12
HETATM   12  N2  UNL     1      15.403  -0.792 -10.213  1.00  0.00    -0.346 N 
ATOM     13  H2  UNL     1      14.609  -0.738  -9.573  1.00  0.00     0.167 HD
BRANCH  12  14
HETATM   14  C14 UNL     1      16.431   0.179 -10.088  1.00  0.00     0.033 A 
HETATM   15  C15 UNL     1      16.284   1.462 -10.510  1.00  0.00     0.029 A 
HETATM   16  C16 UNL     1      17.327   2.363 -10.359  1.00  0.00     0.002 A 
HETATM   17  C17 UNL     1      18.523   1.978  -9.783  1.00  0.00     0.000 A 
HETATM   18  C18 UNL     1      18.684   0.696  -9.356  1.00  0.00     0.002 A 
HETATM   19  C19 UNL     1      17.623  -0.191  -9.518  1.00  0.00     0.029 A 
ENDBRANCH  12  14
ENDBRANCH   1  12
BRANCH   2  20
HETATM   20  C8  UNL     1      15.135  -4.092 -11.727  1.00  0.00     0.033 A 
HETATM   21  C9  UNL     1      16.276  -4.782 -12.083  1.00  0.00     0.029 A 
HETATM   22  C10 UNL     1      16.264  -5.821 -12.978  1.00  0.00     0.002 A 
HETATM   23  C11 UNL     1      15.079  -6.224 -13.569  1.00  0.00     0.000 A 
HETATM   24  C12 UNL     1      13.927  -5.557 -13.235  1.00  0.00     0.002 A 
HETATM   25  C13 UNL     1      13.955  -4.512 -12.331  1.00  0.00     0.029 A 
ENDBRANCH   2  20
TORSDOF 6
ENDMDL
MODEL 2
REMARK VINA RESULT: -8.459323597      0.113      1.398
REMARK  6 active torsions:
REMARK  status: ('A' for Active; 'I' for Inactive)
REMARK    1  A    between atoms: C4_4  and  C5_5 
REMARK    2  A    between atoms: C5_5  and  C6_6 
REMARK    3  A    between atoms: C6_6  and  C7_7 
REMARK    4  A    between atoms: C7_7  and  N2_16 
REMARK    5  A    between atoms: N1_8  and  C8_10 
REMARK    6  A    between atoms: N2_16  and  C14_18 
ROOT
HETATM    1  C7  UNL     1      15.481  -1.875 -11.102  1.00  0.00     0.082 C 
HETATM    2  N1  UNL     1      15.169  -3.062 -10.760  1.00  0.00    -0.346 N 
ATOM      3  H1  UNL     1      14.936  -3.259  -9.786  1.00  0.00     0.167 HD
ENDROOT
BRANCH   1   4
HETATM    4  C6  UNL     1      15.820  -1.563 -12.495  1.00  0.00     0.081 C 
BRANCH   4   5
HETATM    5  C5  UNL     1      14.618  -0.984 -13.252  1.00  0.00     0.046 C 
BRANCH   5   6
HETATM    6  C4  UNL     1      14.433  -1.840 -14.458  1.00  0.00    -0.058 A 
HETATM    7  C3  UNL     1      13.202  -1.860 -15.045  1.00  0.00     0.007 A 
HETATM    8  C2  UNL     1      12.976  -2.630 -16.157  1.00  0.00     0.001 A 
HETATM    9  C1  UNL     1      13.996  -3.399 -16.700  1.00  0.00     0.000 A 
HETATM   10  C21 UNL     1      15.226  -3.360 -16.089  1.00  0.00     0.001 A 
HETATM   11  C20 UNL     1      15.461  -2.588 -14.970  1.00  0.00     0.007 A 
ENDBRANCH   5   6
ENDBRANCH   4   5
ENDBRANCH   1   4
BRANCH   1  12
HETATM   12  N2  UNL     1      15.497  -0.864 -10.121  1.00  0.00    -0.346 N 
ATOM     13  H2  UNL     1      14.711  -0.808  -9.474  1.00  0.00     0.167 HD
BRANCH  12  14
HETATM   14  C14 UNL     1      16.548   0.080  -9.982  1.00  0.00     0.033 A 
HETATM   15  C15 UNL     1      17.748  -0.232  -9.425  1.00  0.00     0.029 A 
HETATM   16  C16 UNL     1      18.734   0.737  -9.319  1.00  0.00     0.002 A 
HETATM   17  C17 UNL     1      18.519   2.025  -9.771  1.00  0.00     0.000 A 
HETATM   18  C18 UNL     1      17.322   2.352 -10.331  1.00  0.00     0.002 A 
HETATM   19  C19 UNL     1      16.347   1.362 -10.428  1.00  0.00     0.029 A 
ENDBRANCH  12  14
ENDBRANCH   1  12
BRANCH   2  20
HETATM   20  C8  UNL     1      15.137  -4.118 -11.712  1.00  0.00     0.033 A 
HETATM   21  C9  UNL     1      16.261  -4.821 -12.100  1.00  0.00     0.029 A 
HETATM   22  C10 UNL     1      16.219  -5.837 -13.019  1.00  0.00     0.002 A 
HETATM   23  C11 UNL     1      15.019  -6.204 -13.604  1.00  0.00     0.000 A 
HETATM   24  C12 UNL     1      13.884  -5.524 -13.240  1.00  0.00     0.002 A 
HETATM   25  C13 UNL     1      13.943  -4.502 -12.312  1.00  0.00     0.029 A 
ENDBRANCH   2  20
TORSDOF 6
ENDMDL
MODEL 3
REMARK VINA RESULT: -8.169016768      1.352      1.826
REMARK  6 active torsions:
REMARK  status: ('A' for Active; 'I' for Inactive)
REMARK    1  A    between atoms: C4_4  and  C5_5 
REMARK    2  A    between atoms: C5_5  and  C6_6 
REMARK    3  A    between atoms: C6_6  and  C7_7 
REMARK    4  A    between atoms: C7_7  and  N2_16 
REMARK    5  A    between atoms: N1_8  and  C8_10 
REMARK    6  A    between atoms: N2_16  and  C14_18 
ROOT
HETATM    1  C7  UNL     1      16.150  -2.272 -11.266  1.00  0.00     0.082 C 
HETATM    2  N1  UNL     1      17.099  -2.871 -11.870  1.00  0.00    -0.346 N 
ATOM      3  H1  UNL     1      18.031  -2.878 -11.455  1.00  0.00     0.167 HD
ENDROOT
BRANCH   1   4
HETATM    4  C6  UNL     1      14.800  -2.245 -11.838  1.00  0.00     0.081 C 
BRANCH   4   5
HETATM    5  C5  UNL     1      14.601  -1.037 -12.762  1.00  0.00     0.046 C 
BRANCH   5   6
HETATM    6  C4  UNL     1      14.037  -1.571 -14.034  1.00  0.00    -0.058 A 
HETATM    7  C3  UNL     1      14.046  -0.759 -15.129  1.00  0.00     0.007 A 
HETATM    8  C2  UNL     1      13.540  -1.199 -16.325  1.00  0.00     0.001 A 
HETATM    9  C1  UNL     1      13.012  -2.479 -16.437  1.00  0.00     0.000 A 
HETATM   10  C21 UNL     1      13.015  -3.276 -15.319  1.00  0.00     0.001 A 
HETATM   11  C20 UNL     1      13.523  -2.840 -14.112  1.00  0.00     0.007 A 
ENDBRANCH   5   6
ENDBRANCH   4   5
ENDBRANCH   1   4
BRANCH   1  12
HETATM   12  N2  UNL     1      16.417  -1.632 -10.040  1.00  0.00    -0.346 N 
ATOM     13  H2  UNL     1      16.162  -2.116  -9.179  1.00  0.00     0.167 HD
BRANCH  12  14
HETATM   14  C14 UNL     1      17.022  -0.352  -9.935  1.00  0.00     0.033 A 
HETATM   15  C15 UNL     1      16.432   0.779 -10.403  1.00  0.00     0.029 A 
HETATM   16  C16 UNL     1      17.074   2.000 -10.269  1.00  0.00     0.002 A 
HETATM   17  C17 UNL     1      18.313   2.090  -9.664  1.00  0.00     0.000 A 
HETATM   18  C18 UNL     1      18.916   0.966  -9.191  1.00  0.00     0.002 A 
HETATM   19  C19 UNL     1      18.252  -0.250  -9.336  1.00  0.00     0.029 A 
ENDBRANCH  12  14
ENDBRANCH   1  12
BRANCH   2  20
HETATM   20  C8  UNL     1      16.882  -3.531 -13.111  1.00  0.00     0.033 A 
HETATM   21  C9  UNL     1      17.257  -2.997 -14.327  1.00  0.00     0.029 A 
HETATM   22  C10 UNL     1      17.042  -3.643 -15.518  1.00  0.00     0.002 A 
HETATM   23  C11 UNL     1      16.427  -4.883 -15.542  1.00  0.00     0.000 A 
HETATM   24  C12 UNL     1      16.043  -5.440 -14.348  1.00  0.00     0.002 A 
HETATM   25  C13 UNL     1      16.266  -4.777 -13.157  1.00  0.00     0.029 A 
ENDBRANCH   2  20
TORSDOF 6
ENDMDL
MODEL 4
REMARK VINA RESULT: -8.163650345      1.347      1.885
REMARK  6 active torsions:
REMARK  status: ('A' for Active; 'I' for Inactive)
REMARK    1  A    between atoms: C4_4  and  C5_5 
REMARK    2  A    between atoms: C5_5  and  C6_6 
REMARK    3  A    between atoms: C6_6  and  C7_7 
REMARK    4  A    between atoms: C7_7  and  N2_16 
REMARK    5  A    between atoms: N1_8  and  C8_10 
REMARK    6  A    between atoms: N2_16  and  C14_18 
ROOT
HETATM    1  C7  UNL     1      16.127  -2.311 -11.285  1.00  0.00     0.082 C 
HETATM    2  N1  UNL     1      17.076  -2.925 -11.874  1.00  0.00    -0.346 N 
ATOM      3  H1  UNL     1      18.004  -2.937 -11.451  1.00  0.00     0.167 HD
ENDROOT
BRANCH   1   4
HETATM    4  C6  UNL     1      14.782  -2.277 -11.869  1.00  0.00     0.081 C 
BRANCH   4   5
HETATM    5  C5  UNL     1      14.588  -1.049 -12.768  1.00  0.00     0.046 C 
BRANCH   5   6
HETATM    6  C4  UNL     1      14.047  -1.559 -14.060  1.00  0.00    -0.058 A 
HETATM    7  C3  UNL     1      13.549  -2.827 -14.089  1.00  0.00     0.007 A 
HETATM    8  C2  UNL     1      13.038  -3.347 -15.251  1.00  0.00     0.001 A 
HETATM    9  C1  UNL     1      13.022  -2.588 -16.414  1.00  0.00     0.000 A 
HETATM   10  C21 UNL     1      13.530  -1.313 -16.357  1.00  0.00     0.001 A 
HETATM   11  C20 UNL     1      14.045  -0.784 -15.191  1.00  0.00     0.007 A 
ENDBRANCH   5   6
ENDBRANCH   4   5
ENDBRANCH   1   4
BRANCH   1  12
HETATM   12  N2  UNL     1      16.389  -1.663 -10.061  1.00  0.00    -0.346 N 
ATOM     13  H2  UNL     1      16.133  -2.143  -9.198  1.00  0.00     0.167 HD
BRANCH  12  14
HETATM   14  C14 UNL     1      16.989  -0.381  -9.963  1.00  0.00     0.033 A 
HETATM   15  C15 UNL     1      16.391   0.747 -10.429  1.00  0.00     0.029 A 
HETATM   16  C16 UNL     1      17.030   1.971 -10.302  1.00  0.00     0.002 A 
HETATM   17  C17 UNL     1      18.273   2.067  -9.705  1.00  0.00     0.000 A 
HETATM   18  C18 UNL     1      18.883   0.946  -9.233  1.00  0.00     0.002 A 
HETATM   19  C19 UNL     1      18.223  -0.272  -9.372  1.00  0.00     0.029 A 
ENDBRANCH  12  14
ENDBRANCH   1  12
BRANCH   2  20
HETATM   20  C8  UNL     1      16.863  -3.594 -13.111  1.00  0.00     0.033 A 
HETATM   21  C9  UNL     1      16.251  -4.827 -13.208  1.00  0.00     0.029 A 
HETATM   22  C10 UNL     1      16.052  -5.463 -14.407  1.00  0.00     0.002 A 
HETATM   23  C11 UNL     1      16.467  -4.875 -15.590  1.00  0.00     0.000 A 
HETATM   24  C12 UNL     1      17.079  -3.649 -15.526  1.00  0.00     0.002 A 
HETATM   25  C13 UNL     1      17.273  -3.021 -14.310  1.00  0.00     0.029 A 
ENDBRANCH   2  20
TORSDOF 6
ENDMDL
MODEL 5
REMARK VINA RESULT: -8.069072759      0.420      5.702
REMARK  6 active torsions:
REMARK  status: ('A' for Active; 'I' for Inactive)
REMARK    1  A    between atoms: C4_4  and  C5_5 
REMARK    2  A    between atoms: C5_5  and  C6_6 
REMARK    3  A    between atoms: C6_6  and  C7_7 
REMARK    4  A    between atoms: C7_7  and  N2_16 
REMARK    5  A    between atoms: N1_8  and  C8_10 
REMARK    6  A    between atoms: N2_16  and  C14_18 
ROOT
HETATM    1  C7  UNL     1      15.717  -1.943 -10.942  1.00  0.00     0.082 C 
HETATM    2  N1  UNL     1      16.021  -1.228  -9.932  1.00  0.00    -0.346 N 
ATOM      3  H1  UNL     1      15.831  -1.579  -8.993  1.00  0.00     0.167 HD
ENDROOT
BRANCH   1   4
HETATM    4  C6  UNL     1      15.979  -1.463 -12.303  1.00  0.00     0.081 C 
BRANCH   4   5
HETATM    5  C5  UNL     1      14.697  -0.965 -12.982  1.00  0.00     0.046 C 
BRANCH   5   6
HETATM    6  C4  UNL     1      14.530  -1.788 -14.214  1.00  0.00    -0.058 A 
HETATM    7  C3  UNL     1      13.295  -1.835 -14.789  1.00  0.00     0.007 A 
HETATM    8  C2  UNL     1      13.084  -2.576 -15.924  1.00  0.00     0.001 A 
HETATM    9  C1  UNL     1      14.127  -3.288 -16.503  1.00  0.00     0.000 A 
HETATM   10  C21 UNL     1      15.361  -3.222 -15.903  1.00  0.00     0.001 A 
HETATM   11  C20 UNL     1      15.580  -2.479 -14.761  1.00  0.00     0.007 A 
ENDBRANCH   5   6
ENDBRANCH   4   5
ENDBRANCH   1   4
BRANCH   1  12
HETATM   12  N2  UNL     1      15.125  -3.204 -10.732  1.00  0.00    -0.346 N 
ATOM     13  H2  UNL     1      14.688  -3.386  -9.828  1.00  0.00     0.167 HD
BRANCH  12  14
HETATM   14  C14 UNL     1      15.100  -4.234 -11.708  1.00  0.00     0.033 A 
HETATM   15  C15 UNL     1      16.205  -4.947 -12.050  1.00  0.00     0.029 A 
HETATM   16  C16 UNL     1      16.116  -5.942 -13.012  1.00  0.00     0.002 A 
HETATM   17  C17 UNL     1      14.915  -6.225 -13.634  1.00  0.00     0.000 A 
HETATM   18  C18 UNL     1      13.800  -5.519 -13.301  1.00  0.00     0.002 A 
HETATM   19  C19 UNL     1      13.914  -4.524 -12.332  1.00  0.00     0.029 A 
ENDBRANCH  12  14
ENDBRANCH   1  12
BRANCH   2  20
HETATM   20  C8  UNL     1      16.621   0.052 -10.090  1.00  0.00     0.033 A 
HETATM   21  C9  UNL     1      15.940   1.153 -10.571  1.00  0.00     0.029 A 
HETATM   22  C10 UNL     1      16.529   2.382 -10.719  1.00  0.00     0.002 A 
HETATM   23  C11 UNL     1      17.859   2.567 -10.383  1.00  0.00     0.000 A 
HETATM   24  C12 UNL     1      18.563   1.492  -9.902  1.00  0.00     0.002 A 
HETATM   25  C13 UNL     1      17.955   0.260  -9.758  1.00  0.00     0.029 A 
ENDBRANCH   2  20
TORSDOF 6
ENDMDL
