MODEL 1
REMARK VINA RESULT: -9.483387597      0.000      0.000
REMARK  5 active torsions:
REMARK  status: ('A' for Active; 'I' for Inactive)
REMARK    1  A    between atoms: C2_2  and  C3_3 
REMARK    2  A    between atoms: C3_3  and  C4_4 
REMARK    3  A    between atoms: C3_3  and  C10_10 
REMARK    4  A    between atoms: C14_14  and  N1_15 
REMARK    5  A    between atoms: N1_15  and  C15_17 
ROOT
HETATM    1  C10 UNL     1      15.992  -0.509 -10.698  1.00  0.00    -0.044 A 
HETATM    2  C11 UNL     1      15.517   0.762 -10.953  1.00  0.00     0.008 A 
HETATM    3  C12 UNL     1      16.250   1.878 -10.600  1.00  0.00     0.003 A 
HETATM    4  C13 UNL     1      17.474   1.701  -9.983  1.00  0.00     0.029 A 
HETATM    5  C14 UNL     1      18.001   0.464  -9.704  1.00  0.00     0.033 A 
HETATM    6  C21 UNL     1      17.210  -0.626 -10.085  1.00  0.00     0.037 A 
ENDROOT
BRANCH   1   7
HETATM    7  C3  UNL     1      15.172  -1.692 -11.095  1.00  0.00     0.073 C 
BRANCH   7   8
HETATM    8  C2  UNL     1      15.515  -2.899 -10.294  1.00  0.00    -0.023 C 
HETATM    9  C1  UNL     1      14.732  -3.378  -9.349  1.00  0.00     0.008 C 
ENDBRANCH   7   8
BRANCH   7  10
HETATM   10  C4  UNL     1      15.265  -1.976 -12.543  1.00  0.00    -0.046 A 
HETATM   11  C5  UNL     1      14.352  -1.455 -13.429  1.00  0.00     0.008 A 
HETATM   12  C6  UNL     1      14.432  -1.715 -14.790  1.00  0.00     0.001 A 
HETATM   13  C7  UNL     1      15.441  -2.510 -15.269  1.00  0.00     0.000 A 
HETATM   14  C8  UNL     1      16.370  -3.047 -14.408  1.00  0.00     0.001 A 
HETATM   15  C9  UNL     1      16.272  -2.771 -13.038  1.00  0.00     0.008 A 
ENDBRANCH   7  10
ENDBRANCH   1   7
BRANCH   5  16
HETATM   16  N1  UNL     1      19.260   0.274  -9.092  1.00  0.00    -0.356 N 
ATOM     17  H1  UNL     1      20.054   0.201  -9.729  1.00  0.00     0.166 HD
BRANCH  16  18
HETATM   18  C15 UNL     1      19.565   0.173  -7.732  1.00  0.00     0.032 A 
HETATM   19  C16 UNL     1      20.668  -0.526  -7.317  1.00  0.00     0.029 A 
HETATM   20  C17 UNL     1      20.967  -0.591  -5.957  1.00  0.00     0.002 A 
HETATM   21  C18 UNL     1      20.176   0.033  -5.005  1.00  0.00     0.000 A 
HETATM   22  C19 UNL     1      19.081   0.721  -5.460  1.00  0.00     0.002 A 
HETATM   23  C20 UNL     1      18.743   0.816  -6.787  1.00  0.00     0.029 A 
ENDBRANCH  16  18
ENDBRANCH   5  16
TORSDOF 5
ENDMDL
MODEL 2
REMARK VINA RESULT: -9.397806967      0.931      1.257
REMARK  5 active torsions:
REMARK  status: ('A' for Active; 'I' for Inactive)
REMARK    1  A    between atoms: C2_2  and  C3_3 
REMARK    2  A    between atoms: C3_3  and  C4_4 
REMARK    3  A    between atoms: C3_3  and  C10_10 
REMARK    4  A    between atoms: C14_14  and  N1_15 
REMARK    5  A    between atoms: N1_15  and  C15_17 
ROOT
HETATM    1  C10 UNL     1      15.743  -1.247 -11.058  1.00  0.00    -0.044 A 
HETATM    2  C11 UNL     1      14.928  -0.153 -11.272  1.00  0.00     0.008 A 
HETATM    3  C12 UNL     1      15.346   1.119 -10.934  1.00  0.00     0.003 A 
HETATM    4  C13 UNL     1      16.599   1.281 -10.374  1.00  0.00     0.029 A 
HETATM    5  C14 UNL     1      17.455   0.234 -10.137  1.00  0.00     0.033 A 
HETATM    6  C21 UNL     1      16.974  -1.029 -10.501  1.00  0.00     0.037 A 
ENDROOT
BRANCH   1   7
HETATM    7  C3  UNL     1      15.259  -2.608 -11.436  1.00  0.00     0.073 C 
BRANCH   7   8
HETATM    8  C2  UNL     1      15.347  -3.565 -10.299  1.00  0.00    -0.023 C 
HETATM    9  C1  UNL     1      14.581  -3.481  -9.232  1.00  0.00     0.008 C 
ENDBRANCH   7   8
BRANCH   7  10
HETATM   10  C4  UNL     1      15.958  -3.138 -12.627  1.00  0.00    -0.046 A 
HETATM   11  C5  UNL     1      15.793  -2.559 -13.863  1.00  0.00     0.008 A 
HETATM   12  C6  UNL     1      16.446  -3.050 -14.986  1.00  0.00     0.001 A 
HETATM   13  C7  UNL     1      17.274  -4.136 -14.867  1.00  0.00     0.000 A 
HETATM   14  C8  UNL     1      17.459  -4.738 -13.644  1.00  0.00     0.001 A 
HETATM   15  C9  UNL     1      16.792  -4.227 -12.523  1.00  0.00     0.008 A 
ENDBRANCH   7  10
ENDBRANCH   1   7
BRANCH   5  16
HETATM   16  N1  UNL     1      18.746   0.393  -9.585  1.00  0.00    -0.356 N 
ATOM     17  H1  UNL     1      19.488   0.608 -10.251  1.00  0.00     0.166 HD
BRANCH  16  18
HETATM   18  C15 UNL     1      19.142   0.296  -8.248  1.00  0.00     0.032 A 
HETATM   19  C16 UNL     1      20.258  -0.420  -7.905  1.00  0.00     0.029 A 
HETATM   20  C17 UNL     1      20.650  -0.481  -6.568  1.00  0.00     0.002 A 
HETATM   21  C18 UNL     1      19.937   0.164  -5.568  1.00  0.00     0.000 A 
HETATM   22  C19 UNL     1      18.826   0.868  -5.953  1.00  0.00     0.002 A 
HETATM   23  C20 UNL     1      18.399   0.960  -7.254  1.00  0.00     0.029 A 
ENDBRANCH  16  18
ENDBRANCH   5  16
TORSDOF 5
ENDMDL
MODEL 3
REMARK VINA RESULT: -9.212661530      1.598      2.860
REMARK  5 active torsions:
REMARK  status: ('A' for Active; 'I' for Inactive)
REMARK    1  A    between atoms: C2_2  and  C3_3 
REMARK    2  A    between atoms: C3_3  and  C4_4 
REMARK    3  A    between atoms: C3_3  and  C10_10 
REMARK    4  A    between atoms: C14_14  and  N1_15 
REMARK    5  A    between atoms: N1_15  and  C15_17 
ROOT
HETATM    1  C10 UNL     1      16.201  -1.854 -10.987  1.00  0.00    -0.044 A 
HETATM    2  C11 UNL     1      15.422  -2.469 -10.028  1.00  0.00     0.008 A 
HETATM    3  C12 UNL     1      15.705  -2.323  -8.684  1.00  0.00     0.003 A 
HETATM    4  C13 UNL     1      16.787  -1.546  -8.312  1.00  0.00     0.029 A 
HETATM    5  C14 UNL     1      17.598  -0.910  -9.218  1.00  0.00     0.033 A 
HETATM    6  C21 UNL     1      17.260  -1.097 -10.564  1.00  0.00     0.037 A 
ENDROOT
BRANCH   1   7
HETATM    7  C3  UNL     1      15.866  -2.035 -12.431  1.00  0.00     0.073 C 
BRANCH   7   8
HETATM    8  C2  UNL     1      14.748  -1.149 -12.857  1.00  0.00    -0.023 C 
HETATM    9  C1  UNL     1      14.492   0.007 -12.282  1.00  0.00     0.008 C 
ENDBRANCH   7   8
BRANCH   7  10
HETATM   10  C4  UNL     1      15.576  -3.447 -12.765  1.00  0.00    -0.046 A 
HETATM   11  C5  UNL     1      16.530  -4.424 -12.606  1.00  0.00     0.008 A 
HETATM   12  C6  UNL     1      16.266  -5.751 -12.915  1.00  0.00     0.001 A 
HETATM   13  C7  UNL     1      15.030  -6.102 -13.392  1.00  0.00     0.000 A 
HETATM   14  C8  UNL     1      14.054  -5.148 -13.562  1.00  0.00     0.001 A 
HETATM   15  C9  UNL     1      14.340  -3.814 -13.243  1.00  0.00     0.008 A 
ENDBRANCH   7  10
ENDBRANCH   1   7
BRANCH   5  16
HETATM   16  N1  UNL     1      18.693  -0.097  -8.847  1.00  0.00    -0.356 N 
ATOM     17  H1  UNL     1      19.004   0.573  -9.550  1.00  0.00     0.166 HD
BRANCH  16  18
HETATM   18  C15 UNL     1      19.408  -0.090  -7.646  1.00  0.00     0.032 A 
HETATM   19  C16 UNL     1      18.906   0.548  -6.543  1.00  0.00     0.029 A 
HETATM   20  C17 UNL     1      19.624   0.520  -5.348  1.00  0.00     0.002 A 
HETATM   21  C18 UNL     1      20.841  -0.138  -5.243  1.00  0.00     0.000 A 
HETATM   22  C19 UNL     1      21.308  -0.762  -6.369  1.00  0.00     0.002 A 
HETATM   23  C20 UNL     1      20.641  -0.765  -7.569  1.00  0.00     0.029 A 
ENDBRANCH  16  18
ENDBRANCH   5  16
TORSDOF 5
ENDMDL
MODEL 4
REMARK VINA RESULT: -9.074919217      1.699      3.700
REMARK  5 active torsions:
REMARK  status: ('A' for Active; 'I' for Inactive)
REMARK    1  A    between atoms: C2_2  and  C3_3 
REMARK    2  A    between atoms: C3_3  and  C4_4 
REMARK    3  A    between atoms: C3_3  and  C10_10 
REMARK    4  A    between atoms: C14_14  and  N1_15 
REMARK    5  A    between atoms: N1_15  and  C15_17 
ROOT
HETATM    1  C10 UNL     1      15.664  -3.062 -12.430  1.00  0.00    -0.044 A 
HETATM    2  C11 UNL     1      15.060  -3.923 -11.535  1.00  0.00     0.008 A 
HETATM    3  C12 UNL     1      14.895  -3.568 -10.211  1.00  0.00     0.003 A 
HETATM    4  C13 UNL     1      15.348  -2.331  -9.792  1.00  0.00     0.029 A 
HETATM    5  C14 UNL     1      15.955  -1.432 -10.634  1.00  0.00     0.033 A 
HETATM    6  C21 UNL     1      16.093  -1.850 -11.962  1.00  0.00     0.037 A 
ENDROOT
BRANCH   1   7
HETATM    7  C3  UNL     1      15.824  -3.480 -13.855  1.00  0.00     0.073 C 
BRANCH   7   8
HETATM    8  C2  UNL     1      17.188  -3.180 -14.372  1.00  0.00    -0.023 C 
HETATM    9  C1  UNL     1      17.620  -3.604 -15.541  1.00  0.00     0.008 C 
ENDBRANCH   7   8
BRANCH   7  10
HETATM   10  C4  UNL     1      14.787  -2.891 -14.730  1.00  0.00    -0.046 A 
HETATM   11  C5  UNL     1      14.570  -1.534 -14.759  1.00  0.00     0.008 A 
HETATM   12  C6  UNL     1      13.600  -0.972 -15.578  1.00  0.00     0.001 A 
HETATM   13  C7  UNL     1      12.837  -1.784 -16.377  1.00  0.00     0.000 A 
HETATM   14  C8  UNL     1      13.030  -3.145 -16.370  1.00  0.00     0.001 A 
HETATM   15  C9  UNL     1      14.015  -3.692 -15.537  1.00  0.00     0.008 A 
ENDBRANCH   7  10
ENDBRANCH   1   7
BRANCH   5  16
HETATM   16  N1  UNL     1      16.402  -0.157 -10.219  1.00  0.00    -0.356 N 
ATOM     17  H1  UNL     1      15.774   0.620 -10.425  1.00  0.00     0.166 HD
BRANCH  16  18
HETATM   18  C15 UNL     1      17.590   0.183  -9.566  1.00  0.00     0.032 A 
HETATM   19  C16 UNL     1      17.934   1.497  -9.388  1.00  0.00     0.029 A 
HETATM   20  C17 UNL     1      19.111   1.812  -8.710  1.00  0.00     0.002 A 
HETATM   21  C18 UNL     1      19.951   0.829  -8.209  1.00  0.00     0.000 A 
HETATM   22  C19 UNL     1      19.572  -0.472  -8.409  1.00  0.00     0.002 A 
HETATM   23  C20 UNL     1      18.424  -0.836  -9.069  1.00  0.00     0.029 A 
ENDBRANCH  16  18
ENDBRANCH   5  16
TORSDOF 5
ENDMDL
MODEL 5
REMARK VINA RESULT: -9.007057291      1.598      2.907
REMARK  5 active torsions:
REMARK  status: ('A' for Active; 'I' for Inactive)
REMARK    1  A    between atoms: C2_2  and  C3_3 
REMARK    2  A    between atoms: C3_3  and  C4_4 
REMARK    3  A    between atoms: C3_3  and  C10_10 
REMARK    4  A    between atoms: C14_14  and  N1_15 
REMARK    5  A    between atoms: N1_15  and  C15_17 
ROOT
HETATM    1  C10 UNL     1      16.012  -3.043 -11.265  1.00  0.00    -0.044 A 
HETATM    2  C11 UNL     1      15.087  -3.323 -10.279  1.00  0.00     0.008 A 
HETATM    3  C12 UNL     1      15.148  -2.695  -9.051  1.00  0.00     0.003 A 
HETATM    4  C13 UNL     1      16.155  -1.776  -8.822  1.00  0.00     0.029 A 
HETATM    5  C14 UNL     1      17.103  -1.455  -9.762  1.00  0.00     0.033 A 
HETATM    6  C21 UNL     1      16.988  -2.125 -10.986  1.00  0.00     0.037 A 
ENDROOT
BRANCH   1   7
HETATM    7  C3  UNL     1      15.915  -3.741 -12.581  1.00  0.00     0.073 C 
BRANCH   7   8
HETATM    8  C2  UNL     1      17.241  -3.853 -13.250  1.00  0.00    -0.023 C 
HETATM    9  C1  UNL     1      17.424  -4.520 -14.370  1.00  0.00     0.008 C 
ENDBRANCH   7   8
BRANCH   7  10
HETATM   10  C4  UNL     1      14.924  -3.108 -13.478  1.00  0.00    -0.046 A 
HETATM   11  C5  UNL     1      13.881  -3.831 -14.007  1.00  0.00     0.008 A 
HETATM   12  C6  UNL     1      12.946  -3.245 -14.848  1.00  0.00     0.001 A 
HETATM   13  C7  UNL     1      13.059  -1.916 -15.165  1.00  0.00     0.000 A 
HETATM   14  C8  UNL     1      14.091  -1.165 -14.652  1.00  0.00     0.001 A 
HETATM   15  C9  UNL     1      15.025  -1.775 -13.804  1.00  0.00     0.008 A 
ENDBRANCH   7  10
ENDBRANCH   1   7
BRANCH   5  16
HETATM   16  N1  UNL     1      18.123  -0.502  -9.545  1.00  0.00    -0.356 N 
ATOM     17  H1  UNL     1      18.378   0.064 -10.354  1.00  0.00     0.166 HD
BRANCH  16  18
HETATM   18  C15 UNL     1      18.830  -0.231  -8.370  1.00  0.00     0.032 A 
HETATM   19  C16 UNL     1      18.270   0.535  -7.382  1.00  0.00     0.029 A 
HETATM   20  C17 UNL     1      18.984   0.770  -6.208  1.00  0.00     0.002 A 
HETATM   21  C18 UNL     1      20.253   0.249  -6.008  1.00  0.00     0.000 A 
HETATM   22  C19 UNL     1      20.778  -0.511  -7.020  1.00  0.00     0.002 A 
HETATM   23  C20 UNL     1      20.118  -0.772  -8.195  1.00  0.00     0.029 A 
ENDBRANCH  16  18
ENDBRANCH   5  16
TORSDOF 5
ENDMDL
