MODEL 1
REMARK VINA RESULT: -7.185801206      0.000      0.000
REMARK  5 active torsions:
REMARK  status: ('A' for Active; 'I' for Inactive)
REMARK    1  A    between atoms: C2_2  and  N1_3 
REMARK       I    between atoms: C3_5  and  N2_6 
REMARK       I    between atoms: C3_5  and  N4_18 
REMARK    2  A    between atoms: N2_6  and  C4_8 
REMARK    3  A    between atoms: C4_8  and  C5_9 
REMARK    4  A    between atoms: C5_9  and  C6_10 
REMARK    5  A    between atoms: C6_10  and  C7_11 
REMARK       I    between atoms: N4_18  and  C13_20 
REMARK       I    between atoms: C13_20  and  N6_24 
ROOT
HETATM    1  N1  UNL     1      29.128   9.091  58.632  1.00  0.00    -0.226 N 
ATOM      2  H1  UNL     1      29.310   8.706  57.705  1.00  0.00     0.177 HD
HETATM    3  C3  UNL     1      29.678   8.481  59.633  1.00  0.00     0.688 C 
HETATM    4  N2  UNL     1      30.472   7.338  59.244  1.00  0.00    -0.226 N 
ATOM      5  H2  UNL     1      31.178   7.403  58.511  1.00  0.00     0.177 HD
HETATM    6  N4  UNL     1      29.537   8.864  60.984  1.00  0.00    -0.023 N 
ATOM      7  H4  UNL     1      28.685   8.638  61.498  1.00  0.00     0.203 HD
HETATM    8  C13 UNL     1      30.587   9.563  61.619  1.00  0.00     0.688 C 
HETATM    9  N5  UNL     1      31.120  10.562  60.979  1.00  0.00    -0.234 N 
ATOM     10  H51 UNL     1      31.878  11.067  61.437  1.00  0.00     0.174 HD
ATOM     11  H52 UNL     1      30.771  10.807  60.052  1.00  0.00     0.174 HD
HETATM   12  N6  UNL     1      31.071   9.225  62.904  1.00  0.00    -0.218 N 
HETATM   13  C14 UNL     1      30.262   8.779  64.038  1.00  0.00     0.141 C 
HETATM   14  C15 UNL     1      30.943   9.518  65.180  1.00  0.00     0.022 C 
HETATM   15  C16 UNL     1      32.404   9.294  64.867  1.00  0.00     0.022 C 
HETATM   16  C17 UNL     1      32.436   9.239  63.369  1.00  0.00     0.141 C 
ENDROOT
BRANCH   1  17
HETATM   17  C2  UNL     1      28.292  10.244  58.694  1.00  0.00     0.133 C 
HETATM   18  C1  UNL     1      29.082  11.430  58.121  1.00  0.00     0.027 C 
ENDBRANCH   1  17
BRANCH   4  19
HETATM   19  C4  UNL     1      30.216   6.085  59.949  1.00  0.00     0.138 C 
BRANCH  19  20
HETATM   20  C5  UNL     1      29.136   5.308  59.223  1.00  0.00     0.022 C 
BRANCH  20  21
HETATM   21  C6  UNL     1      28.092   4.789  60.170  1.00  0.00     0.035 C 
BRANCH  21  22
HETATM   22  C7  UNL     1      27.115   3.818  59.622  1.00  0.00     0.189 C 
HETATM   23  C8  UNL     1      27.023   2.693  60.698  1.00  0.00     0.035 C 
HETATM   24  C9  UNL     1      26.106   3.302  61.703  1.00  0.00     0.030 C 
HETATM   25  C10 UNL     1      25.307   4.348  60.937  1.00  0.00     0.237 C 
HETATM   26  N3  UNL     1      25.755   4.188  59.551  1.00  0.00    -0.070 N 
HETATM   27  C11 UNL     1      25.358   5.326  58.819  1.00  0.00     0.272 C 
HETATM   28  C12 UNL     1      25.014   3.049  58.955  1.00  0.00     0.272 C 
ENDBRANCH  21  22
ENDBRANCH  20  21
ENDBRANCH  19  20
ENDBRANCH   4  19
TORSDOF 5
ENDMDL
MODEL 2
REMARK VINA RESULT: -7.085535152      3.712      7.119
REMARK  5 active torsions:
REMARK  status: ('A' for Active; 'I' for Inactive)
REMARK    1  A    between atoms: C2_2  and  N1_3 
REMARK       I    between atoms: C3_5  and  N2_6 
REMARK       I    between atoms: C3_5  and  N4_18 
REMARK    2  A    between atoms: N2_6  and  C4_8 
REMARK    3  A    between atoms: C4_8  and  C5_9 
REMARK    4  A    between atoms: C5_9  and  C6_10 
REMARK    5  A    between atoms: C6_10  and  C7_11 
REMARK       I    between atoms: N4_18  and  C13_20 
REMARK       I    between atoms: C13_20  and  N6_24 
ROOT
HETATM    1  N1  UNL     1      28.005   5.374  60.006  1.00  0.00    -0.226 N 
ATOM      2  H1  UNL     1      28.104   5.538  61.008  1.00  0.00     0.177 HD
HETATM    3  C3  UNL     1      26.804   5.177  59.565  1.00  0.00     0.688 C 
HETATM    4  N2  UNL     1      25.796   5.228  60.600  1.00  0.00    -0.226 N 
ATOM      5  H2  UNL     1      25.747   6.004  61.259  1.00  0.00     0.177 HD
HETATM    6  N4  UNL     1      26.473   4.930  58.215  1.00  0.00    -0.023 N 
ATOM      7  H4  UNL     1      26.621   4.006  57.809  1.00  0.00     0.203 HD
HETATM    8  C13 UNL     1      25.933   5.974  57.433  1.00  0.00     0.688 C 
HETATM    9  N5  UNL     1      26.518   7.134  57.490  1.00  0.00    -0.234 N 
ATOM     10  H51 UNL     1      26.128   7.888  56.925  1.00  0.00     0.174 HD
ATOM     11  H52 UNL     1      27.334   7.255  58.090  1.00  0.00     0.174 HD
HETATM   12  N6  UNL     1      24.802   5.807  56.601  1.00  0.00    -0.218 N 
HETATM   13  C14 UNL     1      24.490   4.623  55.801  1.00  0.00     0.141 C 
HETATM   14  C15 UNL     1      23.961   5.271  54.530  1.00  0.00     0.022 C 
HETATM   15  C16 UNL     1      23.058   6.349  55.084  1.00  0.00     0.022 C 
HETATM   16  C17 UNL     1      23.729   6.741  56.366  1.00  0.00     0.141 C 
ENDROOT
BRANCH   1  17
HETATM   17  C2  UNL     1      29.203   5.383  59.234  1.00  0.00     0.133 C 
HETATM   18  C1  UNL     1      30.208   6.308  59.936  1.00  0.00     0.027 C 
ENDBRANCH   1  17
BRANCH   4  19
HETATM   19  C4  UNL     1      24.851   4.115  60.658  1.00  0.00     0.138 C 
BRANCH  19  20
HETATM   20  C5  UNL     1      25.596   2.836  60.985  1.00  0.00     0.022 C 
BRANCH  20  21
HETATM   21  C6  UNL     1      25.276   1.742  60.007  1.00  0.00     0.035 C 
BRANCH  21  22
HETATM   22  C7  UNL     1      24.346   2.081  58.905  1.00  0.00     0.189 C 
HETATM   23  C8  UNL     1      24.939   1.374  57.648  1.00  0.00     0.035 C 
HETATM   24  C9  UNL     1      24.471  -0.029  57.835  1.00  0.00     0.030 C 
HETATM   25  C10 UNL     1      23.246   0.072  58.733  1.00  0.00     0.237 C 
HETATM   26  N3  UNL     1      23.054   1.514  58.906  1.00  0.00    -0.070 N 
HETATM   27  C11 UNL     1      22.180   1.721  59.994  1.00  0.00     0.272 C 
HETATM   28  C12 UNL     1      22.339   2.031  57.713  1.00  0.00     0.272 C 
ENDBRANCH  21  22
ENDBRANCH  20  21
ENDBRANCH  19  20
ENDBRANCH   4  19
TORSDOF 5
ENDMDL
MODEL 3
REMARK VINA RESULT: -7.072624091      2.552      7.699
REMARK  5 active torsions:
REMARK  status: ('A' for Active; 'I' for Inactive)
REMARK    1  A    between atoms: C2_2  and  N1_3 
REMARK       I    between atoms: C3_5  and  N2_6 
REMARK       I    between atoms: C3_5  and  N4_18 
REMARK    2  A    between atoms: N2_6  and  C4_8 
REMARK    3  A    between atoms: C4_8  and  C5_9 
REMARK    4  A    between atoms: C5_9  and  C6_10 
REMARK    5  A    between atoms: C6_10  and  C7_11 
REMARK       I    between atoms: N4_18  and  C13_20 
REMARK       I    between atoms: C13_20  and  N6_24 
ROOT
HETATM    1  N1  UNL     1      26.842   4.712  59.213  1.00  0.00    -0.226 N 
ATOM      2  H1  UNL     1      27.632   4.084  59.357  1.00  0.00     0.177 HD
HETATM    3  C3  UNL     1      27.112   5.886  58.738  1.00  0.00     0.688 C 
HETATM    4  N2  UNL     1      28.520   6.097  58.492  1.00  0.00    -0.226 N 
ATOM      5  H2  UNL     1      29.075   5.427  57.960  1.00  0.00     0.177 HD
HETATM    6  N4  UNL     1      26.152   6.888  58.477  1.00  0.00    -0.023 N 
ATOM      7  H4  UNL     1      25.764   7.441  59.241  1.00  0.00     0.203 HD
HETATM    8  C13 UNL     1      25.734   7.117  57.148  1.00  0.00     0.688 C 
HETATM    9  N5  UNL     1      25.429   6.080  56.425  1.00  0.00    -0.234 N 
ATOM     10  H51 UNL     1      25.128   6.245  55.465  1.00  0.00     0.174 HD
ATOM     11  H52 UNL     1      25.501   5.147  56.831  1.00  0.00     0.174 HD
HETATM   12  N6  UNL     1      25.635   8.410  56.585  1.00  0.00    -0.218 N 
HETATM   13  C14 UNL     1      25.166   9.614  57.271  1.00  0.00     0.141 C 
HETATM   14  C15 UNL     1      24.345  10.267  56.170  1.00  0.00     0.022 C 
HETATM   15  C16 UNL     1      25.251  10.108  54.971  1.00  0.00     0.022 C 
HETATM   16  C17 UNL     1      25.968   8.820  55.243  1.00  0.00     0.141 C 
ENDROOT
BRANCH   1  17
HETATM   17  C2  UNL     1      25.553   4.208  59.556  1.00  0.00     0.133 C 
HETATM   18  C1  UNL     1      25.457   4.160  61.087  1.00  0.00     0.027 C 
ENDBRANCH   1  17
BRANCH   4  19
HETATM   19  C4  UNL     1      29.111   7.315  59.041  1.00  0.00     0.138 C 
BRANCH  19  20
HETATM   20  C5  UNL     1      29.598   7.049  60.452  1.00  0.00     0.022 C 
BRANCH  20  21
HETATM   21  C6  UNL     1      29.477   8.268  61.320  1.00  0.00     0.035 C 
BRANCH  21  22
HETATM   22  C7  UNL     1      30.741   8.884  61.786  1.00  0.00     0.189 C 
HETATM   23  C8  UNL     1      30.910  10.165  60.912  1.00  0.00     0.035 C 
HETATM   24  C9  UNL     1      29.995  11.125  61.592  1.00  0.00     0.030 C 
HETATM   25  C10 UNL     1      29.863  10.613  63.020  1.00  0.00     0.237 C 
HETATM   26  N3  UNL     1      30.780   9.470  63.070  1.00  0.00    -0.070 N 
HETATM   27  C11 UNL     1      30.479   8.706  64.217  1.00  0.00     0.272 C 
HETATM   28  C12 UNL     1      32.153   9.989  63.283  1.00  0.00     0.272 C 
ENDBRANCH  21  22
ENDBRANCH  20  21
ENDBRANCH  19  20
ENDBRANCH   4  19
TORSDOF 5
ENDMDL
MODEL 4
REMARK VINA RESULT: -7.063530847      2.660      7.947
REMARK  5 active torsions:
REMARK  status: ('A' for Active; 'I' for Inactive)
REMARK    1  A    between atoms: C2_2  and  N1_3 
REMARK       I    between atoms: C3_5  and  N2_6 
REMARK       I    between atoms: C3_5  and  N4_18 
REMARK    2  A    between atoms: N2_6  and  C4_8 
REMARK    3  A    between atoms: C4_8  and  C5_9 
REMARK    4  A    between atoms: C5_9  and  C6_10 
REMARK    5  A    between atoms: C6_10  and  C7_11 
REMARK       I    between atoms: N4_18  and  C13_20 
REMARK       I    between atoms: C13_20  and  N6_24 
ROOT
HETATM    1  N1  UNL     1      25.590   6.686  57.345  1.00  0.00    -0.226 N 
ATOM      2  H1  UNL     1      25.842   7.618  57.675  1.00  0.00     0.177 HD
HETATM    3  C3  UNL     1      25.854   5.698  58.137  1.00  0.00     0.688 C 
HETATM    4  N2  UNL     1      26.474   6.105  59.377  1.00  0.00    -0.226 N 
ATOM      5  H2  UNL     1      26.079   6.849  59.952  1.00  0.00     0.177 HD
HETATM    6  N4  UNL     1      25.582   4.342  57.851  1.00  0.00    -0.023 N 
ATOM      7  H4  UNL     1      26.189   3.816  57.222  1.00  0.00     0.203 HD
HETATM    8  C13 UNL     1      24.461   3.722  58.444  1.00  0.00     0.688 C 
HETATM    9  N5  UNL     1      23.331   4.365  58.417  1.00  0.00    -0.234 N 
ATOM     10  H51 UNL     1      22.521   3.917  58.845  1.00  0.00     0.174 HD
ATOM     11  H52 UNL     1      23.289   5.285  57.979  1.00  0.00     0.174 HD
HETATM   12  N6  UNL     1      24.519   2.446  59.051  1.00  0.00    -0.218 N 
HETATM   13  C14 UNL     1      25.296   1.301  58.576  1.00  0.00     0.141 C 
HETATM   14  C15 UNL     1      24.316   0.167  58.835  1.00  0.00     0.022 C 
HETATM   15  C16 UNL     1      23.808   0.505  60.218  1.00  0.00     0.022 C 
HETATM   16  C17 UNL     1      23.846   2.003  60.247  1.00  0.00     0.141 C 
ENDROOT
BRANCH   1  17
HETATM   17  C2  UNL     1      24.983   6.606  56.057  1.00  0.00     0.133 C 
HETATM   18  C1  UNL     1      24.909   8.028  55.481  1.00  0.00     0.027 C 
ENDBRANCH   1  17
BRANCH   4  19
HETATM   19  C4  UNL     1      27.693   5.401  59.769  1.00  0.00     0.138 C 
BRANCH  19  20
HETATM   20  C5  UNL     1      28.747   6.409  60.181  1.00  0.00     0.022 C 
BRANCH  20  21
HETATM   21  C6  UNL     1      28.811   7.568  59.228  1.00  0.00     0.035 C 
BRANCH  21  22
HETATM   22  C7  UNL     1      29.114   8.896  59.810  1.00  0.00     0.189 C 
HETATM   23  C8  UNL     1      30.598   8.799  60.280  1.00  0.00     0.035 C 
HETATM   24  C9  UNL     1      31.340   9.003  59.003  1.00  0.00     0.030 C 
HETATM   25  C10 UNL     1      30.379   9.758  58.095  1.00  0.00     0.237 C 
HETATM   26  N3  UNL     1      29.214  10.010  58.948  1.00  0.00    -0.070 N 
HETATM   27  C11 UNL     1      28.129  10.380  58.125  1.00  0.00     0.272 C 
HETATM   28  C12 UNL     1      29.504  11.199  59.787  1.00  0.00     0.272 C 
ENDBRANCH  21  22
ENDBRANCH  20  21
ENDBRANCH  19  20
ENDBRANCH   4  19
TORSDOF 5
ENDMDL
MODEL 5
REMARK VINA RESULT: -7.033124196      2.830      5.361
REMARK  5 active torsions:
REMARK  status: ('A' for Active; 'I' for Inactive)
REMARK    1  A    between atoms: C2_2  and  N1_3 
REMARK       I    between atoms: C3_5  and  N2_6 
REMARK       I    between atoms: C3_5  and  N4_18 
REMARK    2  A    between atoms: N2_6  and  C4_8 
REMARK    3  A    between atoms: C4_8  and  C5_9 
REMARK    4  A    between atoms: C5_9  and  C6_10 
REMARK    5  A    between atoms: C6_10  and  C7_11 
REMARK       I    between atoms: N4_18  and  C13_20 
REMARK       I    between atoms: C13_20  and  N6_24 
ROOT
HETATM    1  N1  UNL     1      30.199   8.239  59.407  1.00  0.00    -0.226 N 
ATOM      2  H1  UNL     1      30.450   7.876  60.327  1.00  0.00     0.177 HD
HETATM    3  C3  UNL     1      29.020   7.938  58.965  1.00  0.00     0.688 C 
HETATM    4  N2  UNL     1      28.254   7.123  59.880  1.00  0.00    -0.226 N 
ATOM      5  H2  UNL     1      28.147   7.378  60.861  1.00  0.00     0.177 HD
HETATM    6  N4  UNL     1      28.501   8.345  57.717  1.00  0.00    -0.023 N 
ATOM      7  H4  UNL     1      28.788   7.872  56.860  1.00  0.00     0.203 HD
HETATM    8  C13 UNL     1      27.580   9.415  57.667  1.00  0.00     0.688 C 
HETATM    9  N5  UNL     1      27.863  10.487  58.345  1.00  0.00    -0.234 N 
ATOM     10  H51 UNL     1      27.198  11.259  58.309  1.00  0.00     0.174 HD
ATOM     11  H52 UNL     1      28.726  10.524  58.887  1.00  0.00     0.174 HD
HETATM   12  N6  UNL     1      26.383   9.364  56.915  1.00  0.00    -0.218 N 
HETATM   13  C14 UNL     1      26.218   8.747  55.599  1.00  0.00     0.141 C 
HETATM   14  C15 UNL     1      25.308   9.760  54.922  1.00  0.00     0.022 C 
HETATM   15  C16 UNL     1      24.296  10.044  56.009  1.00  0.00     0.022 C 
HETATM   16  C17 UNL     1      25.090   9.893  57.272  1.00  0.00     0.141 C 
ENDROOT
BRANCH   1  17
HETATM   17  C2  UNL     1      31.183   9.024  58.739  1.00  0.00     0.133 C 
HETATM   18  C1  UNL     1      31.070  10.464  59.260  1.00  0.00     0.027 C 
ENDBRANCH   1  17
BRANCH   4  19
HETATM   19  C4  UNL     1      27.640   5.915  59.333  1.00  0.00     0.138 C 
BRANCH  19  20
HETATM   20  C5  UNL     1      26.135   5.995  59.499  1.00  0.00     0.022 C 
BRANCH  20  21
HETATM   21  C6  UNL     1      25.465   4.706  59.118  1.00  0.00     0.035 C 
BRANCH  21  22
HETATM   22  C7  UNL     1      25.910   3.486  59.831  1.00  0.00     0.189 C 
HETATM   23  C8  UNL     1      25.608   3.768  61.334  1.00  0.00     0.035 C 
HETATM   24  C9  UNL     1      24.147   3.484  61.414  1.00  0.00     0.030 C 
HETATM   25  C10 UNL     1      23.856   2.546  60.250  1.00  0.00     0.237 C 
HETATM   26  N3  UNL     1      25.175   2.293  59.663  1.00  0.00    -0.070 N 
HETATM   27  C11 UNL     1      24.993   1.736  58.380  1.00  0.00     0.272 C 
HETATM   28  C12 UNL     1      25.842   1.240  60.467  1.00  0.00     0.272 C 
ENDBRANCH  21  22
ENDBRANCH  20  21
ENDBRANCH  19  20
ENDBRANCH   4  19
TORSDOF 5
ENDMDL
