MODEL 1
REMARK VINA RESULT: -7.273146014      0.000      0.000
REMARK  7 active torsions:
REMARK  status: ('A' for Active; 'I' for Inactive)
REMARK    1  A    between atoms: C3_3  and  C4_4 
REMARK    2  A    between atoms: C4_4  and  C5_5 
REMARK    3  A    between atoms: C6_6  and  C7_7 
REMARK    4  A    between atoms: C7_7  and  C8_8 
REMARK    5  A    between atoms: C8_8  and  N1_9 
REMARK       I    between atoms: N1_9  and  C9_11 
REMARK    6  A    between atoms: C9_11  and  C10_13 
REMARK    7  A    between atoms: C16_19  and  C17_20 
ROOT
HETATM    1  C1  UNL     1      25.019   4.102  61.463  1.00  0.00     0.012 C 
HETATM    2  C2  UNL     1      26.089   3.806  60.987  1.00  0.00    -0.117 C 
HETATM    3  C3  UNL     1      27.382   3.425  60.409  1.00  0.00     0.105 C 
ENDROOT
BRANCH   3   4
HETATM    4  C4  UNL     1      28.177   4.692  60.221  1.00  0.00     0.106 C 
BRANCH   4   5
HETATM    5  C5  UNL     1      27.427   5.510  59.266  1.00  0.00    -0.106 C 
HETATM    6  C6  UNL     1      26.793   6.172  58.483  1.00  0.00    -0.105 C 
BRANCH   6   7
HETATM    7  C7  UNL     1      25.992   6.975  57.526  1.00  0.00     0.113 C 
BRANCH   7   8
HETATM    8  C8  UNL     1      25.281   6.008  56.608  1.00  0.00     0.134 C 
BRANCH   8   9
HETATM    9  N1  UNL     1      24.698   4.889  57.257  1.00  0.00    -0.360 N 
HETATM   10  C9  UNL     1      24.493   3.637  56.625  1.00  0.00     0.226 C 
HETATM   11  O1  UNL     1      24.852   3.535  55.426  1.00  0.00    -0.273 OA
ATOM     12  H1  UNL     1      24.411   4.991  58.231  1.00  0.00     0.162 HD
BRANCH  10  13
HETATM   13  C10 UNL     1      23.875   2.488  57.351  1.00  0.00     0.043 C 
HETATM   14  C11 UNL     1      24.966   1.659  57.949  1.00  0.00     0.024 C 
HETATM   15  C12 UNL     1      24.372   0.543  58.756  1.00  0.00    -0.012 C 
HETATM   16  C13 UNL     1      23.503  -0.334  57.874  1.00  0.00     0.009 C 
HETATM   17  C18 UNL     1      23.513   1.121  59.838  1.00  0.00     0.023 C 
HETATM   18  C14 UNL     1      22.423   0.538  57.282  1.00  0.00    -0.012 C 
HETATM   19  C15 UNL     1      21.529   1.128  58.352  1.00  0.00     0.023 C 
HETATM   20  C20 UNL     1      23.033   1.631  56.458  1.00  0.00     0.024 C 
HETATM   21  C16 UNL     1      22.401   1.969  59.255  1.00  0.00     0.040 C 
HETATM   22  C19 UNL     1      22.970   3.087  58.409  1.00  0.00     0.038 C 
BRANCH  21  23
HETATM   23  C17 UNL     1      21.627   2.515  60.395  1.00  0.00     0.239 C 
HETATM   24  N2  UNL     1      21.937   2.213  61.744  1.00  0.00    -0.061 NA
HETATM   25  O2  UNL     1      20.658   3.274  60.145  1.00  0.00    -0.276 OA
ENDBRANCH  21  23
ENDBRANCH  10  13
ENDBRANCH   8   9
ENDBRANCH   7   8
ENDBRANCH   6   7
ENDBRANCH   4   5
ENDBRANCH   3   4
TORSDOF 7
ENDMDL
MODEL 2
REMARK VINA RESULT: -6.987925491      6.086      9.899
REMARK  7 active torsions:
REMARK  status: ('A' for Active; 'I' for Inactive)
REMARK    1  A    between atoms: C3_3  and  C4_4 
REMARK    2  A    between atoms: C4_4  and  C5_5 
REMARK    3  A    between atoms: C6_6  and  C7_7 
REMARK    4  A    between atoms: C7_7  and  C8_8 
REMARK    5  A    between atoms: C8_8  and  N1_9 
REMARK       I    between atoms: N1_9  and  C9_11 
REMARK    6  A    between atoms: C9_11  and  C10_13 
REMARK    7  A    between atoms: C16_19  and  C17_20 
ROOT
HETATM    1  C1  UNL     1      23.260   2.525  60.343  1.00  0.00     0.012 C 
HETATM    2  C2  UNL     1      24.100   3.229  60.851  1.00  0.00    -0.117 C 
HETATM    3  C3  UNL     1      25.104   4.100  61.470  1.00  0.00     0.105 C 
ENDROOT
BRANCH   3   4
HETATM    4  C4  UNL     1      26.386   3.311  61.557  1.00  0.00     0.106 C 
BRANCH   4   5
HETATM    5  C5  UNL     1      27.353   4.003  60.704  1.00  0.00    -0.106 C 
HETATM    6  C6  UNL     1      28.150   4.556  59.988  1.00  0.00    -0.105 C 
BRANCH   6   7
HETATM    7  C7  UNL     1      29.127   5.220  59.090  1.00  0.00     0.113 C 
BRANCH   7   8
HETATM    8  C8  UNL     1      30.022   6.082  59.951  1.00  0.00     0.134 C 
BRANCH   8   9
HETATM    9  N1  UNL     1      30.187   7.414  59.492  1.00  0.00    -0.360 N 
HETATM   10  C9  UNL     1      29.554   8.532  60.091  1.00  0.00     0.226 C 
HETATM   11  O1  UNL     1      28.811   8.308  61.078  1.00  0.00    -0.273 OA
ATOM     12  H1  UNL     1      30.793   7.576  58.688  1.00  0.00     0.162 HD
BRANCH  10  13
HETATM   13  C10 UNL     1      29.761   9.916  59.571  1.00  0.00     0.043 C 
HETATM   14  C11 UNL     1      28.589  10.286  58.720  1.00  0.00     0.024 C 
HETATM   15  C12 UNL     1      28.729  11.703  58.250  1.00  0.00    -0.012 C 
HETATM   16  C13 UNL     1      30.005  11.863  57.443  1.00  0.00     0.009 C 
HETATM   17  C18 UNL     1      28.807  12.611  59.439  1.00  0.00     0.023 C 
HETATM   18  C14 UNL     1      31.161  11.472  58.331  1.00  0.00    -0.012 C 
HETATM   19  C15 UNL     1      31.274  12.379  59.537  1.00  0.00     0.023 C 
HETATM   20  C20 UNL     1      31.018  10.046  58.769  1.00  0.00     0.024 C 
HETATM   21  C16 UNL     1      29.987  12.252  60.320  1.00  0.00     0.040 C 
HETATM   22  C19 UNL     1      29.889  10.815  60.784  1.00  0.00     0.038 C 
BRANCH  21  23
HETATM   23  C17 UNL     1      29.965  13.181  61.475  1.00  0.00     0.239 C 
HETATM   24  N2  UNL     1      28.803  13.409  62.251  1.00  0.00    -0.061 NA
HETATM   25  O2  UNL     1      31.026  13.786  61.769  1.00  0.00    -0.276 OA
ENDBRANCH  21  23
ENDBRANCH  10  13
ENDBRANCH   8   9
ENDBRANCH   7   8
ENDBRANCH   6   7
ENDBRANCH   4   5
ENDBRANCH   3   4
TORSDOF 7
ENDMDL
MODEL 3
REMARK VINA RESULT: -6.984257782      4.680      8.435
REMARK  7 active torsions:
REMARK  status: ('A' for Active; 'I' for Inactive)
REMARK    1  A    between atoms: C3_3  and  C4_4 
REMARK    2  A    between atoms: C4_4  and  C5_5 
REMARK    3  A    between atoms: C6_6  and  C7_7 
REMARK    4  A    between atoms: C7_7  and  C8_8 
REMARK    5  A    between atoms: C8_8  and  N1_9 
REMARK       I    between atoms: N1_9  and  C9_11 
REMARK    6  A    between atoms: C9_11  and  C10_13 
REMARK    7  A    between atoms: C16_19  and  C17_20 
ROOT
HETATM    1  C1  UNL     1      24.721   3.793  61.453  1.00  0.00     0.012 C 
HETATM    2  C2  UNL     1      25.861   3.802  61.055  1.00  0.00    -0.117 C 
HETATM    3  C3  UNL     1      27.246   3.792  60.574  1.00  0.00     0.105 C 
ENDROOT
BRANCH   3   4
HETATM    4  C4  UNL     1      27.619   5.218  60.258  1.00  0.00     0.106 C 
BRANCH   4   5
HETATM    5  C5  UNL     1      26.777   5.623  59.131  1.00  0.00    -0.106 C 
HETATM    6  C6  UNL     1      26.080   5.936  58.199  1.00  0.00    -0.105 C 
BRANCH   6   7
HETATM    7  C7  UNL     1      25.213   6.299  57.051  1.00  0.00     0.113 C 
BRANCH   7   8
HETATM    8  C8  UNL     1      25.702   7.625  56.515  1.00  0.00     0.134 C 
BRANCH   8   9
HETATM    9  N1  UNL     1      26.931   8.072  57.064  1.00  0.00    -0.360 N 
HETATM   10  C9  UNL     1      27.095   9.332  57.692  1.00  0.00     0.226 C 
HETATM   11  O1  UNL     1      26.086  10.077  57.754  1.00  0.00    -0.273 OA
ATOM     12  H1  UNL     1      27.741   7.454  57.003  1.00  0.00     0.162 HD
BRANCH  10  13
HETATM   13  C10 UNL     1      28.411   9.758  58.256  1.00  0.00     0.043 C 
HETATM   14  C11 UNL     1      28.374  11.233  58.492  1.00  0.00     0.024 C 
HETATM   15  C12 UNL     1      29.654  11.676  59.135  1.00  0.00    -0.012 C 
HETATM   16  C13 UNL     1      30.833  11.341  58.240  1.00  0.00     0.009 C 
HETATM   17  C18 UNL     1      29.830  10.952  60.434  1.00  0.00     0.023 C 
HETATM   18  C14 UNL     1      30.830   9.849  58.017  1.00  0.00    -0.012 C 
HETATM   19  C15 UNL     1      31.017   9.088  59.312  1.00  0.00     0.023 C 
HETATM   20  C20 UNL     1      29.556   9.428  57.350  1.00  0.00     0.024 C 
HETATM   21  C16 UNL     1      29.865   9.453  60.220  1.00  0.00     0.040 C 
HETATM   22  C19 UNL     1      28.598   8.979  59.542  1.00  0.00     0.038 C 
BRANCH  21  23
HETATM   23  C17 UNL     1      30.013   8.826  61.555  1.00  0.00     0.239 C 
HETATM   24  N2  UNL     1      29.817   9.541  62.761  1.00  0.00    -0.061 NA
HETATM   25  O2  UNL     1      30.327   7.610  61.608  1.00  0.00    -0.276 OA
ENDBRANCH  21  23
ENDBRANCH  10  13
ENDBRANCH   8   9
ENDBRANCH   7   8
ENDBRANCH   6   7
ENDBRANCH   4   5
ENDBRANCH   3   4
TORSDOF 7
ENDMDL
MODEL 4
REMARK VINA RESULT: -6.903518646      1.714      2.522
REMARK  7 active torsions:
REMARK  status: ('A' for Active; 'I' for Inactive)
REMARK    1  A    between atoms: C3_3  and  C4_4 
REMARK    2  A    between atoms: C4_4  and  C5_5 
REMARK    3  A    between atoms: C6_6  and  C7_7 
REMARK    4  A    between atoms: C7_7  and  C8_8 
REMARK    5  A    between atoms: C8_8  and  N1_9 
REMARK       I    between atoms: N1_9  and  C9_11 
REMARK    6  A    between atoms: C9_11  and  C10_13 
REMARK    7  A    between atoms: C16_19  and  C17_20 
ROOT
HETATM    1  C1  UNL     1      24.990   3.916  61.568  1.00  0.00     0.012 C 
HETATM    2  C2  UNL     1      26.055   3.695  61.044  1.00  0.00    -0.117 C 
HETATM    3  C3  UNL     1      27.342   3.405  60.405  1.00  0.00     0.105 C 
ENDROOT
BRANCH   3   4
HETATM    4  C4  UNL     1      28.106   4.702  60.333  1.00  0.00     0.106 C 
BRANCH   4   5
HETATM    5  C5  UNL     1      27.400   5.541  59.363  1.00  0.00    -0.106 C 
HETATM    6  C6  UNL     1      26.806   6.217  58.562  1.00  0.00    -0.105 C 
BRANCH   6   7
HETATM    7  C7  UNL     1      26.054   7.032  57.575  1.00  0.00     0.113 C 
BRANCH   7   8
HETATM    8  C8  UNL     1      25.288   6.078  56.688  1.00  0.00     0.134 C 
BRANCH   8   9
HETATM    9  N1  UNL     1      24.734   4.957  57.359  1.00  0.00    -0.360 N 
HETATM   10  C9  UNL     1      24.460   3.721  56.721  1.00  0.00     0.226 C 
HETATM   11  O1  UNL     1      24.728   3.636  55.497  1.00  0.00    -0.273 OA
ATOM     12  H1  UNL     1      24.520   5.046  58.353  1.00  0.00     0.162 HD
BRANCH  10  13
HETATM   13  C10 UNL     1      23.875   2.570  57.471  1.00  0.00     0.043 C 
HETATM   14  C11 UNL     1      22.999   3.103  58.558  1.00  0.00     0.024 C 
HETATM   15  C12 UNL     1      22.332   1.968  59.276  1.00  0.00    -0.012 C 
HETATM   16  C13 UNL     1      23.376   1.047  59.881  1.00  0.00     0.009 C 
HETATM   17  C18 UNL     1      21.517   1.177  58.299  1.00  0.00     0.023 C 
HETATM   18  C14 UNL     1      24.245   0.538  58.758  1.00  0.00    -0.012 C 
HETATM   19  C15 UNL     1      23.451  -0.275  57.758  1.00  0.00     0.023 C 
HETATM   20  C20 UNL     1      24.923   1.683  58.069  1.00  0.00     0.024 C 
HETATM   21  C16 UNL     1      22.385   0.630  57.185  1.00  0.00     0.040 C 
HETATM   22  C19 UNL     1      23.096   1.751  56.461  1.00  0.00     0.038 C 
BRANCH  21  23
HETATM   23  C17 UNL     1      21.492  -0.110  56.261  1.00  0.00     0.239 C 
HETATM   24  N2  UNL     1      20.922  -1.364  56.589  1.00  0.00    -0.061 NA
HETATM   25  O2  UNL     1      21.236   0.406  55.144  1.00  0.00    -0.276 OA
ENDBRANCH  21  23
ENDBRANCH  10  13
ENDBRANCH   8   9
ENDBRANCH   7   8
ENDBRANCH   6   7
ENDBRANCH   4   5
ENDBRANCH   3   4
TORSDOF 7
ENDMDL
MODEL 5
REMARK VINA RESULT: -6.896240134      1.586      2.854
REMARK  7 active torsions:
REMARK  status: ('A' for Active; 'I' for Inactive)
REMARK    1  A    between atoms: C3_3  and  C4_4 
REMARK    2  A    between atoms: C4_4  and  C5_5 
REMARK    3  A    between atoms: C6_6  and  C7_7 
REMARK    4  A    between atoms: C7_7  and  C8_8 
REMARK    5  A    between atoms: C8_8  and  N1_9 
REMARK       I    between atoms: N1_9  and  C9_11 
REMARK    6  A    between atoms: C9_11  and  C10_13 
REMARK    7  A    between atoms: C16_19  and  C17_20 
ROOT
HETATM    1  C1  UNL     1      28.820   5.583  59.267  1.00  0.00     0.012 C 
HETATM    2  C2  UNL     1      27.948   6.407  59.408  1.00  0.00    -0.117 C 
HETATM    3  C3  UNL     1      26.883   7.397  59.599  1.00  0.00     0.105 C 
ENDROOT
BRANCH   3   4
HETATM    4  C4  UNL     1      26.978   8.378  58.459  1.00  0.00     0.106 C 
BRANCH   4   5
HETATM    5  C5  UNL     1      26.097   7.871  57.405  1.00  0.00    -0.106 C 
HETATM    6  C6  UNL     1      25.366   7.472  56.534  1.00  0.00    -0.105 C 
BRANCH   6   7
HETATM    7  C7  UNL     1      24.460   7.005  55.455  1.00  0.00     0.113 C 
BRANCH   7   8
HETATM    8  C8  UNL     1      24.479   5.494  55.470  1.00  0.00     0.134 C 
BRANCH   8   9
HETATM    9  N1  UNL     1      24.556   4.912  56.762  1.00  0.00    -0.360 N 
HETATM   10  C9  UNL     1      24.629   3.514  56.987  1.00  0.00     0.226 C 
HETATM   11  O1  UNL     1      24.622   2.770  55.976  1.00  0.00    -0.273 OA
ATOM     12  H1  UNL     1      24.559   5.533  57.572  1.00  0.00     0.162 HD
BRANCH  10  13
HETATM   13  C10 UNL     1      24.709   2.950  58.367  1.00  0.00     0.043 C 
HETATM   14  C11 UNL     1      25.406   3.937  59.247  1.00  0.00     0.024 C 
HETATM   15  C12 UNL     1      25.428   3.433  60.659  1.00  0.00    -0.012 C 
HETATM   16  C13 UNL     1      26.153   2.101  60.728  1.00  0.00     0.009 C 
HETATM   17  C18 UNL     1      24.022   3.227  61.131  1.00  0.00     0.023 C 
HETATM   18  C14 UNL     1      25.428   1.137  59.822  1.00  0.00    -0.012 C 
HETATM   19  C15 UNL     1      24.005   0.899  60.279  1.00  0.00     0.023 C 
HETATM   20  C20 UNL     1      25.439   1.643  58.412  1.00  0.00     0.024 C 
HETATM   21  C16 UNL     1      23.293   2.233  60.251  1.00  0.00     0.040 C 
HETATM   22  C19 UNL     1      23.282   2.700  58.812  1.00  0.00     0.038 C 
BRANCH  21  23
HETATM   23  C17 UNL     1      21.912   2.116  60.776  1.00  0.00     0.239 C 
HETATM   24  N2  UNL     1      20.795   1.870  59.942  1.00  0.00    -0.061 NA
HETATM   25  O2  UNL     1      21.736   2.244  62.013  1.00  0.00    -0.276 OA
ENDBRANCH  21  23
ENDBRANCH  10  13
ENDBRANCH   8   9
ENDBRANCH   7   8
ENDBRANCH   6   7
ENDBRANCH   4   5
ENDBRANCH   3   4
TORSDOF 7
ENDMDL
