MODEL 1
REMARK VINA RESULT: -8.222153653      0.000      0.000
REMARK  5 active torsions:
REMARK  status: ('A' for Active; 'I' for Inactive)
REMARK    1  A    between atoms: C2_2  and  C3_3 
REMARK    2  A    between atoms: C3_3  and  C4_4 
REMARK    3  A    between atoms: C4_4  and  N1_5 
REMARK       I    between atoms: N1_5  and  C5_7 
REMARK       I    between atoms: C5_7  and  N2_9 
REMARK    4  A    between atoms: C8_12  and  N3_13 
REMARK       I    between atoms: N3_13  and  C9_15 
REMARK       I    between atoms: C9_15  and  N4_17 
REMARK    5  A    between atoms: N4_17  and  C10_19 
ROOT
HETATM    1  N1  UNL     1      31.076   8.347  62.589  1.00  0.00    -0.319 N 
ATOM      2  H1  UNL     1      31.411   7.395  62.444  1.00  0.00     0.169 HD
HETATM    3  C5  UNL     1      30.088   8.733  61.679  1.00  0.00     0.322 C 
HETATM    4  O1  UNL     1      29.546   9.842  61.696  1.00  0.00    -0.247 OA
HETATM    5  N2  UNL     1      29.641   7.827  60.643  1.00  0.00    -0.334 N 
HETATM    6  C6  UNL     1      28.626   8.255  59.726  1.00  0.00     0.129 C 
HETATM    7  C7  UNL     1      27.564   7.242  59.452  1.00  0.00     0.045 C 
HETATM    8  C8  UNL     1      28.029   5.853  59.829  1.00  0.00     0.089 C 
HETATM    9  C16 UNL     1      29.502   5.767  59.463  1.00  0.00     0.045 C 
HETATM   10  C17 UNL     1      30.245   6.512  60.579  1.00  0.00     0.129 C 
ENDROOT
BRANCH   8  11
HETATM   11  N3  UNL     1      27.251   4.822  59.224  1.00  0.00    -0.338 N 
HETATM   12  C9  UNL     1      26.561   3.855  60.009  1.00  0.00     0.316 C 
HETATM   13  O2  UNL     1      26.664   3.943  61.277  1.00  0.00    -0.247 OA
HETATM   14  N4  UNL     1      25.780   2.819  59.424  1.00  0.00    -0.338 N 
ATOM     15  H4  UNL     1      25.693   2.741  58.410  1.00  0.00     0.164 HD
ATOM     16  H3  UNL     1      27.188   4.775  58.207  1.00  0.00     0.164 HD
BRANCH  14  17
HETATM   17  C10 UNL     1      25.119   1.888  60.294  1.00  0.00     0.090 C 
HETATM   18  C11 UNL     1      23.584   2.007  60.194  1.00  0.00     0.030 C 
HETATM   19  C12 UNL     1      23.266   0.646  59.677  1.00  0.00    -0.012 C 
HETATM   20  C13 UNL     1      24.182  -0.245  60.516  1.00  0.00     0.011 C 
HETATM   21  C15 UNL     1      24.329   0.476  58.583  1.00  0.00     0.011 C 
HETATM   22  C14 UNL     1      25.287   0.502  59.757  1.00  0.00     0.009 C 
ENDBRANCH  14  17
ENDBRANCH   8  11
BRANCH   1  23
HETATM   23  C4  UNL     1      31.706   9.005  63.668  1.00  0.00     0.088 C 
BRANCH  23  24
HETATM   24  C3  UNL     1      33.020   8.617  64.168  1.00  0.00    -0.010 C 
BRANCH  24  25
HETATM   25  C2  UNL     1      33.278   8.207  65.550  1.00  0.00     0.024 C 
HETATM   26  C1  UNL     1      32.905   9.219  66.614  1.00  0.00     0.009 C 
ENDBRANCH  24  25
ENDBRANCH  23  24
ENDBRANCH   1  23
TORSDOF 5
ENDMDL
MODEL 2
REMARK VINA RESULT: -7.764641837      4.295      9.635
REMARK  5 active torsions:
REMARK  status: ('A' for Active; 'I' for Inactive)
REMARK    1  A    between atoms: C2_2  and  C3_3 
REMARK    2  A    between atoms: C3_3  and  C4_4 
REMARK    3  A    between atoms: C4_4  and  N1_5 
REMARK       I    between atoms: N1_5  and  C5_7 
REMARK       I    between atoms: C5_7  and  N2_9 
REMARK    4  A    between atoms: C8_12  and  N3_13 
REMARK       I    between atoms: N3_13  and  C9_15 
REMARK       I    between atoms: C9_15  and  N4_17 
REMARK    5  A    between atoms: N4_17  and  C10_19 
ROOT
HETATM    1  N1  UNL     1      26.385  10.007  57.398  1.00  0.00    -0.319 N 
ATOM      2  H1  UNL     1      27.204  10.604  57.520  1.00  0.00     0.169 HD
HETATM    3  C5  UNL     1      26.582   8.696  57.837  1.00  0.00     0.322 C 
HETATM    4  O1  UNL     1      25.708   7.825  57.787  1.00  0.00    -0.247 OA
HETATM    5  N2  UNL     1      27.856   8.283  58.387  1.00  0.00    -0.334 N 
HETATM    6  C6  UNL     1      28.024   6.929  58.827  1.00  0.00     0.129 C 
HETATM    7  C7  UNL     1      28.729   6.781  60.135  1.00  0.00     0.045 C 
HETATM    8  C8  UNL     1      29.506   8.033  60.477  1.00  0.00     0.089 C 
HETATM    9  C16 UNL     1      30.082   8.564  59.175  1.00  0.00     0.045 C 
HETATM   10  C17 UNL     1      28.915   9.266  58.468  1.00  0.00     0.129 C 
ENDROOT
BRANCH   8  11
HETATM   11  N3  UNL     1      30.505   7.814  61.471  1.00  0.00    -0.338 N 
HETATM   12  C9  UNL     1      30.774   8.781  62.480  1.00  0.00     0.316 C 
HETATM   13  O2  UNL     1      30.087   9.857  62.463  1.00  0.00    -0.247 OA
HETATM   14  N4  UNL     1      31.766   8.581  63.479  1.00  0.00    -0.338 N 
ATOM     15  H4  UNL     1      32.321   7.725  63.500  1.00  0.00     0.164 HD
ATOM     16  H3  UNL     1      31.040   6.945  61.459  1.00  0.00     0.164 HD
BRANCH  14  17
HETATM   17  C10 UNL     1      31.968   9.612  64.458  1.00  0.00     0.090 C 
HETATM   18  C11 UNL     1      31.203   9.316  65.764  1.00  0.00     0.030 C 
HETATM   19  C12 UNL     1      32.355   9.197  66.702  1.00  0.00    -0.012 C 
HETATM   20  C13 UNL     1      33.250  10.358  66.268  1.00  0.00     0.011 C 
HETATM   21  C15 UNL     1      33.323   8.326  65.891  1.00  0.00     0.011 C 
HETATM   22  C14 UNL     1      33.369   9.534  64.978  1.00  0.00     0.009 C 
ENDBRANCH  14  17
ENDBRANCH   8  11
BRANCH   1  23
HETATM   23  C4  UNL     1      25.285  10.678  56.820  1.00  0.00     0.088 C 
BRANCH  23  24
HETATM   24  C3  UNL     1      24.798  10.380  55.477  1.00  0.00    -0.010 C 
BRANCH  24  25
HETATM   25  C2  UNL     1      23.382  10.207  55.143  1.00  0.00     0.024 C 
HETATM   26  C1  UNL     1      22.730  11.374  54.430  1.00  0.00     0.009 C 
ENDBRANCH  24  25
ENDBRANCH  23  24
ENDBRANCH   1  23
TORSDOF 5
ENDMDL
MODEL 3
REMARK VINA RESULT: -7.699638657      4.169      9.380
REMARK  5 active torsions:
REMARK  status: ('A' for Active; 'I' for Inactive)
REMARK    1  A    between atoms: C2_2  and  C3_3 
REMARK    2  A    between atoms: C3_3  and  C4_4 
REMARK    3  A    between atoms: C4_4  and  N1_5 
REMARK       I    between atoms: N1_5  and  C5_7 
REMARK       I    between atoms: C5_7  and  N2_9 
REMARK    4  A    between atoms: C8_12  and  N3_13 
REMARK       I    between atoms: N3_13  and  C9_15 
REMARK       I    between atoms: C9_15  and  N4_17 
REMARK    5  A    between atoms: N4_17  and  C10_19 
ROOT
HETATM    1  N1  UNL     1      26.161   9.636  57.519  1.00  0.00    -0.319 N 
ATOM      2  H1  UNL     1      26.927  10.300  57.634  1.00  0.00     0.169 HD
HETATM    3  C5  UNL     1      26.482   8.340  57.931  1.00  0.00     0.322 C 
HETATM    4  O1  UNL     1      25.686   7.397  57.884  1.00  0.00    -0.247 OA
HETATM    5  N2  UNL     1      27.799   8.031  58.445  1.00  0.00    -0.334 N 
HETATM    6  C6  UNL     1      28.095   6.691  58.857  1.00  0.00     0.129 C 
HETATM    7  C7  UNL     1      28.840   6.585  60.147  1.00  0.00     0.045 C 
HETATM    8  C8  UNL     1      29.513   7.894  60.494  1.00  0.00     0.089 C 
HETATM    9  C16 UNL     1      30.010   8.494  59.189  1.00  0.00     0.045 C 
HETATM   10  C17 UNL     1      28.771   9.103  58.520  1.00  0.00     0.129 C 
ENDROOT
BRANCH   8  11
HETATM   11  N3  UNL     1      30.551   7.748  61.462  1.00  0.00    -0.338 N 
HETATM   12  C9  UNL     1      30.758   8.720  62.480  1.00  0.00     0.316 C 
HETATM   13  O2  UNL     1      29.982   9.732  62.496  1.00  0.00    -0.247 OA
HETATM   14  N4  UNL     1      31.788   8.592  63.454  1.00  0.00    -0.338 N 
ATOM     15  H4  UNL     1      32.414   7.787  63.448  1.00  0.00     0.164 HD
ATOM     16  H3  UNL     1      31.157   6.929  61.424  1.00  0.00     0.164 HD
BRANCH  14  17
HETATM   17  C10 UNL     1      31.923   9.622  64.444  1.00  0.00     0.090 C 
HETATM   18  C11 UNL     1      31.133   9.288  65.726  1.00  0.00     0.030 C 
HETATM   19  C12 UNL     1      32.261   9.205  66.696  1.00  0.00    -0.012 C 
HETATM   20  C13 UNL     1      33.125  10.402  66.296  1.00  0.00     0.011 C 
HETATM   21  C15 UNL     1      33.284   8.377  65.907  1.00  0.00     0.011 C 
HETATM   22  C14 UNL     1      33.311   9.593  65.004  1.00  0.00     0.009 C 
ENDBRANCH  14  17
ENDBRANCH   8  11
BRANCH   1  23
HETATM   23  C4  UNL     1      24.993  10.216  56.977  1.00  0.00     0.088 C 
BRANCH  23  24
HETATM   24  C3  UNL     1      24.817  11.659  56.851  1.00  0.00    -0.010 C 
BRANCH  24  25
HETATM   25  C2  UNL     1      23.527  12.339  57.001  1.00  0.00     0.024 C 
HETATM   26  C1  UNL     1      23.598  13.795  57.414  1.00  0.00     0.009 C 
ENDBRANCH  24  25
ENDBRANCH  23  24
ENDBRANCH   1  23
TORSDOF 5
ENDMDL
MODEL 4
REMARK VINA RESULT: -7.614635897      4.791      9.566
REMARK  5 active torsions:
REMARK  status: ('A' for Active; 'I' for Inactive)
REMARK    1  A    between atoms: C2_2  and  C3_3 
REMARK    2  A    between atoms: C3_3  and  C4_4 
REMARK    3  A    between atoms: C4_4  and  N1_5 
REMARK       I    between atoms: N1_5  and  C5_7 
REMARK       I    between atoms: C5_7  and  N2_9 
REMARK    4  A    between atoms: C8_12  and  N3_13 
REMARK       I    between atoms: N3_13  and  C9_15 
REMARK       I    between atoms: C9_15  and  N4_17 
REMARK    5  A    between atoms: N4_17  and  C10_19 
ROOT
HETATM    1  N1  UNL     1      26.381  10.651  57.448  1.00  0.00    -0.319 N 
ATOM      2  H1  UNL     1      27.198  11.261  57.412  1.00  0.00     0.169 HD
HETATM    3  C5  UNL     1      26.660   9.378  57.952  1.00  0.00     0.322 C 
HETATM    4  O1  UNL     1      25.803   8.500  58.087  1.00  0.00    -0.247 OA
HETATM    5  N2  UNL     1      28.004   9.017  58.350  1.00  0.00    -0.334 N 
HETATM    6  C6  UNL     1      28.255   7.703  58.863  1.00  0.00     0.129 C 
HETATM    7  C7  UNL     1      29.134   7.659  60.069  1.00  0.00     0.045 C 
HETATM    8  C8  UNL     1      29.928   8.939  60.207  1.00  0.00     0.089 C 
HETATM    9  C16 UNL     1      30.311   9.375  58.802  1.00  0.00     0.045 C 
HETATM   10  C17 UNL     1      29.047  10.012  58.212  1.00  0.00     0.129 C 
ENDROOT
BRANCH   8  11
HETATM   11  N3  UNL     1      31.058   8.804  61.068  1.00  0.00    -0.338 N 
HETATM   12  C9  UNL     1      30.919   8.837  62.484  1.00  0.00     0.316 C 
HETATM   13  O2  UNL     1      29.745   8.993  62.958  1.00  0.00    -0.247 OA
HETATM   14  N4  UNL     1      32.034   8.704  63.359  1.00  0.00    -0.338 N 
ATOM     15  H4  UNL     1      32.976   8.580  62.988  1.00  0.00     0.164 HD
ATOM     16  H3  UNL     1      31.984   8.681  60.660  1.00  0.00     0.164 HD
BRANCH  14  17
HETATM   17  C10 UNL     1      31.799   8.749  64.775  1.00  0.00     0.090 C 
HETATM   18  C11 UNL     1      33.053   8.334  65.573  1.00  0.00     0.030 C 
HETATM   19  C12 UNL     1      33.312   9.608  66.301  1.00  0.00    -0.012 C 
HETATM   20  C13 UNL     1      31.907  10.032  66.729  1.00  0.00     0.011 C 
HETATM   21  C15 UNL     1      33.137  10.643  65.182  1.00  0.00     0.011 C 
HETATM   22  C14 UNL     1      31.696  10.175  65.215  1.00  0.00     0.009 C 
ENDBRANCH  14  17
ENDBRANCH   8  11
BRANCH   1  23
HETATM   23  C4  UNL     1      25.201  11.267  56.978  1.00  0.00     0.088 C 
BRANCH  23  24
HETATM   24  C3  UNL     1      24.578  10.910  55.708  1.00  0.00    -0.010 C 
BRANCH  24  25
HETATM   25  C2  UNL     1      24.743   9.607  55.058  1.00  0.00     0.024 C 
HETATM   26  C1  UNL     1      23.689   8.571  55.387  1.00  0.00     0.009 C 
ENDBRANCH  24  25
ENDBRANCH  23  24
ENDBRANCH   1  23
TORSDOF 5
ENDMDL
MODEL 5
REMARK VINA RESULT: -7.469768785      5.975      9.448
REMARK  5 active torsions:
REMARK  status: ('A' for Active; 'I' for Inactive)
REMARK    1  A    between atoms: C2_2  and  C3_3 
REMARK    2  A    between atoms: C3_3  and  C4_4 
REMARK    3  A    between atoms: C4_4  and  N1_5 
REMARK       I    between atoms: N1_5  and  C5_7 
REMARK       I    between atoms: C5_7  and  N2_9 
REMARK    4  A    between atoms: C8_12  and  N3_13 
REMARK       I    between atoms: N3_13  and  C9_15 
REMARK       I    between atoms: C9_15  and  N4_17 
REMARK    5  A    between atoms: N4_17  and  C10_19 
ROOT
HETATM    1  N1  UNL     1      24.037   2.990  60.249  1.00  0.00    -0.319 N 
ATOM      2  H1  UNL     1      23.221   3.515  59.934  1.00  0.00     0.169 HD
HETATM    3  C5  UNL     1      24.165   1.743  59.633  1.00  0.00     0.322 C 
HETATM    4  O1  UNL     1      25.093   0.962  59.869  1.00  0.00    -0.247 OA
HETATM    5  N2  UNL     1      23.190   1.291  58.664  1.00  0.00    -0.334 N 
HETATM    6  C6  UNL     1      23.352   0.005  58.052  1.00  0.00     0.129 C 
HETATM    7  C7  UNL     1      23.108  -0.021  56.579  1.00  0.00     0.045 C 
HETATM    8  C8  UNL     1      22.308   1.185  56.140  1.00  0.00     0.089 C 
HETATM    9  C16 UNL     1      21.295   1.466  57.238  1.00  0.00     0.045 C 
HETATM   10  C17 UNL     1      22.081   2.169  58.352  1.00  0.00     0.129 C 
ENDROOT
BRANCH   8  11
HETATM   11  N3  UNL     1      21.701   1.016  54.861  1.00  0.00    -0.338 N 
HETATM   12  C9  UNL     1      21.405   2.130  54.026  1.00  0.00     0.316 C 
HETATM   13  O2  UNL     1      21.703   3.290  54.464  1.00  0.00    -0.247 OA
HETATM   14  N4  UNL     1      20.799   1.980  52.747  1.00  0.00    -0.338 N 
ATOM     15  H4  UNL     1      20.557   1.056  52.389  1.00  0.00     0.164 HD
ATOM     16  H3  UNL     1      21.473   0.076  54.537  1.00  0.00     0.164 HD
BRANCH  14  17
HETATM   17  C10 UNL     1      20.538   3.161  51.973  1.00  0.00     0.090 C 
HETATM   18  C11 UNL     1      20.739   2.910  50.465  1.00  0.00     0.030 C 
HETATM   19  C12 UNL     1      19.350   3.159  49.987  1.00  0.00    -0.012 C 
HETATM   20  C13 UNL     1      18.948   4.400  50.784  1.00  0.00     0.011 C 
HETATM   21  C15 UNL     1      18.524   2.391  51.027  1.00  0.00     0.011 C 
HETATM   22  C14 UNL     1      19.067   3.440  51.976  1.00  0.00     0.009 C 
ENDBRANCH  14  17
ENDBRANCH   8  11
BRANCH   1  23
HETATM   23  C4  UNL     1      24.804   3.674  61.217  1.00  0.00     0.088 C 
BRANCH  23  24
HETATM   24  C3  UNL     1      26.146   3.249  61.602  1.00  0.00    -0.010 C 
BRANCH  24  25
HETATM   25  C2  UNL     1      27.358   3.604  60.859  1.00  0.00     0.024 C 
HETATM   26  C1  UNL     1      27.331   4.950  60.166  1.00  0.00     0.009 C 
ENDBRANCH  24  25
ENDBRANCH  23  24
ENDBRANCH   1  23
TORSDOF 5
ENDMDL
