MODEL 1
REMARK VINA RESULT: -7.962576362      0.000      0.000
REMARK  3 active torsions:
REMARK  status: ('A' for Active; 'I' for Inactive)
REMARK    1  A    between atoms: S1_2  and  C2_3 
REMARK    2  A    between atoms: C2_3  and  N2_7 
REMARK    3  A    between atoms: N3_9  and  C3_11 
ROOT
HETATM    1  C3  UNL     1      -3.576 -23.481  -8.967  1.00  0.00     0.102 C 
HETATM    2  C4  UNL     1      -4.051 -22.028  -8.858  1.00  0.00     0.030 C 
HETATM    3  C5  UNL     1      -2.913 -21.157  -9.375  1.00  0.00     0.029 C 
HETATM    4  C6  UNL     1      -2.045 -20.690  -8.260  1.00  0.00    -0.030 C 
HETATM    5  C7  UNL     1      -0.755 -20.952  -8.125  1.00  0.00    -0.026 C 
HETATM    6  C8  UNL     1       0.052 -21.759  -9.068  1.00  0.00     0.071 C 
HETATM    7  C9  UNL     1      -0.052 -23.222  -8.895  1.00  0.00     0.068 C 
HETATM    8  N4  UNL     1      -0.651 -23.679  -7.704  1.00  0.00    -0.354 N 
HETATM    9  C10 UNL     1       0.008 -23.424  -6.496  1.00  0.00     0.065 C 
HETATM   10  C11 UNL     1       0.120 -24.521  -5.500  1.00  0.00     0.045 C 
HETATM   11  C12 UNL     1      -0.235 -25.831  -6.169  1.00  0.00     0.008 C 
HETATM   12  C13 UNL     1      -1.684 -25.642  -6.642  1.00  0.00     0.044 C 
HETATM   13  C14 UNL     1      -1.683 -24.614  -7.753  1.00  0.00     0.095 C 
HETATM   14 BR1  UNL     1      -1.666 -25.616  -9.410  1.00  0.00    -0.061 Br
HETATM   15  C15 UNL     1      -3.024 -23.874  -7.640  1.00  0.00     0.070 C 
ENDROOT
BRANCH   1  16
HETATM   16  N3  UNL     1      -4.737 -24.337  -9.257  1.00  0.00    -0.330 N 
HETATM   17  N2  UNL     1      -4.750 -24.929 -10.380  1.00  0.00    -0.284 N 
ATOM     18  H2  UNL     1      -3.979 -24.801 -11.036  1.00  0.00     0.188 HD
ATOM     19  H3  UNL     1      -5.496 -24.450  -8.586  1.00  0.00     0.180 HD
BRANCH  17  20
HETATM   20  C2  UNL     1      -5.845 -25.771 -10.719  1.00  0.00     0.151 C 
HETATM   21  N1  UNL     1      -6.943 -25.656 -10.051  1.00  0.00    -0.379 N 
ATOM     22  H12 UNL     1      -7.727 -26.259 -10.295  1.00  0.00     0.158 HD
ATOM     23  H11 UNL     1      -7.050 -24.983  -9.292  1.00  0.00     0.158 HD
BRANCH  20  24
HETATM   24  S1  UNL     1      -5.655 -26.951 -12.051  1.00  0.00    -0.098 SA
HETATM   25  C1  UNL     1      -6.076 -28.596 -11.413  1.00  0.00     0.099 C 
ENDBRANCH  20  24
ENDBRANCH  17  20
ENDBRANCH   1  16
TORSDOF 3
ENDMDL
MODEL 2
REMARK VINA RESULT: -6.500622327      3.322      5.562
REMARK  3 active torsions:
REMARK  status: ('A' for Active; 'I' for Inactive)
REMARK    1  A    between atoms: S1_2  and  C2_3 
REMARK    2  A    between atoms: C2_3  and  N2_7 
REMARK    3  A    between atoms: N3_9  and  C3_11 
ROOT
HETATM    1  C3  UNL     1      -2.143 -23.875  -8.613  1.00  0.00     0.102 C 
HETATM    2  C4  UNL     1      -3.387 -24.755  -8.779  1.00  0.00     0.030 C 
HETATM    3  C5  UNL     1      -3.888 -24.539 -10.202  1.00  0.00     0.029 C 
HETATM    4  C6  UNL     1      -4.940 -23.486 -10.247  1.00  0.00    -0.030 C 
HETATM    5  C7  UNL     1      -4.866 -22.351 -10.924  1.00  0.00    -0.026 C 
HETATM    6  C8  UNL     1      -3.717 -21.932 -11.758  1.00  0.00     0.071 C 
HETATM    7  C9  UNL     1      -2.590 -21.326 -11.021  1.00  0.00     0.068 C 
HETATM    8  N4  UNL     1      -2.835 -20.948  -9.686  1.00  0.00    -0.354 N 
HETATM    9  C10 UNL     1      -3.750 -19.916  -9.450  1.00  0.00     0.065 C 
HETATM   10  C11 UNL     1      -3.393 -18.857  -8.472  1.00  0.00     0.045 C 
HETATM   11  C12 UNL     1      -1.915 -18.949  -8.163  1.00  0.00     0.008 C 
HETATM   12  C13 UNL     1      -1.732 -20.354  -7.570  1.00  0.00     0.044 C 
HETATM   13  C14 UNL     1      -1.974 -21.363  -8.671  1.00  0.00     0.095 C 
HETATM   14 BR1  UNL     1      -0.226 -21.833  -9.360  1.00  0.00    -0.061 Br
HETATM   15  C15 UNL     1      -2.579 -22.595  -7.985  1.00  0.00     0.070 C 
ENDROOT
BRANCH   1  16
HETATM   16  N3  UNL     1      -1.208 -24.545  -7.697  1.00  0.00    -0.330 N 
HETATM   17  N2  UNL     1      -1.559 -25.677  -7.244  1.00  0.00    -0.284 N 
ATOM     18  H2  UNL     1      -2.454 -26.084  -7.516  1.00  0.00     0.188 HD
ATOM     19  H3  UNL     1      -0.318 -24.120  -7.439  1.00  0.00     0.180 HD
BRANCH  17  20
HETATM   20  C2  UNL     1      -0.698 -26.377  -6.353  1.00  0.00     0.151 C 
HETATM   21  N1  UNL     1      -0.954 -27.613  -6.090  1.00  0.00    -0.379 N 
ATOM     22  H12 UNL     1      -0.337 -28.115  -5.453  1.00  0.00     0.158 HD
ATOM     23  H11 UNL     1      -1.751 -28.103  -6.498  1.00  0.00     0.158 HD
BRANCH  20  24
HETATM   24  S1  UNL     1       0.700 -25.517  -5.639  1.00  0.00    -0.098 SA
HETATM   25  C1  UNL     1       0.089 -24.470  -4.290  1.00  0.00     0.099 C 
ENDBRANCH  20  24
ENDBRANCH  17  20
ENDBRANCH   1  16
TORSDOF 3
ENDMDL
MODEL 3
REMARK VINA RESULT: -6.397543741      1.003      1.060
REMARK  3 active torsions:
REMARK  status: ('A' for Active; 'I' for Inactive)
REMARK    1  A    between atoms: S1_2  and  C2_3 
REMARK    2  A    between atoms: C2_3  and  N2_7 
REMARK    3  A    between atoms: N3_9  and  C3_11 
ROOT
HETATM    1  C3  UNL     1      -3.562 -23.770  -9.243  1.00  0.00     0.102 C 
HETATM    2  C4  UNL     1      -4.249 -22.403  -9.147  1.00  0.00     0.030 C 
HETATM    3  C5  UNL     1      -3.214 -21.365  -9.564  1.00  0.00     0.029 C 
HETATM    4  C6  UNL     1      -2.506 -20.807  -8.380  1.00  0.00    -0.030 C 
HETATM    5  C7  UNL     1      -1.204 -20.885  -8.153  1.00  0.00    -0.026 C 
HETATM    6  C8  UNL     1      -0.224 -21.544  -9.045  1.00  0.00     0.071 C 
HETATM    7  C9  UNL     1      -0.127 -23.011  -8.903  1.00  0.00     0.068 C 
HETATM    8  N4  UNL     1      -0.737 -23.579  -7.767  1.00  0.00    -0.354 N 
HETATM    9  C10 UNL     1      -0.211 -23.264  -6.509  1.00  0.00     0.065 C 
HETATM   10  C11 UNL     1      -0.013 -24.359  -5.525  1.00  0.00     0.045 C 
HETATM   11  C12 UNL     1      -0.125 -25.689  -6.238  1.00  0.00     0.008 C 
HETATM   12  C13 UNL     1      -1.549 -25.697  -6.815  1.00  0.00     0.044 C 
HETATM   13  C14 UNL     1      -1.617 -24.651  -7.908  1.00  0.00     0.095 C 
HETATM   14 BR1  UNL     1      -1.336 -25.597  -9.573  1.00  0.00    -0.061 Br
HETATM   15  C15 UNL     1      -3.055 -24.114  -7.884  1.00  0.00     0.070 C 
ENDROOT
BRANCH   1  16
HETATM   16  N3  UNL     1      -4.562 -24.776  -9.632  1.00  0.00    -0.330 N 
HETATM   17  N2  UNL     1      -4.204 -25.646 -10.483  1.00  0.00    -0.284 N 
ATOM     18  H2  UNL     1      -3.259 -25.629 -10.867  1.00  0.00     0.188 HD
ATOM     19  H3  UNL     1      -5.501 -24.774  -9.235  1.00  0.00     0.180 HD
BRANCH  17  20
HETATM   20  C2  UNL     1      -5.126 -26.646 -10.899  1.00  0.00     0.151 C 
HETATM   21  N1  UNL     1      -4.671 -27.695 -11.496  1.00  0.00    -0.379 N 
ATOM     22  H12 UNL     1      -5.332 -28.412 -11.794  1.00  0.00     0.158 HD
ATOM     23  H11 UNL     1      -3.676 -27.829 -11.679  1.00  0.00     0.158 HD
BRANCH  20  24
HETATM   24  S1  UNL     1      -6.870 -26.409 -10.578  1.00  0.00    -0.098 SA
HETATM   25  C1  UNL     1      -7.798 -27.579 -11.608  1.00  0.00     0.099 C 
ENDBRANCH  20  24
ENDBRANCH  17  20
ENDBRANCH   1  16
TORSDOF 3
ENDMDL
MODEL 4
REMARK VINA RESULT: -6.351622838      1.056      1.069
REMARK  3 active torsions:
REMARK  status: ('A' for Active; 'I' for Inactive)
REMARK    1  A    between atoms: S1_2  and  C2_3 
REMARK    2  A    between atoms: C2_3  and  N2_7 
REMARK    3  A    between atoms: N3_9  and  C3_11 
ROOT
HETATM    1  C3  UNL     1      -3.374 -23.312  -9.531  1.00  0.00     0.102 C 
HETATM    2  C4  UNL     1      -3.979 -21.912  -9.383  1.00  0.00     0.030 C 
HETATM    3  C5  UNL     1      -2.841 -20.920  -9.594  1.00  0.00     0.029 C 
HETATM    4  C6  UNL     1      -2.234 -20.517  -8.296  1.00  0.00    -0.030 C 
HETATM    5  C7  UNL     1      -0.973 -20.708  -7.942  1.00  0.00    -0.026 C 
HETATM    6  C8  UNL     1       0.056 -21.360  -8.784  1.00  0.00     0.071 C 
HETATM    7  C9  UNL     1       0.043 -22.836  -8.766  1.00  0.00     0.068 C 
HETATM    8  N4  UNL     1      -0.723 -23.452  -7.757  1.00  0.00    -0.354 N 
HETATM    9  C10 UNL     1      -0.321 -23.283  -6.428  1.00  0.00     0.065 C 
HETATM   10  C11 UNL     1      -0.303 -24.467  -5.532  1.00  0.00     0.045 C 
HETATM   11  C12 UNL     1      -0.419 -25.721  -6.371  1.00  0.00     0.008 C 
HETATM   12  C13 UNL     1      -1.768 -25.577  -7.093  1.00  0.00     0.044 C 
HETATM   13  C14 UNL     1      -1.648 -24.441  -8.086  1.00  0.00     0.095 C 
HETATM   14 BR1  UNL     1      -1.245 -25.262  -9.793  1.00  0.00    -0.061 Br
HETATM   15  C15 UNL     1      -3.044 -23.805  -8.164  1.00  0.00     0.070 C 
ENDROOT
BRANCH   1  16
HETATM   16  N3  UNL     1      -4.387 -24.206 -10.113  1.00  0.00    -0.330 N 
HETATM   17  N2  UNL     1      -4.101 -24.759 -11.218  1.00  0.00    -0.284 N 
ATOM     18  H2  UNL     1      -3.202 -24.577 -11.665  1.00  0.00     0.188 HD
ATOM     19  H3  UNL     1      -5.279 -24.373  -9.648  1.00  0.00     0.180 HD
BRANCH  17  20
HETATM   20  C2  UNL     1      -5.039 -25.636 -11.831  1.00  0.00     0.151 C 
HETATM   21  N1  UNL     1      -5.814 -25.166 -12.749  1.00  0.00    -0.379 N 
ATOM     22  H12 UNL     1      -6.486 -25.794 -13.188  1.00  0.00     0.158 HD
ATOM     23  H11 UNL     1      -5.777 -24.191 -13.047  1.00  0.00     0.158 HD
BRANCH  20  24
HETATM   24  S1  UNL     1      -5.104 -27.345 -11.307  1.00  0.00    -0.098 SA
HETATM   25  C1  UNL     1      -3.430 -28.034 -11.413  1.00  0.00     0.099 C 
ENDBRANCH  20  24
ENDBRANCH  17  20
ENDBRANCH   1  16
TORSDOF 3
ENDMDL
MODEL 5
REMARK VINA RESULT: -6.115182238      3.332      5.596
REMARK  3 active torsions:
REMARK  status: ('A' for Active; 'I' for Inactive)
REMARK    1  A    between atoms: S1_2  and  C2_3 
REMARK    2  A    between atoms: C2_3  and  N2_7 
REMARK    3  A    between atoms: N3_9  and  C3_11 
ROOT
HETATM    1  C3  UNL     1      -1.910 -23.700  -8.659  1.00  0.00     0.102 C 
HETATM    2  C4  UNL     1      -3.101 -24.657  -8.778  1.00  0.00     0.030 C 
HETATM    3  C5  UNL     1      -3.669 -24.474 -10.180  1.00  0.00     0.029 C 
HETATM    4  C6  UNL     1      -4.786 -23.490 -10.183  1.00  0.00    -0.030 C 
HETATM    5  C7  UNL     1      -4.810 -22.353 -10.860  1.00  0.00    -0.026 C 
HETATM    6  C8  UNL     1      -3.723 -21.863 -11.737  1.00  0.00     0.071 C 
HETATM    7  C9  UNL     1      -2.608 -21.186 -11.043  1.00  0.00     0.068 C 
HETATM    8  N4  UNL     1      -2.825 -20.824  -9.699  1.00  0.00    -0.354 N 
HETATM    9  C10 UNL     1      -3.793 -19.851  -9.426  1.00  0.00     0.065 C 
HETATM   10  C11 UNL     1      -3.467 -18.771  -8.460  1.00  0.00     0.045 C 
HETATM   11  C12 UNL     1      -1.975 -18.769  -8.209  1.00  0.00     0.008 C 
HETATM   12  C13 UNL     1      -1.682 -20.160  -7.625  1.00  0.00     0.044 C 
HETATM   13  C14 UNL     1      -1.901 -21.183  -8.719  1.00  0.00     0.095 C 
HETATM   14 BR1  UNL     1      -0.155 -21.542  -9.475  1.00  0.00    -0.061 Br
HETATM   15  C15 UNL     1      -2.401 -22.451  -8.011  1.00  0.00     0.070 C 
ENDROOT
BRANCH   1  16
HETATM   16  N3  UNL     1      -0.900 -24.310  -7.781  1.00  0.00    -0.330 N 
HETATM   17  N2  UNL     1      -1.033 -24.123  -6.533  1.00  0.00    -0.284 N 
ATOM     18  H2  UNL     1      -1.814 -23.571  -6.178  1.00  0.00     0.188 HD
ATOM     19  H3  UNL     1      -0.127 -24.858  -8.158  1.00  0.00     0.180 HD
BRANCH  17  20
HETATM   20  C2  UNL     1      -0.089 -24.688  -5.631  1.00  0.00     0.151 C 
HETATM   21  N1  UNL     1       0.235 -24.018  -4.578  1.00  0.00    -0.379 N 
ATOM     22  H12 UNL     1       0.912 -24.424  -3.931  1.00  0.00     0.158 HD
ATOM     23  H11 UNL     1      -0.161 -23.101  -4.371  1.00  0.00     0.158 HD
BRANCH  20  24
HETATM   24  S1  UNL     1       0.606 -26.297  -5.993  1.00  0.00    -0.098 SA
HETATM   25  C1  UNL     1      -0.763 -27.465  -6.221  1.00  0.00     0.099 C 
ENDBRANCH  20  24
ENDBRANCH  17  20
ENDBRANCH   1  16
TORSDOF 3
ENDMDL
