MODEL 1
REMARK VINA RESULT: -7.782351455      0.000      0.000
REMARK  4 active torsions:
REMARK  status: ('A' for Active; 'I' for Inactive)
REMARK    1  A    between atoms: C2_2  and  O2_4 
REMARK    2  A    between atoms: O2_4  and  C3_5 
REMARK    3  A    between atoms: C13_15  and  O3_16 
REMARK    4  A    between atoms: C13_15  and  C14_18 
ROOT
HETATM    1  C14 UNL     1      -2.606 -19.818  -8.691  1.00  0.00    -0.050 C 
HETATM    2  C15 UNL     1      -2.857 -18.982  -7.855  1.00  0.00     0.008 C 
HETATM    3 CL1  UNL     1      -3.234 -17.801  -6.659  1.00  0.00    -0.023 Cl
ENDROOT
BRANCH   1   4
HETATM    4  C13 UNL     1      -2.287 -20.813  -9.715  1.00  0.00     0.130 C 
HETATM    5  C11 UNL     1      -3.371 -21.896  -9.800  1.00  0.00     0.007 C 
HETATM    6  C10 UNL     1      -3.814 -22.077 -11.216  1.00  0.00     0.014 C 
HETATM    7  C12 UNL     1      -4.559 -21.365  -9.028  1.00  0.00     0.020 C 
HETATM    8  C18 UNL     1      -2.694 -23.065  -9.211  1.00  0.00    -0.025 C 
HETATM    9  C9  UNL     1      -4.142 -23.441 -11.667  1.00  0.00     0.007 C 
HETATM   10  C8  UNL     1      -3.478 -24.586 -10.983  1.00  0.00     0.005 C 
HETATM   11  C6  UNL     1      -3.265 -24.424  -9.526  1.00  0.00    -0.031 C 
HETATM   12  C20 UNL     1      -4.190 -25.862 -11.370  1.00  0.00    -0.017 C 
HETATM   13  C5  UNL     1      -4.439 -24.758  -8.653  1.00  0.00     0.013 C 
HETATM   14  C7  UNL     1      -2.144 -25.401  -9.117  1.00  0.00     0.016 C 
HETATM   15  C4  UNL     1      -5.628 -25.297  -9.377  1.00  0.00     0.034 C 
HETATM   16  C3  UNL     1      -5.311 -26.252 -10.479  1.00  0.00     0.140 C 
HETATM   17  C21 UNL     1      -4.772 -25.719 -12.788  1.00  0.00     0.018 C 
HETATM   18  C22 UNL     1      -3.231 -27.041 -11.496  1.00  0.00     0.018 C 
HETATM   19  C17 UNL     1      -1.311 -22.956  -9.878  1.00  0.00     0.014 C 
HETATM   20  C19 UNL     1      -2.432 -22.987  -7.744  1.00  0.00     0.017 C 
HETATM   21  C16 UNL     1      -0.985 -21.510  -9.492  1.00  0.00     0.053 C 
BRANCH  16  22
HETATM   22  O2  UNL     1      -6.533 -26.471 -11.196  1.00  0.00    -0.316 OA
BRANCH  22  23
HETATM   23  C2  UNL     1      -7.033 -27.704 -11.510  1.00  0.00     0.255 C 
HETATM   24  C1  UNL     1      -6.204 -28.936 -11.309  1.00  0.00     0.126 C 
HETATM   25  O1  UNL     1      -8.190 -27.792 -11.966  1.00  0.00    -0.266 OA
ENDBRANCH  22  23
ENDBRANCH  16  22
BRANCH   4  26
HETATM   26  O3  UNL     1      -2.171 -20.106 -10.908  1.00  0.00    -0.377 OA
ATOM     27  H3  UNL     1      -1.286 -20.137 -11.250  1.00  0.00     0.211 HD
ENDBRANCH   4  26
ENDBRANCH   1   4
TORSDOF 4
ENDMDL
MODEL 2
REMARK VINA RESULT: -5.496482014      3.633      6.428
REMARK  4 active torsions:
REMARK  status: ('A' for Active; 'I' for Inactive)
REMARK    1  A    between atoms: C2_2  and  O2_4 
REMARK    2  A    between atoms: O2_4  and  C3_5 
REMARK    3  A    between atoms: C13_15  and  O3_16 
REMARK    4  A    between atoms: C13_15  and  C14_18 
ROOT
HETATM    1  C14 UNL     1      -5.582 -26.357 -11.807  1.00  0.00    -0.050 C 
HETATM    2  C15 UNL     1      -6.532 -27.101 -11.742  1.00  0.00     0.008 C 
HETATM    3 CL1  UNL     1      -7.874 -28.178 -11.657  1.00  0.00    -0.023 Cl
ENDROOT
BRANCH   1   4
HETATM    4  C13 UNL     1      -4.447 -25.438 -11.887  1.00  0.00     0.130 C 
HETATM    5  C11 UNL     1      -3.687 -25.366 -10.556  1.00  0.00     0.007 C 
HETATM    6  C10 UNL     1      -2.224 -25.573 -10.781  1.00  0.00     0.014 C 
HETATM    7  C12 UNL     1      -4.178 -26.534  -9.728  1.00  0.00     0.020 C 
HETATM    8  C18 UNL     1      -4.052 -24.029 -10.058  1.00  0.00    -0.025 C 
HETATM    9  C9  UNL     1      -1.283 -24.797  -9.955  1.00  0.00     0.007 C 
HETATM   10  C8  UNL     1      -1.736 -23.483  -9.420  1.00  0.00     0.005 C 
HETATM   11  C6  UNL     1      -3.158 -23.415  -9.011  1.00  0.00    -0.031 C 
HETATM   12  C20 UNL     1      -0.761 -23.028  -8.358  1.00  0.00    -0.017 C 
HETATM   13  C5  UNL     1      -3.467 -23.930  -7.635  1.00  0.00     0.013 C 
HETATM   14  C7  UNL     1      -3.562 -21.926  -9.004  1.00  0.00     0.016 C 
HETATM   15  C4  UNL     1      -2.277 -24.351  -6.838  1.00  0.00     0.034 C 
HETATM   16  C3  UNL     1      -1.084 -23.465  -6.978  1.00  0.00     0.140 C 
HETATM   17  C21 UNL     1       0.644 -23.568  -8.682  1.00  0.00     0.018 C 
HETATM   18  C22 UNL     1      -0.570 -21.515  -8.362  1.00  0.00     0.018 C 
HETATM   19  C17 UNL     1      -3.921 -23.201 -11.349  1.00  0.00     0.014 C 
HETATM   20  C19 UNL     1      -5.471 -23.866  -9.627  1.00  0.00     0.017 C 
HETATM   21  C16 UNL     1      -4.829 -24.041 -12.252  1.00  0.00     0.053 C 
BRANCH  16  22
HETATM   22  O2  UNL     1       0.008 -24.145  -6.346  1.00  0.00    -0.316 OA
BRANCH  22  23
HETATM   23  C2  UNL     1      -0.132 -25.204  -5.493  1.00  0.00     0.255 C 
HETATM   24  C1  UNL     1      -0.390 -26.581  -6.024  1.00  0.00     0.126 C 
HETATM   25  O1  UNL     1      -0.042 -25.011  -4.264  1.00  0.00    -0.266 OA
ENDBRANCH  22  23
ENDBRANCH  16  22
BRANCH   4  26
HETATM   26  O3  UNL     1      -3.641 -25.920 -12.915  1.00  0.00    -0.377 OA
ATOM     27  H3  UNL     1      -4.026 -25.759 -13.768  1.00  0.00     0.211 HD
ENDBRANCH   4  26
ENDBRANCH   1   4
TORSDOF 4
ENDMDL
MODEL 3
REMARK VINA RESULT: -4.604710003      1.026      1.043
REMARK  4 active torsions:
REMARK  status: ('A' for Active; 'I' for Inactive)
REMARK    1  A    between atoms: C2_2  and  O2_4 
REMARK    2  A    between atoms: O2_4  and  C3_5 
REMARK    3  A    between atoms: C13_15  and  O3_16 
REMARK    4  A    between atoms: C13_15  and  C14_18 
ROOT
HETATM    1  C14 UNL     1      -2.910 -19.689  -9.282  1.00  0.00    -0.050 C 
HETATM    2  C15 UNL     1      -3.388 -18.754  -8.682  1.00  0.00     0.008 C 
HETATM    3 CL1  UNL     1      -4.090 -17.429  -7.835  1.00  0.00    -0.023 Cl
ENDROOT
BRANCH   1   4
HETATM    4  C13 UNL     1      -2.309 -20.807 -10.009  1.00  0.00     0.130 C 
HETATM    5  C11 UNL     1      -3.252 -22.017 -10.055  1.00  0.00     0.007 C 
HETATM    6  C10 UNL     1      -3.394 -22.513 -11.457  1.00  0.00     0.014 C 
HETATM    7  C12 UNL     1      -4.610 -21.509  -9.623  1.00  0.00     0.020 C 
HETATM    8  C18 UNL     1      -2.598 -22.960  -9.130  1.00  0.00    -0.025 C 
HETATM    9  C9  UNL     1      -3.501 -23.967 -11.667  1.00  0.00     0.007 C 
HETATM   10  C8  UNL     1      -2.880 -24.870 -10.659  1.00  0.00     0.005 C 
HETATM   11  C6  UNL     1      -2.969 -24.415  -9.252  1.00  0.00    -0.031 C 
HETATM   12  C20 UNL     1      -3.383 -26.277 -10.891  1.00  0.00    -0.017 C 
HETATM   13  C5  UNL     1      -4.255 -24.730  -8.544  1.00  0.00     0.013 C 
HETATM   14  C7  UNL     1      -1.864 -25.148  -8.464  1.00  0.00     0.016 C 
HETATM   15  C4  UNL     1      -5.227 -25.542  -9.335  1.00  0.00     0.034 C 
HETATM   16  C3  UNL     1      -4.615 -26.636 -10.145  1.00  0.00     0.140 C 
HETATM   17  C21 UNL     1      -3.691 -26.475 -12.387  1.00  0.00     0.018 C 
HETATM   18  C22 UNL     1      -2.315 -27.326 -10.606  1.00  0.00     0.018 C 
HETATM   19  C17 UNL     1      -1.128 -22.800  -9.557  1.00  0.00     0.014 C 
HETATM   20  C19 UNL     1      -2.633 -22.579  -7.688  1.00  0.00     0.017 C 
HETATM   21  C16 UNL     1      -1.017 -21.278  -9.428  1.00  0.00     0.053 C 
BRANCH  16  22
HETATM   22  O2  UNL     1      -5.649 -27.138 -11.001  1.00  0.00    -0.316 OA
BRANCH  22  23
HETATM   23  C2  UNL     1      -6.979 -26.860 -10.849  1.00  0.00     0.255 C 
HETATM   24  C1  UNL     1      -8.009 -27.611 -11.638  1.00  0.00     0.126 C 
HETATM   25  O1  UNL     1      -7.327 -25.974 -10.045  1.00  0.00    -0.266 OA
ENDBRANCH  22  23
ENDBRANCH  16  22
BRANCH   4  26
HETATM   26  O3  UNL     1      -2.030 -20.324 -11.284  1.00  0.00    -0.377 OA
ATOM     27  H3  UNL     1      -1.210 -20.667 -11.618  1.00  0.00     0.211 HD
ENDBRANCH   4  26
ENDBRANCH   1   4
TORSDOF 4
ENDMDL
