MODEL 1
REMARK VINA RESULT: -6.738393875      0.000      0.000
REMARK  3 active torsions:
REMARK  status: ('A' for Active; 'I' for Inactive)
REMARK    1  A    between atoms: C2_2  and  C3_4 
REMARK    2  A    between atoms: C10_11  and  C11_12 
REMARK    3  A    between atoms: C22_25  and  O3_26 
ROOT
HETATM    1  C3  UNL     1      -1.756 -22.723  -8.467  1.00  0.00     0.061 C 
HETATM    2  C4  UNL     1      -1.438 -22.798  -6.994  1.00  0.00     0.021 C 
HETATM    3  C5  UNL     1      -1.044 -24.268  -6.900  1.00  0.00     0.002 C 
HETATM    4  C6  UNL     1      -1.678 -24.981  -8.109  1.00  0.00     0.011 C 
HETATM    5  C7  UNL     1      -2.641 -23.957  -8.544  1.00  0.00    -0.022 C 
HETATM    6  C8  UNL     1      -3.544 -23.870  -7.277  1.00  0.00     0.017 C 
HETATM    7  C9  UNL     1      -3.516 -24.101  -9.675  1.00  0.00     0.011 C 
HETATM    8  C10 UNL     1      -3.477 -24.974 -10.825  1.00  0.00     0.009 C 
HETATM    9  C13 UNL     1      -4.891 -24.707 -11.403  1.00  0.00     0.007 C 
HETATM   10  C14 UNL     1      -5.393 -23.404 -10.735  1.00  0.00     0.012 C 
HETATM   11  C15 UNL     1      -3.982 -22.853 -10.397  1.00  0.00    -0.010 C 
HETATM   12  C16 UNL     1      -3.500 -22.522 -11.732  1.00  0.00     0.018 C 
HETATM   13  C17 UNL     1      -3.915 -21.751  -9.461  1.00  0.00     0.167 C 
HETATM   14  O2  UNL     1      -4.021 -20.454 -10.052  1.00  0.00    -0.371 OA
HETATM   15  C18 UNL     1      -3.653 -19.567  -9.037  1.00  0.00     0.065 A 
HETATM   16  C19 UNL     1      -3.116 -18.237  -9.496  1.00  0.00     0.046 C 
HETATM   17  C20 UNL     1      -3.962 -19.808  -7.628  1.00  0.00     0.049 A 
HETATM   18  C21 UNL     1      -2.717 -20.383  -8.073  1.00  0.00     0.061 A 
HETATM   19  C22 UNL     1      -2.532 -21.575  -8.937  1.00  0.00     0.106 C 
ENDROOT
BRANCH   1  20
HETATM   20  C2  UNL     1      -0.426 -22.757  -9.055  1.00  0.00     0.135 C 
HETATM   21  C1  UNL     1       0.224 -23.636 -10.023  1.00  0.00     0.091 C 
HETATM   22  O1  UNL     1       0.360 -21.877  -8.699  1.00  0.00    -0.297 OA
ENDBRANCH   1  20
BRANCH  19  23
HETATM   23  O3  UNL     1      -1.815 -21.048 -10.060  1.00  0.00    -0.385 OA
ATOM     24  H3  UNL     1      -0.940 -21.415 -10.007  1.00  0.00     0.210 HD
ENDBRANCH  19  23
BRANCH   8  25
HETATM   25  C11 UNL     1      -3.379 -26.452 -10.587  1.00  0.00     0.082 C 
HETATM   26  C12 UNL     1      -2.117 -27.021 -11.212  1.00  0.00     0.027 C 
HETATM   27 CL1  UNL     1      -4.710 -27.347 -11.386  1.00  0.00    -0.125 Cl
ENDBRANCH   8  25
TORSDOF 3
ENDMDL
MODEL 2
REMARK VINA RESULT: -5.967428511      2.602      5.102
REMARK  3 active torsions:
REMARK  status: ('A' for Active; 'I' for Inactive)
REMARK    1  A    between atoms: C2_2  and  C3_4 
REMARK    2  A    between atoms: C10_11  and  C11_12 
REMARK    3  A    between atoms: C22_25  and  O3_26 
ROOT
HETATM    1  C3  UNL     1      -2.025 -24.631  -8.111  1.00  0.00     0.061 C 
HETATM    2  C4  UNL     1      -0.743 -25.375  -7.825  1.00  0.00     0.021 C 
HETATM    3  C5  UNL     1      -0.101 -24.394  -6.849  1.00  0.00     0.002 C 
HETATM    4  C6  UNL     1      -0.756 -23.022  -7.095  1.00  0.00     0.011 C 
HETATM    5  C7  UNL     1      -1.409 -23.270  -8.390  1.00  0.00    -0.022 C 
HETATM    6  C8  UNL     1      -0.164 -23.578  -9.274  1.00  0.00     0.017 C 
HETATM    7  C9  UNL     1      -2.196 -22.296  -9.097  1.00  0.00     0.011 C 
HETATM    8  C10 UNL     1      -2.849 -21.082  -8.666  1.00  0.00     0.009 C 
HETATM    9  C13 UNL     1      -3.227 -20.485 -10.046  1.00  0.00     0.007 C 
HETATM   10  C14 UNL     1      -3.103 -21.643 -11.067  1.00  0.00     0.012 C 
HETATM   11  C15 UNL     1      -3.287 -22.781 -10.029  1.00  0.00    -0.010 C 
HETATM   12  C16 UNL     1      -4.697 -22.614  -9.702  1.00  0.00     0.018 C 
HETATM   13  C17 UNL     1      -2.940 -24.121 -10.455  1.00  0.00     0.167 C 
HETATM   14  O2  UNL     1      -4.000 -24.844 -11.085  1.00  0.00    -0.371 OA
HETATM   15  C18 UNL     1      -3.544 -26.163 -11.149  1.00  0.00     0.065 A 
HETATM   16  C19 UNL     1      -4.614 -27.221 -11.214  1.00  0.00     0.046 C 
HETATM   17  C20 UNL     1      -2.137 -26.502 -11.361  1.00  0.00     0.049 A 
HETATM   18  C21 UNL     1      -2.505 -26.315  -9.979  1.00  0.00     0.061 A 
HETATM   19  C22 UNL     1      -2.795 -25.034  -9.288  1.00  0.00     0.106 C 
ENDROOT
BRANCH   1  20
HETATM   20  C2  UNL     1      -2.766 -24.844  -6.878  1.00  0.00     0.135 C 
HETATM   21  C1  UNL     1      -2.570 -25.718  -5.724  1.00  0.00     0.091 C 
HETATM   22  O1  UNL     1      -3.782 -24.165  -6.718  1.00  0.00    -0.297 OA
ENDBRANCH   1  20
BRANCH  19  23
HETATM   23  O3  UNL     1      -4.143 -25.212  -8.835  1.00  0.00    -0.385 OA
ATOM     24  H3  UNL     1      -4.228 -26.135  -8.624  1.00  0.00     0.210 HD
ENDBRANCH  19  23
BRANCH   8  25
HETATM   25  C11 UNL     1      -2.024 -20.048  -7.958  1.00  0.00     0.082 C 
HETATM   26  C12 UNL     1      -2.392 -18.649  -8.420  1.00  0.00     0.027 C 
HETATM   27 CL1  UNL     1      -0.282 -20.200  -8.350  1.00  0.00    -0.125 Cl
ENDBRANCH   8  25
TORSDOF 3
ENDMDL
MODEL 3
REMARK VINA RESULT: -4.172602756      2.333      5.232
REMARK  3 active torsions:
REMARK  status: ('A' for Active; 'I' for Inactive)
REMARK    1  A    between atoms: C2_2  and  C3_4 
REMARK    2  A    between atoms: C10_11  and  C11_12 
REMARK    3  A    between atoms: C22_25  and  O3_26 
ROOT
HETATM    1  C3  UNL     1      -2.517 -24.172  -8.719  1.00  0.00     0.061 C 
HETATM    2  C4  UNL     1      -3.635 -25.051  -8.216  1.00  0.00     0.021 C 
HETATM    3  C5  UNL     1      -4.801 -24.429  -8.978  1.00  0.00     0.002 C 
HETATM    4  C6  UNL     1      -4.372 -23.002  -9.369  1.00  0.00     0.011 C 
HETATM    5  C7  UNL     1      -3.198 -22.832  -8.496  1.00  0.00    -0.022 C 
HETATM    6  C8  UNL     1      -3.871 -22.963  -7.097  1.00  0.00     0.017 C 
HETATM    7  C9  UNL     1      -2.383 -21.648  -8.462  1.00  0.00     0.011 C 
HETATM    8  C10 UNL     1      -2.213 -20.562  -9.399  1.00  0.00     0.009 C 
HETATM    9  C13 UNL     1      -1.406 -19.578  -8.514  1.00  0.00     0.007 C 
HETATM   10  C14 UNL     1      -0.868 -20.408  -7.323  1.00  0.00     0.012 C 
HETATM   11  C15 UNL     1      -0.931 -21.777  -8.052  1.00  0.00    -0.010 C 
HETATM   12  C16 UNL     1       0.150 -21.614  -9.015  1.00  0.00     0.018 C 
HETATM   13  C17 UNL     1      -0.809 -22.964  -7.231  1.00  0.00     0.167 C 
HETATM   14  O2  UNL     1       0.533 -23.407  -7.014  1.00  0.00    -0.371 OA
HETATM   15  C18 UNL     1       0.402 -24.684  -6.460  1.00  0.00     0.065 A 
HETATM   16  C19 UNL     1       1.575 -25.606  -6.661  1.00  0.00     0.046 C 
HETATM   17  C20 UNL     1      -0.693 -25.045  -5.559  1.00  0.00     0.049 A 
HETATM   18  C21 UNL     1      -0.986 -25.228  -6.959  1.00  0.00     0.061 A 
HETATM   19  C22 UNL     1      -1.261 -24.176  -7.968  1.00  0.00     0.106 C 
ENDROOT
BRANCH   1  20
HETATM   20  C2  UNL     1      -2.342 -24.671 -10.074  1.00  0.00     0.135 C 
HETATM   21  C1  UNL     1      -2.274 -26.011 -10.652  1.00  0.00     0.091 C 
HETATM   22  O1  UNL     1      -2.225 -23.827 -10.965  1.00  0.00    -0.297 OA
ENDBRANCH   1  20
BRANCH  19  23
HETATM   23  O3  UNL     1      -0.224 -24.382  -8.936  1.00  0.00    -0.385 OA
ATOM     24  H3  UNL     1       0.189 -25.206  -8.705  1.00  0.00     0.210 HD
ENDBRANCH  19  23
BRANCH   8  25
HETATM   25  C11 UNL     1      -3.437 -19.826  -9.859  1.00  0.00     0.082 C 
HETATM   26  C12 UNL     1      -3.106 -18.387 -10.212  1.00  0.00     0.027 C 
HETATM   27 CL1  UNL     1      -4.664 -19.692  -8.559  1.00  0.00    -0.125 Cl
ENDBRANCH   8  25
TORSDOF 3
ENDMDL
MODEL 4
REMARK VINA RESULT: -4.004150074      1.015      1.027
REMARK  3 active torsions:
REMARK  status: ('A' for Active; 'I' for Inactive)
REMARK    1  A    between atoms: C2_2  and  C3_4 
REMARK    2  A    between atoms: C10_11  and  C11_12 
REMARK    3  A    between atoms: C22_25  and  O3_26 
ROOT
HETATM    1  C3  UNL     1      -1.553 -21.994  -8.508  1.00  0.00     0.061 C 
HETATM    2  C4  UNL     1      -1.139 -22.136  -7.065  1.00  0.00     0.021 C 
HETATM    3  C5  UNL     1      -0.492 -23.516  -7.127  1.00  0.00     0.002 C 
HETATM    4  C6  UNL     1      -1.065 -24.224  -8.370  1.00  0.00     0.011 C 
HETATM    5  C7  UNL     1      -2.214 -23.353  -8.663  1.00  0.00    -0.022 C 
HETATM    6  C8  UNL     1      -3.041 -23.536  -7.355  1.00  0.00     0.017 C 
HETATM    7  C9  UNL     1      -3.118 -23.553  -9.763  1.00  0.00     0.011 C 
HETATM    8  C10 UNL     1      -2.998 -24.304 -10.991  1.00  0.00     0.009 C 
HETATM    9  C13 UNL     1      -4.468 -24.243 -11.479  1.00  0.00     0.007 C 
HETATM   10  C14 UNL     1      -5.146 -23.111 -10.669  1.00  0.00     0.012 C 
HETATM   11  C15 UNL     1      -3.834 -22.351 -10.343  1.00  0.00    -0.010 C 
HETATM   12  C16 UNL     1      -3.497 -21.826 -11.660  1.00  0.00     0.018 C 
HETATM   13  C17 UNL     1      -3.902 -21.337  -9.310  1.00  0.00     0.167 C 
HETATM   14  O2  UNL     1      -4.265 -20.034  -9.771  1.00  0.00    -0.371 OA
HETATM   15  C18 UNL     1      -3.995 -19.186  -8.694  1.00  0.00     0.065 A 
HETATM   16  C19 UNL     1      -3.725 -17.747  -9.047  1.00  0.00     0.046 C 
HETATM   17  C20 UNL     1      -4.174 -19.598  -7.301  1.00  0.00     0.049 A 
HETATM   18  C21 UNL     1      -2.877 -19.903  -7.853  1.00  0.00     0.061 A 
HETATM   19  C22 UNL     1      -2.542 -20.965  -8.833  1.00  0.00     0.106 C 
ENDROOT
BRANCH   1  20
HETATM   20  C2  UNL     1      -0.274 -21.741  -9.155  1.00  0.00     0.135 C 
HETATM   21  C1  UNL     1       0.247 -22.007 -10.493  1.00  0.00     0.091 C 
HETATM   22  O1  UNL     1       0.589 -21.181  -8.476  1.00  0.00    -0.297 OA
ENDBRANCH   1  20
BRANCH  19  23
HETATM   23  O3  UNL     1      -1.995 -20.225  -9.932  1.00  0.00    -0.385 OA
ATOM     24  H3  UNL     1      -2.561 -19.471 -10.047  1.00  0.00     0.210 HD
ENDBRANCH  19  23
BRANCH   8  25
HETATM   25  C11 UNL     1      -2.632 -25.756 -10.899  1.00  0.00     0.082 C 
HETATM   26  C12 UNL     1      -3.598 -26.613 -11.698  1.00  0.00     0.027 C 
HETATM   27 CL1  UNL     1      -2.773 -26.376  -9.223  1.00  0.00    -0.125 Cl
ENDBRANCH   8  25
TORSDOF 3
ENDMDL
MODEL 5
REMARK VINA RESULT: -3.925967933      1.872      4.349
REMARK  3 active torsions:
REMARK  status: ('A' for Active; 'I' for Inactive)
REMARK    1  A    between atoms: C2_2  and  C3_4 
REMARK    2  A    between atoms: C10_11  and  C11_12 
REMARK    3  A    between atoms: C22_25  and  O3_26 
ROOT
HETATM    1  C3  UNL     1      -2.626 -21.719  -9.036  1.00  0.00     0.061 C 
HETATM    2  C4  UNL     1      -1.644 -20.577  -9.131  1.00  0.00     0.021 C 
HETATM    3  C5  UNL     1      -2.325 -19.757 -10.223  1.00  0.00     0.002 C 
HETATM    4  C6  UNL     1      -3.250 -20.717 -10.995  1.00  0.00     0.011 C 
HETATM    5  C7  UNL     1      -2.737 -22.013 -10.522  1.00  0.00    -0.022 C 
HETATM    6  C8  UNL     1      -1.272 -21.940 -11.046  1.00  0.00     0.017 C 
HETATM    7  C9  UNL     1      -3.266 -23.287 -10.929  1.00  0.00     0.011 C 
HETATM    8  C10 UNL     1      -4.528 -23.667 -11.520  1.00  0.00     0.009 C 
HETATM    9  C13 UNL     1      -4.206 -25.134 -11.903  1.00  0.00     0.007 C 
HETATM   10  C14 UNL     1      -2.937 -25.521 -11.105  1.00  0.00     0.012 C 
HETATM   11  C15 UNL     1      -3.133 -24.464  -9.986  1.00  0.00    -0.010 C 
HETATM   12  C16 UNL     1      -4.290 -25.022  -9.296  1.00  0.00     0.018 C 
HETATM   13  C17 UNL     1      -2.002 -24.208  -9.118  1.00  0.00     0.167 C 
HETATM   14  O2  UNL     1      -1.919 -25.061  -7.974  1.00  0.00    -0.371 OA
HETATM   15  C18 UNL     1      -0.953 -24.468  -7.156  1.00  0.00     0.065 A 
HETATM   16  C19 UNL     1      -1.060 -24.781  -5.687  1.00  0.00     0.046 C 
HETATM   17  C20 UNL     1       0.215 -23.769  -7.694  1.00  0.00     0.049 A 
HETATM   18  C21 UNL     1      -0.954 -22.941  -7.530  1.00  0.00     0.061 A 
HETATM   19  C22 UNL     1      -2.183 -22.940  -8.361  1.00  0.00     0.106 C 
ENDROOT
BRANCH   1  20
HETATM   20  C2  UNL     1      -3.739 -21.089  -8.343  1.00  0.00     0.135 C 
HETATM   21  C1  UNL     1      -3.859 -19.898  -7.507  1.00  0.00     0.091 C 
HETATM   22  O1  UNL     1      -4.841 -21.631  -8.457  1.00  0.00    -0.297 OA
ENDBRANCH   1  20
BRANCH  19  23
HETATM   23  O3  UNL     1      -3.210 -23.261  -7.414  1.00  0.00    -0.385 OA
ATOM     24  H3  UNL     1      -2.777 -23.722  -6.705  1.00  0.00     0.210 HD
ENDBRANCH  19  23
BRANCH   8  25
HETATM   25  C11 UNL     1      -4.957 -22.975 -12.780  1.00  0.00     0.082 C 
HETATM   26  C12 UNL     1      -6.089 -22.000 -12.507  1.00  0.00     0.027 C 
HETATM   27 CL1  UNL     1      -5.641 -24.124 -13.974  1.00  0.00    -0.125 Cl
ENDBRANCH   8  25
TORSDOF 3
ENDMDL
