MODEL 1
REMARK VINA RESULT: -5.627406267      0.000      0.000
REMARK  3 active torsions:
REMARK  status: ('A' for Active; 'I' for Inactive)
REMARK    1  A    between atoms: C2_2  and  O2_4 
REMARK    2  A    between atoms: O2_4  and  C3_5 
REMARK    3  A    between atoms: C8_10  and  O3_11 
ROOT
HETATM    1  C3  UNL     1      -0.892 -23.171  -7.755  1.00  0.00     0.140 C 
HETATM    2  C4  UNL     1       0.085 -23.411  -8.872  1.00  0.00     0.034 C 
HETATM    3  C5  UNL     1      -0.725 -24.233  -9.873  1.00  0.00     0.008 C 
HETATM    4  C6  UNL     1      -1.486 -25.147  -8.932  1.00  0.00     0.003 C 
HETATM    5  C7  UNL     1      -2.618 -25.869  -9.604  1.00  0.00     0.024 C 
HETATM    6  C8  UNL     1      -2.166 -26.339 -10.944  1.00  0.00     0.123 C 
HETATM    7  C9  UNL     1      -3.312 -26.671 -11.892  1.00  0.00     0.038 C 
HETATM    8  C10 UNL     1      -4.521 -26.821 -11.083  1.00  0.00     0.010 C 
HETATM    9  C11 UNL     1      -4.945 -25.506 -10.483  1.00  0.00    -0.030 C 
HETATM   10  C12 UNL     1      -5.329 -24.472 -11.486  1.00  0.00     0.016 C 
HETATM   11  C13 UNL     1      -6.186 -25.946  -9.755  1.00  0.00     0.089 C 
HETATM   12  C14 UNL     1      -6.829 -26.907 -10.733  1.00  0.00     0.251 C 
HETATM   13  F1  UNL     1      -7.936 -26.413 -11.339  1.00  0.00    -0.205 F 
HETATM   14  F2  UNL     1      -7.238 -28.007  -9.968  1.00  0.00    -0.205 F 
HETATM   15  C15 UNL     1      -5.745 -27.340 -11.700  1.00  0.00     0.023 C 
HETATM   16  C16 UNL     1      -6.015 -26.933 -13.105  1.00  0.00     0.021 C 
HETATM   17  C17 UNL     1      -5.670 -28.875 -11.686  1.00  0.00     0.021 C 
HETATM   18  C18 UNL     1      -3.851 -25.008  -9.626  1.00  0.00     0.001 C 
HETATM   19  C19 UNL     1      -4.267 -24.828  -8.159  1.00  0.00     0.007 C 
HETATM   20  C20 UNL     1      -3.213 -23.899  -7.583  1.00  0.00     0.012 C 
HETATM   21  C21 UNL     1      -1.826 -24.379  -7.729  1.00  0.00    -0.013 C 
HETATM   22  C22 UNL     1      -1.467 -25.165  -6.460  1.00  0.00     0.018 C 
ENDROOT
BRANCH   1  23
HETATM   23  O2  UNL     1      -1.579 -21.976  -8.032  1.00  0.00    -0.316 OA
BRANCH  23  24
HETATM   24  C2  UNL     1      -1.011 -20.734  -7.999  1.00  0.00     0.255 C 
HETATM   25  C1  UNL     1      -1.815 -19.471  -7.992  1.00  0.00     0.126 C 
HETATM   26  O1  UNL     1       0.234 -20.630  -7.972  1.00  0.00    -0.266 OA
ENDBRANCH  23  24
ENDBRANCH   1  23
BRANCH   6  27
HETATM   27  O3  UNL     1      -1.472 -27.555 -10.737  1.00  0.00    -0.395 OA
ATOM     28  H3  UNL     1      -2.101 -28.174 -10.386  1.00  0.00     0.210 HD
ENDBRANCH   6  27
TORSDOF 3
ENDMDL
MODEL 2
REMARK VINA RESULT: -5.561318742      3.498      6.334
REMARK  3 active torsions:
REMARK  status: ('A' for Active; 'I' for Inactive)
REMARK    1  A    between atoms: C2_2  and  O2_4 
REMARK    2  A    between atoms: O2_4  and  C3_5 
REMARK    3  A    between atoms: C8_10  and  O3_11 
ROOT
HETATM    1  C3  UNL     1      -3.785 -21.126 -11.221  1.00  0.00     0.140 C 
HETATM    2  C4  UNL     1      -2.466 -20.514 -11.602  1.00  0.00     0.034 C 
HETATM    3  C5  UNL     1      -1.479 -21.193 -10.655  1.00  0.00     0.008 C 
HETATM    4  C6  UNL     1      -2.292 -21.216  -9.375  1.00  0.00     0.003 C 
HETATM    5  C7  UNL     1      -1.708 -22.118  -8.326  1.00  0.00     0.024 C 
HETATM    6  C8  UNL     1      -0.229 -21.939  -8.301  1.00  0.00     0.123 C 
HETATM    7  C9  UNL     1       0.513 -23.088  -7.629  1.00  0.00     0.038 C 
HETATM    8  C10 UNL     1      -0.463 -23.840  -6.843  1.00  0.00     0.010 C 
HETATM    9  C11 UNL     1      -1.454 -24.547  -7.731  1.00  0.00    -0.030 C 
HETATM   10  C12 UNL     1      -0.850 -25.585  -8.614  1.00  0.00     0.016 C 
HETATM   11  C13 UNL     1      -2.287 -25.237  -6.686  1.00  0.00     0.089 C 
HETATM   12  C14 UNL     1      -1.251 -25.711  -5.686  1.00  0.00     0.251 C 
HETATM   13  F1  UNL     1      -1.035 -27.049  -5.713  1.00  0.00    -0.205 F 
HETATM   14  F2  UNL     1      -1.777 -25.407  -4.424  1.00  0.00    -0.205 F 
HETATM   15  C15 UNL     1      -0.003 -24.885  -5.925  1.00  0.00     0.023 C 
HETATM   16  C16 UNL     1       1.164 -25.698  -6.361  1.00  0.00     0.021 C 
HETATM   17  C17 UNL     1       0.391 -24.213  -4.600  1.00  0.00     0.021 C 
HETATM   18  C18 UNL     1      -2.164 -23.535  -8.539  1.00  0.00     0.001 C 
HETATM   19  C19 UNL     1      -3.681 -23.531  -8.306  1.00  0.00     0.007 C 
HETATM   20  C20 UNL     1      -4.243 -22.808  -9.516  1.00  0.00     0.012 C 
HETATM   21  C21 UNL     1      -3.695 -21.456  -9.732  1.00  0.00    -0.013 C 
HETATM   22  C22 UNL     1      -4.617 -20.457  -9.020  1.00  0.00     0.018 C 
ENDROOT
BRANCH   1  23
HETATM   23  O2  UNL     1      -3.971 -22.274 -12.008  1.00  0.00    -0.316 OA
BRANCH  23  24
HETATM   24  C2  UNL     1      -5.157 -22.628 -12.588  1.00  0.00     0.255 C 
HETATM   25  C1  UNL     1      -5.392 -23.971 -13.208  1.00  0.00     0.126 C 
HETATM   26  O1  UNL     1      -6.098 -21.805 -12.611  1.00  0.00    -0.266 OA
ENDBRANCH  23  24
ENDBRANCH   1  23
BRANCH   6  27
HETATM   27  O3  UNL     1       0.030 -20.795  -7.508  1.00  0.00    -0.395 OA
ATOM     28  H3  UNL     1       0.344 -20.119  -8.096  1.00  0.00     0.210 HD
ENDBRANCH   6  27
TORSDOF 3
ENDMDL
MODEL 3
REMARK VINA RESULT: -4.487551937      3.687      7.376
REMARK  3 active torsions:
REMARK  status: ('A' for Active; 'I' for Inactive)
REMARK    1  A    between atoms: C2_2  and  O2_4 
REMARK    2  A    between atoms: O2_4  and  C3_5 
REMARK    3  A    between atoms: C8_10  and  O3_11 
ROOT
HETATM    1  C3  UNL     1      -3.619 -25.201  -9.947  1.00  0.00     0.140 C 
HETATM    2  C4  UNL     1      -2.551 -25.529  -8.941  1.00  0.00     0.034 C 
HETATM    3  C5  UNL     1      -2.206 -24.168  -8.341  1.00  0.00     0.008 C 
HETATM    4  C6  UNL     1      -2.244 -23.298  -9.583  1.00  0.00     0.003 C 
HETATM    5  C7  UNL     1      -2.257 -21.829  -9.270  1.00  0.00     0.024 C 
HETATM    6  C8  UNL     1      -1.294 -21.561  -8.165  1.00  0.00     0.123 C 
HETATM    7  C9  UNL     1      -1.535 -20.233  -7.456  1.00  0.00     0.038 C 
HETATM    8  C10 UNL     1      -2.385 -19.421  -8.324  1.00  0.00     0.010 C 
HETATM    9  C11 UNL     1      -3.770 -20.003  -8.436  1.00  0.00    -0.030 C 
HETATM   10  C12 UNL     1      -4.524 -20.037  -7.151  1.00  0.00     0.016 C 
HETATM   11  C13 UNL     1      -4.406 -18.978  -9.334  1.00  0.00     0.089 C 
HETATM   12  C14 UNL     1      -3.860 -17.671  -8.796  1.00  0.00     0.251 C 
HETATM   13  F1  UNL     1      -4.770 -16.937  -8.110  1.00  0.00    -0.205 F 
HETATM   14  F2  UNL     1      -3.496 -16.922  -9.923  1.00  0.00    -0.205 F 
HETATM   15  C15 UNL     1      -2.620 -18.012  -7.995  1.00  0.00     0.023 C 
HETATM   16  C16 UNL     1      -2.741 -17.669  -6.552  1.00  0.00     0.021 C 
HETATM   17  C17 UNL     1      -1.445 -17.192  -8.551  1.00  0.00     0.021 C 
HETATM   18  C18 UNL     1      -3.661 -21.361  -9.004  1.00  0.00     0.001 C 
HETATM   19  C19 UNL     1      -4.419 -21.525 -10.329  1.00  0.00     0.007 C 
HETATM   20  C20 UNL     1      -4.585 -23.026 -10.483  1.00  0.00     0.012 C 
HETATM   21  C21 UNL     1      -3.322 -23.789 -10.449  1.00  0.00    -0.013 C 
HETATM   22  C22 UNL     1      -2.832 -23.948 -11.894  1.00  0.00     0.018 C 
ENDROOT
BRANCH   1  23
HETATM   23  O2  UNL     1      -4.863 -25.281  -9.297  1.00  0.00    -0.316 OA
BRANCH  23  24
HETATM   24  C2  UNL     1      -5.949 -25.946  -9.791  1.00  0.00     0.255 C 
HETATM   25  C1  UNL     1      -5.838 -27.070 -10.776  1.00  0.00     0.126 C 
HETATM   26  O1  UNL     1      -7.094 -25.615  -9.415  1.00  0.00    -0.266 OA
ENDBRANCH  23  24
ENDBRANCH   1  23
BRANCH   6  27
HETATM   27  O3  UNL     1      -0.013 -21.455  -8.757  1.00  0.00    -0.395 OA
ATOM     28  H3  UNL     1       0.133 -20.533  -8.931  1.00  0.00     0.210 HD
ENDBRANCH   6  27
TORSDOF 3
ENDMDL
MODEL 4
REMARK VINA RESULT: -4.107053844      3.401      6.598
REMARK  3 active torsions:
REMARK  status: ('A' for Active; 'I' for Inactive)
REMARK    1  A    between atoms: C2_2  and  O2_4 
REMARK    2  A    between atoms: O2_4  and  C3_5 
REMARK    3  A    between atoms: C8_10  and  O3_11 
ROOT
HETATM    1  C3  UNL     1      -5.572 -27.120 -10.891  1.00  0.00     0.140 C 
HETATM    2  C4  UNL     1      -5.415 -26.807 -12.353  1.00  0.00     0.034 C 
HETATM    3  C5  UNL     1      -4.723 -25.447 -12.347  1.00  0.00     0.008 C 
HETATM    4  C6  UNL     1      -5.452 -24.768 -11.202  1.00  0.00     0.003 C 
HETATM    5  C7  UNL     1      -4.772 -23.513 -10.735  1.00  0.00     0.024 C 
HETATM    6  C8  UNL     1      -4.309 -22.743 -11.924  1.00  0.00     0.123 C 
HETATM    7  C9  UNL     1      -3.233 -21.713 -11.600  1.00  0.00     0.038 C 
HETATM    8  C10 UNL     1      -3.255 -21.494 -10.155  1.00  0.00     0.010 C 
HETATM    9  C11 UNL     1      -2.790 -22.718  -9.409  1.00  0.00    -0.030 C 
HETATM   10  C12 UNL     1      -1.373 -23.097  -9.679  1.00  0.00     0.016 C 
HETATM   11  C13 UNL     1      -2.886 -22.208  -7.997  1.00  0.00     0.089 C 
HETATM   12  C14 UNL     1      -2.365 -20.791  -8.113  1.00  0.00     0.251 C 
HETATM   13  F1  UNL     1      -1.128 -20.617  -7.585  1.00  0.00    -0.205 F 
HETATM   14  F2  UNL     1      -3.245 -20.002  -7.362  1.00  0.00    -0.205 F 
HETATM   15  C15 UNL     1      -2.464 -20.405  -9.575  1.00  0.00     0.023 C 
HETATM   16  C16 UNL     1      -1.143 -20.126 -10.200  1.00  0.00     0.021 C 
HETATM   17  C17 UNL     1      -3.289 -19.113  -9.679  1.00  0.00     0.021 C 
HETATM   18  C18 UNL     1      -3.693 -23.839  -9.740  1.00  0.00     0.001 C 
HETATM   19  C19 UNL     1      -4.410 -24.420  -8.514  1.00  0.00     0.007 C 
HETATM   20  C20 UNL     1      -4.877 -25.791  -8.969  1.00  0.00     0.012 C 
HETATM   21  C21 UNL     1      -5.726 -25.780 -10.175  1.00  0.00    -0.013 C 
HETATM   22  C22 UNL     1      -7.189 -25.710  -9.717  1.00  0.00     0.018 C 
ENDROOT
BRANCH   1  23
HETATM   23  O2  UNL     1      -4.426 -27.816 -10.473  1.00  0.00    -0.316 OA
BRANCH  23  24
HETATM   24  C2  UNL     1      -3.221 -27.776 -11.117  1.00  0.00     0.255 C 
HETATM   25  C1  UNL     1      -2.186 -26.729 -10.844  1.00  0.00     0.126 C 
HETATM   26  O1  UNL     1      -2.956 -28.645 -11.975  1.00  0.00    -0.266 OA
ENDBRANCH  23  24
ENDBRANCH   1  23
BRANCH   6  27
HETATM   27  O3  UNL     1      -5.423 -22.004 -12.391  1.00  0.00    -0.395 OA
ATOM     28  H3  UNL     1      -5.163 -21.608 -13.214  1.00  0.00     0.210 HD
ENDBRANCH   6  27
TORSDOF 3
ENDMDL
MODEL 5
REMARK VINA RESULT: -4.095012248      2.283      3.454
REMARK  3 active torsions:
REMARK  status: ('A' for Active; 'I' for Inactive)
REMARK    1  A    between atoms: C2_2  and  O2_4 
REMARK    2  A    between atoms: O2_4  and  C3_5 
REMARK    3  A    between atoms: C8_10  and  O3_11 
ROOT
HETATM    1  C3  UNL     1      -2.741 -19.407  -8.208  1.00  0.00     0.140 C 
HETATM    2  C4  UNL     1      -1.437 -19.987  -7.737  1.00  0.00     0.034 C 
HETATM    3  C5  UNL     1      -1.498 -21.432  -8.228  1.00  0.00     0.008 C 
HETATM    4  C6  UNL     1      -2.953 -21.760  -7.948  1.00  0.00     0.003 C 
HETATM    5  C7  UNL     1      -3.411 -23.021  -8.622  1.00  0.00     0.024 C 
HETATM    6  C8  UNL     1      -2.344 -24.054  -8.490  1.00  0.00     0.123 C 
HETATM    7  C9  UNL     1      -2.476 -25.196  -9.492  1.00  0.00     0.038 C 
HETATM    8  C10 UNL     1      -3.836 -25.158 -10.024  1.00  0.00     0.010 C 
HETATM    9  C11 UNL     1      -4.059 -23.933 -10.873  1.00  0.00    -0.030 C 
HETATM   10  C12 UNL     1      -3.209 -23.875 -12.096  1.00  0.00     0.016 C 
HETATM   11  C13 UNL     1      -5.483 -24.169 -11.294  1.00  0.00     0.089 C 
HETATM   12  C14 UNL     1      -5.510 -25.658 -11.575  1.00  0.00     0.251 C 
HETATM   13  F1  UNL     1      -5.572 -25.966 -12.894  1.00  0.00    -0.205 F 
HETATM   14  F2  UNL     1      -6.692 -26.131 -10.989  1.00  0.00    -0.205 F 
HETATM   15  C15 UNL     1      -4.317 -26.260 -10.862  1.00  0.00     0.023 C 
HETATM   16  C16 UNL     1      -3.331 -26.881 -11.788  1.00  0.00     0.021 C 
HETATM   17  C17 UNL     1      -4.822 -27.376  -9.934  1.00  0.00     0.021 C 
HETATM   18  C18 UNL     1      -3.836 -22.737 -10.036  1.00  0.00     0.001 C 
HETATM   19  C19 UNL     1      -5.073 -21.834  -9.932  1.00  0.00     0.007 C 
HETATM   20  C20 UNL     1      -4.521 -20.498  -9.468  1.00  0.00     0.012 C 
HETATM   21  C21 UNL     1      -3.749 -20.555  -8.213  1.00  0.00    -0.013 C 
HETATM   22  C22 UNL     1      -4.716 -20.274  -7.055  1.00  0.00     0.018 C 
ENDROOT
BRANCH   1  23
HETATM   23  O2  UNL     1      -2.537 -18.876  -9.493  1.00  0.00    -0.316 OA
BRANCH  23  24
HETATM   24  C2  UNL     1      -2.501 -17.540  -9.778  1.00  0.00     0.255 C 
HETATM   25  C1  UNL     1      -1.952 -16.519  -8.829  1.00  0.00     0.126 C 
HETATM   26  O1  UNL     1      -2.942 -17.135 -10.875  1.00  0.00    -0.266 OA
ENDBRANCH  23  24
ENDBRANCH   1  23
BRANCH   6  27
HETATM   27  O3  UNL     1      -2.502 -24.642  -7.212  1.00  0.00    -0.395 OA
ATOM     28  H3  UNL     1      -1.963 -24.140  -6.612  1.00  0.00     0.210 HD
ENDBRANCH   6  27
TORSDOF 3
ENDMDL
