MODEL 1
REMARK VINA RESULT: -5.062328736      0.000      0.000
REMARK  14 active torsions:
REMARK  status: ('A' for Active; 'I' for Inactive)
REMARK    1  A    between atoms: C2_2  and  O1_3 
REMARK    2  A    between atoms: O1_3  and  C3_4 
REMARK    3  A    between atoms: C3_4  and  O3_6 
REMARK    4  A    between atoms: O3_6  and  C4_7 
REMARK    5  A    between atoms: C8_11  and  O4_13 
REMARK    6  A    between atoms: C10_15  and  C11_16 
REMARK    7  A    between atoms: C15_22  and  C16_23 
REMARK    8  A    between atoms: C16_23  and  O7_26 
REMARK    9  A    between atoms: C19_28  and  O8_29 
REMARK   10  A    between atoms: O8_29  and  C20_30 
REMARK   11  A    between atoms: C22_33  and  O10_34 
REMARK   12  A    between atoms: O10_34  and  C23_35 
REMARK   13  A    between atoms: C23_35  and  C24_37 
REMARK   14  A    between atoms: C24_37  and  C25_38 
ROOT
HETATM    1  C4  UNL     1     -52.542   0.387 -13.790  1.00  0.00     0.097 C 
HETATM    2  C5  UNL     1     -51.491   1.352 -13.402  1.00  0.00    -0.030 C 
HETATM    3  C6  UNL     1     -51.547   2.698 -14.148  1.00  0.00     0.050 C 
HETATM    4  C7  UNL     1     -50.524   1.269 -12.535  1.00  0.00     0.020 C 
HETATM    5  C8  UNL     1     -50.042   0.262 -11.596  1.00  0.00     0.090 C 
HETATM    6  C9  UNL     1     -49.668   0.911 -10.236  1.00  0.00     0.051 C 
HETATM    7  C10 UNL     1     -48.678  -0.245 -12.105  1.00  0.00     0.162 C 
HETATM    8  C13 UNL     1     -48.838  -0.545 -13.542  1.00  0.00     0.141 C 
HETATM    9  O6  UNL     1     -48.474   0.272 -14.355  1.00  0.00    -0.297 OA
HETATM   10  C14 UNL     1     -49.443  -1.851 -13.897  1.00  0.00     0.089 C 
HETATM   11  C15 UNL     1     -50.202  -1.658 -15.192  1.00  0.00     0.059 C 
HETATM   12  C19 UNL     1     -51.698  -1.684 -15.019  1.00  0.00     0.175 C 
HETATM   13  C22 UNL     1     -52.328  -0.315 -15.098  1.00  0.00     0.219 C 
ENDROOT
BRANCH  13  14
HETATM   14  O10 UNL     1     -51.622   0.545 -15.965  1.00  0.00    -0.306 OA
BRANCH  14  15
HETATM   15  C23 UNL     1     -52.063   0.884 -17.238  1.00  0.00     0.259 C 
HETATM   16  O11 UNL     1     -52.677   1.951 -17.382  1.00  0.00    -0.265 OA
BRANCH  15  17
HETATM   17  C24 UNL     1     -51.817   0.006 -18.421  1.00  0.00     0.115 C 
BRANCH  17  18
HETATM   18  C25 UNL     1     -52.438   0.628 -19.653  1.00  0.00    -0.013 C 
HETATM   19  C26 UNL     1     -51.391   0.538 -20.759  1.00  0.00     0.010 C 
HETATM   20  C27 UNL     1     -53.667  -0.097 -20.102  1.00  0.00     0.010 C 
ENDBRANCH  17  18
ENDBRANCH  15  17
ENDBRANCH  14  15
ENDBRANCH  13  14
BRANCH   1  21
HETATM   21  O3  UNL     1     -53.051  -0.420 -12.781  1.00  0.00    -0.257 OA
BRANCH  21  22
HETATM   22  C3  UNL     1     -54.102  -0.130 -11.924  1.00  0.00     0.411 C 
HETATM   23  O2  UNL     1     -54.885  -1.084 -11.656  1.00  0.00    -0.229 OA
BRANCH  22  24
HETATM   24  O1  UNL     1     -54.300   1.130 -11.383  1.00  0.00    -0.298 OA
BRANCH  24  25
HETATM   25  C2  UNL     1     -53.534   1.478 -10.244  1.00  0.00     0.176 C 
HETATM   26  C1  UNL     1     -53.037   2.901 -10.317  1.00  0.00     0.034 C 
ENDBRANCH  24  25
ENDBRANCH  22  24
ENDBRANCH  21  22
ENDBRANCH   1  21
BRANCH  12  27
HETATM   27  O8  UNL     1     -52.139  -2.428 -13.923  1.00  0.00    -0.313 OA
BRANCH  27  28
HETATM   28  C20 UNL     1     -52.910  -3.573 -13.960  1.00  0.00     0.255 C 
HETATM   29  C21 UNL     1     -53.553  -4.181 -12.772  1.00  0.00     0.126 C 
HETATM   30  O9  UNL     1     -53.077  -4.131 -15.069  1.00  0.00    -0.266 OA
ENDBRANCH  27  28
ENDBRANCH  12  27
BRANCH  11  31
HETATM   31  C16 UNL     1     -49.722  -2.746 -16.126  1.00  0.00     0.057 C 
HETATM   32  C17 UNL     1     -49.140  -2.154 -17.400  1.00  0.00     0.045 C 
HETATM   33  C18 UNL     1     -48.593  -3.535 -15.501  1.00  0.00     0.045 C 
BRANCH  31  34
HETATM   34  O7  UNL     1     -50.743  -3.599 -16.471  1.00  0.00    -0.390 OA
ATOM     35  H7  UNL     1     -50.427  -4.486 -16.596  1.00  0.00     0.210 HD
ENDBRANCH  31  34
ENDBRANCH  11  31
BRANCH   5  36
HETATM   36  O4  UNL     1     -50.790  -0.807 -11.283  1.00  0.00    -0.385 OA
ATOM     37  H4  UNL     1     -50.432  -1.685 -11.330  1.00  0.00     0.211 HD
ENDBRANCH   5  36
BRANCH   7  38
HETATM   38  C11 UNL     1     -48.242  -1.425 -11.309  1.00  0.00     0.137 C 
HETATM   39  C12 UNL     1     -46.880  -1.500 -10.705  1.00  0.00     0.091 C 
HETATM   40  O5  UNL     1     -48.953  -2.406 -11.096  1.00  0.00    -0.297 OA
ENDBRANCH   7  38
TORSDOF 14
ENDMDL
MODEL 2
REMARK VINA RESULT: -4.966298684      2.165      4.948
REMARK  14 active torsions:
REMARK  status: ('A' for Active; 'I' for Inactive)
REMARK    1  A    between atoms: C2_2  and  O1_3 
REMARK    2  A    between atoms: O1_3  and  C3_4 
REMARK    3  A    between atoms: C3_4  and  O3_6 
REMARK    4  A    between atoms: O3_6  and  C4_7 
REMARK    5  A    between atoms: C8_11  and  O4_13 
REMARK    6  A    between atoms: C10_15  and  C11_16 
REMARK    7  A    between atoms: C15_22  and  C16_23 
REMARK    8  A    between atoms: C16_23  and  O7_26 
REMARK    9  A    between atoms: C19_28  and  O8_29 
REMARK   10  A    between atoms: O8_29  and  C20_30 
REMARK   11  A    between atoms: C22_33  and  O10_34 
REMARK   12  A    between atoms: O10_34  and  C23_35 
REMARK   13  A    between atoms: C23_35  and  C24_37 
REMARK   14  A    between atoms: C24_37  and  C25_38 
ROOT
HETATM    1  C4  UNL     1     -50.894   1.292 -14.358  1.00  0.00     0.097 C 
HETATM    2  C5  UNL     1     -51.229   1.219 -12.920  1.00  0.00    -0.030 C 
HETATM    3  C6  UNL     1     -50.457   2.208 -12.028  1.00  0.00     0.050 C 
HETATM    4  C7  UNL     1     -52.069   0.467 -12.268  1.00  0.00     0.020 C 
HETATM    5  C8  UNL     1     -53.015  -0.588 -12.612  1.00  0.00     0.090 C 
HETATM    6  C9  UNL     1     -54.349  -0.407 -11.838  1.00  0.00     0.051 C 
HETATM    7  C10 UNL     1     -52.477  -1.913 -12.034  1.00  0.00     0.162 C 
HETATM    8  C13 UNL     1     -51.052  -2.002 -12.413  1.00  0.00     0.141 C 
HETATM    9  O6  UNL     1     -50.211  -1.682 -11.605  1.00  0.00    -0.297 OA
HETATM   10  C14 UNL     1     -50.744  -2.486 -13.780  1.00  0.00     0.089 C 
HETATM   11  C15 UNL     1     -49.469  -1.802 -14.222  1.00  0.00     0.059 C 
HETATM   12  C19 UNL     1     -49.687  -0.756 -15.284  1.00  0.00     0.175 C 
HETATM   13  C22 UNL     1     -49.597   0.654 -14.755  1.00  0.00     0.219 C 
ENDROOT
BRANCH  13  14
HETATM   14  O10 UNL     1     -48.690   0.760 -13.680  1.00  0.00    -0.306 OA
BRANCH  14  15
HETATM   15  C23 UNL     1     -47.390   1.231 -13.814  1.00  0.00     0.259 C 
HETATM   16  O11 UNL     1     -46.470   0.564 -13.320  1.00  0.00    -0.265 OA
BRANCH  15  17
HETATM   17  C24 UNL     1     -47.080   2.504 -14.532  1.00  0.00     0.115 C 
BRANCH  17  18
HETATM   18  C25 UNL     1     -47.316   3.678 -13.606  1.00  0.00    -0.013 C 
HETATM   19  C26 UNL     1     -46.042   4.519 -13.640  1.00  0.00     0.010 C 
HETATM   20  C27 UNL     1     -48.461   4.533 -14.045  1.00  0.00     0.010 C 
ENDBRANCH  17  18
ENDBRANCH  15  17
ENDBRANCH  14  15
ENDBRANCH  13  14
BRANCH   1  21
HETATM   21  O3  UNL     1     -51.936   1.081 -15.251  1.00  0.00    -0.257 OA
BRANCH  21  22
HETATM   22  C3  UNL     1     -52.653   2.044 -15.946  1.00  0.00     0.411 C 
HETATM   23  O2  UNL     1     -53.176   1.674 -17.036  1.00  0.00    -0.229 OA
BRANCH  22  24
HETATM   24  O1  UNL     1     -52.799   3.343 -15.489  1.00  0.00    -0.298 OA
BRANCH  24  25
HETATM   25  C2  UNL     1     -53.531   4.241 -16.303  1.00  0.00     0.176 C 
HETATM   26  C1  UNL     1     -53.847   5.526 -15.575  1.00  0.00     0.034 C 
ENDBRANCH  24  25
ENDBRANCH  22  24
ENDBRANCH  21  22
ENDBRANCH   1  21
BRANCH  12  27
HETATM   27  O8  UNL     1     -50.812  -0.971 -16.083  1.00  0.00    -0.313 OA
BRANCH  27  28
HETATM   28  C20 UNL     1     -50.820  -1.368 -17.406  1.00  0.00     0.255 C 
HETATM   29  C21 UNL     1     -50.726  -0.436 -18.554  1.00  0.00     0.126 C 
HETATM   30  O9  UNL     1     -50.913  -2.593 -17.649  1.00  0.00    -0.266 OA
ENDBRANCH  27  28
ENDBRANCH  12  27
BRANCH  11  31
HETATM   31  C16 UNL     1     -48.545  -2.903 -14.694  1.00  0.00     0.057 C 
HETATM   32  C17 UNL     1     -47.330  -2.328 -15.405  1.00  0.00     0.045 C 
HETATM   33  C18 UNL     1     -47.990  -3.681 -13.522  1.00  0.00     0.045 C 
BRANCH  31  34
HETATM   34  O7  UNL     1     -49.185  -3.761 -15.555  1.00  0.00    -0.390 OA
ATOM     35  H7  UNL     1     -49.954  -3.357 -15.941  1.00  0.00     0.210 HD
ENDBRANCH  31  34
ENDBRANCH  11  31
BRANCH   5  36
HETATM   36  O4  UNL     1     -53.373  -0.809 -13.886  1.00  0.00    -0.385 OA
ATOM     37  H4  UNL     1     -52.767  -1.198 -14.505  1.00  0.00     0.211 HD
ENDBRANCH   5  36
BRANCH   7  38
HETATM   38  C11 UNL     1     -53.285  -3.057 -12.539  1.00  0.00     0.137 C 
HETATM   39  C12 UNL     1     -54.327  -3.710 -11.695  1.00  0.00     0.091 C 
HETATM   40  O5  UNL     1     -53.157  -3.541 -13.663  1.00  0.00    -0.297 OA
ENDBRANCH   7  38
TORSDOF 14
ENDMDL
MODEL 3
REMARK VINA RESULT: -4.964619717      1.887      6.385
REMARK  14 active torsions:
REMARK  status: ('A' for Active; 'I' for Inactive)
REMARK    1  A    between atoms: C2_2  and  O1_3 
REMARK    2  A    between atoms: O1_3  and  C3_4 
REMARK    3  A    between atoms: C3_4  and  O3_6 
REMARK    4  A    between atoms: O3_6  and  C4_7 
REMARK    5  A    between atoms: C8_11  and  O4_13 
REMARK    6  A    between atoms: C10_15  and  C11_16 
REMARK    7  A    between atoms: C15_22  and  C16_23 
REMARK    8  A    between atoms: C16_23  and  O7_26 
REMARK    9  A    between atoms: C19_28  and  O8_29 
REMARK   10  A    between atoms: O8_29  and  C20_30 
REMARK   11  A    between atoms: C22_33  and  O10_34 
REMARK   12  A    between atoms: O10_34  and  C23_35 
REMARK   13  A    between atoms: C23_35  and  C24_37 
REMARK   14  A    between atoms: C24_37  and  C25_38 
ROOT
HETATM    1  C4  UNL     1     -51.639  -1.459 -14.383  1.00  0.00     0.097 C 
HETATM    2  C5  UNL     1     -50.535  -1.903 -13.505  1.00  0.00    -0.030 C 
HETATM    3  C6  UNL     1     -50.922  -2.987 -12.483  1.00  0.00     0.050 C 
HETATM    4  C7  UNL     1     -49.285  -1.542 -13.444  1.00  0.00     0.020 C 
HETATM    5  C8  UNL     1     -48.431  -0.599 -14.155  1.00  0.00     0.090 C 
HETATM    6  C9  UNL     1     -47.044  -1.229 -14.455  1.00  0.00     0.051 C 
HETATM    7  C10 UNL     1     -48.070   0.541 -13.180  1.00  0.00     0.162 C 
HETATM    8  C13 UNL     1     -49.328   0.973 -12.538  1.00  0.00     0.141 C 
HETATM    9  O6  UNL     1     -49.597   0.552 -11.437  1.00  0.00    -0.297 OA
HETATM   10  C14 UNL     1     -50.189   1.910 -13.298  1.00  0.00     0.089 C 
HETATM   11  C15 UNL     1     -51.623   1.617 -12.912  1.00  0.00     0.059 C 
HETATM   12  C19 UNL     1     -52.412   0.943 -14.005  1.00  0.00     0.175 C 
HETATM   13  C22 UNL     1     -52.633  -0.528 -13.755  1.00  0.00     0.219 C 
ENDROOT
BRANCH  13  14
HETATM   14  O10 UNL     1     -52.727  -0.825 -12.379  1.00  0.00    -0.306 OA
BRANCH  14  15
HETATM   15  C23 UNL     1     -53.921  -1.138 -11.740  1.00  0.00     0.259 C 
HETATM   16  O11 UNL     1     -54.025  -2.249 -11.202  1.00  0.00    -0.265 OA
BRANCH  15  17
HETATM   17  C24 UNL     1     -55.065  -0.178 -11.687  1.00  0.00     0.115 C 
BRANCH  17  18
HETATM   18  C25 UNL     1     -55.050   0.554 -10.363  1.00  0.00    -0.013 C 
HETATM   19  C26 UNL     1     -55.741   1.894 -10.602  1.00  0.00     0.010 C 
HETATM   20  C27 UNL     1     -55.796  -0.180  -9.294  1.00  0.00     0.010 C 
ENDBRANCH  17  18
ENDBRANCH  15  17
ENDBRANCH  14  15
ENDBRANCH  13  14
BRANCH   1  21
HETATM   21  O3  UNL     1     -51.304  -1.145 -15.693  1.00  0.00    -0.257 OA
BRANCH  21  22
HETATM   22  C3  UNL     1     -50.908  -2.022 -16.691  1.00  0.00     0.411 C 
HETATM   23  O2  UNL     1     -51.662  -3.017 -16.894  1.00  0.00    -0.229 OA
BRANCH  22  24
HETATM   24  O1  UNL     1     -49.756  -1.837 -17.436  1.00  0.00    -0.298 OA
BRANCH  24  25
HETATM   25  C2  UNL     1     -49.857  -1.983 -18.841  1.00  0.00     0.176 C 
HETATM   26  C1  UNL     1     -50.154  -0.668 -19.521  1.00  0.00     0.034 C 
ENDBRANCH  24  25
ENDBRANCH  22  24
ENDBRANCH  21  22
ENDBRANCH   1  21
BRANCH  12  27
HETATM   27  O8  UNL     1     -51.958   1.218 -15.296  1.00  0.00    -0.313 OA
BRANCH  27  28
HETATM   28  C20 UNL     1     -52.628   1.932 -16.271  1.00  0.00     0.255 C 
HETATM   29  C21 UNL     1     -52.883   1.431 -17.641  1.00  0.00     0.126 C 
HETATM   30  O9  UNL     1     -53.046   3.075 -15.976  1.00  0.00    -0.266 OA
ENDBRANCH  27  28
ENDBRANCH  12  27
BRANCH  11  31
HETATM   31  C16 UNL     1     -52.229   2.944 -12.513  1.00  0.00     0.057 C 
HETATM   32  C17 UNL     1     -52.317   3.070 -11.000  1.00  0.00     0.045 C 
HETATM   33  C18 UNL     1     -51.355   4.094 -12.960  1.00  0.00     0.045 C 
BRANCH  31  34
HETATM   34  O7  UNL     1     -53.492   3.096 -13.034  1.00  0.00    -0.390 OA
ATOM     35  H7  UNL     1     -53.922   3.867 -12.683  1.00  0.00     0.210 HD
ENDBRANCH  31  34
ENDBRANCH  11  31
BRANCH   5  36
HETATM   36  O4  UNL     1     -48.825  -0.044 -15.311  1.00  0.00    -0.385 OA
ATOM     37  H4  UNL     1     -49.715   0.265 -15.429  1.00  0.00     0.211 HD
ENDBRANCH   5  36
BRANCH   7  38
HETATM   38  C11 UNL     1     -47.384   1.641 -13.912  1.00  0.00     0.137 C 
HETATM   39  C12 UNL     1     -45.950   1.970 -13.661  1.00  0.00     0.091 C 
HETATM   40  O5  UNL     1     -47.932   2.347 -14.757  1.00  0.00    -0.297 OA
ENDBRANCH   7  38
TORSDOF 14
ENDMDL
MODEL 4
REMARK VINA RESULT: -4.959846873      1.928      6.454
REMARK  14 active torsions:
REMARK  status: ('A' for Active; 'I' for Inactive)
REMARK    1  A    between atoms: C2_2  and  O1_3 
REMARK    2  A    between atoms: O1_3  and  C3_4 
REMARK    3  A    between atoms: C3_4  and  O3_6 
REMARK    4  A    between atoms: O3_6  and  C4_7 
REMARK    5  A    between atoms: C8_11  and  O4_13 
REMARK    6  A    between atoms: C10_15  and  C11_16 
REMARK    7  A    between atoms: C15_22  and  C16_23 
REMARK    8  A    between atoms: C16_23  and  O7_26 
REMARK    9  A    between atoms: C19_28  and  O8_29 
REMARK   10  A    between atoms: O8_29  and  C20_30 
REMARK   11  A    between atoms: C22_33  and  O10_34 
REMARK   12  A    between atoms: O10_34  and  C23_35 
REMARK   13  A    between atoms: C23_35  and  C24_37 
REMARK   14  A    between atoms: C24_37  and  C25_38 
ROOT
HETATM    1  C4  UNL     1     -51.558  -0.982 -14.145  1.00  0.00     0.097 C 
HETATM    2  C5  UNL     1     -50.545  -1.131 -13.078  1.00  0.00    -0.030 C 
HETATM    3  C6  UNL     1     -51.006  -1.959 -11.865  1.00  0.00     0.050 C 
HETATM    4  C7  UNL     1     -49.324  -0.689 -12.982  1.00  0.00     0.020 C 
HETATM    5  C8  UNL     1     -48.430   0.107 -13.814  1.00  0.00     0.090 C 
HETATM    6  C9  UNL     1     -46.996  -0.488 -13.808  1.00  0.00     0.051 C 
HETATM    7  C10 UNL     1     -48.223   1.468 -13.120  1.00  0.00     0.162 C 
HETATM    8  C13 UNL     1     -49.561   1.963 -12.733  1.00  0.00     0.141 C 
HETATM    9  O6  UNL     1     -49.937   1.804 -11.596  1.00  0.00    -0.297 OA
HETATM   10  C14 UNL     1     -50.364   2.633 -13.784  1.00  0.00     0.089 C 
HETATM   11  C15 UNL     1     -51.820   2.352 -13.485  1.00  0.00     0.059 C 
HETATM   12  C19 UNL     1     -52.455   1.386 -14.451  1.00  0.00     0.175 C 
HETATM   13  C22 UNL     1     -52.650   0.008 -13.870  1.00  0.00     0.219 C 
ENDROOT
BRANCH  13  14
HETATM   14  O10 UNL     1     -52.888   0.047 -12.480  1.00  0.00    -0.306 OA
BRANCH  14  15
HETATM   15  C23 UNL     1     -54.131  -0.194 -11.906  1.00  0.00     0.259 C 
HETATM   16  O11 UNL     1     -54.502  -1.369 -11.780  1.00  0.00    -0.265 OA
BRANCH  15  17
HETATM   17  C24 UNL     1     -55.017   0.917 -11.444  1.00  0.00     0.115 C 
BRANCH  17  18
HETATM   18  C25 UNL     1     -55.131   0.879  -9.936  1.00  0.00    -0.013 C 
HETATM   19  C26 UNL     1     -53.754   1.247  -9.388  1.00  0.00     0.010 C 
HETATM   20  C27 UNL     1     -56.128   1.863  -9.411  1.00  0.00     0.010 C 
ENDBRANCH  17  18
ENDBRANCH  15  17
ENDBRANCH  14  15
ENDBRANCH  13  14
BRANCH   1  21
HETATM   21  O3  UNL     1     -51.089  -0.973 -15.452  1.00  0.00    -0.257 OA
BRANCH  21  22
HETATM   22  C3  UNL     1     -50.677  -2.063 -16.203  1.00  0.00     0.411 C 
HETATM   23  O2  UNL     1     -49.433  -2.287 -16.230  1.00  0.00    -0.229 OA
BRANCH  22  24
HETATM   24  O1  UNL     1     -51.562  -2.874 -16.893  1.00  0.00    -0.298 OA
BRANCH  24  25
HETATM   25  C2  UNL     1     -51.102  -3.467 -18.094  1.00  0.00     0.176 C 
HETATM   26  C1  UNL     1     -51.633  -2.749 -19.312  1.00  0.00     0.034 C 
ENDBRANCH  24  25
ENDBRANCH  22  24
ENDBRANCH  21  22
ENDBRANCH   1  21
BRANCH  12  27
HETATM   27  O8  UNL     1     -51.869   1.369 -15.718  1.00  0.00    -0.313 OA
BRANCH  27  28
HETATM   28  C20 UNL     1     -52.492   1.647 -16.919  1.00  0.00     0.255 C 
HETATM   29  C21 UNL     1     -52.323   0.840 -18.150  1.00  0.00     0.126 C 
HETATM   30  O9  UNL     1     -53.249   2.644 -16.969  1.00  0.00    -0.266 OA
ENDBRANCH  27  28
ENDBRANCH  12  27
BRANCH  11  31
HETATM   31  C16 UNL     1     -52.515   3.695 -13.488  1.00  0.00     0.057 C 
HETATM   32  C17 UNL     1     -53.147   3.986 -12.136  1.00  0.00     0.045 C 
HETATM   33  C18 UNL     1     -51.525   4.815 -13.715  1.00  0.00     0.045 C 
BRANCH  31  34
HETATM   34  O7  UNL     1     -53.499   3.749 -14.447  1.00  0.00    -0.390 OA
ATOM     35  H7  UNL     1     -53.252   4.318 -15.166  1.00  0.00     0.210 HD
ENDBRANCH  31  34
ENDBRANCH  11  31
BRANCH   5  36
HETATM   36  O4  UNL     1     -48.710   0.340 -15.105  1.00  0.00    -0.385 OA
ATOM     37  H4  UNL     1     -48.613   1.208 -15.479  1.00  0.00     0.211 HD
ENDBRANCH   5  36
BRANCH   7  38
HETATM   38  C11 UNL     1     -47.498   2.401 -14.027  1.00  0.00     0.137 C 
HETATM   39  C12 UNL     1     -46.163   2.960 -13.667  1.00  0.00     0.091 C 
HETATM   40  O5  UNL     1     -47.935   2.773 -15.115  1.00  0.00    -0.297 OA
ENDBRANCH   7  38
TORSDOF 14
ENDMDL
MODEL 5
REMARK VINA RESULT: -4.937893109      0.991      1.075
REMARK  14 active torsions:
REMARK  status: ('A' for Active; 'I' for Inactive)
REMARK    1  A    between atoms: C2_2  and  O1_3 
REMARK    2  A    between atoms: O1_3  and  C3_4 
REMARK    3  A    between atoms: C3_4  and  O3_6 
REMARK    4  A    between atoms: O3_6  and  C4_7 
REMARK    5  A    between atoms: C8_11  and  O4_13 
REMARK    6  A    between atoms: C10_15  and  C11_16 
REMARK    7  A    between atoms: C15_22  and  C16_23 
REMARK    8  A    between atoms: C16_23  and  O7_26 
REMARK    9  A    between atoms: C19_28  and  O8_29 
REMARK   10  A    between atoms: O8_29  and  C20_30 
REMARK   11  A    between atoms: C22_33  and  O10_34 
REMARK   12  A    between atoms: O10_34  and  C23_35 
REMARK   13  A    between atoms: C23_35  and  C24_37 
REMARK   14  A    between atoms: C24_37  and  C25_38 
ROOT
HETATM    1  C4  UNL     1     -52.954   0.337 -13.193  1.00  0.00     0.097 C 
HETATM    2  C5  UNL     1     -51.956   1.337 -12.754  1.00  0.00    -0.030 C 
HETATM    3  C6  UNL     1     -51.959   2.647 -13.562  1.00  0.00     0.050 C 
HETATM    4  C7  UNL     1     -51.074   1.309 -11.797  1.00  0.00     0.020 C 
HETATM    5  C8  UNL     1     -50.669   0.354 -10.772  1.00  0.00     0.090 C 
HETATM    6  C9  UNL     1     -50.433   1.069  -9.415  1.00  0.00     0.051 C 
HETATM    7  C10 UNL     1     -49.256  -0.152 -11.127  1.00  0.00     0.162 C 
HETATM    8  C13 UNL     1     -49.277  -0.519 -12.558  1.00  0.00     0.141 C 
HETATM    9  O6  UNL     1     -48.849   0.267 -13.370  1.00  0.00    -0.297 OA
HETATM   10  C14 UNL     1     -49.829  -1.850 -12.908  1.00  0.00     0.089 C 
HETATM   11  C15 UNL     1     -50.466  -1.727 -14.275  1.00  0.00     0.059 C 
HETATM   12  C19 UNL     1     -51.971  -1.771 -14.241  1.00  0.00     0.175 C 
HETATM   13  C22 UNL     1     -52.608  -0.419 -14.442  1.00  0.00     0.219 C 
ENDROOT
BRANCH  13  14
HETATM   14  O10 UNL     1     -51.835   0.414 -15.278  1.00  0.00    -0.306 OA
BRANCH  14  15
HETATM   15  C23 UNL     1     -52.137   0.657 -16.612  1.00  0.00     0.259 C 
HETATM   16  O11 UNL     1     -53.239   1.156 -16.883  1.00  0.00    -0.265 OA
BRANCH  15  17
HETATM   17  C24 UNL     1     -51.178   0.337 -17.712  1.00  0.00     0.115 C 
BRANCH  17  18
HETATM   18  C25 UNL     1     -51.912  -0.355 -18.839  1.00  0.00    -0.013 C 
HETATM   19  C26 UNL     1     -51.543   0.391 -20.118  1.00  0.00     0.010 C 
HETATM   20  C27 UNL     1     -51.508  -1.788 -18.992  1.00  0.00     0.010 C 
ENDBRANCH  17  18
ENDBRANCH  15  17
ENDBRANCH  14  15
ENDBRANCH  13  14
BRANCH   1  21
HETATM   21  O3  UNL     1     -53.544  -0.432 -12.200  1.00  0.00    -0.257 OA
BRANCH  21  22
HETATM   22  C3  UNL     1     -54.720  -0.161 -11.517  1.00  0.00     0.411 C 
HETATM   23  O2  UNL     1     -55.513  -1.134 -11.360  1.00  0.00    -0.229 OA
BRANCH  22  24
HETATM   24  O1  UNL     1     -55.029   1.097 -11.028  1.00  0.00    -0.298 OA
BRANCH  24  25
HETATM   25  C2  UNL     1     -54.366   1.519  -9.849  1.00  0.00     0.176 C 
HETATM   26  C1  UNL     1     -53.876   2.942  -9.962  1.00  0.00     0.034 C 
ENDBRANCH  24  25
ENDBRANCH  22  24
ENDBRANCH  21  22
ENDBRANCH   1  21
BRANCH  12  27
HETATM   27  O8  UNL     1     -52.503  -2.473 -13.158  1.00  0.00    -0.313 OA
BRANCH  27  28
HETATM   28  C20 UNL     1     -53.244  -3.637 -13.213  1.00  0.00     0.255 C 
HETATM   29  C21 UNL     1     -54.047  -4.167 -12.086  1.00  0.00     0.126 C 
HETATM   30  O9  UNL     1     -53.237  -4.286 -14.285  1.00  0.00    -0.266 OA
ENDBRANCH  27  28
ENDBRANCH  12  27
BRANCH  11  31
HETATM   31  C16 UNL     1     -49.886  -2.848 -15.109  1.00  0.00     0.057 C 
HETATM   32  C17 UNL     1     -48.927  -2.307 -16.158  1.00  0.00     0.045 C 
HETATM   33  C18 UNL     1     -49.059  -3.784 -14.256  1.00  0.00     0.045 C 
BRANCH  31  34
HETATM   34  O7  UNL     1     -50.872  -3.560 -15.749  1.00  0.00    -0.390 OA
ATOM     35  H7  UNL     1     -51.216  -4.252 -15.196  1.00  0.00     0.210 HD
ENDBRANCH  31  34
ENDBRANCH  11  31
BRANCH   5  36
HETATM   36  O4  UNL     1     -51.429  -0.713 -10.482  1.00  0.00    -0.385 OA
ATOM     37  H4  UNL     1     -51.038  -1.561 -10.309  1.00  0.00     0.211 HD
ENDBRANCH   5  36
BRANCH   7  38
HETATM   38  C11 UNL     1     -48.882  -1.288 -10.241  1.00  0.00     0.137 C 
HETATM   39  C12 UNL     1     -47.599  -1.295  -9.479  1.00  0.00     0.091 C 
HETATM   40  O5  UNL     1     -49.583  -2.285 -10.075  1.00  0.00    -0.297 OA
ENDBRANCH   7  38
TORSDOF 14
ENDMDL
