MODEL 1
REMARK VINA RESULT: -7.208219613      0.000      0.000
REMARK  13 active torsions:
REMARK  status: ('A' for Active; 'I' for Inactive)
REMARK    1  A    between atoms: C2_2  and  C3_3 
REMARK    2  A    between atoms: C3_3  and  C4_4 
REMARK    3  A    between atoms: C4_4  and  C5_5 
REMARK    4  A    between atoms: C5_5  and  O2_7 
REMARK    5  A    between atoms: O2_7  and  C6_8 
REMARK    6  A    between atoms: C7_9  and  O3_10 
REMARK    7  A    between atoms: C13_17  and  N1_18 
REMARK    8  A    between atoms: N2_20  and  C14_22 
REMARK    9  A    between atoms: C14_22  and  O5_27 
REMARK   10  A    between atoms: N3_23  and  O4_25 
REMARK   11  A    between atoms: C19_34  and  C21_36 
REMARK   12  A    between atoms: C21_36  and  C22_37 
REMARK   13  A    between atoms: C25_40  and  O8_41 
ROOT
HETATM    1  C6  UNL     1     -51.128  -1.482 -21.044  1.00  0.00     0.222 C 
HETATM    2  C7  UNL     1     -49.783  -1.914 -21.481  1.00  0.00     0.160 C 
HETATM    3  C8  UNL     1     -49.208  -3.148 -20.948  1.00  0.00     0.053 C 
HETATM    4  C9  UNL     1     -49.718  -4.441 -21.499  1.00  0.00    -0.009 C 
HETATM    5  C10 UNL     1     -50.725  -4.428 -22.559  1.00  0.00     0.010 C 
HETATM    6  C11 UNL     1     -50.329  -5.150 -20.280  1.00  0.00     0.007 C 
HETATM    7  C12 UNL     1     -49.251  -4.767 -19.277  1.00  0.00     0.036 C 
HETATM    8  C13 UNL     1     -49.063  -3.267 -19.456  1.00  0.00     0.081 C 
HETATM    9  C16 UNL     1     -49.685  -2.367 -18.545  1.00  0.00     0.190 C 
HETATM   10  O6  UNL     1     -49.811  -1.085 -19.159  1.00  0.00    -0.342 OA
HETATM   11  C17 UNL     1     -51.142  -1.017 -19.607  1.00  0.00     0.191 C 
HETATM   12  C18 UNL     1     -51.710   0.360 -19.463  1.00  0.00     0.082 C 
HETATM   13  O7  UNL     1     -51.869  -1.977 -18.908  1.00  0.00    -0.339 OA
HETATM   14  C19 UNL     1     -50.999  -2.400 -17.921  1.00  0.00     0.095 C 
HETATM   15  C20 UNL     1     -50.987  -1.181 -16.947  1.00  0.00     0.049 C 
ENDROOT
BRANCH  14  16
HETATM   16  C21 UNL     1     -51.459  -3.497 -17.084  1.00  0.00     0.099 C 
BRANCH  16  17
HETATM   17  C22 UNL     1     -51.051  -3.278 -15.664  1.00  0.00     0.029 A 
HETATM   18  C23 UNL     1     -51.839  -2.792 -14.675  1.00  0.00     0.031 A 
HETATM   19  C24 UNL     1     -51.324  -2.659 -13.405  1.00  0.00     0.059 A 
HETATM   20  C25 UNL     1     -50.013  -3.033 -13.201  1.00  0.00     0.156 A 
HETATM   21  N4  UNL     1     -49.259  -3.505 -14.184  1.00  0.00    -0.280 N 
HETATM   22  N5  UNL     1     -49.760  -3.628 -15.388  1.00  0.00    -0.303 N 
ATOM     23  H4  UNL     1     -48.292  -3.773 -14.003  1.00  0.00     0.189 HD
ATOM     24  H5  UNL     1     -49.172  -3.993 -16.136  1.00  0.00     0.186 HD
BRANCH  20  25
HETATM   25  O8  UNL     1     -49.479  -2.907 -11.937  1.00  0.00    -0.340 OA
HETATM   26  C26 UNL     1     -48.148  -3.224 -11.686  1.00  0.00     0.211 C 
ENDBRANCH  20  25
ENDBRANCH  16  17
ENDBRANCH  14  16
BRANCH   8  27
HETATM   27  N1  UNL     1     -47.586  -3.154 -19.193  1.00  0.00    -0.320 N 
HETATM   28  N2  UNL     1     -47.163  -3.441 -18.031  1.00  0.00    -0.267 N 
ATOM     29  H2  UNL     1     -47.825  -3.738 -17.314  1.00  0.00     0.190 HD
ATOM     30  H1  UNL     1     -46.943  -2.855 -19.926  1.00  0.00     0.181 HD
BRANCH  28  31
HETATM   31  C14 UNL     1     -45.790  -3.357 -17.715  1.00  0.00     0.258 C 
HETATM   32  N3  UNL     1     -44.909  -3.968 -18.438  1.00  0.00    -0.231 N 
ATOM     33  H3  UNL     1     -43.925  -3.887 -18.183  1.00  0.00     0.198 HD
BRANCH  32  34
HETATM   34  O4  UNL     1     -45.243  -4.720 -19.534  1.00  0.00    -0.287 OA
ATOM     35  H4  UNL     1     -44.915  -5.601 -19.671  1.00  0.00     0.244 HD
ENDBRANCH  32  34
BRANCH  31  36
HETATM   36  O5  UNL     1     -45.304  -2.627 -16.627  1.00  0.00    -0.325 OA
HETATM   37  C15 UNL     1     -46.151  -2.247 -15.558  1.00  0.00     0.213 C 
ENDBRANCH  31  36
ENDBRANCH  28  31
ENDBRANCH   8  27
BRANCH   1  38
HETATM   38  O2  UNL     1     -51.471  -0.386 -21.876  1.00  0.00    -0.308 OA
BRANCH  38  39
HETATM   39  C5  UNL     1     -52.436  -0.454 -22.878  1.00  0.00     0.259 C 
HETATM   40  O1  UNL     1     -53.348   0.385 -22.838  1.00  0.00    -0.265 OA
BRANCH  39  41
HETATM   41  C4  UNL     1     -52.405  -1.462 -23.952  1.00  0.00     0.111 C 
BRANCH  41  42
HETATM   42  C3  UNL     1     -52.427  -0.769 -25.294  1.00  0.00     0.009 C 
BRANCH  42  43
HETATM   43  C2  UNL     1     -51.994  -1.669 -26.413  1.00  0.00    -0.004 C 
HETATM   44  C1  UNL     1     -50.885  -2.564 -25.889  1.00  0.00     0.005 C 
ENDBRANCH  42  43
ENDBRANCH  41  42
ENDBRANCH  39  41
ENDBRANCH  38  39
ENDBRANCH   1  38
BRANCH   2  45
HETATM   45  O3  UNL     1     -48.895  -0.844 -21.317  1.00  0.00    -0.392 OA
ATOM     46  H3  UNL     1     -48.013  -1.190 -21.248  1.00  0.00     0.210 HD
ENDBRANCH   2  45
TORSDOF 13
ENDMDL
MODEL 2
REMARK VINA RESULT: -7.203049654      2.868      5.527
REMARK  13 active torsions:
REMARK  status: ('A' for Active; 'I' for Inactive)
REMARK    1  A    between atoms: C2_2  and  C3_3 
REMARK    2  A    between atoms: C3_3  and  C4_4 
REMARK    3  A    between atoms: C4_4  and  C5_5 
REMARK    4  A    between atoms: C5_5  and  O2_7 
REMARK    5  A    between atoms: O2_7  and  C6_8 
REMARK    6  A    between atoms: C7_9  and  O3_10 
REMARK    7  A    between atoms: C13_17  and  N1_18 
REMARK    8  A    between atoms: N2_20  and  C14_22 
REMARK    9  A    between atoms: C14_22  and  O5_27 
REMARK   10  A    between atoms: N3_23  and  O4_25 
REMARK   11  A    between atoms: C19_34  and  C21_36 
REMARK   12  A    between atoms: C21_36  and  C22_37 
REMARK   13  A    between atoms: C25_40  and  O8_41 
ROOT
HETATM    1  C6  UNL     1     -51.548  -2.572 -22.000  1.00  0.00     0.222 C 
HETATM    2  C7  UNL     1     -51.874  -2.011 -20.671  1.00  0.00     0.160 C 
HETATM    3  C8  UNL     1     -50.921  -2.149 -19.571  1.00  0.00     0.053 C 
HETATM    4  C9  UNL     1     -49.730  -1.245 -19.575  1.00  0.00    -0.009 C 
HETATM    5  C10 UNL     1     -49.581  -0.248 -20.634  1.00  0.00     0.010 C 
HETATM    6  C11 UNL     1     -48.534  -2.206 -19.665  1.00  0.00     0.007 C 
HETATM    7  C12 UNL     1     -49.069  -3.266 -18.712  1.00  0.00     0.036 C 
HETATM    8  C13 UNL     1     -50.490  -3.536 -19.185  1.00  0.00     0.081 C 
HETATM    9  C16 UNL     1     -50.757  -4.680 -19.990  1.00  0.00     0.190 C 
HETATM   10  O6  UNL     1     -51.969  -4.476 -20.716  1.00  0.00    -0.342 OA
HETATM   11  C17 UNL     1     -51.566  -4.082 -22.005  1.00  0.00     0.191 C 
HETATM   12  C18 UNL     1     -52.469  -4.635 -23.064  1.00  0.00     0.082 C 
HETATM   13  O7  UNL     1     -50.240  -4.474 -22.168  1.00  0.00    -0.339 OA
HETATM   14  C19 UNL     1     -49.995  -5.281 -21.074  1.00  0.00     0.095 C 
HETATM   15  C20 UNL     1     -50.795  -6.573 -21.430  1.00  0.00     0.049 C 
ENDROOT
BRANCH  14  16
HETATM   16  C21 UNL     1     -48.630  -5.761 -20.921  1.00  0.00     0.099 C 
BRANCH  16  17
HETATM   17  C22 UNL     1     -48.609  -7.042 -20.153  1.00  0.00     0.029 A 
HETATM   18  C23 UNL     1     -48.494  -8.285 -20.682  1.00  0.00     0.031 A 
HETATM   19  C24 UNL     1     -48.475  -9.377 -19.843  1.00  0.00     0.059 A 
HETATM   20  C25 UNL     1     -48.575  -9.146 -18.488  1.00  0.00     0.156 A 
HETATM   21  N4  UNL     1     -48.687  -7.922 -17.992  1.00  0.00    -0.280 N 
HETATM   22  N5  UNL     1     -48.704  -6.891 -18.799  1.00  0.00    -0.303 N 
ATOM     23  H4  UNL     1     -48.760  -7.783 -16.984  1.00  0.00     0.189 HD
ATOM     24  H5  UNL     1     -48.790  -5.953 -18.408  1.00  0.00     0.186 HD
BRANCH  20  25
HETATM   25  O8  UNL     1     -48.558 -10.226 -17.630  1.00  0.00    -0.340 OA
HETATM   26  C26 UNL     1     -47.760 -11.335 -17.890  1.00  0.00     0.211 C 
ENDBRANCH  20  25
ENDBRANCH  16  17
ENDBRANCH  14  16
BRANCH   8  27
HETATM   27  N1  UNL     1     -51.160  -3.804 -17.865  1.00  0.00    -0.320 N 
HETATM   28  N2  UNL     1     -50.600  -3.369 -16.812  1.00  0.00    -0.267 N 
ATOM     29  H2  UNL     1     -49.721  -2.856 -16.886  1.00  0.00     0.190 HD
ATOM     30  H1  UNL     1     -52.039  -4.320 -17.817  1.00  0.00     0.181 HD
BRANCH  28  31
HETATM   31  C14 UNL     1     -51.173  -3.585 -15.540  1.00  0.00     0.258 C 
HETATM   32  N3  UNL     1     -50.427  -3.663 -14.486  1.00  0.00    -0.231 N 
ATOM     33  H3  UNL     1     -50.873  -3.819 -13.582  1.00  0.00     0.198 HD
BRANCH  32  34
HETATM   34  O4  UNL     1     -49.063  -3.545 -14.535  1.00  0.00    -0.287 OA
ATOM     35  H4  UNL     1     -48.490  -4.283 -14.704  1.00  0.00     0.244 HD
ENDBRANCH  32  34
BRANCH  31  36
HETATM   36  O5  UNL     1     -52.548  -3.724 -15.341  1.00  0.00    -0.325 OA
HETATM   37  C15 UNL     1     -53.087  -3.950 -14.051  1.00  0.00     0.213 C 
ENDBRANCH  31  36
ENDBRANCH  28  31
ENDBRANCH   8  27
BRANCH   1  38
HETATM   38  O2  UNL     1     -52.562  -2.106 -22.875  1.00  0.00    -0.308 OA
BRANCH  38  39
HETATM   39  C5  UNL     1     -52.327  -1.212 -23.917  1.00  0.00     0.259 C 
HETATM   40  O1  UNL     1     -51.719  -1.646 -24.906  1.00  0.00    -0.265 OA
BRANCH  39  41
HETATM   41  C4  UNL     1     -52.768   0.194 -23.879  1.00  0.00     0.111 C 
BRANCH  41  42
HETATM   42  C3  UNL     1     -53.621   0.422 -22.655  1.00  0.00     0.009 C 
BRANCH  42  43
HETATM   43  C2  UNL     1     -52.968   1.334 -21.660  1.00  0.00    -0.004 C 
HETATM   44  C1  UNL     1     -54.062   1.977 -20.826  1.00  0.00     0.005 C 
ENDBRANCH  42  43
ENDBRANCH  41  42
ENDBRANCH  39  41
ENDBRANCH  38  39
ENDBRANCH   1  38
BRANCH   2  45
HETATM   45  O3  UNL     1     -53.140  -2.475 -20.289  1.00  0.00    -0.392 OA
ATOM     46  H3  UNL     1     -53.028  -3.187 -19.670  1.00  0.00     0.210 HD
ENDBRANCH   2  45
TORSDOF 13
ENDMDL
MODEL 3
REMARK VINA RESULT: -7.175234995      1.009      1.268
REMARK  13 active torsions:
REMARK  status: ('A' for Active; 'I' for Inactive)
REMARK    1  A    between atoms: C2_2  and  C3_3 
REMARK    2  A    between atoms: C3_3  and  C4_4 
REMARK    3  A    between atoms: C4_4  and  C5_5 
REMARK    4  A    between atoms: C5_5  and  O2_7 
REMARK    5  A    between atoms: O2_7  and  C6_8 
REMARK    6  A    between atoms: C7_9  and  O3_10 
REMARK    7  A    between atoms: C13_17  and  N1_18 
REMARK    8  A    between atoms: N2_20  and  C14_22 
REMARK    9  A    between atoms: C14_22  and  O5_27 
REMARK   10  A    between atoms: N3_23  and  O4_25 
REMARK   11  A    between atoms: C19_34  and  C21_36 
REMARK   12  A    between atoms: C21_36  and  C22_37 
REMARK   13  A    between atoms: C25_40  and  O8_41 
ROOT
HETATM    1  C6  UNL     1     -51.179  -1.479 -20.995  1.00  0.00     0.222 C 
HETATM    2  C7  UNL     1     -49.860  -1.925 -21.492  1.00  0.00     0.160 C 
HETATM    3  C8  UNL     1     -49.276  -3.167 -20.986  1.00  0.00     0.053 C 
HETATM    4  C9  UNL     1     -49.825  -4.453 -21.515  1.00  0.00    -0.009 C 
HETATM    5  C10 UNL     1     -50.878  -4.427 -22.528  1.00  0.00     0.010 C 
HETATM    6  C11 UNL     1     -50.389  -5.156 -20.270  1.00  0.00     0.007 C 
HETATM    7  C12 UNL     1     -49.263  -4.786 -19.316  1.00  0.00     0.036 C 
HETATM    8  C13 UNL     1     -49.066  -3.289 -19.502  1.00  0.00     0.081 C 
HETATM    9  C16 UNL     1     -49.636  -2.383 -18.564  1.00  0.00     0.190 C 
HETATM   10  O6  UNL     1     -49.774  -1.098 -19.170  1.00  0.00    -0.342 OA
HETATM   11  C17 UNL     1     -51.124  -1.015 -19.559  1.00  0.00     0.191 C 
HETATM   12  C18 UNL     1     -51.669   0.369 -19.387  1.00  0.00     0.082 C 
HETATM   13  O7  UNL     1     -51.830  -1.967 -18.828  1.00  0.00    -0.339 OA
HETATM   14  C19 UNL     1     -50.921  -2.401 -17.881  1.00  0.00     0.095 C 
HETATM   15  C20 UNL     1     -50.852  -1.184 -16.908  1.00  0.00     0.049 C 
ENDROOT
BRANCH  14  16
HETATM   16  C21 UNL     1     -51.356  -3.494 -17.026  1.00  0.00     0.099 C 
BRANCH  16  17
HETATM   17  C22 UNL     1     -51.323  -3.080 -15.591  1.00  0.00     0.029 A 
HETATM   18  C23 UNL     1     -50.215  -2.976 -14.818  1.00  0.00     0.031 A 
HETATM   19  C24 UNL     1     -50.341  -2.566 -13.509  1.00  0.00     0.059 A 
HETATM   20  C25 UNL     1     -51.607  -2.277 -13.046  1.00  0.00     0.156 A 
HETATM   21  N4  UNL     1     -52.678  -2.385 -13.820  1.00  0.00    -0.280 N 
HETATM   22  N5  UNL     1     -52.546  -2.777 -15.062  1.00  0.00    -0.303 N 
ATOM     23  H4  UNL     1     -53.602  -2.165 -13.449  1.00  0.00     0.189 HD
ATOM     24  H5  UNL     1     -53.376  -2.857 -15.650  1.00  0.00     0.186 HD
BRANCH  20  25
HETATM   25  O8  UNL     1     -51.754  -1.864 -11.738  1.00  0.00    -0.340 OA
HETATM   26  C26 UNL     1     -52.997  -1.482 -11.243  1.00  0.00     0.211 C 
ENDBRANCH  20  25
ENDBRANCH  16  17
ENDBRANCH  14  16
BRANCH   8  27
HETATM   27  N1  UNL     1     -47.577  -3.193 -19.306  1.00  0.00    -0.320 N 
HETATM   28  N2  UNL     1     -47.091  -3.619 -18.213  1.00  0.00    -0.267 N 
ATOM     29  H2  UNL     1     -47.712  -4.011 -17.505  1.00  0.00     0.190 HD
ATOM     30  H1  UNL     1     -46.976  -2.796 -20.028  1.00  0.00     0.181 HD
BRANCH  28  31
HETATM   31  C14 UNL     1     -45.703  -3.559 -17.962  1.00  0.00     0.258 C 
HETATM   32  N3  UNL     1     -44.879  -4.291 -18.639  1.00  0.00    -0.231 N 
ATOM     33  H3  UNL     1     -43.882  -4.224 -18.433  1.00  0.00     0.198 HD
BRANCH  32  34
HETATM   34  O4  UNL     1     -45.290  -5.152 -19.623  1.00  0.00    -0.287 OA
ATOM     35  H4  UNL     1     -45.156  -6.091 -19.571  1.00  0.00     0.244 HD
ENDBRANCH  32  34
BRANCH  31  36
HETATM   36  O5  UNL     1     -45.142  -2.728 -16.989  1.00  0.00    -0.325 OA
HETATM   37  C15 UNL     1     -45.906  -2.254 -15.896  1.00  0.00     0.213 C 
ENDBRANCH  31  36
ENDBRANCH  28  31
ENDBRANCH   8  27
BRANCH   1  38
HETATM   38  O2  UNL     1     -51.547  -0.378 -21.810  1.00  0.00    -0.308 OA
BRANCH  38  39
HETATM   39  C5  UNL     1     -52.482  -0.461 -22.839  1.00  0.00     0.259 C 
HETATM   40  O1  UNL     1     -53.418   0.351 -22.816  1.00  0.00    -0.265 OA
BRANCH  39  41
HETATM   41  C4  UNL     1     -52.393  -1.456 -23.922  1.00  0.00     0.111 C 
BRANCH  41  42
HETATM   42  C3  UNL     1     -52.432  -0.752 -25.257  1.00  0.00     0.009 C 
BRANCH  42  43
HETATM   43  C2  UNL     1     -52.000  -1.638 -26.387  1.00  0.00    -0.004 C 
HETATM   44  C1  UNL     1     -50.907  -2.556 -25.870  1.00  0.00     0.005 C 
ENDBRANCH  42  43
ENDBRANCH  41  42
ENDBRANCH  39  41
ENDBRANCH  38  39
ENDBRANCH   1  38
BRANCH   2  45
HETATM   45  O3  UNL     1     -48.953  -0.865 -21.367  1.00  0.00    -0.392 OA
ATOM     46  H3  UNL     1     -48.118  -1.213 -21.080  1.00  0.00     0.210 HD
ENDBRANCH   2  45
TORSDOF 13
ENDMDL
MODEL 4
REMARK VINA RESULT: -7.143623357      2.756      5.267
REMARK  13 active torsions:
REMARK  status: ('A' for Active; 'I' for Inactive)
REMARK    1  A    between atoms: C2_2  and  C3_3 
REMARK    2  A    between atoms: C3_3  and  C4_4 
REMARK    3  A    between atoms: C4_4  and  C5_5 
REMARK    4  A    between atoms: C5_5  and  O2_7 
REMARK    5  A    between atoms: O2_7  and  C6_8 
REMARK    6  A    between atoms: C7_9  and  O3_10 
REMARK    7  A    between atoms: C13_17  and  N1_18 
REMARK    8  A    between atoms: N2_20  and  C14_22 
REMARK    9  A    between atoms: C14_22  and  O5_27 
REMARK   10  A    between atoms: N3_23  and  O4_25 
REMARK   11  A    between atoms: C19_34  and  C21_36 
REMARK   12  A    between atoms: C21_36  and  C22_37 
REMARK   13  A    between atoms: C25_40  and  O8_41 
ROOT
HETATM    1  C6  UNL     1     -51.547  -2.615 -22.081  1.00  0.00     0.222 C 
HETATM    2  C7  UNL     1     -51.883  -2.032 -20.764  1.00  0.00     0.160 C 
HETATM    3  C8  UNL     1     -50.930  -2.139 -19.660  1.00  0.00     0.053 C 
HETATM    4  C9  UNL     1     -49.748  -1.223 -19.678  1.00  0.00    -0.009 C 
HETATM    5  C10 UNL     1     -49.608  -0.246 -20.756  1.00  0.00     0.010 C 
HETATM    6  C11 UNL     1     -48.543  -2.174 -19.748  1.00  0.00     0.007 C 
HETATM    7  C12 UNL     1     -49.069  -3.221 -18.776  1.00  0.00     0.036 C 
HETATM    8  C13 UNL     1     -50.486  -3.515 -19.247  1.00  0.00     0.081 C 
HETATM    9  C16 UNL     1     -50.740  -4.676 -20.031  1.00  0.00     0.190 C 
HETATM   10  O6  UNL     1     -51.952  -4.498 -20.763  1.00  0.00    -0.342 OA
HETATM   11  C17 UNL     1     -51.551  -4.125 -22.058  1.00  0.00     0.191 C 
HETATM   12  C18 UNL     1     -52.445  -4.707 -23.108  1.00  0.00     0.082 C 
HETATM   13  O7  UNL     1     -50.220  -4.506 -22.211  1.00  0.00    -0.339 OA
HETATM   14  C19 UNL     1     -49.969  -5.290 -21.101  1.00  0.00     0.095 C 
HETATM   15  C20 UNL     1     -50.755  -6.596 -21.434  1.00  0.00     0.049 C 
ENDROOT
BRANCH  14  16
HETATM   16  C21 UNL     1     -48.600  -5.753 -20.936  1.00  0.00     0.099 C 
BRANCH  16  17
HETATM   17  C22 UNL     1     -48.569  -7.031 -20.163  1.00  0.00     0.029 A 
HETATM   18  C23 UNL     1     -48.368  -8.268 -20.678  1.00  0.00     0.031 A 
HETATM   19  C24 UNL     1     -48.352  -9.356 -19.834  1.00  0.00     0.059 A 
HETATM   20  C25 UNL     1     -48.544  -9.127 -18.488  1.00  0.00     0.156 A 
HETATM   21  N4  UNL     1     -48.739  -7.908 -18.006  1.00  0.00    -0.280 N 
HETATM   22  N5  UNL     1     -48.752  -6.881 -18.818  1.00  0.00    -0.303 N 
ATOM     23  H4  UNL     1     -48.878  -7.770 -17.005  1.00  0.00     0.189 HD
ATOM     24  H5  UNL     1     -48.903  -5.947 -18.436  1.00  0.00     0.186 HD
BRANCH  20  25
HETATM   25  O8  UNL     1     -48.531 -10.204 -17.627  1.00  0.00    -0.340 OA
HETATM   26  C26 UNL     1     -47.484 -11.119 -17.637  1.00  0.00     0.211 C 
ENDBRANCH  20  25
ENDBRANCH  16  17
ENDBRANCH  14  16
BRANCH   8  27
HETATM   27  N1  UNL     1     -51.157  -3.765 -17.923  1.00  0.00    -0.320 N 
HETATM   28  N2  UNL     1     -50.568  -3.365 -16.871  1.00  0.00    -0.267 N 
ATOM     29  H2  UNL     1     -49.668  -2.892 -16.948  1.00  0.00     0.190 HD
ATOM     30  H1  UNL     1     -52.057  -4.241 -17.872  1.00  0.00     0.181 HD
BRANCH  28  31
HETATM   31  C14 UNL     1     -51.139  -3.567 -15.596  1.00  0.00     0.258 C 
HETATM   32  N3  UNL     1     -50.392  -3.640 -14.543  1.00  0.00    -0.231 N 
ATOM     33  H3  UNL     1     -50.836  -3.786 -13.637  1.00  0.00     0.198 HD
BRANCH  32  34
HETATM   34  O4  UNL     1     -49.027  -3.530 -14.596  1.00  0.00    -0.287 OA
ATOM     35  H4  UNL     1     -48.446  -4.166 -14.197  1.00  0.00     0.244 HD
ENDBRANCH  32  34
BRANCH  31  36
HETATM   36  O5  UNL     1     -52.515  -3.697 -15.393  1.00  0.00    -0.325 OA
HETATM   37  C15 UNL     1     -53.046  -3.993 -14.114  1.00  0.00     0.213 C 
ENDBRANCH  31  36
ENDBRANCH  28  31
ENDBRANCH   8  27
BRANCH   1  38
HETATM   38  O2  UNL     1     -52.564  -2.176 -22.968  1.00  0.00    -0.308 OA
BRANCH  38  39
HETATM   39  C5  UNL     1     -52.508  -0.973 -23.667  1.00  0.00     0.259 C 
HETATM   40  O1  UNL     1     -52.874   0.047 -23.065  1.00  0.00    -0.265 OA
BRANCH  39  41
HETATM   41  C4  UNL     1     -52.039  -0.879 -25.061  1.00  0.00     0.111 C 
BRANCH  41  42
HETATM   42  C3  UNL     1     -51.989  -2.259 -25.671  1.00  0.00     0.009 C 
BRANCH  42  43
HETATM   43  C2  UNL     1     -50.587  -2.725 -25.926  1.00  0.00    -0.004 C 
HETATM   44  C1  UNL     1     -50.648  -4.182 -26.350  1.00  0.00     0.005 C 
ENDBRANCH  42  43
ENDBRANCH  41  42
ENDBRANCH  39  41
ENDBRANCH  38  39
ENDBRANCH   1  38
BRANCH   2  45
HETATM   45  O3  UNL     1     -53.144  -2.502 -20.376  1.00  0.00    -0.392 OA
ATOM     46  H3  UNL     1     -53.695  -1.757 -20.170  1.00  0.00     0.210 HD
ENDBRANCH   2  45
TORSDOF 13
ENDMDL
MODEL 5
REMARK VINA RESULT: -7.104425641      0.746      1.273
REMARK  13 active torsions:
REMARK  status: ('A' for Active; 'I' for Inactive)
REMARK    1  A    between atoms: C2_2  and  C3_3 
REMARK    2  A    between atoms: C3_3  and  C4_4 
REMARK    3  A    between atoms: C4_4  and  C5_5 
REMARK    4  A    between atoms: C5_5  and  O2_7 
REMARK    5  A    between atoms: O2_7  and  C6_8 
REMARK    6  A    between atoms: C7_9  and  O3_10 
REMARK    7  A    between atoms: C13_17  and  N1_18 
REMARK    8  A    between atoms: N2_20  and  C14_22 
REMARK    9  A    between atoms: C14_22  and  O5_27 
REMARK   10  A    between atoms: N3_23  and  O4_25 
REMARK   11  A    between atoms: C19_34  and  C21_36 
REMARK   12  A    between atoms: C21_36  and  C22_37 
REMARK   13  A    between atoms: C25_40  and  O8_41 
ROOT
HETATM    1  C6  UNL     1     -51.149  -1.593 -21.292  1.00  0.00     0.222 C 
HETATM    2  C7  UNL     1     -49.808  -2.072 -21.690  1.00  0.00     0.160 C 
HETATM    3  C8  UNL     1     -49.268  -3.295 -21.098  1.00  0.00     0.053 C 
HETATM    4  C9  UNL     1     -49.799  -4.598 -21.604  1.00  0.00    -0.009 C 
HETATM    5  C10 UNL     1     -50.791  -4.606 -22.679  1.00  0.00     0.010 C 
HETATM    6  C11 UNL     1     -50.444  -5.242 -20.367  1.00  0.00     0.007 C 
HETATM    7  C12 UNL     1     -49.372  -4.842 -19.364  1.00  0.00     0.036 C 
HETATM    8  C13 UNL     1     -49.148  -3.356 -19.601  1.00  0.00     0.081 C 
HETATM    9  C16 UNL     1     -49.762  -2.405 -18.737  1.00  0.00     0.190 C 
HETATM   10  O6  UNL     1     -49.850  -1.147 -19.404  1.00  0.00    -0.342 OA
HETATM   11  C17 UNL     1     -51.173  -1.069 -19.876  1.00  0.00     0.191 C 
HETATM   12  C18 UNL     1     -51.712   0.326 -19.796  1.00  0.00     0.082 C 
HETATM   13  O7  UNL     1     -51.932  -1.983 -19.149  1.00  0.00    -0.339 OA
HETATM   14  C19 UNL     1     -51.085  -2.384 -18.132  1.00  0.00     0.095 C 
HETATM   15  C20 UNL     1     -51.060  -1.127 -17.209  1.00  0.00     0.049 C 
ENDROOT
BRANCH  14  16
HETATM   16  C21 UNL     1     -51.582  -3.435 -17.259  1.00  0.00     0.099 C 
BRANCH  16  17
HETATM   17  C22 UNL     1     -50.942  -3.342 -15.912  1.00  0.00     0.029 A 
HETATM   18  C23 UNL     1     -51.539  -2.909 -14.775  1.00  0.00     0.031 A 
HETATM   19  C24 UNL     1     -50.821  -2.893 -13.600  1.00  0.00     0.059 A 
HETATM   20  C25 UNL     1     -49.513  -3.325 -13.641  1.00  0.00     0.156 A 
HETATM   21  N4  UNL     1     -48.949  -3.744 -14.765  1.00  0.00    -0.280 N 
HETATM   22  N5  UNL     1     -49.641  -3.755 -15.876  1.00  0.00    -0.303 N 
ATOM     23  H4  UNL     1     -47.977  -4.057 -14.764  1.00  0.00     0.189 HD
ATOM     24  H5  UNL     1     -49.197  -4.079 -16.736  1.00  0.00     0.186 HD
BRANCH  20  25
HETATM   25  O8  UNL     1     -48.777  -3.317 -12.475  1.00  0.00    -0.340 OA
HETATM   26  C26 UNL     1     -47.465  -3.778 -12.451  1.00  0.00     0.211 C 
ENDBRANCH  20  25
ENDBRANCH  16  17
ENDBRANCH  14  16
BRANCH   8  27
HETATM   27  N1  UNL     1     -47.672  -3.264 -19.320  1.00  0.00    -0.320 N 
HETATM   28  N2  UNL     1     -47.191  -4.007 -18.411  1.00  0.00    -0.267 N 
ATOM     29  H2  UNL     1     -47.807  -4.640 -17.900  1.00  0.00     0.190 HD
ATOM     30  H1  UNL     1     -47.076  -2.623 -19.845  1.00  0.00     0.181 HD
BRANCH  28  31
HETATM   31  C14 UNL     1     -45.815  -3.973 -18.095  1.00  0.00     0.258 C 
HETATM   32  N3  UNL     1     -45.340  -3.053 -17.319  1.00  0.00    -0.231 N 
ATOM     33  H3  UNL     1     -44.342  -3.056 -17.111  1.00  0.00     0.198 HD
BRANCH  32  34
HETATM   34  O4  UNL     1     -46.124  -2.075 -16.766  1.00  0.00    -0.287 OA
ATOM     35  H4  UNL     1     -45.842  -1.550 -16.026  1.00  0.00     0.244 HD
ENDBRANCH  32  34
BRANCH  31  36
HETATM   36  O5  UNL     1     -44.899  -4.906 -18.587  1.00  0.00    -0.325 OA
HETATM   37  C15 UNL     1     -45.329  -6.088 -19.237  1.00  0.00     0.213 C 
ENDBRANCH  31  36
ENDBRANCH  28  31
ENDBRANCH   8  27
BRANCH   1  38
HETATM   38  O2  UNL     1     -51.455  -0.524 -22.173  1.00  0.00    -0.308 OA
BRANCH  38  39
HETATM   39  C5  UNL     1     -52.449  -0.591 -23.146  1.00  0.00     0.259 C 
HETATM   40  O1  UNL     1     -53.212   0.382 -23.239  1.00  0.00    -0.265 OA
BRANCH  39  41
HETATM   41  C4  UNL     1     -52.617  -1.749 -24.042  1.00  0.00     0.111 C 
BRANCH  41  42
HETATM   42  C3  UNL     1     -52.959  -1.266 -25.430  1.00  0.00     0.009 C 
BRANCH  42  43
HETATM   43  C2  UNL     1     -51.799  -1.362 -26.375  1.00  0.00    -0.004 C 
HETATM   44  C1  UNL     1     -50.988  -2.588 -25.996  1.00  0.00     0.005 C 
ENDBRANCH  42  43
ENDBRANCH  41  42
ENDBRANCH  39  41
ENDBRANCH  38  39
ENDBRANCH   1  38
BRANCH   2  45
HETATM   45  O3  UNL     1     -48.898  -1.015 -21.556  1.00  0.00    -0.392 OA
ATOM     46  H3  UNL     1     -48.147  -1.189 -22.110  1.00  0.00     0.210 HD
ENDBRANCH   2  45
TORSDOF 13
ENDMDL
