MODEL 1
REMARK VINA RESULT: -12.091521331      0.000      0.000
REMARK  7 active torsions:
REMARK  status: ('A' for Active; 'I' for Inactive)
REMARK    1  A    between atoms: C8_8  and  O1_9 
REMARK    2  A    between atoms: C13_15  and  O2_16 
REMARK    3  A    between atoms: C13_15  and  C14_18 
REMARK    4  A    between atoms: C14_18  and  N1_20 
REMARK    5  A    between atoms: C19_26  and  C20_27 
REMARK    6  A    between atoms: C20_27  and  O3_28 
REMARK    7  A    between atoms: C20_27  and  N3_30 
ROOT
HETATM    1  C1  UNL     1      69.065 -43.825 -46.940  1.00  0.00     0.011 C 
HETATM    2  C2  UNL     1      70.413 -44.506 -47.026  1.00  0.00    -0.010 C 
HETATM    3  C3  UNL     1      70.264 -45.839 -47.718  1.00  0.00     0.005 C 
HETATM    4  C4  UNL     1      70.181 -46.879 -46.625  1.00  0.00     0.006 C 
HETATM    5  C5  UNL     1      70.418 -46.171 -45.331  1.00  0.00    -0.001 C 
HETATM    6  C6  UNL     1      71.216 -46.950 -44.334  1.00  0.00     0.000 C 
HETATM    7  C7  UNL     1      70.571 -48.278 -44.107  1.00  0.00     0.037 C 
HETATM    8  C8  UNL     1      71.478 -49.318 -43.497  1.00  0.00     0.126 C 
HETATM    9  C9  UNL     1      72.740 -49.313 -44.246  1.00  0.00     0.063 C 
HETATM   10  C10 UNL     1      73.818 -50.235 -43.775  1.00  0.00     0.037 C 
HETATM   11  C11 UNL     1      73.796 -51.612 -44.305  1.00  0.00     0.011 C 
HETATM   12  C12 UNL     1      74.997 -51.785 -45.191  1.00  0.00     0.047 C 
HETATM   13  C13 UNL     1      75.985 -50.670 -44.796  1.00  0.00     0.131 C 
HETATM   14  C30 UNL     1      75.021 -49.609 -44.494  1.00  0.00     0.197 A 
HETATM   15  N4  UNL     1      74.606 -48.960 -45.833  1.00  0.00    -0.050 N 
ATOM     16  H41 UNL     1      73.885 -49.066 -46.547  1.00  0.00     0.279 HD
ATOM     17  H42 UNL     1      74.940 -48.903 -46.795  1.00  0.00     0.279 HD
HETATM   18  C31 UNL     1      74.798 -48.280 -44.570  1.00  0.00     0.267 A 
HETATM   19  C32 UNL     1      73.431 -47.963 -43.956  1.00  0.00     0.144 C 
HETATM   20  F1  UNL     1      73.479 -47.685 -42.634  1.00  0.00    -0.240 F 
HETATM   21  C33 UNL     1      72.631 -46.990 -44.783  1.00  0.00     0.033 C 
HETATM   22  C34 UNL     1      73.173 -45.587 -44.711  1.00  0.00     0.009 C 
HETATM   23  C35 UNL     1      72.462 -44.763 -45.738  1.00  0.00     0.010 C 
HETATM   24  C36 UNL     1      70.971 -44.818 -45.644  1.00  0.00    -0.037 C 
HETATM   25  C37 UNL     1      70.489 -43.791 -44.647  1.00  0.00     0.016 C 
ENDROOT
BRANCH  13  26
HETATM   26  O2  UNL     1      76.663 -50.426 -46.021  1.00  0.00    -0.381 OA
ATOM     27  H2  UNL     1      77.523 -50.792 -45.848  1.00  0.00     0.211 HD
ENDBRANCH  13  26
BRANCH  13  28
HETATM   28  C14 UNL     1      76.960 -51.087 -43.758  1.00  0.00     0.018 C 
HETATM   29  C15 UNL     1      76.656 -52.422 -43.136  1.00  0.00     0.066 C 
BRANCH  28  30
HETATM   30  N1  UNL     1      78.309 -50.856 -44.078  1.00  0.00    -0.370 N 
HETATM   31  C16 UNL     1      79.075 -51.907 -44.637  1.00  0.00     0.143 C 
HETATM   32  C17 UNL     1      80.492 -51.453 -45.005  1.00  0.00     0.133 C 
HETATM   33  N2  UNL     1      81.064 -50.744 -43.912  1.00  0.00    -0.417 N 
HETATM   34  C18 UNL     1      80.298 -49.682 -43.365  1.00  0.00     0.147 C 
ATOM     35  H2  UNL     1      81.981 -50.988 -43.538  1.00  0.00     0.153 HD
HETATM   36  C19 UNL     1      78.858 -49.601 -43.924  1.00  0.00     0.175 C 
BRANCH  36  37
HETATM   37  C20 UNL     1      78.880 -48.587 -44.961  1.00  0.00     0.139 C 
BRANCH  37  38
HETATM   38  O3  UNL     1      78.996 -49.115 -46.179  1.00  0.00    -0.348 OA
ATOM     39  H3  UNL     1      79.719 -48.740 -46.666  1.00  0.00     0.219 HD
ENDBRANCH  37  38
BRANCH  37  40
HETATM   40  N3  UNL     1      78.812 -47.212 -45.001  1.00  0.00    -0.359 N 
HETATM   41  C21 UNL     1      77.681 -46.412 -45.343  1.00  0.00     0.129 C 
HETATM   42  C22 UNL     1      77.910 -44.909 -45.045  1.00  0.00     0.059 C 
HETATM   43  C23 UNL     1      79.114 -44.500 -45.810  1.00  0.00    -0.049 A 
HETATM   44  C24 UNL     1      79.120 -43.421 -46.641  1.00  0.00     0.008 A 
HETATM   45  C28 UNL     1      80.234 -45.311 -45.608  1.00  0.00    -0.034 A 
HETATM   46  C25 UNL     1      80.305 -43.129 -47.308  1.00  0.00     0.001 A 
HETATM   47  C26 UNL     1      81.427 -43.919 -47.123  1.00  0.00     0.001 A 
HETATM   48  C27 UNL     1      81.377 -45.009 -46.268  1.00  0.00     0.009 A 
HETATM   49  C29 UNL     1      80.024 -46.433 -44.664  1.00  0.00     0.163 C 
ENDBRANCH  37  40
ENDBRANCH  36  37
ENDBRANCH  28  30
ENDBRANCH  13  28
BRANCH   8  50
HETATM   50  O1  UNL     1      71.589 -49.151 -42.140  1.00  0.00    -0.395 OA
ATOM     51  H1  UNL     1      72.412 -49.496 -41.815  1.00  0.00     0.210 HD
ENDBRANCH   8  50
TORSDOF 7
ENDMDL
MODEL 2
REMARK VINA RESULT: -12.039912418      1.743      2.745
REMARK  7 active torsions:
REMARK  status: ('A' for Active; 'I' for Inactive)
REMARK    1  A    between atoms: C8_8  and  O1_9 
REMARK    2  A    between atoms: C13_15  and  O2_16 
REMARK    3  A    between atoms: C13_15  and  C14_18 
REMARK    4  A    between atoms: C14_18  and  N1_20 
REMARK    5  A    between atoms: C19_26  and  C20_27 
REMARK    6  A    between atoms: C20_27  and  O3_28 
REMARK    7  A    between atoms: C20_27  and  N3_30 
ROOT
HETATM    1  C1  UNL     1      66.728 -44.258 -45.869  1.00  0.00     0.011 C 
HETATM    2  C2  UNL     1      67.959 -44.925 -46.440  1.00  0.00    -0.010 C 
HETATM    3  C3  UNL     1      67.785 -46.424 -46.404  1.00  0.00     0.005 C 
HETATM    4  C4  UNL     1      68.505 -46.906 -45.167  1.00  0.00     0.006 C 
HETATM    5  C5  UNL     1      69.199 -45.722 -44.577  1.00  0.00    -0.001 C 
HETATM    6  C6  UNL     1      70.545 -46.018 -43.994  1.00  0.00     0.000 C 
HETATM    7  C7  UNL     1      70.424 -47.120 -42.993  1.00  0.00     0.037 C 
HETATM    8  C8  UNL     1      71.723 -47.816 -42.669  1.00  0.00     0.126 C 
HETATM    9  C9  UNL     1      72.391 -48.140 -43.935  1.00  0.00     0.063 C 
HETATM   10  C10 UNL     1      73.735 -48.789 -43.852  1.00  0.00     0.037 C 
HETATM   11  C11 UNL     1      73.758 -50.261 -43.749  1.00  0.00     0.011 C 
HETATM   12  C12 UNL     1      74.346 -50.803 -45.020  1.00  0.00     0.047 C 
HETATM   13  C13 UNL     1      75.116 -49.637 -45.669  1.00  0.00     0.131 C 
HETATM   14  C30 UNL     1      74.228 -48.537 -45.283  1.00  0.00     0.197 A 
HETATM   15  N4  UNL     1      73.057 -48.508 -46.290  1.00  0.00    -0.050 N 
ATOM     16  H41 UNL     1      72.119 -48.897 -46.388  1.00  0.00     0.279 HD
ATOM     17  H42 UNL     1      72.833 -48.865 -47.219  1.00  0.00     0.279 HD
HETATM   18  C31 UNL     1      73.704 -47.361 -45.688  1.00  0.00     0.267 A 
HETATM   19  C32 UNL     1      72.807 -46.801 -44.580  1.00  0.00     0.144 C 
HETATM   20  F1  UNL     1      73.456 -45.992 -43.712  1.00  0.00    -0.240 F 
HETATM   21  C33 UNL     1      71.503 -46.258 -45.103  1.00  0.00     0.033 C 
HETATM   22  C34 UNL     1      71.673 -44.961 -45.849  1.00  0.00     0.009 C 
HETATM   23  C35 UNL     1      70.375 -44.639 -46.519  1.00  0.00     0.010 C 
HETATM   24  C36 UNL     1      69.195 -44.632 -45.601  1.00  0.00    -0.037 C 
HETATM   25  C37 UNL     1      69.068 -43.276 -44.948  1.00  0.00     0.016 C 
ENDROOT
BRANCH  13  26
HETATM   26  O2  UNL     1      75.003 -49.939 -47.052  1.00  0.00    -0.381 OA
ATOM     27  H2  UNL     1      74.343 -49.318 -47.338  1.00  0.00     0.211 HD
ENDBRANCH  13  26
BRANCH  13  28
HETATM   28  C14 UNL     1      76.547 -49.588 -45.281  1.00  0.00     0.018 C 
HETATM   29  C15 UNL     1      76.833 -48.684 -44.114  1.00  0.00     0.066 C 
BRANCH  28  30
HETATM   30  N1  UNL     1      77.206 -50.830 -45.266  1.00  0.00    -0.370 N 
HETATM   31  C16 UNL     1      77.377 -51.536 -46.482  1.00  0.00     0.143 C 
HETATM   32  C17 UNL     1      78.191 -52.820 -46.292  1.00  0.00     0.133 C 
HETATM   33  N2  UNL     1      77.677 -53.551 -45.185  1.00  0.00    -0.417 N 
HETATM   34  C18 UNL     1      77.522 -52.843 -43.965  1.00  0.00     0.147 C 
ATOM     35  H2  UNL     1      77.431 -54.538 -45.264  1.00  0.00     0.153 HD
HETATM   36  C19 UNL     1      77.749 -51.318 -44.097  1.00  0.00     0.175 C 
BRANCH  36  37
HETATM   37  C20 UNL     1      79.111 -51.071 -43.664  1.00  0.00     0.139 C 
BRANCH  37  38
HETATM   38  O3  UNL     1      79.722 -52.184 -43.261  1.00  0.00    -0.348 OA
ATOM     39  H3  UNL     1      80.586 -52.278 -43.642  1.00  0.00     0.219 HD
ENDBRANCH  37  38
BRANCH  37  40
HETATM   40  N3  UNL     1      79.932 -49.969 -43.566  1.00  0.00    -0.359 N 
HETATM   41  C21 UNL     1      80.389 -49.335 -42.371  1.00  0.00     0.129 C 
HETATM   42  C22 UNL     1      81.486 -48.277 -42.648  1.00  0.00     0.059 C 
HETATM   43  C23 UNL     1      80.903 -47.294 -43.594  1.00  0.00    -0.049 A 
HETATM   44  C24 UNL     1      80.923 -45.952 -43.359  1.00  0.00     0.008 A 
HETATM   45  C28 UNL     1      80.335 -47.857 -44.740  1.00  0.00    -0.034 A 
HETATM   46  C25 UNL     1      80.347 -45.122 -44.315  1.00  0.00     0.001 A 
HETATM   47  C26 UNL     1      79.779 -45.659 -45.458  1.00  0.00     0.001 A 
HETATM   48  C27 UNL     1      79.780 -47.031 -45.659  1.00  0.00     0.009 A 
HETATM   49  C29 UNL     1      80.418 -49.334 -44.811  1.00  0.00     0.163 C 
ENDBRANCH  37  40
ENDBRANCH  36  37
ENDBRANCH  28  30
ENDBRANCH  13  28
BRANCH   8  50
HETATM   50  O1  UNL     1      72.466 -47.094 -41.769  1.00  0.00    -0.395 OA
ATOM     51  H1  UNL     1      73.284 -46.801 -42.153  1.00  0.00     0.210 HD
ENDBRANCH   8  50
TORSDOF 7
ENDMDL
MODEL 3
REMARK VINA RESULT: -11.778992440      2.295      4.843
REMARK  7 active torsions:
REMARK  status: ('A' for Active; 'I' for Inactive)
REMARK    1  A    between atoms: C8_8  and  O1_9 
REMARK    2  A    between atoms: C13_15  and  O2_16 
REMARK    3  A    between atoms: C13_15  and  C14_18 
REMARK    4  A    between atoms: C14_18  and  N1_20 
REMARK    5  A    between atoms: C19_26  and  C20_27 
REMARK    6  A    between atoms: C20_27  and  O3_28 
REMARK    7  A    between atoms: C20_27  and  N3_30 
ROOT
HETATM    1  C1  UNL     1      68.928 -43.892 -46.920  1.00  0.00     0.011 C 
HETATM    2  C2  UNL     1      70.285 -44.547 -47.054  1.00  0.00    -0.010 C 
HETATM    3  C3  UNL     1      70.133 -45.893 -47.721  1.00  0.00     0.005 C 
HETATM    4  C4  UNL     1      70.119 -46.917 -46.611  1.00  0.00     0.006 C 
HETATM    5  C5  UNL     1      70.397 -46.186 -45.339  1.00  0.00    -0.001 C 
HETATM    6  C6  UNL     1      71.253 -46.934 -44.366  1.00  0.00     0.000 C 
HETATM    7  C7  UNL     1      70.646 -48.271 -44.092  1.00  0.00     0.037 C 
HETATM    8  C8  UNL     1      71.599 -49.283 -43.508  1.00  0.00     0.126 C 
HETATM    9  C9  UNL     1      72.828 -49.264 -44.310  1.00  0.00     0.063 C 
HETATM   10  C10 UNL     1      73.944 -50.157 -43.873  1.00  0.00     0.037 C 
HETATM   11  C11 UNL     1      73.927 -51.542 -44.382  1.00  0.00     0.011 C 
HETATM   12  C12 UNL     1      75.092 -51.704 -45.316  1.00  0.00     0.047 C 
HETATM   13  C13 UNL     1      76.073 -50.564 -44.981  1.00  0.00     0.131 C 
HETATM   14  C30 UNL     1      75.101 -49.518 -44.653  1.00  0.00     0.197 A 
HETATM   15  N4  UNL     1      74.616 -48.898 -45.982  1.00  0.00    -0.050 N 
ATOM     16  H41 UNL     1      73.867 -49.029 -46.662  1.00  0.00     0.279 HD
ATOM     17  H42 UNL     1      74.907 -48.849 -46.958  1.00  0.00     0.279 HD
HETATM   18  C31 UNL     1      74.848 -48.195 -44.737  1.00  0.00     0.267 A 
HETATM   19  C32 UNL     1      73.502 -47.896 -44.070  1.00  0.00     0.144 C 
HETATM   20  F1  UNL     1      73.602 -47.597 -42.755  1.00  0.00    -0.240 F 
HETATM   21  C33 UNL     1      72.648 -46.952 -44.875  1.00  0.00     0.033 C 
HETATM   22  C34 UNL     1      73.163 -45.537 -44.846  1.00  0.00     0.009 C 
HETATM   23  C35 UNL     1      72.392 -44.744 -45.854  1.00  0.00     0.010 C 
HETATM   24  C36 UNL     1      70.908 -44.826 -45.694  1.00  0.00    -0.037 C 
HETATM   25  C37 UNL     1      70.448 -43.795 -44.691  1.00  0.00     0.016 C 
ENDROOT
BRANCH  13  26
HETATM   26  O2  UNL     1      76.693 -50.325 -46.237  1.00  0.00    -0.381 OA
ATOM     27  H2  UNL     1      77.263 -49.591 -46.041  1.00  0.00     0.211 HD
ENDBRANCH  13  26
BRANCH  13  28
HETATM   28  C14 UNL     1      77.100 -50.946 -43.980  1.00  0.00     0.018 C 
HETATM   29  C15 UNL     1      77.154 -52.421 -43.693  1.00  0.00     0.066 C 
BRANCH  28  30
HETATM   30  N1  UNL     1      78.343 -50.307 -44.126  1.00  0.00    -0.370 N 
HETATM   31  C16 UNL     1      78.737 -49.337 -43.173  1.00  0.00     0.143 C 
HETATM   32  C17 UNL     1      80.153 -48.813 -43.436  1.00  0.00     0.133 C 
HETATM   33  N2  UNL     1      80.284 -48.463 -44.810  1.00  0.00    -0.417 N 
HETATM   34  C18 UNL     1      79.902 -49.445 -45.760  1.00  0.00     0.147 C 
ATOM     35  H2  UNL     1      80.635 -47.550 -45.097  1.00  0.00     0.153 HD
HETATM   36  C19 UNL     1      79.204 -50.677 -45.138  1.00  0.00     0.175 C 
BRANCH  36  37
HETATM   37  C20 UNL     1      80.224 -51.700 -45.007  1.00  0.00     0.139 C 
BRANCH  37  38
HETATM   38  O3  UNL     1      79.975 -52.760 -45.775  1.00  0.00    -0.348 OA
ATOM     39  H3  UNL     1      80.185 -53.577 -45.339  1.00  0.00     0.219 HD
ENDBRANCH  37  38
BRANCH  37  40
HETATM   40  N3  UNL     1      81.388 -51.850 -44.286  1.00  0.00    -0.359 N 
HETATM   41  C21 UNL     1      82.723 -51.649 -44.748  1.00  0.00     0.129 C 
HETATM   42  C22 UNL     1      83.757 -51.677 -43.594  1.00  0.00     0.059 C 
HETATM   43  C23 UNL     1      83.609 -52.989 -42.919  1.00  0.00    -0.049 A 
HETATM   44  C24 UNL     1      84.666 -53.818 -42.692  1.00  0.00     0.008 A 
HETATM   45  C28 UNL     1      82.301 -53.302 -42.537  1.00  0.00    -0.034 A 
HETATM   46  C25 UNL     1      84.411 -55.026 -42.051  1.00  0.00     0.001 A 
HETATM   47  C26 UNL     1      83.123 -55.356 -41.664  1.00  0.00     0.001 A 
HETATM   48  C27 UNL     1      82.075 -54.483 -41.914  1.00  0.00     0.009 A 
HETATM   49  C29 UNL     1      81.295 -52.268 -42.869  1.00  0.00     0.163 C 
ENDBRANCH  37  40
ENDBRANCH  36  37
ENDBRANCH  28  30
ENDBRANCH  13  28
BRANCH   8  50
HETATM   50  O1  UNL     1      71.765 -49.093 -42.159  1.00  0.00    -0.395 OA
ATOM     51  H1  UNL     1      72.306 -49.774 -41.778  1.00  0.00     0.210 HD
ENDBRANCH   8  50
TORSDOF 7
ENDMDL
MODEL 4
REMARK VINA RESULT: -11.641448157      0.866      1.362
REMARK  7 active torsions:
REMARK  status: ('A' for Active; 'I' for Inactive)
REMARK    1  A    between atoms: C8_8  and  O1_9 
REMARK    2  A    between atoms: C13_15  and  O2_16 
REMARK    3  A    between atoms: C13_15  and  C14_18 
REMARK    4  A    between atoms: C14_18  and  N1_20 
REMARK    5  A    between atoms: C19_26  and  C20_27 
REMARK    6  A    between atoms: C20_27  and  O3_28 
REMARK    7  A    between atoms: C20_27  and  N3_30 
ROOT
HETATM    1  C1  UNL     1      68.877 -43.872 -46.941  1.00  0.00     0.011 C 
HETATM    2  C2  UNL     1      70.240 -44.516 -47.061  1.00  0.00    -0.010 C 
HETATM    3  C3  UNL     1      70.107 -45.863 -47.728  1.00  0.00     0.005 C 
HETATM    4  C4  UNL     1      70.089 -46.887 -46.618  1.00  0.00     0.006 C 
HETATM    5  C5  UNL     1      70.348 -46.153 -45.343  1.00  0.00    -0.001 C 
HETATM    6  C6  UNL     1      71.200 -46.893 -44.362  1.00  0.00     0.000 C 
HETATM    7  C7  UNL     1      70.601 -48.235 -44.093  1.00  0.00     0.037 C 
HETATM    8  C8  UNL     1      71.556 -49.240 -43.498  1.00  0.00     0.126 C 
HETATM    9  C9  UNL     1      72.793 -49.211 -44.288  1.00  0.00     0.063 C 
HETATM   10  C10 UNL     1      73.911 -50.095 -43.839  1.00  0.00     0.037 C 
HETATM   11  C11 UNL     1      73.911 -51.480 -44.348  1.00  0.00     0.011 C 
HETATM   12  C12 UNL     1      75.086 -51.633 -45.270  1.00  0.00     0.047 C 
HETATM   13  C13 UNL     1      76.055 -50.486 -44.925  1.00  0.00     0.131 C 
HETATM   14  C30 UNL     1      75.072 -49.447 -44.607  1.00  0.00     0.197 A 
HETATM   15  N4  UNL     1      74.594 -48.832 -45.942  1.00  0.00    -0.050 N 
ATOM     16  H41 UNL     1      73.854 -48.969 -46.629  1.00  0.00     0.279 HD
ATOM     17  H42 UNL     1      74.895 -48.781 -46.915  1.00  0.00     0.279 HD
HETATM   18  C31 UNL     1      74.809 -48.126 -44.695  1.00  0.00     0.267 A 
HETATM   19  C32 UNL     1      73.454 -47.838 -44.042  1.00  0.00     0.144 C 
HETATM   20  F1  UNL     1      73.538 -47.537 -42.726  1.00  0.00    -0.240 F 
HETATM   21  C33 UNL     1      72.600 -46.901 -44.856  1.00  0.00     0.033 C 
HETATM   22  C34 UNL     1      73.104 -45.482 -44.823  1.00  0.00     0.009 C 
HETATM   23  C35 UNL     1      72.337 -44.695 -45.839  1.00  0.00     0.010 C 
HETATM   24  C36 UNL     1      70.852 -44.790 -45.695  1.00  0.00    -0.037 C 
HETATM   25  C37 UNL     1      70.373 -43.761 -44.697  1.00  0.00     0.016 C 
ENDROOT
BRANCH  13  26
HETATM   26  O2  UNL     1      76.685 -50.243 -46.175  1.00  0.00    -0.381 OA
ATOM     27  H2  UNL     1      77.246 -49.502 -45.974  1.00  0.00     0.211 HD
ENDBRANCH  13  26
BRANCH  13  28
HETATM   28  C14 UNL     1      77.074 -50.858 -43.914  1.00  0.00     0.018 C 
HETATM   29  C15 UNL     1      76.913 -52.251 -43.369  1.00  0.00     0.066 C 
BRANCH  28  30
HETATM   30  N1  UNL     1      78.390 -50.472 -44.221  1.00  0.00    -0.370 N 
HETATM   31  C16 UNL     1      79.200 -51.336 -44.998  1.00  0.00     0.143 C 
HETATM   32  C17 UNL     1      80.566 -50.717 -45.311  1.00  0.00     0.133 C 
HETATM   33  N2  UNL     1      81.137 -50.194 -44.116  1.00  0.00    -0.417 N 
HETATM   34  C18 UNL     1      80.326 -49.317 -43.350  1.00  0.00     0.147 C 
ATOM     35  H2  UNL     1      82.084 -50.438 -43.825  1.00  0.00     0.153 HD
HETATM   36  C19 UNL     1      78.862 -49.234 -43.840  1.00  0.00     0.175 C 
BRANCH  36  37
HETATM   37  C20 UNL     1      78.773 -48.040 -44.658  1.00  0.00     0.139 C 
BRANCH  37  38
HETATM   38  O3  UNL     1      77.740 -48.081 -45.498  1.00  0.00    -0.348 OA
ATOM     39  H3  UNL     1      77.690 -47.306 -46.045  1.00  0.00     0.219 HD
ENDBRANCH  37  38
BRANCH  37  40
HETATM   40  N3  UNL     1      79.492 -46.872 -44.785  1.00  0.00    -0.359 N 
HETATM   41  C21 UNL     1      80.564 -46.423 -43.956  1.00  0.00     0.129 C 
HETATM   42  C22 UNL     1      81.286 -45.185 -44.545  1.00  0.00     0.059 C 
HETATM   43  C23 UNL     1      80.256 -44.132 -44.718  1.00  0.00    -0.049 A 
HETATM   44  C24 UNL     1      80.409 -42.872 -44.221  1.00  0.00     0.008 A 
HETATM   45  C28 UNL     1      79.123 -44.537 -45.428  1.00  0.00    -0.034 A 
HETATM   46  C25 UNL     1      79.379 -41.964 -44.442  1.00  0.00     0.001 A 
HETATM   47  C26 UNL     1      78.247 -42.344 -45.143  1.00  0.00     0.001 A 
HETATM   48  C27 UNL     1      78.132 -43.637 -45.631  1.00  0.00     0.009 A 
HETATM   49  C29 UNL     1      79.151 -45.945 -45.886  1.00  0.00     0.163 C 
ENDBRANCH  37  40
ENDBRANCH  36  37
ENDBRANCH  28  30
ENDBRANCH  13  28
BRANCH   8  50
HETATM   50  O1  UNL     1      71.706 -49.047 -42.148  1.00  0.00    -0.395 OA
ATOM     51  H1  UNL     1      72.537 -49.389 -41.840  1.00  0.00     0.210 HD
ENDBRANCH   8  50
TORSDOF 7
ENDMDL
MODEL 5
REMARK VINA RESULT: -11.520769340      2.475      4.335
REMARK  7 active torsions:
REMARK  status: ('A' for Active; 'I' for Inactive)
REMARK    1  A    between atoms: C8_8  and  O1_9 
REMARK    2  A    between atoms: C13_15  and  O2_16 
REMARK    3  A    between atoms: C13_15  and  C14_18 
REMARK    4  A    between atoms: C14_18  and  N1_20 
REMARK    5  A    between atoms: C19_26  and  C20_27 
REMARK    6  A    between atoms: C20_27  and  O3_28 
REMARK    7  A    between atoms: C20_27  and  N3_30 
ROOT
HETATM    1  C1  UNL     1      66.035 -40.581 -45.486  1.00  0.00     0.011 C 
HETATM    2  C2  UNL     1      67.355 -41.130 -44.992  1.00  0.00    -0.010 C 
HETATM    3  C3  UNL     1      68.335 -41.203 -46.138  1.00  0.00     0.005 C 
HETATM    4  C4  UNL     1      68.306 -42.630 -46.632  1.00  0.00     0.006 C 
HETATM    5  C5  UNL     1      67.429 -43.397 -45.697  1.00  0.00    -0.001 C 
HETATM    6  C6  UNL     1      67.895 -44.790 -45.411  1.00  0.00     0.000 C 
HETATM    7  C7  UNL     1      68.081 -45.528 -46.696  1.00  0.00     0.037 C 
HETATM    8  C8  UNL     1      68.956 -46.753 -46.594  1.00  0.00     0.126 C 
HETATM    9  C9  UNL     1      70.171 -46.381 -45.860  1.00  0.00     0.063 C 
HETATM   10  C10 UNL     1      71.164 -47.463 -45.590  1.00  0.00     0.037 C 
HETATM   11  C11 UNL     1      72.173 -47.720 -46.637  1.00  0.00     0.011 C 
HETATM   12  C12 UNL     1      73.513 -47.312 -46.096  1.00  0.00     0.047 C 
HETATM   13  C13 UNL     1      73.364 -47.272 -44.563  1.00  0.00     0.131 C 
HETATM   14  C30 UNL     1      71.984 -46.787 -44.482  1.00  0.00     0.197 A 
HETATM   15  N4  UNL     1      72.017 -45.252 -44.660  1.00  0.00    -0.050 N 
ATOM     16  H41 UNL     1      71.950 -44.564 -45.409  1.00  0.00     0.279 HD
ATOM     17  H42 UNL     1      72.690 -44.487 -44.605  1.00  0.00     0.279 HD
HETATM   18  C31 UNL     1      71.141 -45.999 -43.781  1.00  0.00     0.267 A 
HETATM   19  C32 UNL     1      69.745 -46.073 -44.409  1.00  0.00     0.144 C 
HETATM   20  F1  UNL     1      68.964 -47.045 -43.886  1.00  0.00    -0.240 F 
HETATM   21  C33 UNL     1      69.087 -44.723 -44.529  1.00  0.00     0.033 C 
HETATM   22  C34 UNL     1      68.641 -44.176 -43.199  1.00  0.00     0.009 C 
HETATM   23  C35 UNL     1      68.225 -42.752 -43.400  1.00  0.00     0.010 C 
HETATM   24  C36 UNL     1      67.210 -42.557 -44.480  1.00  0.00    -0.037 C 
HETATM   25  C37 UNL     1      65.824 -42.768 -43.918  1.00  0.00     0.016 C 
ENDROOT
BRANCH  13  26
HETATM   26  O2  UNL     1      74.295 -46.262 -44.199  1.00  0.00    -0.381 OA
ATOM     27  H2  UNL     1      75.116 -46.740 -44.194  1.00  0.00     0.211 HD
ENDBRANCH  13  26
BRANCH  13  28
HETATM   28  C14 UNL     1      73.727 -48.550 -43.902  1.00  0.00     0.018 C 
HETATM   29  C15 UNL     1      72.545 -49.354 -43.437  1.00  0.00     0.066 C 
BRANCH  28  30
HETATM   30  N1  UNL     1      74.751 -49.279 -44.532  1.00  0.00    -0.370 N 
HETATM   31  C16 UNL     1      74.505 -49.863 -45.798  1.00  0.00     0.143 C 
HETATM   32  C17 UNL     1      75.754 -50.539 -46.372  1.00  0.00     0.133 C 
HETATM   33  N2  UNL     1      76.346 -51.369 -45.380  1.00  0.00    -0.417 N 
HETATM   34  C18 UNL     1      76.605 -50.774 -44.118  1.00  0.00     0.147 C 
ATOM     35  H2  UNL     1      76.573 -52.346 -45.566  1.00  0.00     0.153 HD
HETATM   36  C19 UNL     1      76.004 -49.357 -43.962  1.00  0.00     0.175 C 
BRANCH  36  37
HETATM   37  C20 UNL     1      77.083 -48.426 -44.233  1.00  0.00     0.139 C 
BRANCH  37  38
HETATM   38  O3  UNL     1      76.776 -47.181 -43.870  1.00  0.00    -0.348 OA
ATOM     39  H3  UNL     1      77.461 -46.779 -43.349  1.00  0.00     0.219 HD
ENDBRANCH  37  38
BRANCH  37  40
HETATM   40  N3  UNL     1      78.347 -48.507 -44.773  1.00  0.00    -0.359 N 
HETATM   41  C21 UNL     1      79.339 -49.498 -44.507  1.00  0.00     0.129 C 
HETATM   42  C22 UNL     1      80.544 -49.403 -45.476  1.00  0.00     0.059 C 
HETATM   43  C23 UNL     1      81.096 -48.033 -45.337  1.00  0.00    -0.049 A 
HETATM   44  C24 UNL     1      82.416 -47.798 -45.093  1.00  0.00     0.008 A 
HETATM   45  C28 UNL     1      80.154 -47.010 -45.476  1.00  0.00    -0.034 A 
HETATM   46  C25 UNL     1      82.824 -46.473 -44.982  1.00  0.00     0.001 A 
HETATM   47  C26 UNL     1      81.907 -45.443 -45.116  1.00  0.00     0.001 A 
HETATM   48  C27 UNL     1      80.573 -45.726 -45.364  1.00  0.00     0.009 A 
HETATM   49  C29 UNL     1      78.773 -47.472 -45.741  1.00  0.00     0.163 C 
ENDBRANCH  37  40
ENDBRANCH  36  37
ENDBRANCH  28  30
ENDBRANCH  13  28
BRANCH   8  50
HETATM   50  O1  UNL     1      68.260 -47.824 -46.092  1.00  0.00    -0.395 OA
ATOM     51  H1  UNL     1      68.061 -47.705 -45.170  1.00  0.00     0.210 HD
ENDBRANCH   8  50
TORSDOF 7
ENDMDL
