MODEL 1
REMARK VINA RESULT: -8.681938447      0.000      0.000
REMARK  4 active torsions:
REMARK  status: ('A' for Active; 'I' for Inactive)
REMARK    1  A    between atoms: C20_23  and  C21_24 
REMARK    2  A    between atoms: C21_24  and  C22_25 
REMARK    3  A    between atoms: C30_39  and  C31_40 
REMARK    4  A    between atoms: C32_44  and  O5_45 
ROOT
HETATM    1  C1  UNL     1      83.413 -40.214 -45.119  1.00  0.00     0.010 C 
HETATM    2  C2  UNL     1      83.190 -41.189 -46.212  1.00  0.00    -0.010 C 
HETATM    3  C3  UNL     1      81.944 -40.989 -47.017  1.00  0.00     0.017 C 
HETATM    4  C4  UNL     1      81.190 -39.760 -46.783  1.00  0.00     0.061 C 
HETATM    5  C5  UNL     1      80.848 -39.160 -48.154  1.00  0.00     0.013 C 
HETATM    6  C6  UNL     1      81.948 -39.060 -49.114  1.00  0.00     0.001 C 
HETATM    7  C7  UNL     1      83.285 -38.615 -48.656  1.00  0.00     0.000 C 
HETATM    8  C8  UNL     1      84.397 -39.647 -48.914  1.00  0.00     0.001 C 
HETATM    9  C9  UNL     1      84.998 -40.206 -47.690  1.00  0.00     0.009 C 
HETATM   10  C10 UNL     1      84.432 -41.420 -47.078  1.00  0.00     0.011 C 
HETATM   11  C11 UNL     1      84.181 -42.549 -47.978  1.00  0.00    -0.026 C 
HETATM   12  C12 UNL     1      84.665 -43.768 -47.824  1.00  0.00    -0.030 C 
HETATM   13  C13 UNL     1      85.545 -44.248 -46.734  1.00  0.00     0.027 C 
HETATM   14  C14 UNL     1      84.814 -44.889 -45.590  1.00  0.00     0.004 C 
HETATM   15  C15 UNL     1      83.948 -46.075 -46.037  1.00  0.00     0.001 C 
HETATM   16  C16 UNL     1      83.278 -46.596 -44.816  1.00  0.00     0.008 C 
HETATM   17  C17 UNL     1      81.953 -47.328 -45.077  1.00  0.00     0.033 C 
HETATM   18  C18 UNL     1      80.962 -46.875 -44.122  1.00  0.00     0.233 C 
HETATM   19  N1  UNL     1      80.103 -47.749 -43.430  1.00  0.00    -0.341 N 
ATOM     20  H1  UNL     1      79.503 -47.225 -42.793  1.00  0.00     0.163 HD
HETATM   21  C19 UNL     1      79.816 -49.126 -43.347  1.00  0.00     0.223 C 
HETATM   22  O1  UNL     1      78.781 -49.472 -42.763  1.00  0.00    -0.273 OA
HETATM   23  C20 UNL     1      80.704 -50.186 -43.930  1.00  0.00     0.079 C 
HETATM   24  C25 UNL     1      81.091 -49.694 -45.280  1.00  0.00     0.023 C 
HETATM   25  C26 UNL     1      82.272 -48.755 -45.257  1.00  0.00    -0.040 C 
HETATM   26  C27 UNL     1      82.917 -48.919 -46.645  1.00  0.00     0.015 C 
HETATM   27  C28 UNL     1      83.278 -49.326 -44.289  1.00  0.00     0.015 C 
HETATM   28  S1  UNL     1      79.872 -45.633 -44.880  1.00  0.00     0.255 S 
HETATM   29  O2  UNL     1      78.539 -45.619 -44.199  1.00  0.00    -0.203 OA
HETATM   30  O3  UNL     1      79.602 -46.059 -46.318  1.00  0.00    -0.203 OA
HETATM   31  N2  UNL     1      80.617 -44.082 -44.841  1.00  0.00    -0.247 N 
ATOM     32  H2  UNL     1      81.565 -44.066 -45.217  1.00  0.00     0.182 HD
HETATM   33  C29 UNL     1      80.169 -42.862 -44.397  1.00  0.00     0.282 C 
HETATM   34  O4  UNL     1      80.819 -42.327 -43.408  1.00  0.00    -0.265 OA
HETATM   35  C30 UNL     1      79.058 -41.979 -44.816  1.00  0.00     0.116 C 
HETATM   36  N4  UNL     1      79.494 -40.591 -44.939  1.00  0.00    -0.335 N 
ATOM     37  H4  UNL     1      79.444 -40.085 -44.054  1.00  0.00     0.168 HD
HETATM   38  C32 UNL     1      79.958 -39.805 -45.969  1.00  0.00     0.120 C 
ENDROOT
BRANCH  23  39
HETATM   39  C21 UNL     1      80.045 -51.537 -43.926  1.00  0.00     0.018 C 
BRANCH  39  40
HETATM   40  C22 UNL     1      80.283 -52.331 -45.163  1.00  0.00    -0.014 A 
HETATM   41  C23 UNL     1      79.005 -52.768 -45.870  1.00  0.00     0.005 A 
HETATM   42  C24 UNL     1      79.800 -53.774 -45.097  1.00  0.00     0.005 A 
ENDBRANCH  39  40
ENDBRANCH  23  39
BRANCH  35  43
HETATM   43  C31 UNL     1      78.093 -42.456 -45.805  1.00  0.00     0.135 C 
HETATM   44  N3  UNL     1      78.456 -43.183 -46.935  1.00  0.00    -0.113 NA
ENDBRANCH  35  43
BRANCH  38  45
HETATM   45  O5  UNL     1      79.129 -38.861 -46.332  1.00  0.00    -0.349 OA
ATOM     46  H5  UNL     1      79.432 -38.013 -46.031  1.00  0.00     0.219 HD
ENDBRANCH  38  45
TORSDOF 4
ENDMDL
MODEL 2
REMARK VINA RESULT: -8.587666014      3.050      4.865
REMARK  4 active torsions:
REMARK  status: ('A' for Active; 'I' for Inactive)
REMARK    1  A    between atoms: C20_23  and  C21_24 
REMARK    2  A    between atoms: C21_24  and  C22_25 
REMARK    3  A    between atoms: C30_39  and  C31_40 
REMARK    4  A    between atoms: C32_44  and  O5_45 
ROOT
HETATM    1  C1  UNL     1      80.813 -40.135 -47.885  1.00  0.00     0.010 C 
HETATM    2  C2  UNL     1      81.295 -40.510 -46.534  1.00  0.00    -0.010 C 
HETATM    3  C3  UNL     1      82.718 -40.160 -46.231  1.00  0.00     0.017 C 
HETATM    4  C4  UNL     1      83.418 -39.320 -47.199  1.00  0.00     0.061 C 
HETATM    5  C5  UNL     1      84.138 -38.214 -46.415  1.00  0.00     0.013 C 
HETATM    6  C6  UNL     1      83.344 -37.505 -45.411  1.00  0.00     0.001 C 
HETATM    7  C7  UNL     1      81.947 -37.116 -45.718  1.00  0.00     0.000 C 
HETATM    8  C8  UNL     1      80.916 -37.717 -44.748  1.00  0.00     0.001 C 
HETATM    9  C9  UNL     1      79.987 -38.678 -45.370  1.00  0.00     0.009 C 
HETATM   10  C10 UNL     1      80.328 -40.110 -45.416  1.00  0.00     0.011 C 
HETATM   11  C11 UNL     1      80.779 -40.714 -44.159  1.00  0.00    -0.026 C 
HETATM   12  C12 UNL     1      80.234 -41.769 -43.583  1.00  0.00    -0.030 C 
HETATM   13  C13 UNL     1      79.076 -42.555 -44.070  1.00  0.00     0.027 C 
HETATM   14  C14 UNL     1      79.448 -43.762 -44.881  1.00  0.00     0.004 C 
HETATM   15  C15 UNL     1      80.366 -44.725 -44.114  1.00  0.00     0.001 C 
HETATM   16  C16 UNL     1      80.662 -45.853 -45.036  1.00  0.00     0.008 C 
HETATM   17  C17 UNL     1      81.984 -46.580 -44.751  1.00  0.00     0.033 C 
HETATM   18  C18 UNL     1      82.693 -46.789 -45.997  1.00  0.00     0.233 C 
HETATM   19  N1  UNL     1      83.304 -48.009 -46.341  1.00  0.00    -0.341 N 
ATOM     20  H1  UNL     1      83.724 -47.945 -47.269  1.00  0.00     0.163 HD
HETATM   21  C19 UNL     1      83.514 -49.292 -45.799  1.00  0.00     0.223 C 
HETATM   22  O1  UNL     1      84.341 -50.031 -46.351  1.00  0.00    -0.273 OA
HETATM   23  C20 UNL     1      82.785 -49.801 -44.590  1.00  0.00     0.079 C 
HETATM   24  C25 UNL     1      82.795 -48.683 -43.609  1.00  0.00     0.023 C 
HETATM   25  C26 UNL     1      81.682 -47.688 -43.827  1.00  0.00    -0.040 C 
HETATM   26  C27 UNL     1      81.434 -47.082 -42.435  1.00  0.00     0.015 C 
HETATM   27  C28 UNL     1      80.434 -48.475 -44.139  1.00  0.00     0.015 C 
HETATM   28  S1  UNL     1      83.986 -45.529 -46.211  1.00  0.00     0.255 S 
HETATM   29  O2  UNL     1      85.084 -46.046 -47.088  1.00  0.00    -0.203 OA
HETATM   30  O3  UNL     1      84.623 -45.273 -44.850  1.00  0.00    -0.203 OA
HETATM   31  N2  UNL     1      83.307 -44.078 -46.840  1.00  0.00    -0.247 N 
ATOM     32  H2  UNL     1      82.498 -43.737 -46.320  1.00  0.00     0.182 HD
HETATM   33  C29 UNL     1      83.655 -43.294 -47.913  1.00  0.00     0.282 C 
HETATM   34  O4  UNL     1      82.778 -43.185 -48.864  1.00  0.00    -0.265 OA
HETATM   35  C30 UNL     1      84.865 -42.507 -48.240  1.00  0.00     0.116 C 
HETATM   36  N4  UNL     1      84.522 -41.172 -48.721  1.00  0.00    -0.335 N 
ATOM     37  H4  UNL     1      84.346 -41.151 -49.726  1.00  0.00     0.168 HD
HETATM   38  C32 UNL     1      84.381 -39.934 -48.136  1.00  0.00     0.120 C 
ENDROOT
BRANCH  23  39
HETATM   39  C21 UNL     1      83.376 -51.085 -44.076  1.00  0.00     0.018 C 
BRANCH  39  40
HETATM   40  C22 UNL     1      82.799 -51.542 -42.782  1.00  0.00    -0.014 A 
HETATM   41  C23 UNL     1      82.374 -53.006 -42.780  1.00  0.00     0.005 A 
HETATM   42  C24 UNL     1      81.329 -51.935 -42.843  1.00  0.00     0.005 A 
ENDBRANCH  39  40
ENDBRANCH  23  39
BRANCH  35  43
HETATM   43  C31 UNL     1      86.047 -42.616 -47.387  1.00  0.00     0.135 C 
HETATM   44  N3  UNL     1      87.153 -43.396 -47.711  1.00  0.00    -0.113 NA
ENDBRANCH  35  43
BRANCH  38  45
HETATM   45  O5  UNL     1      85.306 -39.076 -48.478  1.00  0.00    -0.349 OA
ATOM     46  H5  UNL     1      85.296 -38.926 -49.416  1.00  0.00     0.219 HD
ENDBRANCH  38  45
TORSDOF 4
ENDMDL
MODEL 3
REMARK VINA RESULT: -8.531519461      4.013      9.863
REMARK  4 active torsions:
REMARK  status: ('A' for Active; 'I' for Inactive)
REMARK    1  A    between atoms: C20_23  and  C21_24 
REMARK    2  A    between atoms: C21_24  and  C22_25 
REMARK    3  A    between atoms: C30_39  and  C31_40 
REMARK    4  A    between atoms: C32_44  and  O5_45 
ROOT
HETATM    1  C1  UNL     1      80.274 -43.683 -48.075  1.00  0.00     0.010 C 
HETATM    2  C2  UNL     1      81.237 -43.542 -46.957  1.00  0.00    -0.010 C 
HETATM    3  C3  UNL     1      80.746 -42.776 -45.769  1.00  0.00     0.017 C 
HETATM    4  C4  UNL     1      79.329 -42.423 -45.743  1.00  0.00     0.061 C 
HETATM    5  C5  UNL     1      78.791 -42.775 -44.349  1.00  0.00     0.013 C 
HETATM    6  C6  UNL     1      79.127 -44.105 -43.839  1.00  0.00     0.001 C 
HETATM    7  C7  UNL     1      79.068 -45.277 -44.744  1.00  0.00     0.000 C 
HETATM    8  C8  UNL     1      80.410 -46.016 -44.877  1.00  0.00     0.001 C 
HETATM    9  C9  UNL     1      81.003 -45.957 -46.224  1.00  0.00     0.009 C 
HETATM   10  C10 UNL     1      81.920 -44.860 -46.579  1.00  0.00     0.011 C 
HETATM   11  C11 UNL     1      83.001 -44.580 -45.630  1.00  0.00    -0.026 C 
HETATM   12  C12 UNL     1      84.288 -44.566 -45.924  1.00  0.00    -0.030 C 
HETATM   13  C13 UNL     1      84.905 -44.823 -47.247  1.00  0.00     0.027 C 
HETATM   14  C14 UNL     1      85.176 -43.584 -48.051  1.00  0.00     0.004 C 
HETATM   15  C15 UNL     1      86.079 -42.589 -47.309  1.00  0.00     0.001 C 
HETATM   16  C16 UNL     1      86.247 -41.417 -48.209  1.00  0.00     0.008 C 
HETATM   17  C17 UNL     1      86.562 -40.098 -47.487  1.00  0.00     0.033 C 
HETATM   18  C18 UNL     1      85.736 -39.043 -48.040  1.00  0.00     0.233 C 
HETATM   19  N1  UNL     1      86.234 -37.769 -48.372  1.00  0.00    -0.341 N 
ATOM     20  H1  UNL     1      85.492 -37.191 -48.766  1.00  0.00     0.163 HD
HETATM   21  C19 UNL     1      87.442 -37.046 -48.327  1.00  0.00     0.223 C 
HETATM   22  O1  UNL     1      87.397 -35.822 -48.505  1.00  0.00    -0.273 OA
HETATM   23  C20 UNL     1      88.774 -37.690 -48.076  1.00  0.00     0.079 C 
HETATM   24  C25 UNL     1      88.560 -38.645 -46.956  1.00  0.00     0.023 C 
HETATM   25  C26 UNL     1      88.028 -39.984 -47.407  1.00  0.00    -0.040 C 
HETATM   26  C27 UNL     1      88.517 -40.970 -46.332  1.00  0.00     0.015 C 
HETATM   27  C28 UNL     1      88.781 -40.364 -48.658  1.00  0.00     0.015 C 
HETATM   28  S1  UNL     1      84.302 -38.732 -46.968  1.00  0.00     0.255 S 
HETATM   29  O2  UNL     1      83.814 -37.327 -47.138  1.00  0.00    -0.203 OA
HETATM   30  O3  UNL     1      84.764 -38.842 -45.520  1.00  0.00    -0.203 OA
HETATM   31  N2  UNL     1      83.056 -39.875 -47.290  1.00  0.00    -0.247 N 
ATOM     32  H2  UNL     1      83.368 -40.847 -47.272  1.00  0.00     0.182 HD
HETATM   33  C29 UNL     1      81.720 -39.720 -47.569  1.00  0.00     0.282 C 
HETATM   34  O4  UNL     1      81.315 -40.132 -48.731  1.00  0.00    -0.265 OA
HETATM   35  C30 UNL     1      80.586 -39.161 -46.801  1.00  0.00     0.116 C 
HETATM   36  N4  UNL     1      79.416 -40.033 -46.861  1.00  0.00    -0.335 N 
ATOM     37  H4  UNL     1      78.835 -39.852 -47.679  1.00  0.00     0.168 HD
HETATM   38  C32 UNL     1      78.915 -41.043 -46.071  1.00  0.00     0.120 C 
ENDROOT
BRANCH  23  39
HETATM   39  C21 UNL     1      89.853 -36.672 -47.827  1.00  0.00     0.018 C 
BRANCH  39  40
HETATM   40  C22 UNL     1      90.152 -36.447 -46.386  1.00  0.00    -0.014 A 
HETATM   41  C23 UNL     1      89.683 -35.093 -45.864  1.00  0.00     0.005 A 
HETATM   42  C24 UNL     1      91.143 -35.324 -46.109  1.00  0.00     0.005 A 
ENDBRANCH  39  40
ENDBRANCH  23  39
BRANCH  35  43
HETATM   43  C31 UNL     1      80.840 -38.488 -45.528  1.00  0.00     0.135 C 
HETATM   44  N3  UNL     1      81.520 -39.086 -44.471  1.00  0.00    -0.113 NA
ENDBRANCH  35  43
BRANCH  38  45
HETATM   45  O5  UNL     1      77.804 -40.734 -45.456  1.00  0.00    -0.349 OA
ATOM     46  H5  UNL     1      77.533 -39.850 -45.673  1.00  0.00     0.219 HD
ENDBRANCH  38  45
TORSDOF 4
ENDMDL
MODEL 4
REMARK VINA RESULT: -8.424245108      4.111     10.057
REMARK  4 active torsions:
REMARK  status: ('A' for Active; 'I' for Inactive)
REMARK    1  A    between atoms: C20_23  and  C21_24 
REMARK    2  A    between atoms: C21_24  and  C22_25 
REMARK    3  A    between atoms: C30_39  and  C31_40 
REMARK    4  A    between atoms: C32_44  and  O5_45 
ROOT
HETATM    1  C1  UNL     1      80.162 -43.733 -47.772  1.00  0.00     0.010 C 
HETATM    2  C2  UNL     1      81.355 -43.490 -46.927  1.00  0.00    -0.010 C 
HETATM    3  C3  UNL     1      81.146 -42.584 -45.753  1.00  0.00     0.017 C 
HETATM    4  C4  UNL     1      79.771 -42.199 -45.445  1.00  0.00     0.061 C 
HETATM    5  C5  UNL     1      79.569 -42.381 -43.935  1.00  0.00     0.013 C 
HETATM    6  C6  UNL     1      80.018 -43.653 -43.366  1.00  0.00     0.001 C 
HETATM    7  C7  UNL     1      79.758 -44.917 -44.094  1.00  0.00     0.000 C 
HETATM    8  C8  UNL     1      81.037 -45.696 -44.444  1.00  0.00     0.001 C 
HETATM    9  C9  UNL     1      81.305 -45.801 -45.890  1.00  0.00     0.009 C 
HETATM   10  C10 UNL     1      82.112 -44.771 -46.567  1.00  0.00     0.011 C 
HETATM   11  C11 UNL     1      83.381 -44.411 -45.928  1.00  0.00    -0.026 C 
HETATM   12  C12 UNL     1      84.565 -44.458 -46.508  1.00  0.00    -0.030 C 
HETATM   13  C13 UNL     1      84.864 -44.876 -47.898  1.00  0.00     0.027 C 
HETATM   14  C14 UNL     1      84.938 -43.741 -48.878  1.00  0.00     0.004 C 
HETATM   15  C15 UNL     1      85.983 -42.689 -48.481  1.00  0.00     0.001 C 
HETATM   16  C16 UNL     1      85.936 -41.629 -49.523  1.00  0.00     0.008 C 
HETATM   17  C17 UNL     1      86.402 -40.245 -49.048  1.00  0.00     0.033 C 
HETATM   18  C18 UNL     1      85.468 -39.241 -49.514  1.00  0.00     0.233 C 
HETATM   19  N1  UNL     1      85.871 -38.024 -50.094  1.00  0.00    -0.341 N 
ATOM     20  H1  UNL     1      85.056 -37.477 -50.371  1.00  0.00     0.163 HD
HETATM   21  C19 UNL     1      87.054 -37.327 -50.409  1.00  0.00     0.223 C 
HETATM   22  O1  UNL     1      86.964 -36.129 -50.709  1.00  0.00    -0.273 OA
HETATM   23  C20 UNL     1      88.411 -37.968 -50.396  1.00  0.00     0.079 C 
HETATM   24  C25 UNL     1      88.463 -38.787 -49.156  1.00  0.00     0.023 C 
HETATM   25  C26 UNL     1      87.848 -40.156 -49.318  1.00  0.00    -0.040 C 
HETATM   26  C27 UNL     1      88.574 -41.026 -48.277  1.00  0.00     0.015 C 
HETATM   27  C28 UNL     1      88.295 -40.691 -50.656  1.00  0.00     0.015 C 
HETATM   28  S1  UNL     1      84.316 -38.780 -48.185  1.00  0.00     0.255 S 
HETATM   29  O2  UNL     1      83.796 -37.392 -48.398  1.00  0.00    -0.203 OA
HETATM   30  O3  UNL     1      85.099 -38.738 -46.878  1.00  0.00    -0.203 OA
HETATM   31  N2  UNL     1      83.034 -39.924 -48.083  1.00  0.00    -0.247 N 
ATOM     32  H2  UNL     1      83.346 -40.894 -48.025  1.00  0.00     0.182 HD
HETATM   33  C29 UNL     1      81.669 -39.771 -48.065  1.00  0.00     0.282 C 
HETATM   34  O4  UNL     1      81.010 -40.302 -49.049  1.00  0.00    -0.265 OA
HETATM   35  C30 UNL     1      80.739 -39.105 -47.127  1.00  0.00     0.116 C 
HETATM   36  N4  UNL     1      79.590 -39.952 -46.818  1.00  0.00    -0.335 N 
ATOM     37  H4  UNL     1      78.836 -39.851 -47.498  1.00  0.00     0.168 HD
HETATM   38  C32 UNL     1      79.287 -40.856 -45.826  1.00  0.00     0.120 C 
ENDROOT
BRANCH  23  39
HETATM   39  C21 UNL     1      89.514 -36.953 -50.517  1.00  0.00     0.018 C 
BRANCH  39  40
HETATM   40  C22 UNL     1      90.103 -36.540 -49.214  1.00  0.00    -0.014 A 
HETATM   41  C23 UNL     1      89.771 -35.107 -48.814  1.00  0.00     0.005 A 
HETATM   42  C24 UNL     1      91.146 -35.434 -49.308  1.00  0.00     0.005 A 
ENDBRANCH  39  40
ENDBRANCH  23  39
BRANCH  35  43
HETATM   43  C31 UNL     1      81.276 -38.299 -46.031  1.00  0.00     0.135 C 
HETATM   44  N3  UNL     1      82.173 -38.794 -45.090  1.00  0.00    -0.113 NA
ENDBRANCH  35  43
BRANCH  38  45
HETATM   45  O5  UNL     1      78.346 -40.455 -45.012  1.00  0.00    -0.349 OA
ATOM     46  H5  UNL     1      77.501 -40.461 -45.446  1.00  0.00     0.219 HD
ENDBRANCH  38  45
TORSDOF 4
ENDMDL
MODEL 5
REMARK VINA RESULT: -8.369367605      5.743      9.508
REMARK  4 active torsions:
REMARK  status: ('A' for Active; 'I' for Inactive)
REMARK    1  A    between atoms: C20_23  and  C21_24 
REMARK    2  A    between atoms: C21_24  and  C22_25 
REMARK    3  A    between atoms: C30_39  and  C31_40 
REMARK    4  A    between atoms: C32_44  and  O5_45 
ROOT
HETATM    1  C1  UNL     1      75.913 -50.416 -46.679  1.00  0.00     0.010 C 
HETATM    2  C2  UNL     1      76.240 -50.724 -45.267  1.00  0.00    -0.010 C 
HETATM    3  C3  UNL     1      76.355 -49.544 -44.354  1.00  0.00     0.017 C 
HETATM    4  C4  UNL     1      75.943 -48.248 -44.886  1.00  0.00     0.061 C 
HETATM    5  C5  UNL     1      75.051 -47.579 -43.831  1.00  0.00     0.013 C 
HETATM    6  C6  UNL     1      73.983 -48.404 -43.263  1.00  0.00     0.001 C 
HETATM    7  C7  UNL     1      73.190 -49.291 -44.147  1.00  0.00     0.000 C 
HETATM    8  C8  UNL     1      73.267 -50.776 -43.753  1.00  0.00     0.001 C 
HETATM    9  C9  UNL     1      73.932 -51.633 -44.750  1.00  0.00     0.009 C 
HETATM   10  C10 UNL     1      75.387 -51.853 -44.682  1.00  0.00     0.011 C 
HETATM   11  C11 UNL     1      75.929 -52.231 -43.374  1.00  0.00    -0.026 C 
HETATM   12  C12 UNL     1      76.647 -53.311 -43.131  1.00  0.00    -0.030 C 
HETATM   13  C13 UNL     1      77.053 -54.353 -44.104  1.00  0.00     0.027 C 
HETATM   14  C14 UNL     1      78.414 -54.141 -44.700  1.00  0.00     0.004 C 
HETATM   15  C15 UNL     1      79.516 -54.055 -43.635  1.00  0.00     0.001 C 
HETATM   16  C16 UNL     1      80.793 -53.830 -44.363  1.00  0.00     0.008 C 
HETATM   17  C17 UNL     1      81.879 -53.119 -43.542  1.00  0.00     0.033 C 
HETATM   18  C18 UNL     1      82.484 -52.080 -44.351  1.00  0.00     0.233 C 
HETATM   19  N1  UNL     1      83.874 -51.873 -44.424  1.00  0.00    -0.341 N 
ATOM     20  H1  UNL     1      84.084 -51.108 -45.066  1.00  0.00     0.163 HD
HETATM   21  C19 UNL     1      85.065 -52.395 -43.883  1.00  0.00     0.223 C 
HETATM   22  O1  UNL     1      86.109 -51.745 -44.032  1.00  0.00    -0.273 OA
HETATM   23  C20 UNL     1      85.126 -53.696 -43.138  1.00  0.00     0.079 C 
HETATM   24  C25 UNL     1      83.954 -53.696 -42.221  1.00  0.00     0.023 C 
HETATM   25  C26 UNL     1      82.680 -54.164 -42.881  1.00  0.00    -0.040 C 
HETATM   26  C27 UNL     1      81.841 -54.737 -41.726  1.00  0.00     0.015 C 
HETATM   27  C28 UNL     1      83.032 -55.355 -43.738  1.00  0.00     0.015 C 
HETATM   28  S1  UNL     1      81.779 -50.458 -43.931  1.00  0.00     0.255 S 
HETATM   29  O2  UNL     1      82.753 -49.365 -44.245  1.00  0.00    -0.203 OA
HETATM   30  O3  UNL     1      81.570 -50.412 -42.422  1.00  0.00    -0.203 OA
HETATM   31  N2  UNL     1      80.285 -50.226 -44.753  1.00  0.00    -0.247 N 
ATOM     32  H2  UNL     1      79.622 -50.993 -44.637  1.00  0.00     0.182 HD
HETATM   33  C29 UNL     1      79.821 -49.198 -45.537  1.00  0.00     0.282 C 
HETATM   34  O4  UNL     1      79.552 -49.483 -46.775  1.00  0.00    -0.265 OA
HETATM   35  C30 UNL     1      79.544 -47.769 -45.270  1.00  0.00     0.116 C 
HETATM   36  N4  UNL     1      78.250 -47.363 -45.814  1.00  0.00    -0.335 N 
ATOM     37  H4  UNL     1      78.309 -47.077 -46.791  1.00  0.00     0.168 HD
HETATM   38  C32 UNL     1      76.970 -47.277 -45.316  1.00  0.00     0.120 C 
ENDROOT
BRANCH  23  39
HETATM   39  C21 UNL     1      86.450 -53.891 -42.453  1.00  0.00     0.018 C 
BRANCH  39  40
HETATM   40  C22 UNL     1      86.562 -55.173 -41.703  1.00  0.00    -0.014 A 
HETATM   41  C23 UNL     1      86.633 -54.997 -40.190  1.00  0.00     0.005 A 
HETATM   42  C24 UNL     1      87.872 -55.357 -40.949  1.00  0.00     0.005 A 
ENDBRANCH  39  40
ENDBRANCH  23  39
BRANCH  35  43
HETATM   43  C31 UNL     1      79.929 -47.189 -43.985  1.00  0.00     0.135 C 
HETATM   44  N3  UNL     1      81.013 -46.331 -43.829  1.00  0.00    -0.113 NA
ENDBRANCH  35  43
BRANCH  38  45
HETATM   45  O5  UNL     1      76.532 -46.052 -45.187  1.00  0.00    -0.349 OA
ATOM     46  H5  UNL     1      77.224 -45.426 -45.368  1.00  0.00     0.219 HD
ENDBRANCH  38  45
TORSDOF 4
ENDMDL
