MODEL 1
REMARK VINA RESULT: -10.988489734      0.000      0.000
REMARK  4 active torsions:
REMARK  status: ('A' for Active; 'I' for Inactive)
REMARK       I    between atoms: C1_2  and  N1_3 
REMARK       I    between atoms: C1_2  and  N2_10 
REMARK    1  A    between atoms: N1_3  and  C2_5 
REMARK    2  A    between atoms: N2_10  and  C7_12 
REMARK    3  A    between atoms: C13_20  and  O3_21 
REMARK    4  A    between atoms: C22_34  and  C23_35 
ROOT
HETATM    1  C7  UNL     1      72.723 -46.276 -45.638  1.00  0.00     0.116 C 
HETATM    2  C8  UNL     1      71.939 -45.248 -46.407  1.00  0.00     0.031 C 
HETATM    3  C9  UNL     1      70.522 -45.641 -46.683  1.00  0.00     0.044 C 
HETATM    4  C10 UNL     1      69.764 -45.877 -45.388  1.00  0.00     0.214 C 
HETATM    5  O2  UNL     1      69.660 -47.179 -45.007  1.00  0.00    -0.369 OA
HETATM    6  C11 UNL     1      70.406 -47.551 -43.920  1.00  0.00     0.146 C 
HETATM    7  C12 UNL     1      71.657 -48.229 -44.425  1.00  0.00     0.118 C 
HETATM    8 BR1  UNL     1      73.076 -48.168 -43.111  1.00  0.00    -0.086 Br
HETATM    9  C13 UNL     1      72.195 -47.645 -45.707  1.00  0.00     0.157 C 
HETATM   10  C14 UNL     1      69.700 -48.457 -42.940  1.00  0.00     0.045 C 
HETATM   11  C15 UNL     1      70.022 -49.910 -43.141  1.00  0.00     0.010 C 
HETATM   12  C16 UNL     1      69.280 -50.786 -42.161  1.00  0.00     0.001 C 
HETATM   13  C17 UNL     1      67.807 -50.595 -42.189  1.00  0.00     0.002 C 
HETATM   14  C18 UNL     1      67.538 -49.132 -41.932  1.00  0.00     0.032 C 
HETATM   15  C19 UNL     1      68.222 -48.207 -42.878  1.00  0.00     0.128 C 
HETATM   16  O4  UNL     1      67.993 -46.904 -42.366  1.00  0.00    -0.380 OA
HETATM   17  C20 UNL     1      66.728 -46.470 -42.697  1.00  0.00     0.212 C 
HETATM   18  C21 UNL     1      66.521 -45.053 -42.396  1.00  0.00     0.088 C 
HETATM   19  N3  UNL     1      67.341 -44.039 -42.907  1.00  0.00    -0.357 N 
ATOM     20  H3  UNL     1      67.951 -43.625 -42.203  1.00  0.00     0.166 HD
HETATM   21  C22 UNL     1      67.506 -43.465 -44.196  1.00  0.00     0.087 C 
HETATM   22  N4  UNL     1      67.925 -44.127 -45.176  1.00  0.00    -0.314 N 
ATOM     23  H4  UNL     1      67.955 -43.501 -45.981  1.00  0.00     0.170 HD
HETATM   24  C29 UNL     1      68.355 -45.349 -45.587  1.00  0.00     0.252 C 
HETATM   25  O5  UNL     1      67.600 -46.171 -46.188  1.00  0.00    -0.270 OA
ENDROOT
BRANCH   1  26
HETATM   26  N2  UNL     1      74.123 -46.225 -46.086  1.00  0.00    -0.336 N 
HETATM   27  C1  UNL     1      75.227 -46.052 -45.259  1.00  0.00     0.316 C 
HETATM   28  O1  UNL     1      75.080 -45.917 -44.023  1.00  0.00    -0.247 OA
HETATM   29  N1  UNL     1      76.536 -46.027 -45.799  1.00  0.00    -0.339 N 
ATOM     30  H1  UNL     1      76.651 -46.138 -46.806  1.00  0.00     0.164 HD
ATOM     31  H2  UNL     1      74.299 -46.325 -47.086  1.00  0.00     0.164 HD
BRANCH  29  32
HETATM   32  C2  UNL     1      77.713 -45.850 -44.982  1.00  0.00     0.086 C 
HETATM   33  C3  UNL     1      78.958 -46.373 -45.666  1.00  0.00     0.025 C 
HETATM   34  C4  UNL     1      79.674 -45.183 -46.247  1.00  0.00     0.002 C 
HETATM   35  C5  UNL     1      78.829 -43.977 -45.959  1.00  0.00     0.002 C 
HETATM   36  C6  UNL     1      78.025 -44.402 -44.745  1.00  0.00     0.025 C 
ENDBRANCH  29  32
ENDBRANCH   1  26
BRANCH   9  37
HETATM   37  O3  UNL     1      73.264 -48.510 -46.062  1.00  0.00    -0.392 OA
ATOM     38  H3  UNL     1      72.892 -49.343 -46.327  1.00  0.00     0.210 HD
ENDBRANCH   9  37
BRANCH  21  39
HETATM   39  C23 UNL     1      67.196 -41.963 -44.362  1.00  0.00     0.053 C 
HETATM   40  C24 UNL     1      66.301 -41.778 -45.579  1.00  0.00     0.012 C 
HETATM   41  C25 UNL     1      66.148 -40.335 -45.894  1.00  0.00     0.001 C 
HETATM   42  C26 UNL     1      65.661 -39.519 -44.719  1.00  0.00     0.000 C 
HETATM   43  C27 UNL     1      66.292 -39.926 -43.426  1.00  0.00     0.001 C 
HETATM   44  C28 UNL     1      66.427 -41.391 -43.222  1.00  0.00     0.012 C 
ENDBRANCH  21  39
TORSDOF 4
ENDMDL
MODEL 2
REMARK VINA RESULT: -10.985647997      1.575      1.920
REMARK  4 active torsions:
REMARK  status: ('A' for Active; 'I' for Inactive)
REMARK       I    between atoms: C1_2  and  N1_3 
REMARK       I    between atoms: C1_2  and  N2_10 
REMARK    1  A    between atoms: N1_3  and  C2_5 
REMARK    2  A    between atoms: N2_10  and  C7_12 
REMARK    3  A    between atoms: C13_20  and  O3_21 
REMARK    4  A    between atoms: C22_34  and  C23_35 
ROOT
HETATM    1  C7  UNL     1      71.338 -45.654 -45.415  1.00  0.00     0.116 C 
HETATM    2  C8  UNL     1      70.790 -44.313 -45.822  1.00  0.00     0.031 C 
HETATM    3  C9  UNL     1      69.361 -44.346 -46.260  1.00  0.00     0.044 C 
HETATM    4  C10 UNL     1      68.463 -44.856 -45.146  1.00  0.00     0.214 C 
HETATM    5  O2  UNL     1      68.130 -46.172 -45.227  1.00  0.00    -0.369 OA
HETATM    6  C11 UNL     1      68.713 -46.999 -44.302  1.00  0.00     0.146 C 
HETATM    7  C12 UNL     1      69.886 -47.680 -44.963  1.00  0.00     0.118 C 
HETATM    8 BR1  UNL     1      71.176 -48.294 -43.657  1.00  0.00    -0.086 Br
HETATM    9  C13 UNL     1      70.618 -46.814 -45.956  1.00  0.00     0.157 C 
HETATM   10  C14 UNL     1      67.793 -48.039 -43.706  1.00  0.00     0.045 C 
HETATM   11  C15 UNL     1      67.909 -49.380 -44.371  1.00  0.00     0.010 C 
HETATM   12  C16 UNL     1      66.959 -50.386 -43.767  1.00  0.00     0.001 C 
HETATM   13  C17 UNL     1      65.540 -49.945 -43.779  1.00  0.00     0.002 C 
HETATM   14  C18 UNL     1      65.473 -48.622 -43.056  1.00  0.00     0.032 C 
HETATM   15  C19 UNL     1      66.370 -47.572 -43.614  1.00  0.00     0.128 C 
HETATM   16  O4  UNL     1      66.296 -46.487 -42.703  1.00  0.00    -0.380 OA
HETATM   17  C20 UNL     1      65.146 -45.759 -42.912  1.00  0.00     0.212 C 
HETATM   18  C21 UNL     1      65.128 -44.503 -42.161  1.00  0.00     0.088 C 
HETATM   19  N3  UNL     1      66.134 -43.535 -42.276  1.00  0.00    -0.357 N 
ATOM     20  H3  UNL     1      66.735 -43.482 -41.453  1.00  0.00     0.166 HD
HETATM   21  C22 UNL     1      66.498 -42.610 -43.292  1.00  0.00     0.087 C 
HETATM   22  N4  UNL     1      66.898 -42.980 -44.422  1.00  0.00    -0.314 N 
ATOM     23  H4  UNL     1      67.093 -42.142 -44.970  1.00  0.00     0.170 HD
HETATM   24  C29 UNL     1      67.173 -44.058 -45.204  1.00  0.00     0.252 C 
HETATM   25  O5  UNL     1      66.359 -44.498 -46.070  1.00  0.00    -0.270 OA
ENDROOT
BRANCH   1  26
HETATM   26  N2  UNL     1      72.765 -45.702 -45.773  1.00  0.00    -0.336 N 
HETATM   27  C1  UNL     1      73.815 -45.861 -44.875  1.00  0.00     0.316 C 
HETATM   28  O1  UNL     1      73.590 -45.972 -43.649  1.00  0.00    -0.247 OA
HETATM   29  N1  UNL     1      75.154 -45.902 -45.332  1.00  0.00    -0.339 N 
ATOM     30  H1  UNL     1      75.331 -45.812 -46.332  1.00  0.00     0.164 HD
ATOM     31  H2  UNL     1      73.003 -45.611 -46.760  1.00  0.00     0.164 HD
BRANCH  29  32
HETATM   32  C2  UNL     1      76.278 -46.065 -44.441  1.00  0.00     0.086 C 
HETATM   33  C3  UNL     1      77.105 -47.283 -44.793  1.00  0.00     0.025 C 
HETATM   34  C4  UNL     1      78.302 -46.793 -45.564  1.00  0.00     0.002 C 
HETATM   35  C5  UNL     1      78.152 -45.308 -45.715  1.00  0.00     0.002 C 
HETATM   36  C6  UNL     1      77.256 -44.933 -44.551  1.00  0.00     0.025 C 
ENDBRANCH  29  32
ENDBRANCH   1  26
BRANCH   9  37
HETATM   37  O3  UNL     1      71.572 -47.688 -46.543  1.00  0.00    -0.392 OA
ATOM     38  H3  UNL     1      71.655 -47.457 -47.461  1.00  0.00     0.210 HD
ENDBRANCH   9  37
BRANCH  21  39
HETATM   39  C23 UNL     1      66.434 -41.106 -42.956  1.00  0.00     0.053 C 
HETATM   40  C24 UNL     1      65.915 -40.354 -44.172  1.00  0.00     0.012 C 
HETATM   41  C25 UNL     1      66.031 -38.888 -43.962  1.00  0.00     0.001 C 
HETATM   42  C26 UNL     1      65.366 -38.415 -42.690  1.00  0.00     0.000 C 
HETATM   43  C27 UNL     1      65.585 -39.342 -41.538  1.00  0.00     0.001 C 
HETATM   44  C28 UNL     1      65.476 -40.787 -41.861  1.00  0.00     0.012 C 
ENDBRANCH  21  39
TORSDOF 4
ENDMDL
MODEL 3
REMARK VINA RESULT: -10.564438991      1.436      1.899
REMARK  4 active torsions:
REMARK  status: ('A' for Active; 'I' for Inactive)
REMARK       I    between atoms: C1_2  and  N1_3 
REMARK       I    between atoms: C1_2  and  N2_10 
REMARK    1  A    between atoms: N1_3  and  C2_5 
REMARK    2  A    between atoms: N2_10  and  C7_12 
REMARK    3  A    between atoms: C13_20  and  O3_21 
REMARK    4  A    between atoms: C22_34  and  C23_35 
ROOT
HETATM    1  C7  UNL     1      73.877 -46.546 -45.534  1.00  0.00     0.116 C 
HETATM    2  C8  UNL     1      72.895 -45.493 -45.973  1.00  0.00     0.031 C 
HETATM    3  C9  UNL     1      71.500 -45.998 -46.157  1.00  0.00     0.044 C 
HETATM    4  C10 UNL     1      70.957 -46.578 -44.862  1.00  0.00     0.214 C 
HETATM    5  O2  UNL     1      71.037 -47.932 -44.755  1.00  0.00    -0.369 OA
HETATM    6  C11 UNL     1      71.961 -48.413 -43.866  1.00  0.00     0.146 C 
HETATM    7  C12 UNL     1      73.189 -48.816 -44.645  1.00  0.00     0.118 C 
HETATM    8 BR1  UNL     1      74.765 -48.838 -43.524  1.00  0.00    -0.086 Br
HETATM    9  C13 UNL     1      73.482 -47.930 -45.829  1.00  0.00     0.157 C 
HETATM   10  C14 UNL     1      71.492 -49.576 -43.023  1.00  0.00     0.045 C 
HETATM   11  C15 UNL     1      71.924 -50.908 -43.563  1.00  0.00     0.010 C 
HETATM   12  C16 UNL     1      71.416 -52.046 -42.710  1.00  0.00     0.001 C 
HETATM   13  C17 UNL     1      69.942 -52.039 -42.524  1.00  0.00     0.002 C 
HETATM   14  C18 UNL     1      69.569 -50.701 -41.934  1.00  0.00     0.032 C 
HETATM   15  C19 UNL     1      70.020 -49.529 -42.737  1.00  0.00     0.128 C 
HETATM   16  O4  UNL     1      69.738 -48.391 -41.939  1.00  0.00    -0.380 OA
HETATM   17  C20 UNL     1      68.402 -48.062 -42.020  1.00  0.00     0.212 C 
HETATM   18  C21 UNL     1      68.100 -46.770 -41.405  1.00  0.00     0.088 C 
HETATM   19  N3  UNL     1      68.737 -45.581 -41.783  1.00  0.00    -0.357 N 
ATOM     20  H3  UNL     1      69.396 -45.239 -41.083  1.00  0.00     0.166 HD
HETATM   21  C22 UNL     1      68.662 -44.748 -42.932  1.00  0.00     0.087 C 
HETATM   22  N4  UNL     1      69.003 -45.147 -44.072  1.00  0.00    -0.314 N 
ATOM     23  H4  UNL     1      68.858 -44.377 -44.725  1.00  0.00     0.170 HD
HETATM   24  C29 UNL     1      69.489 -46.201 -44.779  1.00  0.00     0.252 C 
HETATM   25  O5  UNL     1      68.742 -46.977 -45.447  1.00  0.00    -0.270 OA
ENDROOT
BRANCH   1  26
HETATM   26  N2  UNL     1      75.189 -46.233 -46.123  1.00  0.00    -0.336 N 
HETATM   27  C1  UNL     1      76.307 -45.808 -45.414  1.00  0.00     0.316 C 
HETATM   28  O1  UNL     1      76.253 -45.655 -44.174  1.00  0.00    -0.247 OA
HETATM   29  N1  UNL     1      77.526 -45.543 -46.084  1.00  0.00    -0.339 N 
ATOM     30  H1  UNL     1      77.566 -45.670 -47.095  1.00  0.00     0.164 HD
ATOM     31  H2  UNL     1      75.286 -46.337 -47.133  1.00  0.00     0.164 HD
BRANCH  29  32
HETATM   32  C2  UNL     1      78.715 -45.100 -45.394  1.00  0.00     0.086 C 
HETATM   33  C3  UNL     1      79.977 -45.590 -46.071  1.00  0.00     0.025 C 
HETATM   34  C4  UNL     1      80.510 -44.444 -46.889  1.00  0.00     0.002 C 
HETATM   35  C5  UNL     1      79.542 -43.308 -46.741  1.00  0.00     0.002 C 
HETATM   36  C6  UNL     1      78.860 -43.607 -45.419  1.00  0.00     0.025 C 
ENDBRANCH  29  32
ENDBRANCH   1  26
BRANCH   9  37
HETATM   37  O3  UNL     1      74.571 -48.568 -46.481  1.00  0.00    -0.392 OA
ATOM     38  H3  UNL     1      75.204 -48.818 -45.818  1.00  0.00     0.210 HD
ENDBRANCH   9  37
BRANCH  21  39
HETATM   39  C23 UNL     1      68.185 -43.294 -42.739  1.00  0.00     0.053 C 
HETATM   40  C24 UNL     1      67.781 -42.727 -44.093  1.00  0.00     0.012 C 
HETATM   41  C25 UNL     1      67.513 -41.270 -43.984  1.00  0.00     0.001 C 
HETATM   42  C26 UNL     1      66.499 -40.931 -42.915  1.00  0.00     0.000 C 
HETATM   43  C27 UNL     1      66.673 -41.741 -41.670  1.00  0.00     0.001 C 
HETATM   44  C28 UNL     1      66.968 -43.180 -41.889  1.00  0.00     0.012 C 
ENDBRANCH  21  39
TORSDOF 4
ENDMDL
MODEL 4
REMARK VINA RESULT: -10.418239623      5.826     12.901
REMARK  4 active torsions:
REMARK  status: ('A' for Active; 'I' for Inactive)
REMARK       I    between atoms: C1_2  and  N1_3 
REMARK       I    between atoms: C1_2  and  N2_10 
REMARK    1  A    between atoms: N1_3  and  C2_5 
REMARK    2  A    between atoms: N2_10  and  C7_12 
REMARK    3  A    between atoms: C13_20  and  O3_21 
REMARK    4  A    between atoms: C22_34  and  C23_35 
ROOT
HETATM    1  C7  UNL     1      78.781 -43.451 -45.036  1.00  0.00     0.116 C 
HETATM    2  C8  UNL     1      78.411 -41.993 -45.050  1.00  0.00     0.031 C 
HETATM    3  C9  UNL     1      79.572 -41.067 -44.878  1.00  0.00     0.044 C 
HETATM    4  C10 UNL     1      80.590 -41.261 -45.990  1.00  0.00     0.214 C 
HETATM    5  O2  UNL     1      81.650 -42.052 -45.672  1.00  0.00    -0.369 OA
HETATM    6  C11 UNL     1      81.680 -43.287 -46.265  1.00  0.00     0.146 C 
HETATM    7  C12 UNL     1      81.160 -44.293 -45.268  1.00  0.00     0.118 C 
HETATM    8 BR1  UNL     1      80.495 -45.883 -46.147  1.00  0.00    -0.086 Br
HETATM    9  C13 UNL     1      80.059 -43.766 -44.383  1.00  0.00     0.157 C 
HETATM   10  C14 UNL     1      83.038 -43.724 -46.764  1.00  0.00     0.045 C 
HETATM   11  C15 UNL     1      83.758 -44.622 -45.801  1.00  0.00     0.010 C 
HETATM   12  C16 UNL     1      85.120 -45.018 -46.321  1.00  0.00     0.001 C 
HETATM   13  C17 UNL     1      85.985 -43.860 -46.664  1.00  0.00     0.002 C 
HETATM   14  C18 UNL     1      85.236 -43.019 -47.668  1.00  0.00     0.032 C 
HETATM   15  C19 UNL     1      83.890 -42.573 -47.212  1.00  0.00     0.128 C 
HETATM   16  O4  UNL     1      83.289 -41.965 -48.344  1.00  0.00    -0.380 OA
HETATM   17  C20 UNL     1      83.767 -40.684 -48.516  1.00  0.00     0.212 C 
HETATM   18  C21 UNL     1      83.018 -39.932 -49.523  1.00  0.00     0.088 C 
HETATM   19  N3  UNL     1      81.633 -39.739 -49.453  1.00  0.00    -0.357 N 
ATOM     20  H3  UNL     1      81.118 -40.283 -50.145  1.00  0.00     0.166 HD
HETATM   21  C22 UNL     1      80.790 -38.949 -48.626  1.00  0.00     0.087 C 
HETATM   22  N4  UNL     1      80.701 -39.135 -47.389  1.00  0.00    -0.314 N 
ATOM     23  H4  UNL     1      80.042 -38.449 -47.020  1.00  0.00     0.170 HD
HETATM   24  C29 UNL     1      81.137 -39.891 -46.346  1.00  0.00     0.252 C 
HETATM   25  O5  UNL     1      82.056 -39.507 -45.562  1.00  0.00    -0.270 OA
ENDROOT
BRANCH   1  26
HETATM   26  N2  UNL     1      77.675 -44.207 -44.427  1.00  0.00    -0.336 N 
HETATM   27  C1  UNL     1      76.924 -45.189 -45.065  1.00  0.00     0.316 C 
HETATM   28  O1  UNL     1      77.159 -45.493 -46.256  1.00  0.00    -0.247 OA
HETATM   29  N1  UNL     1      75.885 -45.860 -44.378  1.00  0.00    -0.339 N 
ATOM     30  H1  UNL     1      75.698 -45.609 -43.408  1.00  0.00     0.164 HD
ATOM     31  H2  UNL     1      77.439 -43.993 -43.458  1.00  0.00     0.164 HD
BRANCH  29  32
HETATM   32  C2  UNL     1      75.078 -46.886 -44.995  1.00  0.00     0.086 C 
HETATM   33  C3  UNL     1      74.630 -47.930 -43.995  1.00  0.00     0.025 C 
HETATM   34  C4  UNL     1      73.209 -47.601 -43.622  1.00  0.00     0.002 C 
HETATM   35  C5  UNL     1      72.842 -46.342 -44.351  1.00  0.00     0.002 C 
HETATM   36  C6  UNL     1      73.788 -46.342 -45.536  1.00  0.00     0.025 C 
ENDBRANCH  29  32
ENDBRANCH   1  26
BRANCH   9  37
HETATM   37  O3  UNL     1      79.829 -44.813 -43.451  1.00  0.00    -0.392 OA
ATOM     38  H3  UNL     1      80.315 -45.576 -43.741  1.00  0.00     0.210 HD
ENDBRANCH   9  37
BRANCH  21  39
HETATM   39  C23 UNL     1      79.932 -37.860 -49.302  1.00  0.00     0.053 C 
HETATM   40  C24 UNL     1      80.223 -36.523 -48.636  1.00  0.00     0.012 C 
HETATM   41  C25 UNL     1      79.271 -35.488 -49.115  1.00  0.00     0.001 C 
HETATM   42  C26 UNL     1      79.237 -35.363 -50.621  1.00  0.00     0.000 C 
HETATM   43  C27 UNL     1      79.297 -36.686 -51.316  1.00  0.00     0.001 C 
HETATM   44  C28 UNL     1      80.259 -37.660 -50.741  1.00  0.00     0.012 C 
ENDBRANCH  21  39
TORSDOF 4
ENDMDL
MODEL 5
REMARK VINA RESULT: -10.355181262      6.716     13.305
REMARK  4 active torsions:
REMARK  status: ('A' for Active; 'I' for Inactive)
REMARK       I    between atoms: C1_2  and  N1_3 
REMARK       I    between atoms: C1_2  and  N2_10 
REMARK    1  A    between atoms: N1_3  and  C2_5 
REMARK    2  A    between atoms: N2_10  and  C7_12 
REMARK    3  A    between atoms: C13_20  and  O3_21 
REMARK    4  A    between atoms: C22_34  and  C23_35 
ROOT
HETATM    1  C7  UNL     1      79.110 -42.393 -45.598  1.00  0.00     0.116 C 
HETATM    2  C8  UNL     1      78.465 -41.036 -45.679  1.00  0.00     0.031 C 
HETATM    3  C9  UNL     1      79.430 -39.896 -45.600  1.00  0.00     0.044 C 
HETATM    4  C10 UNL     1      80.437 -39.960 -46.736  1.00  0.00     0.214 C 
HETATM    5  O2  UNL     1      81.638 -40.512 -46.414  1.00  0.00    -0.369 OA
HETATM    6  C11 UNL     1      81.891 -41.752 -46.939  1.00  0.00     0.146 C 
HETATM    7  C12 UNL     1      81.600 -42.776 -45.870  1.00  0.00     0.118 C 
HETATM    8 BR1  UNL     1      81.233 -44.515 -46.635  1.00  0.00    -0.086 Br
HETATM    9  C13 UNL     1      80.440 -42.417 -44.976  1.00  0.00     0.157 C 
HETATM   10  C14 UNL     1      83.294 -41.951 -47.461  1.00  0.00     0.045 C 
HETATM   11  C15 UNL     1      84.199 -42.635 -46.478  1.00  0.00     0.010 C 
HETATM   12  C16 UNL     1      85.597 -42.794 -47.024  1.00  0.00     0.001 C 
HETATM   13  C17 UNL     1      86.214 -41.514 -47.461  1.00  0.00     0.002 C 
HETATM   14  C18 UNL     1      85.292 -40.895 -48.483  1.00  0.00     0.032 C 
HETATM   15  C19 UNL     1      83.896 -40.688 -48.003  1.00  0.00     0.128 C 
HETATM   16  O4  UNL     1      83.161 -40.276 -49.144  1.00  0.00    -0.380 OA
HETATM   17  C20 UNL     1      83.379 -38.941 -49.403  1.00  0.00     0.212 C 
HETATM   18  C21 UNL     1      82.474 -38.408 -50.423  1.00  0.00     0.088 C 
HETATM   19  N3  UNL     1      81.079 -38.480 -50.313  1.00  0.00    -0.357 N 
ATOM     20  H3  UNL     1      80.662 -39.154 -50.955  1.00  0.00     0.166 HD
HETATM   21  C22 UNL     1      80.121 -37.816 -49.501  1.00  0.00     0.087 C 
HETATM   22  N4  UNL     1      80.101 -37.940 -48.253  1.00  0.00    -0.314 N 
ATOM     23  H4  UNL     1      79.332 -37.372 -47.898  1.00  0.00     0.170 HD
HETATM   24  C29 UNL     1      80.700 -38.534 -47.186  1.00  0.00     0.252 C 
HETATM   25  O5  UNL     1      81.547 -37.934 -46.459  1.00  0.00    -0.270 OA
ENDROOT
BRANCH   1  26
HETATM   26  N2  UNL     1      78.186 -43.307 -44.909  1.00  0.00    -0.336 N 
HETATM   27  C1  UNL     1      77.674 -44.486 -45.442  1.00  0.00     0.316 C 
HETATM   28  O1  UNL     1      77.983 -44.846 -46.599  1.00  0.00    -0.247 OA
HETATM   29  N1  UNL     1      76.795 -45.297 -44.684  1.00  0.00    -0.339 N 
ATOM     30  H1  UNL     1      76.547 -44.999 -43.741  1.00  0.00     0.164 HD
ATOM     31  H2  UNL     1      77.897 -43.057 -43.963  1.00  0.00     0.164 HD
BRANCH  29  32
HETATM   32  C2  UNL     1      76.237 -46.528 -45.191  1.00  0.00     0.086 C 
HETATM   33  C3  UNL     1      75.802 -47.453 -44.075  1.00  0.00     0.025 C 
HETATM   34  C4  UNL     1      74.310 -47.303 -43.937  1.00  0.00     0.002 C 
HETATM   35  C5  UNL     1      73.879 -46.258 -44.923  1.00  0.00     0.002 C 
HETATM   36  C6  UNL     1      74.976 -46.299 -45.970  1.00  0.00     0.025 C 
ENDBRANCH  29  32
ENDBRANCH   1  26
BRANCH   9  37
HETATM   37  O3  UNL     1      80.440 -43.430 -43.980  1.00  0.00    -0.392 OA
ATOM     38  H3  UNL     1      80.874 -44.195 -44.340  1.00  0.00     0.210 HD
ENDBRANCH   9  37
BRANCH  21  39
HETATM   39  C23 UNL     1      79.052 -36.955 -50.204  1.00  0.00     0.053 C 
HETATM   40  C24 UNL     1      79.113 -35.542 -49.641  1.00  0.00     0.012 C 
HETATM   41  C25 UNL     1      77.969 -34.736 -50.140  1.00  0.00     0.001 C 
HETATM   42  C26 UNL     1      77.860 -34.730 -51.648  1.00  0.00     0.000 C 
HETATM   43  C27 UNL     1      78.139 -36.067 -52.257  1.00  0.00     0.001 C 
HETATM   44  C28 UNL     1      79.285 -36.804 -51.666  1.00  0.00     0.012 C 
ENDBRANCH  21  39
TORSDOF 4
ENDMDL
