MODEL 1
REMARK VINA RESULT: -8.491951766      0.000      0.000
REMARK  5 active torsions:
REMARK  status: ('A' for Active; 'I' for Inactive)
REMARK    1  A    between atoms: C4_6  and  C5_7 
REMARK    2  A    between atoms: C5_7  and  C6_8 
REMARK    3  A    between atoms: C23_29  and  O4_30 
REMARK    4  A    between atoms: C25_33  and  O5_34 
REMARK    5  A    between atoms: C29_40  and  O6_41 
ROOT
HETATM    1  C1  UNL     1      80.271 -44.104 -42.667  1.00  0.00     0.040 C 
HETATM    2  C2  UNL     1      80.045 -43.589 -43.811  1.00  0.00     0.028 C 
HETATM    3  C3  UNL     1      79.112 -42.332 -43.966  1.00  0.00     0.135 C 
HETATM    4  N1  UNL     1      78.056 -42.655 -44.848  1.00  0.00    -0.399 N 
ATOM      5  H1  UNL     1      77.362 -41.935 -45.048  1.00  0.00     0.154 HD
HETATM    6  C4  UNL     1      77.901 -43.909 -45.467  1.00  0.00     0.180 C 
HETATM    7  C7  UNL     1      79.324 -44.303 -45.956  1.00  0.00     0.247 C 
HETATM    8  O3  UNL     1      79.511 -45.055 -46.921  1.00  0.00    -0.271 OA
HETATM    9  N2  UNL     1      80.343 -43.703 -45.187  1.00  0.00    -0.318 N 
HETATM   10  C8  UNL     1      81.462 -42.995 -45.741  1.00  0.00     0.138 C 
HETATM   11  C9  UNL     1      81.379 -41.613 -45.025  1.00  0.00     0.023 C 
HETATM   12  C10 UNL     1      80.089 -41.286 -44.368  1.00  0.00    -0.013 C 
HETATM   13  C11 UNL     1      80.357 -40.579 -42.994  1.00  0.00     0.018 C 
HETATM   14  C12 UNL     1      79.323 -40.179 -45.092  1.00  0.00     0.012 C 
HETATM   15  C13 UNL     1      79.668 -40.299 -46.570  1.00  0.00     0.007 C 
HETATM   16  C14 UNL     1      81.097 -39.749 -46.709  1.00  0.00     0.006 C 
HETATM   17  C15 UNL     1      82.009 -40.514 -45.844  1.00  0.00    -0.034 C 
HETATM   18  C16 UNL     1      82.678 -39.595 -44.784  1.00  0.00     0.016 C 
HETATM   19  C17 UNL     1      83.219 -41.089 -46.543  1.00  0.00     0.010 C 
HETATM   20  C18 UNL     1      84.149 -40.150 -47.142  1.00  0.00     0.007 C 
HETATM   21  C19 UNL     1      83.788 -38.819 -47.673  1.00  0.00     0.009 C 
HETATM   22  C20 UNL     1      85.044 -38.227 -48.256  1.00  0.00    -0.017 C 
HETATM   23  C21 UNL     1      85.303 -36.777 -47.785  1.00  0.00     0.018 C 
HETATM   24  C22 UNL     1      86.326 -38.867 -47.670  1.00  0.00     0.018 C 
HETATM   25  C23 UNL     1      85.260 -38.320 -49.713  1.00  0.00     0.128 C 
HETATM   26  C24 UNL     1      84.093 -38.489 -50.583  1.00  0.00     0.065 C 
HETATM   27  C25 UNL     1      82.948 -39.255 -49.948  1.00  0.00     0.131 C 
HETATM   28  C26 UNL     1      82.584 -38.774 -48.559  1.00  0.00     0.013 C 
HETATM   29  C27 UNL     1      82.224 -37.291 -48.758  1.00  0.00     0.072 C 
HETATM   30 BR1  UNL     1      81.903 -36.340 -47.113  1.00  0.00    -0.090 Br
HETATM   31  C28 UNL     1      80.883 -37.383 -49.384  1.00  0.00     0.049 C 
HETATM   32  C29 UNL     1      80.246 -38.422 -48.499  1.00  0.00     0.128 C 
HETATM   33  C30 UNL     1      81.348 -39.449 -48.137  1.00  0.00    -0.002 C 
HETATM   34  C31 UNL     1      80.918 -40.634 -48.971  1.00  0.00     0.019 C 
ENDROOT
BRANCH   6  35
HETATM   35  C5  UNL     1      77.233 -45.009 -44.773  1.00  0.00     0.147 C 
BRANCH  35  36
HETATM   36  C6  UNL     1      76.137 -45.583 -45.582  1.00  0.00     0.175 C 
HETATM   37  O1  UNL     1      76.405 -46.326 -46.560  1.00  0.00    -0.648 OA
HETATM   38  O2  UNL     1      74.824 -45.307 -45.267  1.00  0.00    -0.648 OA
ENDBRANCH  35  36
ENDBRANCH   6  35
BRANCH  32  39
HETATM   39  O6  UNL     1      79.244 -38.945 -49.326  1.00  0.00    -0.395 OA
ATOM     40  H6  UNL     1      79.272 -39.871 -49.117  1.00  0.00     0.210 HD
ENDBRANCH  32  39
BRANCH  27  41
HETATM   41  O5  UNL     1      83.283 -40.579 -49.997  1.00  0.00    -0.395 OA
ATOM     42  H5  UNL     1      83.012 -40.962 -49.171  1.00  0.00     0.210 HD
ENDBRANCH  27  41
BRANCH  25  43
HETATM   43  O4  UNL     1      86.206 -39.319 -50.083  1.00  0.00    -0.395 OA
ATOM     44  H4  UNL     1      86.059 -39.675 -50.952  1.00  0.00     0.210 HD
ENDBRANCH  25  43
TORSDOF 5
ENDMDL
MODEL 2
REMARK VINA RESULT: -7.657007207     11.806     16.864
REMARK  5 active torsions:
REMARK  status: ('A' for Active; 'I' for Inactive)
REMARK    1  A    between atoms: C4_6  and  C5_7 
REMARK    2  A    between atoms: C5_7  and  C6_8 
REMARK    3  A    between atoms: C23_29  and  O4_30 
REMARK    4  A    between atoms: C25_33  and  O5_34 
REMARK    5  A    between atoms: C29_40  and  O6_41 
ROOT
HETATM    1  C1  UNL     1      71.855 -44.464 -45.510  1.00  0.00     0.040 C 
HETATM    2  C2  UNL     1      70.698 -44.885 -45.180  1.00  0.00     0.028 C 
HETATM    3  C3  UNL     1      69.856 -45.792 -46.151  1.00  0.00     0.135 C 
HETATM    4  N1  UNL     1      68.618 -45.157 -46.406  1.00  0.00    -0.399 N 
ATOM      5  H1  UNL     1      67.958 -45.627 -47.025  1.00  0.00     0.154 HD
HETATM    6  C4  UNL     1      68.240 -43.917 -45.859  1.00  0.00     0.180 C 
HETATM    7  C7  UNL     1      68.660 -43.984 -44.362  1.00  0.00     0.247 C 
HETATM    8  O3  UNL     1      68.091 -43.328 -43.482  1.00  0.00    -0.271 OA
HETATM    9  N2  UNL     1      69.737 -44.870 -44.145  1.00  0.00    -0.318 N 
HETATM   10  C8  UNL     1      69.751 -45.890 -43.136  1.00  0.00     0.138 C 
HETATM   11  C9  UNL     1      70.061 -47.178 -43.958  1.00  0.00     0.023 C 
HETATM   12  C10 UNL     1      69.862 -47.089 -45.425  1.00  0.00    -0.013 C 
HETATM   13  C11 UNL     1      71.021 -47.843 -46.165  1.00  0.00     0.018 C 
HETATM   14  C12 UNL     1      68.663 -47.905 -45.908  1.00  0.00     0.012 C 
HETATM   15  C13 UNL     1      67.643 -47.898 -44.778  1.00  0.00     0.007 C 
HETATM   16  C14 UNL     1      68.194 -48.864 -43.716  1.00  0.00     0.006 C 
HETATM   17  C15 UNL     1      69.529 -48.419 -43.286  1.00  0.00    -0.034 C 
HETATM   18  C16 UNL     1      70.604 -49.499 -43.589  1.00  0.00     0.016 C 
HETATM   19  C17 UNL     1      69.693 -48.248 -41.793  1.00  0.00     0.010 C 
HETATM   20  C18 UNL     1      69.530 -49.429 -40.967  1.00  0.00     0.007 C 
HETATM   21  C19 UNL     1      68.667 -50.584 -41.297  1.00  0.00     0.009 C 
HETATM   22  C20 UNL     1      68.751 -51.536 -40.133  1.00  0.00    -0.017 C 
HETATM   23  C21 UNL     1      69.028 -52.995 -40.565  1.00  0.00     0.018 C 
HETATM   24  C22 UNL     1      70.030 -51.325 -39.286  1.00  0.00     0.018 C 
HETATM   25  C23 UNL     1      67.675 -51.516 -39.123  1.00  0.00     0.128 C 
HETATM   26  C24 UNL     1      66.363 -50.994 -39.511  1.00  0.00     0.065 C 
HETATM   27  C25 UNL     1      66.411 -49.911 -40.571  1.00  0.00     0.131 C 
HETATM   28  C26 UNL     1      67.284 -50.254 -41.760  1.00  0.00     0.013 C 
HETATM   29  C27 UNL     1      66.672 -51.552 -42.313  1.00  0.00     0.072 C 
HETATM   30 BR1  UNL     1      67.699 -52.355 -43.732  1.00  0.00    -0.090 Br
HETATM   31  C28 UNL     1      65.454 -51.049 -42.995  1.00  0.00     0.049 C 
HETATM   32  C29 UNL     1      66.028 -49.864 -43.725  1.00  0.00     0.128 C 
HETATM   33  C30 UNL     1      67.093 -49.228 -42.796  1.00  0.00    -0.002 C 
HETATM   34  C31 UNL     1      66.378 -47.969 -42.363  1.00  0.00     0.019 C 
ENDROOT
BRANCH   6  35
HETATM   35  C5  UNL     1      68.649 -42.664 -46.490  1.00  0.00     0.147 C 
BRANCH  35  36
HETATM   36  C6  UNL     1      67.524 -41.712 -46.600  1.00  0.00     0.175 C 
HETATM   37  O1  UNL     1      67.609 -40.732 -47.383  1.00  0.00    -0.648 OA
HETATM   38  O2  UNL     1      66.384 -41.894 -45.848  1.00  0.00    -0.648 OA
ENDBRANCH  35  36
ENDBRANCH   6  35
BRANCH  32  39
HETATM   39  O6  UNL     1      64.900 -49.057 -43.917  1.00  0.00    -0.395 OA
ATOM     40  H6  UNL     1      65.261 -48.182 -43.844  1.00  0.00     0.210 HD
ENDBRANCH  32  39
BRANCH  27  41
HETATM   41  O5  UNL     1      66.778 -48.755 -39.940  1.00  0.00    -0.395 OA
ATOM     42  H5  UNL     1      66.329 -48.745 -39.103  1.00  0.00     0.210 HD
ENDBRANCH  27  41
BRANCH  25  43
HETATM   43  O4  UNL     1      68.045 -50.859 -37.914  1.00  0.00    -0.395 OA
ATOM     44  H4  UNL     1      67.871 -51.375 -37.135  1.00  0.00     0.210 HD
ENDBRANCH  25  43
TORSDOF 5
ENDMDL
MODEL 3
REMARK VINA RESULT: -7.515805559     13.764     18.181
REMARK  5 active torsions:
REMARK  status: ('A' for Active; 'I' for Inactive)
REMARK    1  A    between atoms: C4_6  and  C5_7 
REMARK    2  A    between atoms: C5_7  and  C6_8 
REMARK    3  A    between atoms: C23_29  and  O4_30 
REMARK    4  A    between atoms: C25_33  and  O5_34 
REMARK    5  A    between atoms: C29_40  and  O6_41 
ROOT
HETATM    1  C1  UNL     1      65.274 -44.853 -44.490  1.00  0.00     0.040 C 
HETATM    2  C2  UNL     1      66.274 -45.580 -44.179  1.00  0.00     0.028 C 
HETATM    3  C3  UNL     1      66.937 -45.484 -42.756  1.00  0.00     0.135 C 
HETATM    4  N1  UNL     1      68.304 -45.159 -42.913  1.00  0.00    -0.399 N 
ATOM      5  H1  UNL     1      68.872 -45.060 -42.072  1.00  0.00     0.154 HD
HETATM    6  C4  UNL     1      68.931 -44.963 -44.158  1.00  0.00     0.180 C 
HETATM    7  C7  UNL     1      68.409 -46.115 -45.065  1.00  0.00     0.247 C 
HETATM    8  O3  UNL     1      69.060 -46.555 -46.020  1.00  0.00    -0.271 OA
HETATM    9  N2  UNL     1      67.141 -46.584 -44.663  1.00  0.00    -0.318 N 
HETATM   10  C8  UNL     1      66.818 -47.969 -44.466  1.00  0.00     0.138 C 
HETATM   11  C9  UNL     1      66.265 -47.986 -43.009  1.00  0.00     0.023 C 
HETATM   12  C10 UNL     1      66.575 -46.802 -42.171  1.00  0.00    -0.013 C 
HETATM   13  C11 UNL     1      65.321 -46.415 -41.312  1.00  0.00     0.018 C 
HETATM   14  C12 UNL     1      67.573 -47.113 -41.057  1.00  0.00     0.012 C 
HETATM   15  C13 UNL     1      68.490 -48.209 -41.582  1.00  0.00     0.007 C 
HETATM   16  C14 UNL     1      67.656 -49.501 -41.541  1.00  0.00     0.006 C 
HETATM   17  C15 UNL     1      66.441 -49.333 -42.353  1.00  0.00    -0.034 C 
HETATM   18  C16 UNL     1      65.162 -49.497 -41.486  1.00  0.00     0.016 C 
HETATM   19  C17 UNL     1      66.225 -50.396 -43.406  1.00  0.00     0.010 C 
HETATM   20  C18 UNL     1      66.048 -51.760 -42.945  1.00  0.00     0.007 C 
HETATM   21  C19 UNL     1      66.630 -52.321 -41.708  1.00  0.00     0.009 C 
HETATM   22  C20 UNL     1      66.246 -53.777 -41.667  1.00  0.00    -0.017 C 
HETATM   23  C21 UNL     1      65.658 -54.209 -40.304  1.00  0.00     0.018 C 
HETATM   24  C22 UNL     1      65.002 -54.085 -42.536  1.00  0.00     0.018 C 
HETATM   25  C23 UNL     1      67.227 -54.781 -42.122  1.00  0.00     0.128 C 
HETATM   26  C24 UNL     1      68.649 -54.428 -42.100  1.00  0.00     0.065 C 
HETATM   27  C25 UNL     1      68.930 -52.955 -42.326  1.00  0.00     0.131 C 
HETATM   28  C26 UNL     1      68.079 -52.031 -41.478  1.00  0.00     0.013 C 
HETATM   29  C27 UNL     1      68.400 -52.448 -40.032  1.00  0.00     0.072 C 
HETATM   30 BR1  UNL     1      67.305 -51.573 -38.709  1.00  0.00    -0.090 Br
HETATM   31  C28 UNL     1      69.743 -51.853 -39.833  1.00  0.00     0.049 C 
HETATM   32  C29 UNL     1      69.518 -50.483 -40.418  1.00  0.00     0.128 C 
HETATM   33  C30 UNL     1      68.577 -50.657 -41.636  1.00  0.00    -0.002 C 
HETATM   34  C31 UNL     1      69.541 -50.425 -42.776  1.00  0.00     0.019 C 
ENDROOT
BRANCH   6  35
HETATM   35  C5  UNL     1      68.874 -43.666 -44.829  1.00  0.00     0.147 C 
BRANCH  35  36
HETATM   36  C6  UNL     1      68.203 -42.646 -43.996  1.00  0.00     0.175 C 
HETATM   37  O1  UNL     1      68.649 -42.383 -42.850  1.00  0.00    -0.648 OA
HETATM   38  O2  UNL     1      67.093 -41.983 -44.470  1.00  0.00    -0.648 OA
ENDBRANCH  35  36
ENDBRANCH   6  35
BRANCH  32  39
HETATM   39  O6  UNL     1      70.816 -50.089 -40.765  1.00  0.00    -0.395 OA
ATOM     40  H6  UNL     1      71.348 -50.581 -40.150  1.00  0.00     0.210 HD
ENDBRANCH  32  39
BRANCH  27  41
HETATM   41  O5  UNL     1      68.808 -52.730 -43.668  1.00  0.00    -0.395 OA
ATOM     42  H5  UNL     1      69.295 -51.937 -43.860  1.00  0.00     0.210 HD
ENDBRANCH  27  41
BRANCH  25  43
HETATM   43  O4  UNL     1      66.946 -55.301 -43.419  1.00  0.00    -0.395 OA
ATOM     44  H4  UNL     1      66.218 -54.868 -43.850  1.00  0.00     0.210 HD
ENDBRANCH  25  43
TORSDOF 5
ENDMDL
MODEL 4
REMARK VINA RESULT: -7.488344252      2.549      3.915
REMARK  5 active torsions:
REMARK  status: ('A' for Active; 'I' for Inactive)
REMARK    1  A    between atoms: C4_6  and  C5_7 
REMARK    2  A    between atoms: C5_7  and  C6_8 
REMARK    3  A    between atoms: C23_29  and  O4_30 
REMARK    4  A    between atoms: C25_33  and  O5_34 
REMARK    5  A    between atoms: C29_40  and  O6_41 
ROOT
HETATM    1  C1  UNL     1      78.832 -39.982 -44.352  1.00  0.00     0.040 C 
HETATM    2  C2  UNL     1      79.572 -40.817 -44.968  1.00  0.00     0.028 C 
HETATM    3  C3  UNL     1      79.433 -41.035 -46.520  1.00  0.00     0.135 C 
HETATM    4  N1  UNL     1      79.152 -42.399 -46.764  1.00  0.00    -0.399 N 
ATOM      5  H1  UNL     1      79.032 -42.697 -47.732  1.00  0.00     0.154 HD
HETATM    6  C4  UNL     1      79.026 -43.371 -45.755  1.00  0.00     0.180 C 
HETATM    7  C7  UNL     1      80.201 -43.097 -44.773  1.00  0.00     0.247 C 
HETATM    8  O3  UNL     1      80.699 -43.983 -44.068  1.00  0.00    -0.271 OA
HETATM    9  N2  UNL     1      80.619 -41.750 -44.796  1.00  0.00    -0.318 N 
HETATM   10  C8  UNL     1      81.984 -41.330 -44.934  1.00  0.00     0.138 C 
HETATM   11  C9  UNL     1      81.924 -40.372 -46.162  1.00  0.00     0.023 C 
HETATM   12  C10 UNL     1      80.714 -40.466 -47.015  1.00  0.00    -0.013 C 
HETATM   13  C11 UNL     1      80.258 -39.030 -47.450  1.00  0.00     0.018 C 
HETATM   14  C12 UNL     1      81.004 -41.079 -48.384  1.00  0.00     0.012 C 
HETATM   15  C13 UNL     1      82.146 -42.067 -48.191  1.00  0.00     0.007 C 
HETATM   16  C14 UNL     1      83.412 -41.209 -48.025  1.00  0.00     0.006 C 
HETATM   17  C15 UNL     1      83.246 -40.295 -46.884  1.00  0.00    -0.034 C 
HETATM   18  C16 UNL     1      83.339 -38.812 -47.338  1.00  0.00     0.016 C 
HETATM   19  C17 UNL     1      84.347 -40.359 -45.850  1.00  0.00     0.010 C 
HETATM   20  C18 UNL     1      85.685 -40.001 -46.282  1.00  0.00     0.007 C 
HETATM   21  C19 UNL     1      86.209 -40.171 -47.654  1.00  0.00     0.009 C 
HETATM   22  C20 UNL     1      87.650 -39.736 -47.627  1.00  0.00    -0.017 C 
HETATM   23  C21 UNL     1      88.008 -38.757 -48.768  1.00  0.00     0.018 C 
HETATM   24  C22 UNL     1      87.962 -38.793 -46.439  1.00  0.00     0.018 C 
HETATM   25  C23 UNL     1      88.699 -40.769 -47.516  1.00  0.00     0.128 C 
HETATM   26  C24 UNL     1      88.383 -42.134 -47.947  1.00  0.00     0.065 C 
HETATM   27  C25 UNL     1      86.929 -42.524 -47.766  1.00  0.00     0.131 C 
HETATM   28  C26 UNL     1      85.948 -41.498 -48.293  1.00  0.00     0.013 C 
HETATM   29  C27 UNL     1      86.311 -41.361 -49.781  1.00  0.00     0.072 C 
HETATM   30 BR1  UNL     1      85.352 -39.960 -50.692  1.00  0.00    -0.090 Br
HETATM   31  C28 UNL     1      85.744 -42.609 -50.350  1.00  0.00     0.049 C 
HETATM   32  C29 UNL     1      84.395 -42.618 -49.680  1.00  0.00     0.128 C 
HETATM   33  C30 UNL     1      84.595 -42.072 -48.244  1.00  0.00    -0.002 C 
HETATM   34  C31 UNL     1      84.438 -43.338 -47.434  1.00  0.00     0.019 C 
ENDROOT
BRANCH   6  35
HETATM   35  C5  UNL     1      77.758 -43.565 -45.055  1.00  0.00     0.147 C 
BRANCH  35  36
HETATM   36  C6  UNL     1      77.274 -44.957 -45.170  1.00  0.00     0.175 C 
HETATM   37  O1  UNL     1      77.486 -45.607 -46.225  1.00  0.00    -0.648 OA
HETATM   38  O2  UNL     1      76.593 -45.543 -44.126  1.00  0.00    -0.648 OA
ENDBRANCH  35  36
ENDBRANCH   6  35
BRANCH  32  39
HETATM   39  O6  UNL     1      84.051 -43.975 -49.721  1.00  0.00    -0.395 OA
ATOM     40  H6  UNL     1      84.717 -44.336 -50.293  1.00  0.00     0.210 HD
ENDBRANCH  32  39
BRANCH  27  41
HETATM   41  O5  UNL     1      86.759 -42.813 -46.441  1.00  0.00    -0.395 OA
ATOM     42  H5  UNL     1      86.177 -42.150 -46.088  1.00  0.00     0.210 HD
ENDBRANCH  27  41
BRANCH  25  43
HETATM   43  O4  UNL     1      89.266 -40.863 -46.212  1.00  0.00    -0.395 OA
ATOM     44  H4  UNL     1      89.740 -41.673 -46.064  1.00  0.00     0.210 HD
ENDBRANCH  25  43
TORSDOF 5
ENDMDL
MODEL 5
REMARK VINA RESULT: -7.471600214      2.919      5.366
REMARK  5 active torsions:
REMARK  status: ('A' for Active; 'I' for Inactive)
REMARK    1  A    between atoms: C4_6  and  C5_7 
REMARK    2  A    between atoms: C5_7  and  C6_8 
REMARK    3  A    between atoms: C23_29  and  O4_30 
REMARK    4  A    between atoms: C25_33  and  O5_34 
REMARK    5  A    between atoms: C29_40  and  O6_41 
ROOT
HETATM    1  C1  UNL     1      80.502 -43.505 -49.633  1.00  0.00     0.040 C 
HETATM    2  C2  UNL     1      81.187 -42.804 -48.818  1.00  0.00     0.028 C 
HETATM    3  C3  UNL     1      82.274 -43.466 -47.893  1.00  0.00     0.135 C 
HETATM    4  N1  UNL     1      81.957 -43.182 -46.545  1.00  0.00    -0.399 N 
ATOM      5  H1  UNL     1      82.575 -43.548 -45.820  1.00  0.00     0.154 HD
HETATM    6  C4  UNL     1      80.843 -42.425 -46.139  1.00  0.00     0.180 C 
HETATM    7  C7  UNL     1      80.801 -41.207 -47.106  1.00  0.00     0.247 C 
HETATM    8  O3  UNL     1      80.297 -40.123 -46.788  1.00  0.00    -0.271 OA
HETATM    9  N2  UNL     1      81.400 -41.488 -48.352  1.00  0.00    -0.318 N 
HETATM   10  C8  UNL     1      82.384 -40.653 -48.981  1.00  0.00     0.138 C 
HETATM   11  C9  UNL     1      83.562 -41.642 -49.231  1.00  0.00     0.023 C 
HETATM   12  C10 UNL     1      83.529 -42.914 -48.468  1.00  0.00    -0.013 C 
HETATM   13  C11 UNL     1      83.985 -44.099 -49.389  1.00  0.00     0.018 C 
HETATM   14  C12 UNL     1      84.611 -42.984 -47.391  1.00  0.00     0.012 C 
HETATM   15  C13 UNL     1      84.846 -41.559 -46.910  1.00  0.00     0.007 C 
HETATM   16  C14 UNL     1      85.647 -40.871 -48.029  1.00  0.00     0.006 C 
HETATM   17  C15 UNL     1      84.892 -40.933 -49.290  1.00  0.00    -0.034 C 
HETATM   18  C16 UNL     1      85.683 -41.712 -50.378  1.00  0.00     0.016 C 
HETATM   19  C17 UNL     1      84.680 -39.602 -49.973  1.00  0.00     0.010 C 
HETATM   20  C18 UNL     1      85.863 -38.884 -50.409  1.00  0.00     0.007 C 
HETATM   21  C19 UNL     1      87.193 -38.968 -49.768  1.00  0.00     0.009 C 
HETATM   22  C20 UNL     1      88.093 -38.011 -50.504  1.00  0.00    -0.017 C 
HETATM   23  C21 UNL     1      89.443 -38.643 -50.912  1.00  0.00     0.018 C 
HETATM   24  C22 UNL     1      87.576 -37.689 -51.927  1.00  0.00     0.018 C 
HETATM   25  C23 UNL     1      88.328 -36.674 -49.925  1.00  0.00     0.128 C 
HETATM   26  C24 UNL     1      88.139 -36.494 -48.483  1.00  0.00     0.065 C 
HETATM   27  C25 UNL     1      87.080 -37.394 -47.876  1.00  0.00     0.131 C 
HETATM   28  C26 UNL     1      87.207 -38.849 -48.278  1.00  0.00     0.013 C 
HETATM   29  C27 UNL     1      88.617 -39.246 -47.806  1.00  0.00     0.072 C 
HETATM   30 BR1  UNL     1      89.155 -41.011 -48.360  1.00  0.00    -0.090 Br
HETATM   31  C28 UNL     1      88.425 -39.375 -46.341  1.00  0.00     0.049 C 
HETATM   32  C29 UNL     1      87.138 -40.158 -46.309  1.00  0.00     0.128 C 
HETATM   33  C30 UNL     1      86.262 -39.642 -47.478  1.00  0.00    -0.002 C 
HETATM   34  C31 UNL     1      85.211 -38.862 -46.723  1.00  0.00     0.019 C 
ENDROOT
BRANCH   6  35
HETATM   35  C5  UNL     1      79.531 -43.048 -45.982  1.00  0.00     0.147 C 
BRANCH  35  36
HETATM   36  C6  UNL     1      79.641 -44.494 -45.696  1.00  0.00     0.175 C 
HETATM   37  O1  UNL     1      79.345 -45.332 -46.586  1.00  0.00    -0.648 OA
HETATM   38  O2  UNL     1      80.065 -44.928 -44.459  1.00  0.00    -0.648 OA
ENDBRANCH  35  36
ENDBRANCH   6  35
BRANCH  32  39
HETATM   39  O6  UNL     1      86.628 -39.841 -45.044  1.00  0.00    -0.395 OA
ATOM     40  H6  UNL     1      87.012 -38.988 -44.878  1.00  0.00     0.210 HD
ENDBRANCH  32  39
BRANCH  27  41
HETATM   41  O5  UNL     1      85.867 -36.845 -48.189  1.00  0.00    -0.395 OA
ATOM     42  H5  UNL     1      85.744 -36.966 -49.123  1.00  0.00     0.210 HD
ENDBRANCH  27  41
BRANCH  25  43
HETATM   43  O4  UNL     1      87.597 -35.638 -50.574  1.00  0.00    -0.395 OA
ATOM     44  H4  UNL     1      87.507 -34.851 -50.048  1.00  0.00     0.210 HD
ENDBRANCH  25  43
TORSDOF 5
ENDMDL
