MODEL 1
REMARK VINA RESULT: -8.515660184      0.000      0.000
REMARK  15 active torsions:
REMARK  status: ('A' for Active; 'I' for Inactive)
REMARK    1  A    between atoms: C2_2  and  N1_3 
REMARK    2  A    between atoms: C2_2  and  C3_7 
REMARK    3  A    between atoms: C3_7  and  C4_8 
REMARK       I    between atoms: N2_10  and  C5_12 
REMARK    4  A    between atoms: C5_12  and  C6_14 
REMARK    5  A    between atoms: N3_18  and  S1_19 
REMARK    6  A    between atoms: S1_19  and  N4_22 
REMARK    7  A    between atoms: N4_22  and  C10_24 
REMARK    8  A    between atoms: C11_25  and  O5_26 
REMARK    9  A    between atoms: C11_25  and  N5_28 
REMARK   10  A    between atoms: N5_28  and  C12_30 
REMARK   11  A    between atoms: C12_30  and  C13_31 
REMARK   12  A    between atoms: C12_30  and  C15_37 
REMARK       I    between atoms: C13_31  and  N6_33 
REMARK   13  A    between atoms: N6_33  and  C14_35 
REMARK   14  A    between atoms: C15_37  and  N7_38 
REMARK   15  A    between atoms: C15_37  and  O8_42 
ROOT
HETATM    1  N4  UNL     1      14.018 -15.655 -21.499  1.00  0.00    -0.278 N 
ATOM      2  H4  UNL     1      14.101 -15.889 -20.510  1.00  0.00     0.179 HD
ENDROOT
BRANCH   1   3
HETATM    3  S1  UNL     1      15.226 -14.869 -22.498  1.00  0.00     0.303 S 
HETATM    4  O3  UNL     1      15.967 -13.808 -21.810  1.00  0.00    -0.188 OA
HETATM    5  O4  UNL     1      16.202 -16.008 -22.842  1.00  0.00    -0.188 OA
BRANCH   3   6
HETATM    6  N3  UNL     1      14.498 -14.272 -23.935  1.00  0.00    -0.180 NA
HETATM    7  C6  UNL     1      15.355 -14.260 -25.028  1.00  0.00     0.168 C 
HETATM    8  C7  UNL     1      15.322 -12.812 -25.553  1.00  0.00     0.032 C 
HETATM    9  C8  UNL     1      14.961 -12.025 -24.330  1.00  0.00     0.018 C 
HETATM   10  C9  UNL     1      13.913 -12.953 -23.741  1.00  0.00     0.110 C 
BRANCH   7  11
HETATM   11  C5  UNL     1      15.009 -15.189 -26.148  1.00  0.00     0.241 C 
HETATM   12  N2  UNL     1      14.322 -16.418 -25.801  1.00  0.00    -0.325 N 
HETATM   13  C3  UNL     1      14.771 -17.596 -25.933  1.00  0.00     0.080 C 
ATOM     14  H2  UNL     1      13.384 -16.326 -25.411  1.00  0.00     0.169 HD
HETATM   15  O2  UNL     1      15.308 -14.905 -27.296  1.00  0.00    -0.271 OA
BRANCH  13  16
HETATM   16  C2  UNL     1      13.886 -18.717 -25.495  1.00  0.00     0.232 C 
HETATM   17  C1  UNL     1      14.387 -19.192 -24.134  1.00  0.00     0.046 C 
BRANCH  16  18
HETATM   18  N1  UNL     1      14.055 -19.809 -26.404  1.00  0.00    -0.070 N 
ATOM     19  H13 UNL     1      14.211 -19.510 -27.366  1.00  0.00     0.275 HD
ATOM     20  H12 UNL     1      14.939 -20.303 -26.278  1.00  0.00     0.275 HD
ATOM     21  H11 UNL     1      13.240 -20.411 -26.296  1.00  0.00     0.275 HD
ENDBRANCH  16  18
ENDBRANCH  13  16
BRANCH  13  22
HETATM   22  C4  UNL     1      16.067 -17.967 -26.473  1.00  0.00     0.285 C 
HETATM   23  O1  UNL     1      16.307 -18.501 -27.549  1.00  0.00    -0.300 OA
ENDBRANCH  13  22
ENDBRANCH   7  11
ENDBRANCH   3   6
ENDBRANCH   1   3
BRANCH   1  24
HETATM   24  C10 UNL     1      12.874 -15.908 -22.360  1.00  0.00     0.156 C 
HETATM   25  C11 UNL     1      11.641 -15.275 -22.202  1.00  0.00     0.153 C 
BRANCH  25  26
HETATM   26  O5  UNL     1      10.632 -15.730 -23.002  1.00  0.00    -0.345 OA
ATOM     27  H5  UNL     1      10.872 -15.926 -23.901  1.00  0.00     0.219 HD
ENDBRANCH  25  26
BRANCH  25  28
HETATM   28  N5  UNL     1      11.158 -14.244 -21.404  1.00  0.00    -0.353 N 
ATOM     29  H5  UNL     1      10.596 -13.482 -21.783  1.00  0.00     0.162 HD
BRANCH  28  30
HETATM   30  C12 UNL     1      11.504 -14.322 -19.987  1.00  0.00     0.232 C 
BRANCH  30  31
HETATM   31  C13 UNL     1      12.293 -13.117 -19.637  1.00  0.00     0.251 C 
HETATM   32  O6  UNL     1      13.218 -12.707 -20.357  1.00  0.00    -0.271 OA
HETATM   33  N6  UNL     1      11.941 -12.441 -18.404  1.00  0.00    -0.303 N 
ATOM     34  H6  UNL     1      11.209 -12.807 -17.796  1.00  0.00     0.171 HD
BRANCH  33  35
HETATM   35  C14 UNL     1      12.638 -11.265 -18.070  1.00  0.00     0.355 C 
HETATM   36  O7  UNL     1      12.219 -10.599 -17.061  1.00  0.00    -0.283 OA
ENDBRANCH  33  35
ENDBRANCH  30  31
BRANCH  30  37
HETATM   37  C15 UNL     1      10.173 -14.208 -19.249  1.00  0.00     0.348 C 
BRANCH  37  38
HETATM   38  N7  UNL     1       9.034 -14.382 -20.054  1.00  0.00    -0.051 N 
ATOM     39  H73 UNL     1       8.228 -14.622 -19.477  1.00  0.00     0.277 HD
ATOM     40  H72 UNL     1       8.725 -13.485 -20.427  1.00  0.00     0.277 HD
ATOM     41  H71 UNL     1       9.142 -15.060 -20.809  1.00  0.00     0.277 HD
ENDBRANCH  37  38
BRANCH  37  42
HETATM   42  O8  UNL     1      10.171 -15.022 -18.122  1.00  0.00    -0.368 OA
ATOM     43  H8  UNL     1       9.622 -15.785 -18.265  1.00  0.00     0.212 HD
ENDBRANCH  37  42
ENDBRANCH  30  37
ENDBRANCH  28  30
ENDBRANCH  25  28
ENDBRANCH   1  24
TORSDOF 15
ENDMDL
MODEL 2
REMARK VINA RESULT: -8.392723132      2.175      2.933
REMARK  15 active torsions:
REMARK  status: ('A' for Active; 'I' for Inactive)
REMARK    1  A    between atoms: C2_2  and  N1_3 
REMARK    2  A    between atoms: C2_2  and  C3_7 
REMARK    3  A    between atoms: C3_7  and  C4_8 
REMARK       I    between atoms: N2_10  and  C5_12 
REMARK    4  A    between atoms: C5_12  and  C6_14 
REMARK    5  A    between atoms: N3_18  and  S1_19 
REMARK    6  A    between atoms: S1_19  and  N4_22 
REMARK    7  A    between atoms: N4_22  and  C10_24 
REMARK    8  A    between atoms: C11_25  and  O5_26 
REMARK    9  A    between atoms: C11_25  and  N5_28 
REMARK   10  A    between atoms: N5_28  and  C12_30 
REMARK   11  A    between atoms: C12_30  and  C13_31 
REMARK   12  A    between atoms: C12_30  and  C15_37 
REMARK       I    between atoms: C13_31  and  N6_33 
REMARK   13  A    between atoms: N6_33  and  C14_35 
REMARK   14  A    between atoms: C15_37  and  N7_38 
REMARK   15  A    between atoms: C15_37  and  O8_42 
ROOT
HETATM    1  N4  UNL     1      13.685 -16.923 -23.925  1.00  0.00    -0.278 N 
ATOM      2  H4  UNL     1      12.755 -17.143 -24.281  1.00  0.00     0.179 HD
ENDROOT
BRANCH   1   3
HETATM    3  S1  UNL     1      15.127 -16.613 -24.874  1.00  0.00     0.303 S 
HETATM    4  O3  UNL     1      16.260 -16.114 -24.089  1.00  0.00    -0.188 OA
HETATM    5  O4  UNL     1      15.489 -17.998 -25.437  1.00  0.00    -0.188 OA
BRANCH   3   6
HETATM    6  N3  UNL     1      14.758 -15.539 -26.163  1.00  0.00    -0.180 NA
HETATM    7  C6  UNL     1      15.880 -15.076 -26.838  1.00  0.00     0.168 C 
HETATM    8  C7  UNL     1      15.768 -13.539 -26.802  1.00  0.00     0.032 C 
HETATM    9  C8  UNL     1      14.949 -13.297 -25.571  1.00  0.00     0.018 C 
HETATM   10  C9  UNL     1      13.939 -14.420 -25.723  1.00  0.00     0.110 C 
BRANCH   7  11
HETATM   11  C5  UNL     1      16.025 -15.517 -28.260  1.00  0.00     0.241 C 
HETATM   12  N2  UNL     1      16.116 -16.943 -28.505  1.00  0.00    -0.325 N 
HETATM   13  C3  UNL     1      17.114 -17.566 -28.973  1.00  0.00     0.080 C 
ATOM     14  H2  UNL     1      15.293 -17.502 -28.276  1.00  0.00     0.169 HD
HETATM   15  O2  UNL     1      16.068 -14.693 -29.157  1.00  0.00    -0.271 OA
BRANCH  13  16
HETATM   16  C2  UNL     1      16.985 -19.046 -29.130  1.00  0.00     0.232 C 
HETATM   17  C1  UNL     1      16.574 -19.320 -30.574  1.00  0.00     0.046 C 
BRANCH  16  18
HETATM   18  N1  UNL     1      15.910 -19.497 -28.300  1.00  0.00    -0.070 N 
ATOM     19  H13 UNL     1      15.167 -19.961 -28.823  1.00  0.00     0.275 HD
ATOM     20  H12 UNL     1      16.164 -20.289 -27.709  1.00  0.00     0.275 HD
ATOM     21  H11 UNL     1      15.586 -18.688 -27.771  1.00  0.00     0.275 HD
ENDBRANCH  16  18
ENDBRANCH  13  16
BRANCH  13  22
HETATM   22  C4  UNL     1      18.380 -16.980 -29.379  1.00  0.00     0.285 C 
HETATM   23  O1  UNL     1      19.403 -16.869 -28.716  1.00  0.00    -0.300 OA
ENDBRANCH  13  22
ENDBRANCH   7  11
ENDBRANCH   3   6
ENDBRANCH   1   3
BRANCH   1  24
HETATM   24  C10 UNL     1      14.078 -16.803 -22.530  1.00  0.00     0.156 C 
HETATM   25  C11 UNL     1      13.845 -15.661 -21.764  1.00  0.00     0.153 C 
BRANCH  25  26
HETATM   26  O5  UNL     1      14.403 -15.657 -20.517  1.00  0.00    -0.345 OA
ATOM     27  H5  UNL     1      15.316 -15.395 -20.473  1.00  0.00     0.219 HD
ENDBRANCH  25  26
BRANCH  25  28
HETATM   28  N5  UNL     1      13.149 -14.472 -21.954  1.00  0.00    -0.353 N 
ATOM     29  H5  UNL     1      13.252 -13.913 -22.801  1.00  0.00     0.162 HD
BRANCH  28  30
HETATM   30  C12 UNL     1      12.262 -14.073 -20.864  1.00  0.00     0.232 C 
BRANCH  30  31
HETATM   31  C13 UNL     1      12.923 -12.986 -20.104  1.00  0.00     0.251 C 
HETATM   32  O6  UNL     1      14.025 -12.525 -20.443  1.00  0.00    -0.271 OA
HETATM   33  N6  UNL     1      12.224 -12.488 -18.935  1.00  0.00    -0.303 N 
ATOM     34  H6  UNL     1      11.340 -12.899 -18.638  1.00  0.00     0.171 HD
BRANCH  33  35
HETATM   35  C14 UNL     1      12.802 -11.421 -18.222  1.00  0.00     0.355 C 
HETATM   36  O7  UNL     1      12.104 -10.889 -17.291  1.00  0.00    -0.283 OA
ENDBRANCH  33  35
ENDBRANCH  30  31
BRANCH  30  37
HETATM   37  C15 UNL     1      11.047 -13.458 -21.551  1.00  0.00     0.348 C 
BRANCH  37  38
HETATM   38  N7  UNL     1       9.807 -13.830 -21.005  1.00  0.00    -0.051 N 
ATOM     39  H73 UNL     1       9.879 -13.915 -19.991  1.00  0.00     0.277 HD
ATOM     40  H72 UNL     1       9.146 -13.056 -21.071  1.00  0.00     0.277 HD
ATOM     41  H71 UNL     1       9.399 -14.677 -21.402  1.00  0.00     0.277 HD
ENDBRANCH  37  38
BRANCH  37  42
HETATM   42  O8  UNL     1      11.199 -12.080 -21.664  1.00  0.00    -0.368 OA
ATOM     43  H8  UNL     1      10.392 -11.637 -21.429  1.00  0.00     0.212 HD
ENDBRANCH  37  42
ENDBRANCH  30  37
ENDBRANCH  28  30
ENDBRANCH  25  28
ENDBRANCH   1  24
TORSDOF 15
ENDMDL
MODEL 3
REMARK VINA RESULT: -8.346921895      1.908      4.039
REMARK  15 active torsions:
REMARK  status: ('A' for Active; 'I' for Inactive)
REMARK    1  A    between atoms: C2_2  and  N1_3 
REMARK    2  A    between atoms: C2_2  and  C3_7 
REMARK    3  A    between atoms: C3_7  and  C4_8 
REMARK       I    between atoms: N2_10  and  C5_12 
REMARK    4  A    between atoms: C5_12  and  C6_14 
REMARK    5  A    between atoms: N3_18  and  S1_19 
REMARK    6  A    between atoms: S1_19  and  N4_22 
REMARK    7  A    between atoms: N4_22  and  C10_24 
REMARK    8  A    between atoms: C11_25  and  O5_26 
REMARK    9  A    between atoms: C11_25  and  N5_28 
REMARK   10  A    between atoms: N5_28  and  C12_30 
REMARK   11  A    between atoms: C12_30  and  C13_31 
REMARK   12  A    between atoms: C12_30  and  C15_37 
REMARK       I    between atoms: C13_31  and  N6_33 
REMARK   13  A    between atoms: N6_33  and  C14_35 
REMARK   14  A    between atoms: C15_37  and  N7_38 
REMARK   15  A    between atoms: C15_37  and  O8_42 
ROOT
HETATM    1  N4  UNL     1      13.745 -15.497 -24.228  1.00  0.00    -0.278 N 
ATOM      2  H4  UNL     1      13.161 -15.348 -25.051  1.00  0.00     0.179 HD
ENDROOT
BRANCH   1   3
HETATM    3  S1  UNL     1      13.906 -16.983 -23.311  1.00  0.00     0.303 S 
HETATM    4  O3  UNL     1      14.629 -16.825 -22.045  1.00  0.00    -0.188 OA
HETATM    5  O4  UNL     1      12.450 -17.372 -23.001  1.00  0.00    -0.188 OA
BRANCH   3   6
HETATM    6  N3  UNL     1      14.637 -18.195 -24.284  1.00  0.00    -0.180 NA
HETATM    7  C6  UNL     1      14.412 -18.025 -25.644  1.00  0.00     0.168 C 
HETATM    8  C7  UNL     1      13.810 -19.359 -26.125  1.00  0.00     0.032 C 
HETATM    9  C8  UNL     1      13.169 -19.898 -24.882  1.00  0.00     0.018 C 
HETATM   10  C9  UNL     1      14.243 -19.534 -23.874  1.00  0.00     0.110 C 
BRANCH   7  11
HETATM   11  C5  UNL     1      15.613 -17.709 -26.478  1.00  0.00     0.241 C 
HETATM   12  N2  UNL     1      15.946 -16.308 -26.655  1.00  0.00    -0.325 N 
HETATM   13  C3  UNL     1      15.925 -15.660 -27.743  1.00  0.00     0.080 C 
ATOM     14  H2  UNL     1      16.226 -15.793 -25.819  1.00  0.00     0.169 HD
HETATM   15  O2  UNL     1      16.265 -18.607 -26.982  1.00  0.00    -0.271 OA
BRANCH  13  16
HETATM   16  C2  UNL     1      16.298 -14.215 -27.684  1.00  0.00     0.232 C 
HETATM   17  C1  UNL     1      15.178 -13.480 -26.953  1.00  0.00     0.046 C 
BRANCH  16  18
HETATM   18  N1  UNL     1      16.328 -13.700 -29.019  1.00  0.00    -0.070 N 
ATOM     19  H13 UNL     1      16.063 -14.390 -29.722  1.00  0.00     0.275 HD
ATOM     20  H12 UNL     1      15.583 -13.030 -29.209  1.00  0.00     0.275 HD
ATOM     21  H11 UNL     1      17.261 -13.315 -29.166  1.00  0.00     0.275 HD
ENDBRANCH  16  18
ENDBRANCH  13  16
BRANCH  13  22
HETATM   22  C4  UNL     1      15.573 -16.185 -29.051  1.00  0.00     0.285 C 
HETATM   23  O1  UNL     1      16.324 -16.648 -29.901  1.00  0.00    -0.300 OA
ENDBRANCH  13  22
ENDBRANCH   7  11
ENDBRANCH   3   6
ENDBRANCH   1   3
BRANCH   1  24
HETATM   24  C10 UNL     1      14.608 -14.521 -23.584  1.00  0.00     0.156 C 
HETATM   25  C11 UNL     1      14.127 -13.476 -22.795  1.00  0.00     0.153 C 
BRANCH  25  26
HETATM   26  O5  UNL     1      15.058 -12.565 -22.382  1.00  0.00    -0.345 OA
ATOM     27  H5  UNL     1      14.780 -11.656 -22.390  1.00  0.00     0.219 HD
ENDBRANCH  25  26
BRANCH  25  28
HETATM   28  N5  UNL     1      12.883 -13.112 -22.293  1.00  0.00    -0.353 N 
ATOM     29  H5  UNL     1      12.433 -12.232 -22.544  1.00  0.00     0.162 HD
BRANCH  28  30
HETATM   30  C12 UNL     1      12.260 -14.070 -21.383  1.00  0.00     0.232 C 
BRANCH  30  31
HETATM   31  C13 UNL     1      12.142 -13.433 -20.051  1.00  0.00     0.251 C 
HETATM   32  O6  UNL     1      11.414 -13.903 -19.161  1.00  0.00    -0.271 OA
HETATM   33  N6  UNL     1      12.911 -12.223 -19.835  1.00  0.00    -0.303 N 
ATOM     34  H6  UNL     1      13.473 -11.818 -20.583  1.00  0.00     0.171 HD
BRANCH  33  35
HETATM   35  C14 UNL     1      12.859 -11.623 -18.563  1.00  0.00     0.355 C 
HETATM   36  O7  UNL     1      12.464 -10.406 -18.502  1.00  0.00    -0.283 OA
ENDBRANCH  33  35
ENDBRANCH  30  31
BRANCH  30  37
HETATM   37  C15 UNL     1      10.841 -14.252 -21.914  1.00  0.00     0.348 C 
BRANCH  37  38
HETATM   38  N7  UNL     1      10.074 -13.075 -21.966  1.00  0.00    -0.051 N 
ATOM     39  H73 UNL     1      10.242 -12.507 -21.136  1.00  0.00     0.277 HD
ATOM     40  H72 UNL     1      10.435 -12.450 -22.686  1.00  0.00     0.277 HD
ATOM     41  H71 UNL     1       9.072 -13.221 -22.095  1.00  0.00     0.277 HD
ENDBRANCH  37  38
BRANCH  37  42
HETATM   42  O8  UNL     1      10.859 -14.942 -23.122  1.00  0.00    -0.368 OA
ATOM     43  H8  UNL     1      11.474 -14.540 -23.724  1.00  0.00     0.212 HD
ENDBRANCH  37  42
ENDBRANCH  30  37
ENDBRANCH  28  30
ENDBRANCH  25  28
ENDBRANCH   1  24
TORSDOF 15
ENDMDL
MODEL 4
REMARK VINA RESULT: -8.223059343      1.799      3.457
REMARK  15 active torsions:
REMARK  status: ('A' for Active; 'I' for Inactive)
REMARK    1  A    between atoms: C2_2  and  N1_3 
REMARK    2  A    between atoms: C2_2  and  C3_7 
REMARK    3  A    between atoms: C3_7  and  C4_8 
REMARK       I    between atoms: N2_10  and  C5_12 
REMARK    4  A    between atoms: C5_12  and  C6_14 
REMARK    5  A    between atoms: N3_18  and  S1_19 
REMARK    6  A    between atoms: S1_19  and  N4_22 
REMARK    7  A    between atoms: N4_22  and  C10_24 
REMARK    8  A    between atoms: C11_25  and  O5_26 
REMARK    9  A    between atoms: C11_25  and  N5_28 
REMARK   10  A    between atoms: N5_28  and  C12_30 
REMARK   11  A    between atoms: C12_30  and  C13_31 
REMARK   12  A    between atoms: C12_30  and  C15_37 
REMARK       I    between atoms: C13_31  and  N6_33 
REMARK   13  A    between atoms: N6_33  and  C14_35 
REMARK   14  A    between atoms: C15_37  and  N7_38 
REMARK   15  A    between atoms: C15_37  and  O8_42 
ROOT
HETATM    1  N4  UNL     1      13.688 -15.202 -20.825  1.00  0.00    -0.278 N 
ATOM      2  H4  UNL     1      13.228 -16.112 -20.769  1.00  0.00     0.179 HD
ENDROOT
BRANCH   1   3
HETATM    3  S1  UNL     1      14.964 -14.738 -21.936  1.00  0.00     0.303 S 
HETATM    4  O3  UNL     1      15.866 -13.710 -21.408  1.00  0.00    -0.188 OA
HETATM    5  O4  UNL     1      15.761 -16.040 -22.129  1.00  0.00    -0.188 OA
BRANCH   3   6
HETATM    6  N3  UNL     1      14.284 -14.244 -23.434  1.00  0.00    -0.180 NA
HETATM    7  C6  UNL     1      15.135 -14.424 -24.516  1.00  0.00     0.168 C 
HETATM    8  C7  UNL     1      15.221 -13.044 -25.197  1.00  0.00     0.032 C 
HETATM    9  C8  UNL     1      14.930 -12.101 -24.070  1.00  0.00     0.018 C 
HETATM   10  C9  UNL     1      13.811 -12.869 -23.389  1.00  0.00     0.110 C 
BRANCH   7  11
HETATM   11  C5  UNL     1      14.710 -15.438 -25.530  1.00  0.00     0.241 C 
HETATM   12  N2  UNL     1      14.360 -16.757 -25.040  1.00  0.00    -0.325 N 
HETATM   13  C3  UNL     1      14.971 -17.839 -25.285  1.00  0.00     0.080 C 
ATOM     14  H2  UNL     1      13.539 -16.820 -24.437  1.00  0.00     0.169 HD
HETATM   15  O2  UNL     1      14.673 -15.146 -26.713  1.00  0.00    -0.271 OA
BRANCH  13  16
HETATM   16  C2  UNL     1      14.434 -19.084 -24.659  1.00  0.00     0.232 C 
HETATM   17  C1  UNL     1      13.139 -19.440 -25.382  1.00  0.00     0.046 C 
BRANCH  16  18
HETATM   18  N1  UNL     1      14.084 -18.795 -23.301  1.00  0.00    -0.070 N 
ATOM     19  H13 UNL     1      14.889 -18.559 -22.721  1.00  0.00     0.275 HD
ATOM     20  H12 UNL     1      13.586 -17.911 -23.195  1.00  0.00     0.275 HD
ATOM     21  H11 UNL     1      13.559 -19.597 -22.955  1.00  0.00     0.275 HD
ENDBRANCH  16  18
ENDBRANCH  13  16
BRANCH  13  22
HETATM   22  C4  UNL     1      16.149 -17.992 -26.122  1.00  0.00     0.285 C 
HETATM   23  O1  UNL     1      16.200 -18.378 -27.282  1.00  0.00    -0.300 OA
ENDBRANCH  13  22
ENDBRANCH   7  11
ENDBRANCH   3   6
ENDBRANCH   1   3
BRANCH   1  24
HETATM   24  C10 UNL     1      13.416 -14.036 -20.002  1.00  0.00     0.156 C 
HETATM   25  C11 UNL     1      12.149 -13.729 -19.504  1.00  0.00     0.153 C 
BRANCH  25  26
HETATM   26  O5  UNL     1      12.036 -12.525 -18.869  1.00  0.00    -0.345 OA
ATOM     27  H5  UNL     1      11.246 -12.031 -19.057  1.00  0.00     0.219 HD
ENDBRANCH  25  26
BRANCH  25  28
HETATM   28  N5  UNL     1      10.917 -14.372 -19.482  1.00  0.00    -0.353 N 
ATOM     29  H5  UNL     1      10.377 -14.480 -18.623  1.00  0.00     0.162 HD
BRANCH  28  30
HETATM   30  C12 UNL     1      10.443 -14.882 -20.765  1.00  0.00     0.232 C 
BRANCH  30  31
HETATM   31  C13 UNL     1       9.755 -16.172 -20.525  1.00  0.00     0.251 C 
HETATM   32  O6  UNL     1       9.165 -16.412 -19.459  1.00  0.00    -0.271 OA
HETATM   33  N6  UNL     1       9.809 -17.151 -21.593  1.00  0.00    -0.303 N 
ATOM     34  H6  UNL     1      10.331 -16.965 -22.449  1.00  0.00     0.171 HD
BRANCH  33  35
HETATM   35  C14 UNL     1       9.123 -18.366 -21.414  1.00  0.00     0.355 C 
HETATM   36  O7  UNL     1       8.353 -18.752 -22.361  1.00  0.00    -0.283 OA
ENDBRANCH  33  35
ENDBRANCH  30  31
BRANCH  30  37
HETATM   37  C15 UNL     1       9.375 -13.888 -21.214  1.00  0.00     0.348 C 
BRANCH  37  38
HETATM   38  N7  UNL     1       9.773 -13.017 -22.243  1.00  0.00    -0.051 N 
ATOM     39  H73 UNL     1       9.436 -12.073 -22.055  1.00  0.00     0.277 HD
ATOM     40  H72 UNL     1      10.779 -12.859 -22.201  1.00  0.00     0.277 HD
ATOM     41  H71 UNL     1       9.500 -13.309 -23.182  1.00  0.00     0.277 HD
ENDBRANCH  37  38
BRANCH  37  42
HETATM   42  O8  UNL     1       8.183 -14.548 -21.492  1.00  0.00    -0.368 OA
ATOM     43  H8  UNL     1       7.459 -13.934 -21.505  1.00  0.00     0.212 HD
ENDBRANCH  37  42
ENDBRANCH  30  37
ENDBRANCH  28  30
ENDBRANCH  25  28
ENDBRANCH   1  24
TORSDOF 15
ENDMDL
MODEL 5
REMARK VINA RESULT: -8.128246437      2.470      4.329
REMARK  15 active torsions:
REMARK  status: ('A' for Active; 'I' for Inactive)
REMARK    1  A    between atoms: C2_2  and  N1_3 
REMARK    2  A    between atoms: C2_2  and  C3_7 
REMARK    3  A    between atoms: C3_7  and  C4_8 
REMARK       I    between atoms: N2_10  and  C5_12 
REMARK    4  A    between atoms: C5_12  and  C6_14 
REMARK    5  A    between atoms: N3_18  and  S1_19 
REMARK    6  A    between atoms: S1_19  and  N4_22 
REMARK    7  A    between atoms: N4_22  and  C10_24 
REMARK    8  A    between atoms: C11_25  and  O5_26 
REMARK    9  A    between atoms: C11_25  and  N5_28 
REMARK   10  A    between atoms: N5_28  and  C12_30 
REMARK   11  A    between atoms: C12_30  and  C13_31 
REMARK   12  A    between atoms: C12_30  and  C15_37 
REMARK       I    between atoms: C13_31  and  N6_33 
REMARK   13  A    between atoms: N6_33  and  C14_35 
REMARK   14  A    between atoms: C15_37  and  N7_38 
REMARK   15  A    between atoms: C15_37  and  O8_42 
ROOT
HETATM    1  N4  UNL     1      12.496 -14.727 -20.093  1.00  0.00    -0.278 N 
ATOM      2  H4  UNL     1      12.852 -15.668 -20.264  1.00  0.00     0.179 HD
ENDROOT
BRANCH   1   3
HETATM    3  S1  UNL     1      12.920 -13.269 -20.971  1.00  0.00     0.303 S 
HETATM    4  O3  UNL     1      11.782 -12.618 -21.626  1.00  0.00    -0.188 OA
HETATM    5  O4  UNL     1      13.455 -12.334 -19.872  1.00  0.00    -0.188 OA
BRANCH   3   6
HETATM    6  N3  UNL     1      14.165 -13.609 -22.104  1.00  0.00    -0.180 NA
HETATM    7  C6  UNL     1      14.259 -14.954 -22.438  1.00  0.00     0.168 C 
HETATM    8  C7  UNL     1      15.725 -15.338 -22.162  1.00  0.00     0.032 C 
HETATM    9  C8  UNL     1      16.131 -14.354 -21.107  1.00  0.00     0.018 C 
HETATM   10  C9  UNL     1      15.457 -13.111 -21.658  1.00  0.00     0.110 C 
BRANCH   7  11
HETATM   11  C5  UNL     1      13.924 -15.308 -23.852  1.00  0.00     0.241 C 
HETATM   12  N2  UNL     1      13.545 -16.683 -24.118  1.00  0.00    -0.325 N 
HETATM   13  C3  UNL     1      14.182 -17.517 -24.827  1.00  0.00     0.080 C 
ATOM     14  H2  UNL     1      12.679 -17.011 -23.690  1.00  0.00     0.169 HD
HETATM   15  O2  UNL     1      13.981 -14.462 -24.727  1.00  0.00    -0.271 OA
BRANCH  13  16
HETATM   16  C2  UNL     1      13.605 -18.889 -24.952  1.00  0.00     0.232 C 
HETATM   17  C1  UNL     1      14.246 -19.756 -23.873  1.00  0.00     0.046 C 
BRANCH  16  18
HETATM   18  N1  UNL     1      14.004 -19.435 -26.213  1.00  0.00    -0.070 N 
ATOM     19  H13 UNL     1      14.053 -20.454 -26.212  1.00  0.00     0.275 HD
ATOM     20  H12 UNL     1      13.290 -19.341 -26.936  1.00  0.00     0.275 HD
ATOM     21  H11 UNL     1      14.888 -18.990 -26.461  1.00  0.00     0.275 HD
ENDBRANCH  16  18
ENDBRANCH  13  16
BRANCH  13  22
HETATM   22  C4  UNL     1      15.425 -17.270 -25.538  1.00  0.00     0.285 C 
HETATM   23  O1  UNL     1      15.571 -17.003 -26.725  1.00  0.00    -0.300 OA
ENDBRANCH  13  22
ENDBRANCH   7  11
ENDBRANCH   3   6
ENDBRANCH   1   3
BRANCH   1  24
HETATM   24  C10 UNL     1      11.537 -14.330 -19.075  1.00  0.00     0.156 C 
HETATM   25  C11 UNL     1      10.207 -14.750 -19.071  1.00  0.00     0.153 C 
BRANCH  25  26
HETATM   26  O5  UNL     1       9.404 -14.173 -18.127  1.00  0.00    -0.345 OA
ATOM     27  H5  UNL     1       8.479 -14.382 -18.187  1.00  0.00     0.219 HD
ENDBRANCH  25  26
BRANCH  25  28
HETATM   28  N5  UNL     1       9.456 -15.654 -19.813  1.00  0.00    -0.353 N 
ATOM     29  H5  UNL     1       8.541 -15.982 -19.505  1.00  0.00     0.162 HD
BRANCH  28  30
HETATM   30  C12 UNL     1      10.060 -16.107 -21.064  1.00  0.00     0.232 C 
BRANCH  30  31
HETATM   31  C13 UNL     1       9.512 -17.445 -21.385  1.00  0.00     0.251 C 
HETATM   32  O6  UNL     1       9.399 -17.844 -22.555  1.00  0.00    -0.271 OA
HETATM   33  N6  UNL     1       9.102 -18.269 -20.265  1.00  0.00    -0.303 N 
ATOM     34  H6  UNL     1       9.158 -17.919 -19.308  1.00  0.00     0.171 HD
BRANCH  33  35
HETATM   35  C14 UNL     1       8.625 -19.565 -20.534  1.00  0.00     0.355 C 
HETATM   36  O7  UNL     1       7.401 -19.812 -20.253  1.00  0.00    -0.283 OA
ENDBRANCH  33  35
ENDBRANCH  30  31
BRANCH  30  37
HETATM   37  C15 UNL     1       9.532 -15.146 -22.126  1.00  0.00     0.348 C 
BRANCH  37  38
HETATM   38  N7  UNL     1       8.999 -13.946 -21.626  1.00  0.00    -0.051 N 
ATOM     39  H73 UNL     1       8.709 -14.066 -20.656  1.00  0.00     0.277 HD
ATOM     40  H72 UNL     1       9.739 -13.255 -21.506  1.00  0.00     0.277 HD
ATOM     41  H71 UNL     1       8.235 -13.553 -22.176  1.00  0.00     0.277 HD
ENDBRANCH  37  38
BRANCH  37  42
HETATM   42  O8  UNL     1      10.488 -14.945 -23.117  1.00  0.00    -0.368 OA
ATOM     43  H8  UNL     1      10.593 -15.730 -23.641  1.00  0.00     0.212 HD
ENDBRANCH  37  42
ENDBRANCH  30  37
ENDBRANCH  28  30
ENDBRANCH  25  28
ENDBRANCH   1  24
TORSDOF 15
ENDMDL
