MODEL 1
REMARK VINA RESULT: -8.397282280      0.000      0.000
REMARK  14 active torsions:
REMARK  status: ('A' for Active; 'I' for Inactive)
REMARK    1  A    between atoms: C2_2  and  C3_4 
REMARK    2  A    between atoms: C3_4  and  N1_5 
REMARK    3  A    between atoms: C3_4  and  C18_41 
REMARK       I    between atoms: N1_5  and  C4_7 
REMARK    4  A    between atoms: C4_7  and  C5_9 
REMARK    5  A    between atoms: C5_9  and  C6_11 
REMARK    6  A    between atoms: C6_11  and  N2_12 
REMARK    7  A    between atoms: C6_11  and  C7_16 
REMARK    8  A    between atoms: C7_16  and  N3_17 
REMARK    9  A    between atoms: C7_16  and  C11_27 
REMARK       I    between atoms: N3_17  and  C8_19 
REMARK   10  A    between atoms: C8_19  and  C9_21 
REMARK   11  A    between atoms: C9_21  and  C10_22 
REMARK   12  A    between atoms: C10_22  and  N4_23 
REMARK   13  A    between atoms: C11_27  and  O6_29 
REMARK   14  A    between atoms: O6_29  and  C12_30 
REMARK       I    between atoms: N5_34  and  C16_35 
ROOT
HETATM    1  C7  UNL     1      14.995 -13.928 -23.700  1.00  0.00     0.222 C 
ENDROOT
BRANCH   1   2
HETATM    2  C6  UNL     1      14.375 -13.467 -22.399  1.00  0.00     0.294 C 
BRANCH   2   3
HETATM    3  C5  UNL     1      14.189 -14.555 -21.442  1.00  0.00     0.249 C 
HETATM    4  O3  UNL     1      15.187 -15.290 -21.128  1.00  0.00    -0.285 OA
BRANCH   3   5
HETATM    5  C4  UNL     1      12.901 -14.815 -20.844  1.00  0.00     0.290 C 
HETATM    6  N1  UNL     1      11.837 -15.350 -21.613  1.00  0.00    -0.335 N 
ATOM      7  H1  UNL     1      12.005 -15.546 -22.600  1.00  0.00     0.164 HD
HETATM    8  O2  UNL     1      12.689 -14.580 -19.643  1.00  0.00    -0.264 OA
BRANCH   6   9
HETATM    9  C3  UNL     1      10.527 -15.631 -21.069  1.00  0.00     0.243 C 
BRANCH   9  10
HETATM   10  C2  UNL     1       9.894 -16.800 -21.709  1.00  0.00     0.154 C 
HETATM   11  C1  UNL     1       9.170 -17.771 -20.846  1.00  0.00     0.093 C 
HETATM   12  O1  UNL     1       9.934 -17.007 -22.909  1.00  0.00    -0.296 OA
ENDBRANCH   9  10
BRANCH   9  13
HETATM   13  C18 UNL     1       9.673 -14.451 -21.272  1.00  0.00     0.261 C 
HETATM   14  N8  UNL     1       8.343 -14.441 -20.801  1.00  0.00    -0.060 NA
HETATM   15  O7  UNL     1      10.120 -13.450 -21.864  1.00  0.00    -0.274 OA
ENDBRANCH   9  13
ENDBRANCH   6   9
ENDBRANCH   3   5
ENDBRANCH   2   3
BRANCH   2  16
HETATM   16  N2  UNL     1      13.192 -12.715 -22.600  1.00  0.00    -0.065 N 
ATOM     17  H23 UNL     1      12.521 -13.231 -23.169  1.00  0.00     0.275 HD
ATOM     18  H22 UNL     1      12.653 -12.641 -21.738  1.00  0.00     0.275 HD
ATOM     19  H21 UNL     1      13.379 -11.793 -22.997  1.00  0.00     0.275 HD
ENDBRANCH   2  16
ENDBRANCH   1   2
BRANCH   1  20
HETATM   20  N3  UNL     1      14.372 -15.119 -24.214  1.00  0.00    -0.345 N 
HETATM   21  C8  UNL     1      15.096 -16.338 -24.382  1.00  0.00     0.220 C 
HETATM   22  O4  UNL     1      16.329 -16.417 -24.079  1.00  0.00    -0.274 OA
ATOM     23  H3  UNL     1      13.385 -15.092 -24.467  1.00  0.00     0.163 HD
BRANCH  21  24
HETATM   24  C9  UNL     1      14.473 -17.569 -24.907  1.00  0.00     0.130 C 
BRANCH  24  25
HETATM   25  C10 UNL     1      13.872 -18.417 -23.834  1.00  0.00     0.238 C 
BRANCH  25  26
HETATM   26  N4  UNL     1      12.434 -18.311 -23.764  1.00  0.00    -0.079 N 
ATOM     27  H43 UNL     1      12.148 -17.343 -23.618  1.00  0.00     0.274 HD
ATOM     28  H42 UNL     1      12.013 -18.474 -24.678  1.00  0.00     0.274 HD
ATOM     29  H41 UNL     1      12.020 -18.922 -23.060  1.00  0.00     0.274 HD
ENDBRANCH  25  26
ENDBRANCH  24  25
ENDBRANCH  21  24
ENDBRANCH   1  20
BRANCH   1  30
HETATM   30  C11 UNL     1      14.937 -12.829 -24.702  1.00  0.00     0.284 C 
HETATM   31  O5  UNL     1      15.032 -11.614 -24.384  1.00  0.00    -0.263 OA
BRANCH  30  32
HETATM   32  O6  UNL     1      14.775 -13.073 -26.049  1.00  0.00    -0.313 OA
BRANCH  32  33
HETATM   33  C12 UNL     1      15.697 -12.761 -27.055  1.00  0.00     0.150 C 
HETATM   34  C13 UNL     1      15.302 -11.527 -27.842  1.00  0.00     0.036 C 
HETATM   35  C14 UNL     1      16.616 -10.977 -28.415  1.00  0.00     0.022 C 
HETATM   36  C15 UNL     1      17.328 -12.054 -29.203  1.00  0.00     0.125 C 
HETATM   37  N5  UNL     1      16.628 -13.314 -29.183  1.00  0.00    -0.353 N 
HETATM   38  C16 UNL     1      16.550 -14.080 -30.393  1.00  0.00     0.184 C 
HETATM   39  C17 UNL     1      15.990 -13.864 -28.005  1.00  0.00     0.158 C 
HETATM   40  N6  UNL     1      15.939 -13.589 -31.416  1.00  0.00    -0.374 N 
HETATM   41  N7  UNL     1      17.136 -15.384 -30.495  1.00  0.00    -0.064 NA
ATOM     42  H62 UNL     1      15.523 -12.660 -31.342  1.00  0.00     0.158 HD
ATOM     43  H61 UNL     1      15.884 -14.133 -32.276  1.00  0.00     0.158 HD
ENDBRANCH  32  33
ENDBRANCH  30  32
ENDBRANCH   1  30
TORSDOF 14
ENDMDL
MODEL 2
REMARK VINA RESULT: -8.273350071      2.094      4.157
REMARK  14 active torsions:
REMARK  status: ('A' for Active; 'I' for Inactive)
REMARK    1  A    between atoms: C2_2  and  C3_4 
REMARK    2  A    between atoms: C3_4  and  N1_5 
REMARK    3  A    between atoms: C3_4  and  C18_41 
REMARK       I    between atoms: N1_5  and  C4_7 
REMARK    4  A    between atoms: C4_7  and  C5_9 
REMARK    5  A    between atoms: C5_9  and  C6_11 
REMARK    6  A    between atoms: C6_11  and  N2_12 
REMARK    7  A    between atoms: C6_11  and  C7_16 
REMARK    8  A    between atoms: C7_16  and  N3_17 
REMARK    9  A    between atoms: C7_16  and  C11_27 
REMARK       I    between atoms: N3_17  and  C8_19 
REMARK   10  A    between atoms: C8_19  and  C9_21 
REMARK   11  A    between atoms: C9_21  and  C10_22 
REMARK   12  A    between atoms: C10_22  and  N4_23 
REMARK   13  A    between atoms: C11_27  and  O6_29 
REMARK   14  A    between atoms: O6_29  and  C12_30 
REMARK       I    between atoms: N5_34  and  C16_35 
ROOT
HETATM    1  C7  UNL     1      15.036 -16.390 -24.626  1.00  0.00     0.222 C 
ENDROOT
BRANCH   1   2
HETATM    2  C6  UNL     1      15.303 -16.951 -23.246  1.00  0.00     0.294 C 
BRANCH   2   3
HETATM    3  C5  UNL     1      14.841 -16.069 -22.176  1.00  0.00     0.249 C 
HETATM    4  O3  UNL     1      15.700 -15.447 -21.462  1.00  0.00    -0.285 OA
BRANCH   3   5
HETATM    5  C4  UNL     1      13.433 -15.888 -21.910  1.00  0.00     0.290 C 
HETATM    6  N1  UNL     1      12.987 -14.891 -21.006  1.00  0.00    -0.335 N 
ATOM      7  H1  UNL     1      13.686 -14.306 -20.547  1.00  0.00     0.164 HD
HETATM    8  O2  UNL     1      12.576 -16.596 -22.464  1.00  0.00    -0.264 OA
BRANCH   6   9
HETATM    9  C3  UNL     1      11.592 -14.664 -20.700  1.00  0.00     0.243 C 
BRANCH   9  10
HETATM   10  C2  UNL     1      11.043 -13.501 -21.423  1.00  0.00     0.154 C 
HETATM   11  C1  UNL     1       9.638 -13.571 -21.906  1.00  0.00     0.093 C 
HETATM   12  O1  UNL     1      11.683 -12.488 -21.643  1.00  0.00    -0.296 OA
ENDBRANCH   9  10
BRANCH   9  13
HETATM   13  C18 UNL     1      11.461 -14.434 -19.253  1.00  0.00     0.261 C 
HETATM   14  N8  UNL     1      10.332 -14.907 -18.553  1.00  0.00    -0.060 NA
HETATM   15  O7  UNL     1      12.351 -13.817 -18.635  1.00  0.00    -0.274 OA
ENDBRANCH   9  13
ENDBRANCH   6   9
ENDBRANCH   3   5
ENDBRANCH   2   3
BRANCH   2  16
HETATM   16  N2  UNL     1      16.651 -17.349 -23.074  1.00  0.00    -0.065 N 
ATOM     17  H23 UNL     1      17.159 -16.684 -22.491  1.00  0.00     0.275 HD
ATOM     18  H22 UNL     1      16.718 -18.174 -22.478  1.00  0.00     0.275 HD
ATOM     19  H21 UNL     1      17.130 -17.498 -23.963  1.00  0.00     0.275 HD
ENDBRANCH   2  16
ENDBRANCH   1   2
BRANCH   1  20
HETATM   20  N3  UNL     1      15.571 -15.064 -24.793  1.00  0.00    -0.345 N 
HETATM   21  C8  UNL     1      14.806 -14.011 -25.378  1.00  0.00     0.220 C 
HETATM   22  O4  UNL     1      13.614 -14.206 -25.776  1.00  0.00    -0.274 OA
ATOM     23  H3  UNL     1      16.523 -14.871 -24.484  1.00  0.00     0.163 HD
BRANCH  21  24
HETATM   24  C9  UNL     1      15.337 -12.644 -25.557  1.00  0.00     0.130 C 
BRANCH  24  25
HETATM   25  C10 UNL     1      14.677 -11.908 -26.678  1.00  0.00     0.238 C 
BRANCH  25  26
HETATM   26  N4  UNL     1      15.602 -11.135 -27.473  1.00  0.00    -0.079 N 
ATOM     27  H43 UNL     1      16.237 -10.605 -26.877  1.00  0.00     0.274 HD
ATOM     28  H42 UNL     1      16.275 -11.743 -27.938  1.00  0.00     0.274 HD
ATOM     29  H41 UNL     1      15.139 -10.524 -28.145  1.00  0.00     0.274 HD
ENDBRANCH  25  26
ENDBRANCH  24  25
ENDBRANCH  21  24
ENDBRANCH   1  20
BRANCH   1  30
HETATM   30  C11 UNL     1      15.584 -17.312 -25.657  1.00  0.00     0.284 C 
HETATM   31  O5  UNL     1      15.227 -18.516 -25.752  1.00  0.00    -0.263 OA
BRANCH  30  32
HETATM   32  O6  UNL     1      16.525 -16.904 -26.580  1.00  0.00    -0.313 OA
BRANCH  32  33
HETATM   33  C12 UNL     1      16.283 -16.641 -27.933  1.00  0.00     0.150 C 
HETATM   34  C13 UNL     1      17.218 -17.403 -28.849  1.00  0.00     0.036 C 
HETATM   35  C14 UNL     1      16.470 -17.515 -30.186  1.00  0.00     0.022 C 
HETATM   36  C15 UNL     1      16.064 -16.141 -30.667  1.00  0.00     0.125 C 
HETATM   37  N5  UNL     1      16.435 -15.095 -29.747  1.00  0.00    -0.353 N 
HETATM   38  C16 UNL     1      16.963 -13.869 -30.271  1.00  0.00     0.184 C 
HETATM   39  C17 UNL     1      16.309 -15.204 -28.308  1.00  0.00     0.158 C 
HETATM   40  N6  UNL     1      18.070 -13.886 -30.930  1.00  0.00    -0.374 N 
HETATM   41  N7  UNL     1      16.288 -12.618 -30.081  1.00  0.00    -0.064 NA
ATOM     42  H62 UNL     1      18.550 -14.776 -31.065  1.00  0.00     0.158 HD
ATOM     43  H61 UNL     1      18.445 -13.014 -31.302  1.00  0.00     0.158 HD
ENDBRANCH  32  33
ENDBRANCH  30  32
ENDBRANCH   1  30
TORSDOF 14
ENDMDL
MODEL 3
REMARK VINA RESULT: -8.227339847      2.084      3.967
REMARK  14 active torsions:
REMARK  status: ('A' for Active; 'I' for Inactive)
REMARK    1  A    between atoms: C2_2  and  C3_4 
REMARK    2  A    between atoms: C3_4  and  N1_5 
REMARK    3  A    between atoms: C3_4  and  C18_41 
REMARK       I    between atoms: N1_5  and  C4_7 
REMARK    4  A    between atoms: C4_7  and  C5_9 
REMARK    5  A    between atoms: C5_9  and  C6_11 
REMARK    6  A    between atoms: C6_11  and  N2_12 
REMARK    7  A    between atoms: C6_11  and  C7_16 
REMARK    8  A    between atoms: C7_16  and  N3_17 
REMARK    9  A    between atoms: C7_16  and  C11_27 
REMARK       I    between atoms: N3_17  and  C8_19 
REMARK   10  A    between atoms: C8_19  and  C9_21 
REMARK   11  A    between atoms: C9_21  and  C10_22 
REMARK   12  A    between atoms: C10_22  and  N4_23 
REMARK   13  A    between atoms: C11_27  and  O6_29 
REMARK   14  A    between atoms: O6_29  and  C12_30 
REMARK       I    between atoms: N5_34  and  C16_35 
ROOT
HETATM    1  C7  UNL     1      15.028 -16.629 -24.765  1.00  0.00     0.222 C 
ENDROOT
BRANCH   1   2
HETATM    2  C6  UNL     1      15.438 -16.871 -23.329  1.00  0.00     0.294 C 
BRANCH   2   3
HETATM    3  C5  UNL     1      15.265 -15.692 -22.483  1.00  0.00     0.249 C 
HETATM    4  O3  UNL     1      16.165 -14.783 -22.485  1.00  0.00    -0.285 OA
BRANCH   3   5
HETATM    5  C4  UNL     1      14.099 -15.534 -21.647  1.00  0.00     0.290 C 
HETATM    6  N1  UNL     1      12.828 -15.269 -22.215  1.00  0.00    -0.335 N 
ATOM      7  H1  UNL     1      12.757 -15.192 -23.230  1.00  0.00     0.164 HD
HETATM    8  O2  UNL     1      14.176 -15.626 -20.411  1.00  0.00    -0.264 OA
BRANCH   6   9
HETATM    9  C3  UNL     1      11.626 -15.101 -21.429  1.00  0.00     0.243 C 
BRANCH   9  10
HETATM   10  C2  UNL     1      10.534 -15.985 -21.878  1.00  0.00     0.154 C 
HETATM   11  C1  UNL     1       9.534 -16.436 -20.875  1.00  0.00     0.093 C 
HETATM   12  O1  UNL     1      10.411 -16.362 -23.030  1.00  0.00    -0.296 OA
ENDBRANCH   9  10
BRANCH   9  13
HETATM   13  C18 UNL     1      11.186 -13.701 -21.539  1.00  0.00     0.261 C 
HETATM   14  N8  UNL     1      12.095 -12.646 -21.313  1.00  0.00    -0.060 NA
HETATM   15  O7  UNL     1      10.003 -13.439 -21.832  1.00  0.00    -0.274 OA
ENDBRANCH   9  13
ENDBRANCH   6   9
ENDBRANCH   3   5
ENDBRANCH   2   3
BRANCH   2  16
HETATM   16  N2  UNL     1      16.736 -17.428 -23.223  1.00  0.00    -0.065 N 
ATOM     17  H23 UNL     1      17.317 -16.885 -22.585  1.00  0.00     0.275 HD
ATOM     18  H22 UNL     1      16.716 -18.312 -22.714  1.00  0.00     0.275 HD
ATOM     19  H21 UNL     1      17.189 -17.536 -24.131  1.00  0.00     0.275 HD
ENDBRANCH   2  16
ENDBRANCH   1   2
BRANCH   1  20
HETATM   20  N3  UNL     1      15.463 -15.347 -25.253  1.00  0.00    -0.345 N 
HETATM   21  C8  UNL     1      14.547 -14.278 -25.488  1.00  0.00     0.220 C 
HETATM   22  O4  UNL     1      13.301 -14.420 -25.272  1.00  0.00    -0.274 OA
ATOM     23  H3  UNL     1      16.455 -15.197 -25.436  1.00  0.00     0.163 HD
BRANCH  21  24
HETATM   24  C9  UNL     1      14.976 -12.956 -25.987  1.00  0.00     0.130 C 
BRANCH  24  25
HETATM   25  C10 UNL     1      14.992 -11.911 -24.919  1.00  0.00     0.238 C 
BRANCH  25  26
HETATM   26  N4  UNL     1      14.351 -12.337 -23.697  1.00  0.00    -0.079 N 
ATOM     27  H43 UNL     1      13.338 -12.238 -23.766  1.00  0.00     0.274 HD
ATOM     28  H42 UNL     1      14.414 -13.349 -23.589  1.00  0.00     0.274 HD
ATOM     29  H41 UNL     1      14.708 -11.860 -22.870  1.00  0.00     0.274 HD
ENDBRANCH  25  26
ENDBRANCH  24  25
ENDBRANCH  21  24
ENDBRANCH   1  20
BRANCH   1  30
HETATM   30  C11 UNL     1      15.549 -17.724 -25.628  1.00  0.00     0.284 C 
HETATM   31  O5  UNL     1      15.068 -18.889 -25.613  1.00  0.00    -0.263 OA
BRANCH  30  32
HETATM   32  O6  UNL     1      16.597 -17.533 -26.503  1.00  0.00    -0.313 OA
BRANCH  32  33
HETATM   33  C12 UNL     1      16.499 -17.483 -27.898  1.00  0.00     0.150 C 
HETATM   34  C13 UNL     1      17.685 -18.129 -28.587  1.00  0.00     0.036 C 
HETATM   35  C14 UNL     1      17.168 -18.550 -29.970  1.00  0.00     0.022 C 
HETATM   36  C15 UNL     1      16.570 -17.357 -30.683  1.00  0.00     0.125 C 
HETATM   37  N5  UNL     1      16.597 -16.158 -29.883  1.00  0.00    -0.353 N 
HETATM   38  C16 UNL     1      16.941 -14.916 -30.511  1.00  0.00     0.184 C 
HETATM   39  C17 UNL     1      16.294 -16.126 -28.467  1.00  0.00     0.158 C 
HETATM   40  N6  UNL     1      18.111 -14.772 -31.031  1.00  0.00    -0.374 N 
HETATM   41  N7  UNL     1      16.014 -13.825 -30.576  1.00  0.00    -0.064 NA
ATOM     42  H62 UNL     1      18.770 -15.549 -30.985  1.00  0.00     0.158 HD
ATOM     43  H61 UNL     1      18.356 -13.889 -31.478  1.00  0.00     0.158 HD
ENDBRANCH  32  33
ENDBRANCH  30  32
ENDBRANCH   1  30
TORSDOF 14
ENDMDL
MODEL 4
REMARK VINA RESULT: -8.150602356      1.875      4.055
REMARK  14 active torsions:
REMARK  status: ('A' for Active; 'I' for Inactive)
REMARK    1  A    between atoms: C2_2  and  C3_4 
REMARK    2  A    between atoms: C3_4  and  N1_5 
REMARK    3  A    between atoms: C3_4  and  C18_41 
REMARK       I    between atoms: N1_5  and  C4_7 
REMARK    4  A    between atoms: C4_7  and  C5_9 
REMARK    5  A    between atoms: C5_9  and  C6_11 
REMARK    6  A    between atoms: C6_11  and  N2_12 
REMARK    7  A    between atoms: C6_11  and  C7_16 
REMARK    8  A    between atoms: C7_16  and  N3_17 
REMARK    9  A    between atoms: C7_16  and  C11_27 
REMARK       I    between atoms: N3_17  and  C8_19 
REMARK   10  A    between atoms: C8_19  and  C9_21 
REMARK   11  A    between atoms: C9_21  and  C10_22 
REMARK   12  A    between atoms: C10_22  and  N4_23 
REMARK   13  A    between atoms: C11_27  and  O6_29 
REMARK   14  A    between atoms: O6_29  and  C12_30 
REMARK       I    between atoms: N5_34  and  C16_35 
ROOT
HETATM    1  C7  UNL     1      14.953 -16.279 -24.609  1.00  0.00     0.222 C 
ENDROOT
BRANCH   1   2
HETATM    2  C6  UNL     1      15.164 -16.807 -23.207  1.00  0.00     0.294 C 
BRANCH   2   3
HETATM    3  C5  UNL     1      14.657 -15.902 -22.177  1.00  0.00     0.249 C 
HETATM    4  O3  UNL     1      15.365 -15.680 -21.135  1.00  0.00    -0.285 OA
BRANCH   3   5
HETATM    5  C4  UNL     1      13.374 -15.255 -22.314  1.00  0.00     0.290 C 
HETATM    6  N1  UNL     1      12.171 -15.975 -22.106  1.00  0.00    -0.335 N 
ATOM      7  H1  UNL     1      12.234 -16.962 -21.858  1.00  0.00     0.164 HD
HETATM    8  O2  UNL     1      13.288 -14.053 -22.616  1.00  0.00    -0.264 OA
BRANCH   6   9
HETATM    9  C3  UNL     1      10.858 -15.380 -22.229  1.00  0.00     0.243 C 
BRANCH   9  10
HETATM   10  C2  UNL     1      10.654 -14.273 -21.275  1.00  0.00     0.154 C 
HETATM   11  C1  UNL     1      11.076 -14.473 -19.863  1.00  0.00     0.093 C 
HETATM   12  O1  UNL     1      10.159 -13.205 -21.588  1.00  0.00    -0.296 OA
ENDBRANCH   9  10
BRANCH   9  13
HETATM   13  C18 UNL     1       9.847 -16.420 -21.980  1.00  0.00     0.261 C 
HETATM   14  N8  UNL     1       8.726 -16.148 -21.169  1.00  0.00    -0.060 NA
HETATM   15  O7  UNL     1       9.977 -17.551 -22.487  1.00  0.00    -0.274 OA
ENDBRANCH   9  13
ENDBRANCH   6   9
ENDBRANCH   3   5
ENDBRANCH   2   3
BRANCH   2  16
HETATM   16  N2  UNL     1      16.504 -17.198 -22.972  1.00  0.00    -0.065 N 
ATOM     17  H23 UNL     1      17.090 -17.010 -23.785  1.00  0.00     0.275 HD
ATOM     18  H22 UNL     1      16.955 -16.578 -22.299  1.00  0.00     0.275 HD
ATOM     19  H21 UNL     1      16.581 -18.173 -22.681  1.00  0.00     0.275 HD
ENDBRANCH   2  16
ENDBRANCH   1   2
BRANCH   1  20
HETATM   20  N3  UNL     1      15.527 -14.972 -24.797  1.00  0.00    -0.345 N 
HETATM   21  C8  UNL     1      14.823 -13.929 -25.470  1.00  0.00     0.220 C 
HETATM   22  O4  UNL     1      13.653 -14.115 -25.931  1.00  0.00    -0.274 OA
ATOM     23  H3  UNL     1      16.463 -14.787 -24.439  1.00  0.00     0.163 HD
BRANCH  21  24
HETATM   24  C9  UNL     1      15.397 -12.582 -25.670  1.00  0.00     0.130 C 
BRANCH  24  25
HETATM   25  C10 UNL     1      14.734 -11.830 -26.779  1.00  0.00     0.238 C 
BRANCH  25  26
HETATM   26  N4  UNL     1      15.664 -11.094 -27.601  1.00  0.00    -0.079 N 
ATOM     27  H43 UNL     1      15.429 -10.101 -27.615  1.00  0.00     0.274 HD
ATOM     28  H42 UNL     1      16.580 -11.043 -27.156  1.00  0.00     0.274 HD
ATOM     29  H41 UNL     1      15.741 -11.462 -28.549  1.00  0.00     0.274 HD
ENDBRANCH  25  26
ENDBRANCH  24  25
ENDBRANCH  21  24
ENDBRANCH   1  20
BRANCH   1  30
HETATM   30  C11 UNL     1      15.506 -17.244 -25.598  1.00  0.00     0.284 C 
HETATM   31  O5  UNL     1      15.129 -18.444 -25.661  1.00  0.00    -0.263 OA
BRANCH  30  32
HETATM   32  O6  UNL     1      16.473 -16.883 -26.512  1.00  0.00    -0.313 OA
BRANCH  32  33
HETATM   33  C12 UNL     1      16.270 -16.685 -27.883  1.00  0.00     0.150 C 
HETATM   34  C13 UNL     1      17.254 -17.461 -28.734  1.00  0.00     0.036 C 
HETATM   35  C14 UNL     1      16.554 -17.651 -30.088  1.00  0.00     0.022 C 
HETATM   36  C15 UNL     1      16.129 -16.309 -30.642  1.00  0.00     0.125 C 
HETATM   37  N5  UNL     1      16.443 -15.215 -29.758  1.00  0.00    -0.353 N 
HETATM   38  C16 UNL     1      16.957 -14.000 -30.318  1.00  0.00     0.184 C 
HETATM   39  C17 UNL     1      16.272 -15.265 -28.320  1.00  0.00     0.158 C 
HETATM   40  N6  UNL     1      18.085 -14.015 -30.939  1.00  0.00    -0.374 N 
HETATM   41  N7  UNL     1      16.244 -12.760 -30.205  1.00  0.00    -0.064 NA
ATOM     42  H62 UNL     1      18.592 -14.897 -31.020  1.00  0.00     0.158 HD
ATOM     43  H61 UNL     1      18.451 -13.151 -31.338  1.00  0.00     0.158 HD
ENDBRANCH  32  33
ENDBRANCH  30  32
ENDBRANCH   1  30
TORSDOF 14
ENDMDL
MODEL 5
REMARK VINA RESULT: -8.064870781      3.540      4.867
REMARK  14 active torsions:
REMARK  status: ('A' for Active; 'I' for Inactive)
REMARK    1  A    between atoms: C2_2  and  C3_4 
REMARK    2  A    between atoms: C3_4  and  N1_5 
REMARK    3  A    between atoms: C3_4  and  C18_41 
REMARK       I    between atoms: N1_5  and  C4_7 
REMARK    4  A    between atoms: C4_7  and  C5_9 
REMARK    5  A    between atoms: C5_9  and  C6_11 
REMARK    6  A    between atoms: C6_11  and  N2_12 
REMARK    7  A    between atoms: C6_11  and  C7_16 
REMARK    8  A    between atoms: C7_16  and  N3_17 
REMARK    9  A    between atoms: C7_16  and  C11_27 
REMARK       I    between atoms: N3_17  and  C8_19 
REMARK   10  A    between atoms: C8_19  and  C9_21 
REMARK   11  A    between atoms: C9_21  and  C10_22 
REMARK   12  A    between atoms: C10_22  and  N4_23 
REMARK   13  A    between atoms: C11_27  and  O6_29 
REMARK   14  A    between atoms: O6_29  and  C12_30 
REMARK       I    between atoms: N5_34  and  C16_35 
ROOT
HETATM    1  C7  UNL     1      13.449 -14.237 -21.727  1.00  0.00     0.222 C 
ENDROOT
BRANCH   1   2
HETATM    2  C6  UNL     1      12.362 -13.261 -21.335  1.00  0.00     0.294 C 
BRANCH   2   3
HETATM    3  C5  UNL     1      12.322 -13.004 -19.897  1.00  0.00     0.249 C 
HETATM    4  O3  UNL     1      11.646 -13.783 -19.140  1.00  0.00    -0.285 OA
BRANCH   3   5
HETATM    5  C4  UNL     1      13.030 -11.888 -19.315  1.00  0.00     0.290 C 
HETATM    6  N1  UNL     1      12.338 -10.717 -18.916  1.00  0.00    -0.335 N 
ATOM      7  H1  UNL     1      11.328 -10.681 -19.051  1.00  0.00     0.164 HD
HETATM    8  O2  UNL     1      14.260 -11.923 -19.147  1.00  0.00    -0.264 OA
BRANCH   6   9
HETATM    9  C3  UNL     1      12.994  -9.569 -18.329  1.00  0.00     0.243 C 
BRANCH   9  10
HETATM   10  C2  UNL     1      13.008  -9.627 -16.855  1.00  0.00     0.154 C 
HETATM   11  C1  UNL     1      14.182  -9.060 -16.139  1.00  0.00     0.093 C 
HETATM   12  O1  UNL     1      12.106 -10.114 -16.197  1.00  0.00    -0.296 OA
ENDBRANCH   9  10
BRANCH   9  13
HETATM   13  C18 UNL     1      12.282  -8.354 -18.755  1.00  0.00     0.261 C 
HETATM   14  N8  UNL     1      12.922  -7.097 -18.709  1.00  0.00    -0.060 NA
HETATM   15  O7  UNL     1      11.106  -8.428 -19.161  1.00  0.00    -0.274 OA
ENDBRANCH   9  13
ENDBRANCH   6   9
ENDBRANCH   3   5
ENDBRANCH   2   3
BRANCH   2  16
HETATM   16  N2  UNL     1      11.095 -13.623 -21.855  1.00  0.00    -0.065 N 
ATOM     17  H23 UNL     1      10.986 -14.636 -21.884  1.00  0.00     0.275 HD
ATOM     18  H22 UNL     1      10.349 -13.397 -21.197  1.00  0.00     0.275 HD
ATOM     19  H21 UNL     1      10.916 -13.208 -22.770  1.00  0.00     0.275 HD
ENDBRANCH   2  16
ENDBRANCH   1   2
BRANCH   1  20
HETATM   20  N3  UNL     1      12.952 -15.316 -22.541  1.00  0.00    -0.345 N 
HETATM   21  C8  UNL     1      13.626 -16.571 -22.623  1.00  0.00     0.220 C 
HETATM   22  O4  UNL     1      14.698 -16.786 -21.975  1.00  0.00    -0.274 OA
ATOM     23  H3  UNL     1      12.094 -15.179 -23.075  1.00  0.00     0.163 HD
BRANCH  21  24
HETATM   24  C9  UNL     1      13.130 -17.689 -23.453  1.00  0.00     0.130 C 
BRANCH  24  25
HETATM   25  C10 UNL     1      14.229 -18.564 -23.961  1.00  0.00     0.238 C 
BRANCH  25  26
HETATM   26  N4  UNL     1      14.375 -19.788 -23.210  1.00  0.00    -0.079 N 
ATOM     27  H43 UNL     1      15.280 -19.820 -22.740  1.00  0.00     0.274 HD
ATOM     28  H42 UNL     1      13.763 -19.788 -22.394  1.00  0.00     0.274 HD
ATOM     29  H41 UNL     1      14.228 -20.625 -23.773  1.00  0.00     0.274 HD
ENDBRANCH  25  26
ENDBRANCH  24  25
ENDBRANCH  21  24
ENDBRANCH   1  20
BRANCH   1  30
HETATM   30  C11 UNL     1      14.546 -13.514 -22.425  1.00  0.00     0.284 C 
HETATM   31  O5  UNL     1      15.694 -13.373 -21.926  1.00  0.00    -0.263 OA
BRANCH  30  32
HETATM   32  O6  UNL     1      14.374 -12.946 -23.671  1.00  0.00    -0.313 OA
BRANCH  32  33
HETATM   33  C12 UNL     1      15.063 -13.305 -24.835  1.00  0.00     0.150 C 
HETATM   34  C13 UNL     1      14.300 -12.946 -26.095  1.00  0.00     0.036 C 
HETATM   35  C14 UNL     1      15.369 -12.807 -27.188  1.00  0.00     0.022 C 
HETATM   36  C15 UNL     1      16.197 -14.070 -27.264  1.00  0.00     0.125 C 
HETATM   37  N5  UNL     1      15.810 -15.052 -26.282  1.00  0.00    -0.353 N 
HETATM   38  C16 UNL     1      15.751 -16.431 -26.669  1.00  0.00     0.184 C 
HETATM   39  C17 UNL     1      15.472 -14.730 -24.911  1.00  0.00     0.158 C 
HETATM   40  N6  UNL     1      14.917 -16.798 -27.580  1.00  0.00    -0.374 N 
HETATM   41  N7  UNL     1      16.599 -17.417 -26.067  1.00  0.00    -0.064 NA
ATOM     42  H62 UNL     1      14.314 -16.096 -28.009  1.00  0.00     0.158 HD
ATOM     43  H61 UNL     1      14.875 -17.779 -27.856  1.00  0.00     0.158 HD
ENDBRANCH  32  33
ENDBRANCH  30  32
ENDBRANCH   1  30
TORSDOF 14
ENDMDL
