MODEL 1
REMARK VINA RESULT: -9.140031637      0.000      0.000
REMARK  14 active torsions:
REMARK  status: ('A' for Active; 'I' for Inactive)
REMARK    1  A    between atoms: C2_2  and  C4_4 
REMARK    2  A    between atoms: C4_4  and  C5_5 
REMARK    3  A    between atoms: C4_4  and  N7_36 
REMARK       I    between atoms: C5_5  and  N1_7 
REMARK    4  A    between atoms: N1_7  and  C6_9 
REMARK    5  A    between atoms: C6_9  and  C7_10 
REMARK    6  A    between atoms: C6_9  and  C10_16 
REMARK    7  A    between atoms: C10_16  and  N3_17 
REMARK    8  A    between atoms: C10_16  and  C11_21 
REMARK    9  A    between atoms: C11_21  and  N4_22 
REMARK   10  A    between atoms: C11_21  and  C12_26 
REMARK       I    between atoms: C12_26  and  N5_28 
REMARK   11  A    between atoms: N5_28  and  C13_30 
REMARK   12  A    between atoms: C13_30  and  C14_31 
REMARK   13  A    between atoms: C14_31  and  C15_33 
REMARK       I    between atoms: N7_36  and  C17_38 
REMARK   14  A    between atoms: C17_38  and  C18_40 
ROOT
HETATM    1  C6  UNL     1      11.070 -14.656 -21.859  1.00  0.00     0.124 C 
ENDROOT
BRANCH   1   2
HETATM    2  N1  UNL     1      12.011 -14.924 -23.004  1.00  0.00    -0.352 N 
HETATM    3  C5  UNL     1      13.262 -15.522 -22.816  1.00  0.00     0.241 C 
HETATM    4  O1  UNL     1      13.556 -15.831 -21.606  1.00  0.00    -0.271 OA
ATOM      5  H1  UNL     1      11.728 -14.660 -23.948  1.00  0.00     0.163 HD
BRANCH   3   6
HETATM    6  C4  UNL     1      14.177 -15.777 -23.930  1.00  0.00     0.182 C 
BRANCH   6   7
HETATM    7  C2  UNL     1      15.154 -14.708 -24.249  1.00  0.00     0.009 C 
HETATM    8  C1  UNL     1      15.036 -13.625 -23.194  1.00  0.00     0.012 C 
HETATM    9  C3  UNL     1      15.100 -14.092 -25.590  1.00  0.00     0.012 C 
ENDBRANCH   6   7
BRANCH   6  10
HETATM   10  N7  UNL     1      14.692 -17.119 -23.882  1.00  0.00    -0.335 N 
HETATM   11  C16 UNL     1      16.126 -17.381 -23.711  1.00  0.00     0.154 C 
HETATM   12  C17 UNL     1      13.858 -18.264 -24.020  1.00  0.00     0.309 C 
HETATM   13  O5  UNL     1      12.609 -18.015 -24.173  1.00  0.00    -0.263 OA
BRANCH  12  14
HETATM   14  C18 UNL     1      14.285 -19.615 -24.001  1.00  0.00     0.322 C 
HETATM   15  N8  UNL     1      14.464 -20.328 -25.245  1.00  0.00    -0.053 NA
HETATM   16  O6  UNL     1      14.532 -20.274 -22.976  1.00  0.00    -0.266 OA
ENDBRANCH  12  14
ENDBRANCH   6  10
ENDBRANCH   3   6
ENDBRANCH   1   2
BRANCH   1  17
HETATM   17  C7  UNL     1      10.730 -16.008 -21.403  1.00  0.00     0.062 C 
HETATM   18  C8  UNL     1       9.542 -16.334 -20.594  1.00  0.00     0.240 C 
HETATM   19  N2  UNL     1       9.194 -17.471 -21.476  1.00  0.00    -0.074 N 
HETATM   20  C9  UNL     1       9.938 -16.742 -22.502  1.00  0.00     0.240 C 
ATOM     21  H22 UNL     1       9.414 -18.436 -21.230  1.00  0.00     0.277 HD
ATOM     22  H21 UNL     1       8.230 -17.774 -21.617  1.00  0.00     0.277 HD
ENDBRANCH   1  17
BRANCH   1  23
HETATM   23  C10 UNL     1      11.810 -13.694 -21.069  1.00  0.00     0.246 C 
BRANCH  23  24
HETATM   24  N3  UNL     1      11.493 -12.339 -21.559  1.00  0.00    -0.071 N 
ATOM     25  H33 UNL     1      10.503 -12.221 -21.771  1.00  0.00     0.274 HD
ATOM     26  H32 UNL     1      11.564 -11.633 -20.826  1.00  0.00     0.274 HD
ATOM     27  H31 UNL     1      12.092 -12.134 -22.359  1.00  0.00     0.274 HD
ENDBRANCH  23  24
BRANCH  23  28
HETATM   28  C11 UNL     1      11.942 -13.650 -19.622  1.00  0.00     0.306 C 
BRANCH  28  29
HETATM   29  N4  UNL     1      10.680 -13.833 -18.899  1.00  0.00    -0.064 N 
ATOM     30  H43 UNL     1      10.167 -14.631 -19.274  1.00  0.00     0.275 HD
ATOM     31  H42 UNL     1      10.857 -14.170 -17.953  1.00  0.00     0.275 HD
ATOM     32  H41 UNL     1      10.086 -13.004 -18.878  1.00  0.00     0.275 HD
ENDBRANCH  28  29
BRANCH  28  33
HETATM   33  C12 UNL     1      12.673 -12.481 -19.044  1.00  0.00     0.250 C 
HETATM   34  O2  UNL     1      13.834 -12.183 -19.511  1.00  0.00    -0.271 OA
HETATM   35  N5  UNL     1      12.217 -11.642 -18.013  1.00  0.00    -0.352 N 
ATOM     36  H5  UNL     1      11.299 -11.819 -17.606  1.00  0.00     0.162 HD
BRANCH  35  37
HETATM   37  C13 UNL     1      12.997 -10.539 -17.509  1.00  0.00     0.211 C 
BRANCH  37  38
HETATM   38  C14 UNL     1      12.771  -9.255 -18.163  1.00  0.00     0.231 C 
HETATM   39  O3  UNL     1      11.761  -9.069 -18.875  1.00  0.00    -0.286 OA
BRANCH  38  40
HETATM   40  C15 UNL     1      13.713  -8.161 -18.002  1.00  0.00     0.302 C 
HETATM   41  N6  UNL     1      15.067  -8.364 -17.629  1.00  0.00    -0.054 NA
HETATM   42  O4  UNL     1      13.366  -6.955 -18.191  1.00  0.00    -0.268 OA
ENDBRANCH  38  40
ENDBRANCH  37  38
ENDBRANCH  35  37
ENDBRANCH  28  33
ENDBRANCH  23  28
ENDBRANCH   1  23
TORSDOF 14
ENDMDL
MODEL 2
REMARK VINA RESULT: -9.083965683      1.405      1.447
REMARK  14 active torsions:
REMARK  status: ('A' for Active; 'I' for Inactive)
REMARK    1  A    between atoms: C2_2  and  C4_4 
REMARK    2  A    between atoms: C4_4  and  C5_5 
REMARK    3  A    between atoms: C4_4  and  N7_36 
REMARK       I    between atoms: C5_5  and  N1_7 
REMARK    4  A    between atoms: N1_7  and  C6_9 
REMARK    5  A    between atoms: C6_9  and  C7_10 
REMARK    6  A    between atoms: C6_9  and  C10_16 
REMARK    7  A    between atoms: C10_16  and  N3_17 
REMARK    8  A    between atoms: C10_16  and  C11_21 
REMARK    9  A    between atoms: C11_21  and  N4_22 
REMARK   10  A    between atoms: C11_21  and  C12_26 
REMARK       I    between atoms: C12_26  and  N5_28 
REMARK   11  A    between atoms: N5_28  and  C13_30 
REMARK   12  A    between atoms: C13_30  and  C14_31 
REMARK   13  A    between atoms: C14_31  and  C15_33 
REMARK       I    between atoms: N7_36  and  C17_38 
REMARK   14  A    between atoms: C17_38  and  C18_40 
ROOT
HETATM    1  C6  UNL     1      11.121 -14.619 -21.829  1.00  0.00     0.124 C 
ENDROOT
BRANCH   1   2
HETATM    2  N1  UNL     1      11.983 -14.610 -23.064  1.00  0.00    -0.352 N 
HETATM    3  C5  UNL     1      13.370 -14.786 -23.005  1.00  0.00     0.241 C 
HETATM    4  O1  UNL     1      13.862 -14.958 -21.833  1.00  0.00    -0.271 OA
ATOM      5  H1  UNL     1      11.542 -14.470 -23.972  1.00  0.00     0.163 HD
BRANCH   3   6
HETATM    6  C4  UNL     1      14.207 -14.771 -24.206  1.00  0.00     0.182 C 
BRANCH   6   7
HETATM    7  C2  UNL     1      15.092 -13.596 -24.390  1.00  0.00     0.009 C 
HETATM    8  C1  UNL     1      15.069 -12.780 -23.112  1.00  0.00     0.012 C 
HETATM    9  C3  UNL     1      14.841 -12.707 -25.542  1.00  0.00     0.012 C 
ENDBRANCH   6   7
BRANCH   6  10
HETATM   10  N7  UNL     1      14.800 -16.061 -24.441  1.00  0.00    -0.335 N 
HETATM   11  C16 UNL     1      15.257 -16.903 -23.330  1.00  0.00     0.154 C 
HETATM   12  C17 UNL     1      15.002 -16.584 -25.748  1.00  0.00     0.309 C 
HETATM   13  O5  UNL     1      14.601 -15.832 -26.706  1.00  0.00    -0.263 OA
BRANCH  12  14
HETATM   14  C18 UNL     1      15.592 -17.833 -26.066  1.00  0.00     0.322 C 
HETATM   15  N8  UNL     1      14.781 -19.028 -26.077  1.00  0.00    -0.053 NA
HETATM   16  O6  UNL     1      16.791 -18.008 -26.347  1.00  0.00    -0.266 OA
ENDBRANCH  12  14
ENDBRANCH   6  10
ENDBRANCH   3   6
ENDBRANCH   1   2
BRANCH   1  17
HETATM   17  C7  UNL     1      11.035 -16.048 -21.511  1.00  0.00     0.062 C 
HETATM   18  C8  UNL     1       9.830 -16.705 -20.974  1.00  0.00     0.240 C 
HETATM   19  N2  UNL     1       9.935 -17.807 -21.958  1.00  0.00    -0.074 N 
HETATM   20  C9  UNL     1      10.661 -16.840 -22.778  1.00  0.00     0.240 C 
ATOM     21  H22 UNL     1      10.328 -18.716 -21.715  1.00  0.00     0.277 HD
ATOM     22  H21 UNL     1       9.114 -18.305 -22.305  1.00  0.00     0.277 HD
ENDBRANCH   1  17
BRANCH   1  23
HETATM   23  C10 UNL     1      11.775 -13.638 -20.988  1.00  0.00     0.246 C 
BRANCH  23  24
HETATM   24  N3  UNL     1      11.359 -12.291 -21.425  1.00  0.00    -0.071 N 
ATOM     25  H33 UNL     1      10.858 -11.781 -20.697  1.00  0.00     0.274 HD
ATOM     26  H32 UNL     1      12.147 -11.652 -21.526  1.00  0.00     0.274 HD
ATOM     27  H31 UNL     1      10.816 -12.381 -22.284  1.00  0.00     0.274 HD
ENDBRANCH  23  24
BRANCH  23  28
HETATM   28  C11 UNL     1      11.885 -13.645 -19.539  1.00  0.00     0.306 C 
BRANCH  28  29
HETATM   29  N4  UNL     1      10.619 -13.886 -18.841  1.00  0.00    -0.064 N 
ATOM     30  H43 UNL     1      10.496 -14.882 -18.660  1.00  0.00     0.275 HD
ATOM     31  H42 UNL     1      10.668 -13.540 -17.883  1.00  0.00     0.275 HD
ATOM     32  H41 UNL     1       9.801 -13.505 -19.318  1.00  0.00     0.275 HD
ENDBRANCH  28  29
BRANCH  28  33
HETATM   33  C12 UNL     1      12.581 -12.483 -18.906  1.00  0.00     0.250 C 
HETATM   34  O2  UNL     1      13.798 -12.232 -19.240  1.00  0.00    -0.271 OA
HETATM   35  N5  UNL     1      12.035 -11.603 -17.957  1.00  0.00    -0.352 N 
ATOM     36  H5  UNL     1      11.070 -11.743 -17.657  1.00  0.00     0.162 HD
BRANCH  35  37
HETATM   37  C13 UNL     1      12.785 -10.510 -17.390  1.00  0.00     0.211 C 
BRANCH  37  38
HETATM   38  C14 UNL     1      12.675  -9.238 -18.094  1.00  0.00     0.231 C 
HETATM   39  O3  UNL     1      11.696  -8.997 -18.834  1.00  0.00    -0.286 OA
BRANCH  38  40
HETATM   40  C15 UNL     1      13.700  -8.218 -17.954  1.00  0.00     0.302 C 
HETATM   41  N6  UNL     1      15.040  -8.520 -17.600  1.00  0.00    -0.054 NA
HETATM   42  O4  UNL     1      13.442  -6.990 -18.144  1.00  0.00    -0.268 OA
ENDBRANCH  38  40
ENDBRANCH  37  38
ENDBRANCH  35  37
ENDBRANCH  28  33
ENDBRANCH  23  28
ENDBRANCH   1  23
TORSDOF 14
ENDMDL
MODEL 3
REMARK VINA RESULT: -8.916867662      2.698      6.253
REMARK  14 active torsions:
REMARK  status: ('A' for Active; 'I' for Inactive)
REMARK    1  A    between atoms: C2_2  and  C4_4 
REMARK    2  A    between atoms: C4_4  and  C5_5 
REMARK    3  A    between atoms: C4_4  and  N7_36 
REMARK       I    between atoms: C5_5  and  N1_7 
REMARK    4  A    between atoms: N1_7  and  C6_9 
REMARK    5  A    between atoms: C6_9  and  C7_10 
REMARK    6  A    between atoms: C6_9  and  C10_16 
REMARK    7  A    between atoms: C10_16  and  N3_17 
REMARK    8  A    between atoms: C10_16  and  C11_21 
REMARK    9  A    between atoms: C11_21  and  N4_22 
REMARK   10  A    between atoms: C11_21  and  C12_26 
REMARK       I    between atoms: C12_26  and  N5_28 
REMARK   11  A    between atoms: N5_28  and  C13_30 
REMARK   12  A    between atoms: C13_30  and  C14_31 
REMARK   13  A    between atoms: C14_31  and  C15_33 
REMARK       I    between atoms: N7_36  and  C17_38 
REMARK   14  A    between atoms: C17_38  and  C18_40 
ROOT
HETATM    1  C6  UNL     1      12.440 -14.317 -20.177  1.00  0.00     0.124 C 
ENDROOT
BRANCH   1   2
HETATM    2  N1  UNL     1      12.757 -14.589 -21.624  1.00  0.00    -0.352 N 
HETATM    3  C5  UNL     1      13.850 -15.370 -22.014  1.00  0.00     0.241 C 
HETATM    4  O1  UNL     1      14.565 -15.844 -21.060  1.00  0.00    -0.271 OA
ATOM      5  H1  UNL     1      12.155 -14.189 -22.344  1.00  0.00     0.163 HD
BRANCH   3   6
HETATM    6  C4  UNL     1      14.159 -15.628 -23.421  1.00  0.00     0.182 C 
BRANCH   6   7
HETATM    7  C2  UNL     1      14.853 -14.547 -24.162  1.00  0.00     0.009 C 
HETATM    8  C1  UNL     1      14.812 -13.289 -23.317  1.00  0.00     0.012 C 
HETATM    9  C3  UNL     1      14.394 -14.233 -25.530  1.00  0.00     0.012 C 
ENDBRANCH   6   7
BRANCH   6  10
HETATM   10  N7  UNL     1      14.672 -16.960 -23.604  1.00  0.00    -0.335 N 
HETATM   11  C16 UNL     1      16.115 -17.222 -23.648  1.00  0.00     0.154 C 
HETATM   12  C17 UNL     1      13.825 -18.090 -23.776  1.00  0.00     0.309 C 
HETATM   13  O5  UNL     1      12.567 -17.841 -23.740  1.00  0.00    -0.263 OA
BRANCH  12  14
HETATM   14  C18 UNL     1      14.248 -19.428 -23.978  1.00  0.00     0.322 C 
HETATM   15  N8  UNL     1      14.442 -19.924 -25.321  1.00  0.00    -0.053 NA
HETATM   16  O6  UNL     1      14.477 -20.250 -23.074  1.00  0.00    -0.266 OA
ENDBRANCH  12  14
ENDBRANCH   6  10
ENDBRANCH   3   6
ENDBRANCH   1   2
BRANCH   1  17
HETATM   17  C7  UNL     1      12.763 -12.892 -20.042  1.00  0.00     0.062 C 
HETATM   18  C8  UNL     1      12.621 -12.127 -18.791  1.00  0.00     0.240 C 
HETATM   19  N2  UNL     1      13.972 -11.540 -18.941  1.00  0.00    -0.074 N 
HETATM   20  C9  UNL     1      14.265 -12.728 -19.740  1.00  0.00     0.240 C 
ATOM     21  H22 UNL     1      14.118 -10.596 -19.300  1.00  0.00     0.277 HD
ATOM     22  H21 UNL     1      14.541 -11.273 -18.136  1.00  0.00     0.277 HD
ENDBRANCH   1  17
BRANCH   1  23
HETATM   23  C10 UNL     1      11.105 -14.862 -20.046  1.00  0.00     0.246 C 
BRANCH  23  24
HETATM   24  N3  UNL     1      10.552 -14.446 -18.743  1.00  0.00    -0.071 N 
ATOM     25  H33 UNL     1      11.238 -14.504 -17.990  1.00  0.00     0.274 HD
ATOM     26  H32 UNL     1      10.377 -13.442 -18.695  1.00  0.00     0.274 HD
ATOM     27  H31 UNL     1       9.715 -14.998 -18.553  1.00  0.00     0.274 HD
ENDBRANCH  23  24
BRANCH  23  28
HETATM   28  C11 UNL     1      10.038 -14.842 -21.034  1.00  0.00     0.306 C 
BRANCH  28  29
HETATM   29  N4  UNL     1       8.754 -14.357 -20.521  1.00  0.00    -0.064 N 
ATOM     30  H43 UNL     1       8.885 -13.497 -19.988  1.00  0.00     0.275 HD
ATOM     31  H42 UNL     1       8.176 -14.002 -21.283  1.00  0.00     0.275 HD
ATOM     32  H41 UNL     1       8.238 -15.043 -19.970  1.00  0.00     0.275 HD
ENDBRANCH  28  29
BRANCH  28  33
HETATM   33  C12 UNL     1       9.812 -16.098 -21.813  1.00  0.00     0.250 C 
HETATM   34  O2  UNL     1      10.192 -16.142 -23.041  1.00  0.00    -0.271 OA
HETATM   35  N5  UNL     1       9.212 -17.275 -21.337  1.00  0.00    -0.352 N 
ATOM     36  H5  UNL     1       8.896 -17.307 -20.367  1.00  0.00     0.162 HD
BRANCH  35  37
HETATM   37  C13 UNL     1       9.024 -18.440 -22.165  1.00  0.00     0.211 C 
BRANCH  37  38
HETATM   38  C14 UNL     1       8.409 -19.588 -21.509  1.00  0.00     0.231 C 
HETATM   39  O3  UNL     1       7.557 -20.285 -22.102  1.00  0.00    -0.286 OA
BRANCH  38  40
HETATM   40  C15 UNL     1       8.771 -19.951 -20.150  1.00  0.00     0.302 C 
HETATM   41  N6  UNL     1       9.160 -21.267 -19.785  1.00  0.00    -0.054 NA
HETATM   42  O4  UNL     1       8.757 -19.099 -19.210  1.00  0.00    -0.268 OA
ENDBRANCH  38  40
ENDBRANCH  37  38
ENDBRANCH  35  37
ENDBRANCH  28  33
ENDBRANCH  23  28
ENDBRANCH   1  23
TORSDOF 14
ENDMDL
MODEL 4
REMARK VINA RESULT: -8.814135351      1.695      3.101
REMARK  14 active torsions:
REMARK  status: ('A' for Active; 'I' for Inactive)
REMARK    1  A    between atoms: C2_2  and  C4_4 
REMARK    2  A    between atoms: C4_4  and  C5_5 
REMARK    3  A    between atoms: C4_4  and  N7_36 
REMARK       I    between atoms: C5_5  and  N1_7 
REMARK    4  A    between atoms: N1_7  and  C6_9 
REMARK    5  A    between atoms: C6_9  and  C7_10 
REMARK    6  A    between atoms: C6_9  and  C10_16 
REMARK    7  A    between atoms: C10_16  and  N3_17 
REMARK    8  A    between atoms: C10_16  and  C11_21 
REMARK    9  A    between atoms: C11_21  and  N4_22 
REMARK   10  A    between atoms: C11_21  and  C12_26 
REMARK       I    between atoms: C12_26  and  N5_28 
REMARK   11  A    between atoms: N5_28  and  C13_30 
REMARK   12  A    between atoms: C13_30  and  C14_31 
REMARK   13  A    between atoms: C14_31  and  C15_33 
REMARK       I    between atoms: N7_36  and  C17_38 
REMARK   14  A    between atoms: C17_38  and  C18_40 
ROOT
HETATM    1  C6  UNL     1      11.336 -14.583 -21.877  1.00  0.00     0.124 C 
ENDROOT
BRANCH   1   2
HETATM    2  N1  UNL     1      12.502 -14.912 -22.773  1.00  0.00    -0.352 N 
HETATM    3  C5  UNL     1      13.714 -15.396 -22.270  1.00  0.00     0.241 C 
HETATM    4  O1  UNL     1      13.771 -15.544 -20.996  1.00  0.00    -0.271 OA
ATOM      5  H1  UNL     1      12.403 -14.778 -23.779  1.00  0.00     0.163 HD
BRANCH   3   6
HETATM    6  C4  UNL     1      14.847 -15.711 -23.141  1.00  0.00     0.182 C 
BRANCH   6   7
HETATM    7  C2  UNL     1      15.173 -17.146 -23.321  1.00  0.00     0.009 C 
HETATM    8  C1  UNL     1      16.524 -17.246 -24.002  1.00  0.00     0.012 C 
HETATM    9  C3  UNL     1      14.201 -17.998 -24.037  1.00  0.00     0.012 C 
ENDBRANCH   6   7
BRANCH   6  10
HETATM   10  N7  UNL     1      14.824 -14.907 -24.334  1.00  0.00    -0.335 N 
HETATM   11  C16 UNL     1      14.602 -15.507 -25.655  1.00  0.00     0.154 C 
HETATM   12  C17 UNL     1      15.035 -13.500 -24.313  1.00  0.00     0.309 C 
HETATM   13  O5  UNL     1      15.232 -12.994 -23.151  1.00  0.00    -0.263 OA
BRANCH  12  14
HETATM   14  C18 UNL     1      15.044 -12.640 -25.440  1.00  0.00     0.322 C 
HETATM   15  N8  UNL     1      15.528 -13.128 -26.711  1.00  0.00    -0.053 NA
HETATM   16  O6  UNL     1      14.661 -11.457 -25.441  1.00  0.00    -0.266 OA
ENDBRANCH  12  14
ENDBRANCH   6  10
ENDBRANCH   3   6
ENDBRANCH   1   2
BRANCH   1  17
HETATM   17  C7  UNL     1      10.925 -15.904 -21.389  1.00  0.00     0.062 C 
HETATM   18  C8  UNL     1       9.527 -16.294 -21.136  1.00  0.00     0.240 C 
HETATM   19  N2  UNL     1       9.699 -17.568 -21.872  1.00  0.00    -0.074 N 
HETATM   20  C9  UNL     1      10.771 -16.871 -22.579  1.00  0.00     0.240 C 
ATOM     21  H22 UNL     1       9.853 -18.455 -21.392  1.00  0.00     0.277 HD
ATOM     22  H21 UNL     1       8.927 -18.018 -22.364  1.00  0.00     0.277 HD
ENDBRANCH   1  17
BRANCH   1  23
HETATM   23  C10 UNL     1      11.880 -13.539 -21.034  1.00  0.00     0.246 C 
BRANCH  23  24
HETATM   24  N3  UNL     1      11.344 -12.241 -21.486  1.00  0.00    -0.071 N 
ATOM     25  H33 UNL     1      11.574 -12.040 -22.459  1.00  0.00     0.274 HD
ATOM     26  H32 UNL     1      10.329 -12.249 -21.581  1.00  0.00     0.274 HD
ATOM     27  H31 UNL     1      11.671 -11.514 -20.849  1.00  0.00     0.274 HD
ENDBRANCH  23  24
BRANCH  23  28
HETATM   28  C11 UNL     1      11.969 -13.528 -19.583  1.00  0.00     0.306 C 
BRANCH  28  29
HETATM   29  N4  UNL     1      10.696 -13.782 -18.902  1.00  0.00    -0.064 N 
ATOM     30  H43 UNL     1      10.296 -14.666 -19.214  1.00  0.00     0.275 HD
ATOM     31  H42 UNL     1      10.855 -14.000 -17.918  1.00  0.00     0.275 HD
ATOM     32  H41 UNL     1      10.015 -13.029 -18.996  1.00  0.00     0.275 HD
ENDBRANCH  28  29
BRANCH  28  33
HETATM   33  C12 UNL     1      12.635 -12.347 -18.953  1.00  0.00     0.250 C 
HETATM   34  O2  UNL     1      13.799 -11.995 -19.373  1.00  0.00    -0.271 OA
HETATM   35  N5  UNL     1      12.113 -11.550 -17.921  1.00  0.00    -0.352 N 
ATOM     36  H5  UNL     1      11.188 -11.771 -17.550  1.00  0.00     0.162 HD
BRANCH  35  37
HETATM   37  C13 UNL     1      12.832 -10.431 -17.365  1.00  0.00     0.211 C 
BRANCH  37  38
HETATM   38  C14 UNL     1      12.681  -9.167 -18.077  1.00  0.00     0.231 C 
HETATM   39  O3  UNL     1      11.671  -8.945 -18.780  1.00  0.00    -0.286 OA
BRANCH  38  40
HETATM   40  C15 UNL     1      13.698  -8.134 -17.986  1.00  0.00     0.302 C 
HETATM   41  N6  UNL     1      15.052  -8.417 -17.666  1.00  0.00    -0.054 NA
HETATM   42  O4  UNL     1      13.422  -6.913 -18.193  1.00  0.00    -0.268 OA
ENDBRANCH  38  40
ENDBRANCH  37  38
ENDBRANCH  35  37
ENDBRANCH  28  33
ENDBRANCH  23  28
ENDBRANCH   1  23
TORSDOF 14
ENDMDL
MODEL 5
REMARK VINA RESULT: -8.761233609      2.946      6.558
REMARK  14 active torsions:
REMARK  status: ('A' for Active; 'I' for Inactive)
REMARK    1  A    between atoms: C2_2  and  C4_4 
REMARK    2  A    between atoms: C4_4  and  C5_5 
REMARK    3  A    between atoms: C4_4  and  N7_36 
REMARK       I    between atoms: C5_5  and  N1_7 
REMARK    4  A    between atoms: N1_7  and  C6_9 
REMARK    5  A    between atoms: C6_9  and  C7_10 
REMARK    6  A    between atoms: C6_9  and  C10_16 
REMARK    7  A    between atoms: C10_16  and  N3_17 
REMARK    8  A    between atoms: C10_16  and  C11_21 
REMARK    9  A    between atoms: C11_21  and  N4_22 
REMARK   10  A    between atoms: C11_21  and  C12_26 
REMARK       I    between atoms: C12_26  and  N5_28 
REMARK   11  A    between atoms: N5_28  and  C13_30 
REMARK   12  A    between atoms: C13_30  and  C14_31 
REMARK   13  A    between atoms: C14_31  and  C15_33 
REMARK       I    between atoms: N7_36  and  C17_38 
REMARK   14  A    between atoms: C17_38  and  C18_40 
ROOT
HETATM    1  C6  UNL     1      11.870 -14.956 -20.903  1.00  0.00     0.124 C 
ENDROOT
BRANCH   1   2
HETATM    2  N1  UNL     1      12.490 -15.131 -22.264  1.00  0.00    -0.352 N 
HETATM    3  C5  UNL     1      13.752 -15.710 -22.439  1.00  0.00     0.241 C 
HETATM    4  O1  UNL     1      14.348 -16.084 -21.367  1.00  0.00    -0.271 OA
ATOM      5  H1  UNL     1      11.973 -14.817 -23.085  1.00  0.00     0.163 HD
BRANCH   3   6
HETATM    6  C4  UNL     1      14.355 -15.873 -23.763  1.00  0.00     0.182 C 
BRANCH   6   7
HETATM    7  C2  UNL     1      15.227 -14.773 -24.241  1.00  0.00     0.009 C 
HETATM    8  C1  UNL     1      15.048 -13.587 -23.314  1.00  0.00     0.012 C 
HETATM    9  C3  UNL     1      15.081 -14.326 -25.641  1.00  0.00     0.012 C 
ENDBRANCH   6   7
BRANCH   6  10
HETATM   10  N7  UNL     1      14.856 -17.210 -23.944  1.00  0.00    -0.335 N 
HETATM   11  C16 UNL     1      16.294 -17.476 -24.063  1.00  0.00     0.154 C 
HETATM   12  C17 UNL     1      13.999 -18.342 -24.040  1.00  0.00     0.309 C 
HETATM   13  O5  UNL     1      12.746 -18.089 -23.938  1.00  0.00    -0.263 OA
BRANCH  12  14
HETATM   14  C18 UNL     1      14.409 -19.685 -24.234  1.00  0.00     0.322 C 
HETATM   15  N8  UNL     1      14.423 -20.245 -25.566  1.00  0.00    -0.053 NA
HETATM   16  O6  UNL     1      14.771 -20.460 -23.333  1.00  0.00    -0.266 OA
ENDBRANCH  12  14
ENDBRANCH   6  10
ENDBRANCH   3   6
ENDBRANCH   1   2
BRANCH   1  17
HETATM   17  C7  UNL     1      12.700 -13.903 -20.307  1.00  0.00     0.062 C 
HETATM   18  C8  UNL     1      12.511 -12.462 -20.554  1.00  0.00     0.240 C 
HETATM   19  N2  UNL     1      12.594 -12.155 -19.108  1.00  0.00    -0.074 N 
HETATM   20  C9  UNL     1      12.151 -13.535 -18.916  1.00  0.00     0.240 C 
ATOM     21  H22 UNL     1      13.445 -11.794 -18.677  1.00  0.00     0.277 HD
ATOM     22  H21 UNL     1      12.101 -11.364 -18.692  1.00  0.00     0.277 HD
ENDBRANCH   1  17
BRANCH   1  23
HETATM   23  C10 UNL     1      10.466 -14.801 -21.221  1.00  0.00     0.246 C 
BRANCH  23  24
HETATM   24  N3  UNL     1      10.349 -14.326 -22.613  1.00  0.00    -0.071 N 
ATOM     25  H33 UNL     1      10.268 -13.311 -22.676  1.00  0.00     0.274 HD
ATOM     26  H32 UNL     1      11.218 -14.431 -23.136  1.00  0.00     0.274 HD
ATOM     27  H31 UNL     1       9.565 -14.808 -23.056  1.00  0.00     0.274 HD
ENDBRANCH  23  24
BRANCH  23  28
HETATM   28  C11 UNL     1       9.387 -15.739 -20.955  1.00  0.00     0.306 C 
BRANCH  28  29
HETATM   29  N4  UNL     1       9.182 -16.029 -19.533  1.00  0.00    -0.064 N 
ATOM     30  H43 UNL     1       9.991 -15.731 -18.988  1.00  0.00     0.275 HD
ATOM     31  H42 UNL     1       8.471 -15.410 -19.142  1.00  0.00     0.275 HD
ATOM     32  H41 UNL     1       8.956 -17.003 -19.334  1.00  0.00     0.275 HD
ENDBRANCH  28  29
BRANCH  28  33
HETATM   33  C12 UNL     1       9.402 -17.023 -21.720  1.00  0.00     0.250 C 
HETATM   34  O2  UNL     1      10.098 -17.093 -22.800  1.00  0.00    -0.271 OA
HETATM   35  N5  UNL     1       8.717 -18.201 -21.381  1.00  0.00    -0.352 N 
ATOM     36  H5  UNL     1       8.153 -18.213 -20.530  1.00  0.00     0.162 HD
BRANCH  35  37
HETATM   37  C13 UNL     1       8.780 -19.395 -22.187  1.00  0.00     0.211 C 
BRANCH  37  38
HETATM   38  C14 UNL     1       8.538 -20.647 -21.479  1.00  0.00     0.231 C 
HETATM   39  O3  UNL     1       8.884 -21.741 -21.977  1.00  0.00    -0.286 OA
BRANCH  38  40
HETATM   40  C15 UNL     1       7.892 -20.655 -20.178  1.00  0.00     0.302 C 
HETATM   41  N6  UNL     1       8.520 -21.165 -19.012  1.00  0.00    -0.054 NA
HETATM   42  O4  UNL     1       6.718 -20.200 -20.019  1.00  0.00    -0.268 OA
ENDBRANCH  38  40
ENDBRANCH  37  38
ENDBRANCH  35  37
ENDBRANCH  28  33
ENDBRANCH  23  28
ENDBRANCH   1  23
TORSDOF 14
ENDMDL
