MODEL 1
REMARK VINA RESULT: -8.093200363      0.000      0.000
REMARK  12 active torsions:
REMARK  status: ('A' for Active; 'I' for Inactive)
REMARK    1  A    between atoms: C2_2  and  C4_4 
REMARK    2  A    between atoms: C4_4  and  N1_5 
REMARK    3  A    between atoms: C4_4  and  C11_24 
REMARK       I    between atoms: N1_5  and  C5_7 
REMARK    4  A    between atoms: C5_7  and  C6_9 
REMARK    5  A    between atoms: C6_9  and  N2_10 
REMARK    6  A    between atoms: C6_9  and  C10_21 
REMARK       I    between atoms: N2_10  and  C7_12 
REMARK    7  A    between atoms: C7_12  and  C8_14 
REMARK    8  A    between atoms: C8_14  and  N3_15 
REMARK    9  A    between atoms: C8_14  and  C9_19 
REMARK       I    between atoms: C11_24  and  N5_26 
REMARK   10  A    between atoms: N5_26  and  C12_28 
REMARK   11  A    between atoms: C12_28  and  C13_29 
REMARK   12  A    between atoms: C15_33  and  S1_34 
ROOT
HETATM    1  N1  UNL     1      14.931 -14.295 -25.399  1.00  0.00    -0.323 N 
ATOM      2  H1  UNL     1      14.145 -13.646 -25.392  1.00  0.00     0.169 HD
HETATM    3  C5  UNL     1      14.990 -15.025 -24.139  1.00  0.00     0.254 C 
HETATM    4  O1  UNL     1      15.826 -15.915 -24.083  1.00  0.00    -0.270 OA
ENDROOT
BRANCH   1   5
HETATM    5  C4  UNL     1      15.602 -14.210 -26.590  1.00  0.00     0.083 C 
BRANCH   5   6
HETATM    6  C2  UNL     1      15.256 -12.880 -27.249  1.00  0.00     0.033 C 
HETATM    7  C1  UNL     1      15.145 -11.749 -26.258  1.00  0.00     0.016 C 
HETATM    8  C3  UNL     1      16.264 -12.457 -28.294  1.00  0.00     0.016 C 
ENDBRANCH   5   6
BRANCH   5   9
HETATM    9  C11 UNL     1      15.864 -15.307 -27.509  1.00  0.00     0.265 C 
HETATM   10  O5  UNL     1      15.113 -16.311 -27.566  1.00  0.00    -0.266 OA
HETATM   11  N5  UNL     1      17.039 -15.273 -28.388  1.00  0.00    -0.337 N 
ATOM     12  H5  UNL     1      17.627 -14.441 -28.437  1.00  0.00     0.164 HD
BRANCH  11  13
HETATM   13  C12 UNL     1      17.349 -16.451 -29.187  1.00  0.00     0.133 A 
HETATM   14  C14 UNL     1      17.995 -15.925 -30.525  1.00  0.00     0.068 A 
HETATM   15  C15 UNL     1      16.799 -16.818 -30.449  1.00  0.00     0.170 A 
BRANCH  13  16
HETATM   16  C13 UNL     1      18.413 -17.230 -28.445  1.00  0.00     0.261 C 
HETATM   17  N6  UNL     1      17.958 -18.285 -27.636  1.00  0.00    -0.060 NA
HETATM   18  O6  UNL     1      19.625 -16.942 -28.527  1.00  0.00    -0.274 OA
ENDBRANCH  13  16
BRANCH  15  19
HETATM   19  S1  UNL     1      17.082 -18.371 -31.253  1.00  0.00     0.109 S 
HETATM   20  O7  UNL     1      18.511 -18.769 -31.337  1.00  0.00    -0.595 OA
HETATM   21  O8  UNL     1      16.281 -19.488 -30.693  1.00  0.00    -0.595 OA
HETATM   22  O9  UNL     1      16.514 -18.166 -32.871  1.00  0.00    -0.595 OA
ENDBRANCH  15  19
ENDBRANCH  11  13
ENDBRANCH   5   9
ENDBRANCH   1   5
BRANCH   3  23
HETATM   23  C6  UNL     1      14.129 -14.625 -23.089  1.00  0.00     0.267 C 
BRANCH  23  24
HETATM   24  N2  UNL     1      12.919 -14.862 -22.501  1.00  0.00    -0.338 N 
HETATM   25  C7  UNL     1      12.143 -13.912 -21.732  1.00  0.00     0.256 C 
HETATM   26  O2  UNL     1      12.655 -12.777 -21.490  1.00  0.00    -0.271 OA
ATOM     27  H2  UNL     1      12.525 -15.796 -22.615  1.00  0.00     0.163 HD
BRANCH  25  28
HETATM   28  C8  UNL     1      10.769 -14.199 -21.257  1.00  0.00     0.335 C 
BRANCH  28  29
HETATM   29  N3  UNL     1       9.876 -13.356 -22.085  1.00  0.00    -0.060 N 
ATOM     30  H33 UNL     1       9.866 -12.375 -21.807  1.00  0.00     0.275 HD
ATOM     31  H32 UNL     1      10.217 -13.210 -23.035  1.00  0.00     0.275 HD
ATOM     32  H31 UNL     1       8.960 -13.802 -22.044  1.00  0.00     0.275 HD
ENDBRANCH  28  29
BRANCH  28  33
HETATM   33  C9  UNL     1      10.430 -15.629 -21.552  1.00  0.00     0.273 C 
HETATM   34  O3  UNL     1      10.073 -15.869 -22.691  1.00  0.00    -0.304 OA
ENDBRANCH  28  33
ENDBRANCH  25  28
ENDBRANCH  23  24
BRANCH  23  35
HETATM   35  C10 UNL     1      15.078 -14.925 -21.777  1.00  0.00     0.263 C 
HETATM   36  N4  UNL     1      15.943 -13.888 -21.470  1.00  0.00    -0.060 NA
HETATM   37  O4  UNL     1      14.956 -15.980 -21.212  1.00  0.00    -0.274 OA
ENDBRANCH  23  35
ENDBRANCH   3  23
TORSDOF 12
ENDMDL
MODEL 2
REMARK VINA RESULT: -7.971408489      1.358      1.705
REMARK  12 active torsions:
REMARK  status: ('A' for Active; 'I' for Inactive)
REMARK    1  A    between atoms: C2_2  and  C4_4 
REMARK    2  A    between atoms: C4_4  and  N1_5 
REMARK    3  A    between atoms: C4_4  and  C11_24 
REMARK       I    between atoms: N1_5  and  C5_7 
REMARK    4  A    between atoms: C5_7  and  C6_9 
REMARK    5  A    between atoms: C6_9  and  N2_10 
REMARK    6  A    between atoms: C6_9  and  C10_21 
REMARK       I    between atoms: N2_10  and  C7_12 
REMARK    7  A    between atoms: C7_12  and  C8_14 
REMARK    8  A    between atoms: C8_14  and  N3_15 
REMARK    9  A    between atoms: C8_14  and  C9_19 
REMARK       I    between atoms: C11_24  and  N5_26 
REMARK   10  A    between atoms: N5_26  and  C12_28 
REMARK   11  A    between atoms: C12_28  and  C13_29 
REMARK   12  A    between atoms: C15_33  and  S1_34 
ROOT
HETATM    1  N1  UNL     1      14.849 -15.284 -24.620  1.00  0.00    -0.323 N 
ATOM      2  H1  UNL     1      13.837 -15.166 -24.648  1.00  0.00     0.169 HD
HETATM    3  C5  UNL     1      15.259 -15.791 -23.317  1.00  0.00     0.254 C 
HETATM    4  O1  UNL     1      16.443 -16.078 -23.211  1.00  0.00    -0.270 OA
ENDROOT
BRANCH   1   5
HETATM    5  C4  UNL     1      15.399 -14.915 -25.819  1.00  0.00     0.083 C 
BRANCH   5   6
HETATM    6  C2  UNL     1      14.832 -13.558 -26.218  1.00  0.00     0.033 C 
HETATM    7  C1  UNL     1      14.855 -12.561 -25.089  1.00  0.00     0.016 C 
HETATM    8  C3  UNL     1      15.565 -12.929 -27.382  1.00  0.00     0.016 C 
ENDBRANCH   5   6
BRANCH   5   9
HETATM    9  C11 UNL     1      15.719 -15.804 -26.926  1.00  0.00     0.265 C 
HETATM   10  O5  UNL     1      15.066 -16.855 -27.136  1.00  0.00    -0.266 OA
HETATM   11  N5  UNL     1      16.839 -15.496 -27.822  1.00  0.00    -0.337 N 
ATOM     12  H5  UNL     1      17.342 -14.612 -27.743  1.00  0.00     0.164 HD
BRANCH  11  13
HETATM   13  C12 UNL     1      17.221 -16.480 -28.828  1.00  0.00     0.133 A 
HETATM   14  C14 UNL     1      17.720 -15.665 -30.082  1.00  0.00     0.068 A 
HETATM   15  C15 UNL     1      16.634 -16.690 -30.108  1.00  0.00     0.170 A 
BRANCH  13  16
HETATM   16  C13 UNL     1      18.407 -17.245 -28.282  1.00  0.00     0.261 C 
HETATM   17  N6  UNL     1      18.110 -18.388 -27.520  1.00  0.00    -0.060 NA
HETATM   18  O6  UNL     1      19.583 -16.874 -28.476  1.00  0.00    -0.274 OA
ENDBRANCH  13  16
BRANCH  15  19
HETATM   19  S1  UNL     1      17.026 -18.042 -31.183  1.00  0.00     0.109 S 
HETATM   20  O7  UNL     1      18.477 -18.355 -31.274  1.00  0.00    -0.595 OA
HETATM   21  O8  UNL     1      16.263 -19.281 -30.888  1.00  0.00    -0.595 OA
HETATM   22  O9  UNL     1      16.513 -17.550 -32.756  1.00  0.00    -0.595 OA
ENDBRANCH  15  19
ENDBRANCH  11  13
ENDBRANCH   5   9
ENDBRANCH   1   5
BRANCH   3  23
HETATM   23  C6  UNL     1      14.290 -15.864 -22.288  1.00  0.00     0.267 C 
BRANCH  23  24
HETATM   24  N2  UNL     1      13.392 -15.134 -21.562  1.00  0.00    -0.338 N 
HETATM   25  C7  UNL     1      13.472 -13.716 -21.284  1.00  0.00     0.256 C 
HETATM   26  O2  UNL     1      14.509 -13.089 -21.661  1.00  0.00    -0.271 OA
ATOM     27  H2  UNL     1      12.590 -15.636 -21.181  1.00  0.00     0.163 HD
BRANCH  25  28
HETATM   28  C8  UNL     1      12.379 -12.967 -20.620  1.00  0.00     0.335 C 
BRANCH  28  29
HETATM   29  N3  UNL     1      11.599 -12.344 -21.715  1.00  0.00    -0.060 N 
ATOM     30  H33 UNL     1      11.457 -11.341 -21.595  1.00  0.00     0.275 HD
ATOM     31  H32 UNL     1      12.105 -12.291 -22.598  1.00  0.00     0.275 HD
ATOM     32  H31 UNL     1      10.731 -12.875 -21.771  1.00  0.00     0.275 HD
ENDBRANCH  28  29
BRANCH  28  33
HETATM   33  C9  UNL     1      11.469 -13.933 -19.921  1.00  0.00     0.273 C 
HETATM   34  O3  UNL     1      10.522 -14.339 -20.570  1.00  0.00    -0.304 OA
ENDBRANCH  28  33
ENDBRANCH  25  28
ENDBRANCH  23  24
BRANCH  23  35
HETATM   35  C10 UNL     1      13.230 -16.946 -22.934  1.00  0.00     0.263 C 
HETATM   36  N4  UNL     1      11.912 -16.713 -22.578  1.00  0.00    -0.060 NA
HETATM   37  O4  UNL     1      13.664 -17.823 -23.634  1.00  0.00    -0.274 OA
ENDBRANCH  23  35
ENDBRANCH   3  23
TORSDOF 12
ENDMDL
MODEL 3
REMARK VINA RESULT: -7.865919308      1.322      1.462
REMARK  12 active torsions:
REMARK  status: ('A' for Active; 'I' for Inactive)
REMARK    1  A    between atoms: C2_2  and  C4_4 
REMARK    2  A    between atoms: C4_4  and  N1_5 
REMARK    3  A    between atoms: C4_4  and  C11_24 
REMARK       I    between atoms: N1_5  and  C5_7 
REMARK    4  A    between atoms: C5_7  and  C6_9 
REMARK    5  A    between atoms: C6_9  and  N2_10 
REMARK    6  A    between atoms: C6_9  and  C10_21 
REMARK       I    between atoms: N2_10  and  C7_12 
REMARK    7  A    between atoms: C7_12  and  C8_14 
REMARK    8  A    between atoms: C8_14  and  N3_15 
REMARK    9  A    between atoms: C8_14  and  C9_19 
REMARK       I    between atoms: C11_24  and  N5_26 
REMARK   10  A    between atoms: N5_26  and  C12_28 
REMARK   11  A    between atoms: C12_28  and  C13_29 
REMARK   12  A    between atoms: C15_33  and  S1_34 
ROOT
HETATM    1  N1  UNL     1      15.232 -14.357 -25.854  1.00  0.00    -0.323 N 
ATOM      2  H1  UNL     1      15.126 -13.437 -25.427  1.00  0.00     0.169 HD
HETATM    3  C5  UNL     1      14.624 -15.376 -25.009  1.00  0.00     0.254 C 
HETATM    4  O1  UNL     1      14.592 -16.503 -25.481  1.00  0.00    -0.270 OA
ENDROOT
BRANCH   1   5
HETATM    5  C4  UNL     1      15.902 -14.248 -27.044  1.00  0.00     0.083 C 
BRANCH   5   6
HETATM    6  C2  UNL     1      15.519 -12.926 -27.698  1.00  0.00     0.033 C 
HETATM    7  C1  UNL     1      15.348 -11.809 -26.701  1.00  0.00     0.016 C 
HETATM    8  C3  UNL     1      16.530 -12.458 -28.722  1.00  0.00     0.016 C 
ENDBRANCH   5   6
BRANCH   5   9
HETATM    9  C11 UNL     1      16.195 -15.334 -27.967  1.00  0.00     0.265 C 
HETATM   10  O5  UNL     1      15.298 -15.861 -28.670  1.00  0.00    -0.266 OA
HETATM   11  N5  UNL     1      17.560 -15.860 -28.082  1.00  0.00    -0.337 N 
ATOM     12  H5  UNL     1      18.334 -15.407 -27.596  1.00  0.00     0.164 HD
BRANCH  11  13
HETATM   13  C12 UNL     1      17.788 -17.041 -28.905  1.00  0.00     0.133 A 
HETATM   14  C14 UNL     1      19.252 -16.911 -29.475  1.00  0.00     0.068 A 
HETATM   15  C15 UNL     1      18.025 -17.093 -30.308  1.00  0.00     0.170 A 
BRANCH  13  16
HETATM   16  C13 UNL     1      17.764 -18.241 -27.984  1.00  0.00     0.261 C 
HETATM   17  N6  UNL     1      16.563 -18.969 -27.945  1.00  0.00    -0.060 NA
HETATM   18  O6  UNL     1      18.746 -18.559 -27.281  1.00  0.00    -0.274 OA
ENDBRANCH  13  16
BRANCH  15  19
HETATM   19  S1  UNL     1      18.088 -18.585 -31.260  1.00  0.00     0.109 S 
HETATM   20  O7  UNL     1      19.178 -19.518 -30.872  1.00  0.00    -0.595 OA
HETATM   21  O8  UNL     1      16.797 -19.317 -31.312  1.00  0.00    -0.595 OA
HETATM   22  O9  UNL     1      18.398 -18.088 -32.884  1.00  0.00    -0.595 OA
ENDBRANCH  15  19
ENDBRANCH  11  13
ENDBRANCH   5   9
ENDBRANCH   1   5
BRANCH   3  23
HETATM   23  C6  UNL     1      14.174 -15.001 -23.720  1.00  0.00     0.267 C 
BRANCH  23  24
HETATM   24  N2  UNL     1      13.064 -14.709 -22.979  1.00  0.00    -0.338 N 
HETATM   25  C7  UNL     1      12.977 -13.717 -21.928  1.00  0.00     0.256 C 
HETATM   26  O2  UNL     1      14.039 -13.116 -21.582  1.00  0.00    -0.271 OA
ATOM     27  H2  UNL     1      12.218 -15.239 -23.186  1.00  0.00     0.163 HD
BRANCH  25  28
HETATM   28  C8  UNL     1      11.697 -13.352 -21.276  1.00  0.00     0.335 C 
BRANCH  28  29
HETATM   29  N3  UNL     1      11.266 -12.091 -21.921  1.00  0.00    -0.060 N 
ATOM     30  H33 UNL     1      12.001 -11.637 -22.463  1.00  0.00     0.275 HD
ATOM     31  H32 UNL     1      10.614 -12.229 -22.693  1.00  0.00     0.275 HD
ATOM     32  H31 UNL     1      10.894 -11.511 -21.170  1.00  0.00     0.275 HD
ENDBRANCH  28  29
BRANCH  28  33
HETATM   33  C9  UNL     1      10.664 -14.391 -21.594  1.00  0.00     0.273 C 
HETATM   34  O3  UNL     1      10.926 -15.528 -21.247  1.00  0.00    -0.304 OA
ENDBRANCH  28  33
ENDBRANCH  25  28
ENDBRANCH  23  24
BRANCH  23  35
HETATM   35  C10 UNL     1      14.719 -16.267 -22.819  1.00  0.00     0.263 C 
HETATM   36  N4  UNL     1      13.785 -17.276 -22.659  1.00  0.00    -0.060 NA
HETATM   37  O4  UNL     1      15.839 -16.218 -22.382  1.00  0.00    -0.274 OA
ENDBRANCH  23  35
ENDBRANCH   3  23
TORSDOF 12
ENDMDL
MODEL 4
REMARK VINA RESULT: -7.847515499      2.257      2.861
REMARK  12 active torsions:
REMARK  status: ('A' for Active; 'I' for Inactive)
REMARK    1  A    between atoms: C2_2  and  C4_4 
REMARK    2  A    between atoms: C4_4  and  N1_5 
REMARK    3  A    between atoms: C4_4  and  C11_24 
REMARK       I    between atoms: N1_5  and  C5_7 
REMARK    4  A    between atoms: C5_7  and  C6_9 
REMARK    5  A    between atoms: C6_9  and  N2_10 
REMARK    6  A    between atoms: C6_9  and  C10_21 
REMARK       I    between atoms: N2_10  and  C7_12 
REMARK    7  A    between atoms: C7_12  and  C8_14 
REMARK    8  A    between atoms: C8_14  and  N3_15 
REMARK    9  A    between atoms: C8_14  and  C9_19 
REMARK       I    between atoms: C11_24  and  N5_26 
REMARK   10  A    between atoms: N5_26  and  C12_28 
REMARK   11  A    between atoms: C12_28  and  C13_29 
REMARK   12  A    between atoms: C15_33  and  S1_34 
ROOT
HETATM    1  N1  UNL     1      14.899 -16.499 -25.595  1.00  0.00    -0.323 N 
ATOM      2  H1  UNL     1      13.893 -16.388 -25.716  1.00  0.00     0.169 HD
HETATM    3  C5  UNL     1      15.173 -17.439 -24.516  1.00  0.00     0.254 C 
HETATM    4  O1  UNL     1      16.349 -17.735 -24.360  1.00  0.00    -0.270 OA
ENDROOT
BRANCH   1   5
HETATM    5  C4  UNL     1      15.571 -15.719 -26.498  1.00  0.00     0.083 C 
BRANCH   5   6
HETATM    6  C2  UNL     1      15.019 -14.300 -26.419  1.00  0.00     0.033 C 
HETATM    7  C1  UNL     1      15.042 -13.742 -25.020  1.00  0.00     0.016 C 
HETATM    8  C3  UNL     1      15.769 -13.325 -27.300  1.00  0.00     0.016 C 
ENDBRANCH   5   6
BRANCH   5   9
HETATM    9  C11 UNL     1      16.033 -16.132 -27.814  1.00  0.00     0.265 C 
HETATM   10  O5  UNL     1      15.309 -16.014 -28.833  1.00  0.00    -0.266 OA
HETATM   11  N5  UNL     1      17.365 -16.724 -27.979  1.00  0.00    -0.337 N 
ATOM     12  H5  UNL     1      18.019 -16.761 -27.196  1.00  0.00     0.164 HD
BRANCH  11  13
HETATM   13  C12 UNL     1      17.737 -17.260 -29.282  1.00  0.00     0.133 A 
HETATM   14  C14 UNL     1      19.308 -17.169 -29.370  1.00  0.00     0.068 A 
HETATM   15  C15 UNL     1      18.363 -16.572 -30.361  1.00  0.00     0.170 A 
BRANCH  13  16
HETATM   16  C13 UNL     1      17.365 -18.727 -29.288  1.00  0.00     0.261 C 
HETATM   17  N6  UNL     1      17.982 -19.527 -28.311  1.00  0.00    -0.060 NA
HETATM   18  O6  UNL     1      16.573 -19.208 -30.125  1.00  0.00    -0.274 OA
ENDBRANCH  13  16
BRANCH  15  19
HETATM   19  S1  UNL     1      18.592 -17.246 -31.983  1.00  0.00     0.109 S 
HETATM   20  O7  UNL     1      19.402 -18.491 -32.023  1.00  0.00    -0.595 OA
HETATM   21  O8  UNL     1      17.325 -17.447 -32.731  1.00  0.00    -0.595 OA
HETATM   22  O9  UNL     1      19.461 -16.044 -32.867  1.00  0.00    -0.595 OA
ENDBRANCH  15  19
ENDBRANCH  11  13
ENDBRANCH   5   9
ENDBRANCH   1   5
BRANCH   3  23
HETATM   23  C6  UNL     1      14.090 -17.886 -23.721  1.00  0.00     0.267 C 
BRANCH  23  24
HETATM   24  N2  UNL     1      12.843 -17.560 -23.269  1.00  0.00    -0.338 N 
HETATM   25  C7  UNL     1      12.502 -16.408 -22.462  1.00  0.00     0.256 C 
HETATM   26  O2  UNL     1      13.445 -15.668 -22.046  1.00  0.00    -0.271 OA
ATOM     27  H2  UNL     1      12.080 -18.188 -23.524  1.00  0.00     0.163 HD
BRANCH  25  28
HETATM   28  C8  UNL     1      11.103 -16.041 -22.141  1.00  0.00     0.335 C 
BRANCH  28  29
HETATM   29  N3  UNL     1      10.700 -15.061 -23.176  1.00  0.00    -0.060 N 
ATOM     30  H33 UNL     1      11.321 -14.255 -23.240  1.00  0.00     0.275 HD
ATOM     31  H32 UNL     1      10.835 -15.395 -24.130  1.00  0.00     0.275 HD
ATOM     32  H31 UNL     1       9.734 -14.816 -22.961  1.00  0.00     0.275 HD
ENDBRANCH  28  29
BRANCH  28  33
HETATM   33  C9  UNL     1      10.224 -17.245 -22.302  1.00  0.00     0.273 C 
HETATM   34  O3  UNL     1       9.072 -17.118 -21.929  1.00  0.00    -0.304 OA
ENDBRANCH  28  33
ENDBRANCH  25  28
ENDBRANCH  23  24
BRANCH  23  35
HETATM   35  C10 UNL     1      13.690 -19.282 -24.498  1.00  0.00     0.263 C 
HETATM   36  N4  UNL     1      14.304 -20.406 -23.971  1.00  0.00    -0.060 NA
HETATM   37  O4  UNL     1      12.929 -19.221 -25.428  1.00  0.00    -0.274 OA
ENDBRANCH  23  35
ENDBRANCH   3  23
TORSDOF 12
ENDMDL
MODEL 5
REMARK VINA RESULT: -7.843468398      3.319      8.702
REMARK  12 active torsions:
REMARK  status: ('A' for Active; 'I' for Inactive)
REMARK    1  A    between atoms: C2_2  and  C4_4 
REMARK    2  A    between atoms: C4_4  and  N1_5 
REMARK    3  A    between atoms: C4_4  and  C11_24 
REMARK       I    between atoms: N1_5  and  C5_7 
REMARK    4  A    between atoms: C5_7  and  C6_9 
REMARK    5  A    between atoms: C6_9  and  N2_10 
REMARK    6  A    between atoms: C6_9  and  C10_21 
REMARK       I    between atoms: N2_10  and  C7_12 
REMARK    7  A    between atoms: C7_12  and  C8_14 
REMARK    8  A    between atoms: C8_14  and  N3_15 
REMARK    9  A    between atoms: C8_14  and  C9_19 
REMARK       I    between atoms: C11_24  and  N5_26 
REMARK   10  A    between atoms: N5_26  and  C12_28 
REMARK   11  A    between atoms: C12_28  and  C13_29 
REMARK   12  A    between atoms: C15_33  and  S1_34 
ROOT
HETATM    1  N1  UNL     1      14.854 -15.071 -26.250  1.00  0.00    -0.323 N 
ATOM      2  H1  UNL     1      14.554 -15.128 -27.223  1.00  0.00     0.169 HD
HETATM    3  C5  UNL     1      15.369 -16.361 -25.808  1.00  0.00     0.254 C 
HETATM    4  O1  UNL     1      15.863 -16.377 -24.690  1.00  0.00    -0.270 OA
ENDROOT
BRANCH   1   5
HETATM    5  C4  UNL     1      14.647 -13.806 -25.767  1.00  0.00     0.083 C 
BRANCH   5   6
HETATM    6  C2  UNL     1      15.472 -12.828 -26.595  1.00  0.00     0.033 C 
HETATM    7  C1  UNL     1      15.964 -13.428 -27.887  1.00  0.00     0.016 C 
HETATM    8  C3  UNL     1      14.713 -11.569 -26.950  1.00  0.00     0.016 C 
ENDBRANCH   5   6
BRANCH   5   9
HETATM    9  C11 UNL     1      14.469 -13.439 -24.370  1.00  0.00     0.265 C 
HETATM   10  O5  UNL     1      14.984 -12.400 -23.892  1.00  0.00    -0.266 OA
HETATM   11  N5  UNL     1      13.689 -14.299 -23.472  1.00  0.00    -0.337 N 
ATOM     12  H5  UNL     1      13.182 -15.107 -23.836  1.00  0.00     0.164 HD
BRANCH  11  13
HETATM   13  C12 UNL     1      13.654 -13.978 -22.051  1.00  0.00     0.133 A 
HETATM   14  C14 UNL     1      12.243 -14.443 -21.523  1.00  0.00     0.068 A 
HETATM   15  C15 UNL     1      12.793 -13.060 -21.386  1.00  0.00     0.170 A 
BRANCH  13  16
HETATM   16  C13 UNL     1      14.699 -14.836 -21.371  1.00  0.00     0.261 C 
HETATM   17  N6  UNL     1      15.942 -14.227 -21.131  1.00  0.00    -0.060 NA
HETATM   18  O6  UNL     1      14.480 -16.025 -21.058  1.00  0.00    -0.274 OA
ENDBRANCH  13  16
BRANCH  15  19
HETATM   19  S1  UNL     1      12.957 -12.579 -19.689  1.00  0.00     0.109 S 
HETATM   20  O7  UNL     1      12.373 -13.542 -18.718  1.00  0.00    -0.595 OA
HETATM   21  O8  UNL     1      14.349 -12.249 -19.293  1.00  0.00    -0.595 OA
HETATM   22  O9  UNL     1      12.074 -11.103 -19.536  1.00  0.00    -0.595 OA
ENDBRANCH  15  19
ENDBRANCH  11  13
ENDBRANCH   5   9
ENDBRANCH   1   5
BRANCH   3  23
HETATM   23  C6  UNL     1      15.216 -17.476 -26.667  1.00  0.00     0.267 C 
BRANCH  23  24
HETATM   24  N2  UNL     1      15.895 -18.410 -27.396  1.00  0.00    -0.338 N 
HETATM   25  C7  UNL     1      16.747 -18.147 -28.537  1.00  0.00     0.256 C 
HETATM   26  O2  UNL     1      16.812 -16.958 -28.974  1.00  0.00    -0.271 OA
ATOM     27  H2  UNL     1      15.793 -19.384 -27.111  1.00  0.00     0.163 HD
BRANCH  25  28
HETATM   28  C8  UNL     1      17.572 -19.197 -29.179  1.00  0.00     0.335 C 
BRANCH  28  29
HETATM   29  N3  UNL     1      17.785 -18.741 -30.572  1.00  0.00    -0.060 N 
ATOM     30  H33 UNL     1      16.922 -18.496 -31.059  1.00  0.00     0.275 HD
ATOM     31  H32 UNL     1      18.227 -17.825 -30.640  1.00  0.00     0.275 HD
ATOM     32  H31 UNL     1      18.313 -19.486 -31.028  1.00  0.00     0.275 HD
ENDBRANCH  28  29
BRANCH  28  33
HETATM   33  C9  UNL     1      18.916 -19.248 -28.518  1.00  0.00     0.273 C 
HETATM   34  O3  UNL     1      18.934 -19.000 -27.326  1.00  0.00    -0.304 OA
ENDBRANCH  28  33
ENDBRANCH  25  28
ENDBRANCH  23  24
BRANCH  23  35
HETATM   35  C10 UNL     1      14.392 -18.513 -25.687  1.00  0.00     0.263 C 
HETATM   36  N4  UNL     1      14.634 -19.848 -25.963  1.00  0.00    -0.060 NA
HETATM   37  O4  UNL     1      13.669 -18.050 -24.844  1.00  0.00    -0.274 OA
ENDBRANCH  23  35
ENDBRANCH   3  23
TORSDOF 12
ENDMDL
