MODEL 1
REMARK VINA RESULT: -4.882623561      0.000      0.000
REMARK  1 active torsions:
REMARK  status: ('A' for Active; 'I' for Inactive)
REMARK    1  A    between atoms: C4_4  and  N1_5 
ROOT
HETATM    1  N1  UNL     1     -18.637   1.049 -11.130  1.00  0.00    -0.323 N 
ATOM      2  H1  UNL     1     -18.323   0.113 -10.874  1.00  0.00     0.172 HD
HETATM    3  C5  UNL     1     -18.678   1.361 -12.493  1.00  0.00     0.177 C 
HETATM    4  N2  UNL     1     -18.704   1.600 -13.615  1.00  0.00    -0.172 NA
ENDROOT
BRANCH   1   5
HETATM    5  C4  UNL     1     -18.999   1.930 -10.071  1.00  0.00     0.109 A 
HETATM    6  C2  UNL     1     -18.115   2.954  -9.503  1.00  0.00    -0.017 A 
HETATM    7  C1  UNL     1     -16.804   3.339 -10.138  1.00  0.00     0.018 C 
HETATM    8  C3  UNL     1     -18.822   4.137  -8.844  1.00  0.00     0.018 C 
HETATM    9  C6  UNL     1     -18.212   1.667  -8.778  1.00  0.00    -0.017 A 
HETATM   10  C7  UNL     1     -17.024   0.755  -8.842  1.00  0.00     0.018 C 
HETATM   11  C8  UNL     1     -19.054   1.515  -7.544  1.00  0.00     0.018 C 
ENDBRANCH   1   5
TORSDOF 1
ENDMDL
MODEL 2
REMARK VINA RESULT: -4.768994763      1.234      2.201
REMARK  1 active torsions:
REMARK  status: ('A' for Active; 'I' for Inactive)
REMARK    1  A    between atoms: C4_4  and  N1_5 
ROOT
HETATM    1  N1  UNL     1     -16.944   1.139 -10.748  1.00  0.00    -0.323 N 
ATOM      2  H1  UNL     1     -15.960   1.340 -10.927  1.00  0.00     0.172 HD
HETATM    3  C5  UNL     1     -17.743   0.815 -11.849  1.00  0.00     0.177 C 
HETATM    4  N2  UNL     1     -18.384   0.553 -12.764  1.00  0.00    -0.172 NA
ENDROOT
BRANCH   1   5
HETATM    5  C4  UNL     1     -17.391   1.211  -9.397  1.00  0.00     0.109 A 
HETATM    6  C2  UNL     1     -18.592   1.928  -8.956  1.00  0.00    -0.017 A 
HETATM    7  C1  UNL     1     -19.613   2.475  -9.920  1.00  0.00     0.018 C 
HETATM    8  C3  UNL     1     -19.218   1.421  -7.658  1.00  0.00     0.018 C 
HETATM    9  C6  UNL     1     -17.295   2.627  -8.809  1.00  0.00    -0.017 A 
HETATM   10  C7  UNL     1     -17.024   3.768  -9.743  1.00  0.00     0.018 C 
HETATM   11  C8  UNL     1     -16.589   2.717  -7.486  1.00  0.00     0.018 C 
ENDBRANCH   1   5
TORSDOF 1
ENDMDL
MODEL 3
REMARK VINA RESULT: -4.758586311      2.979      4.288
REMARK  1 active torsions:
REMARK  status: ('A' for Active; 'I' for Inactive)
REMARK    1  A    between atoms: C4_4  and  N1_5 
ROOT
HETATM    1  N1  UNL     1     -16.664   2.167  -7.031  1.00  0.00    -0.323 N 
ATOM      2  H1  UNL     1     -17.298   1.610  -6.460  1.00  0.00     0.172 HD
HETATM    3  C5  UNL     1     -15.755   2.993  -6.361  1.00  0.00     0.177 C 
HETATM    4  N2  UNL     1     -15.018   3.666  -5.796  1.00  0.00    -0.172 NA
ENDROOT
BRANCH   1   5
HETATM    5  C4  UNL     1     -16.776   2.041  -8.446  1.00  0.00     0.109 A 
HETATM    6  C2  UNL     1     -17.644   2.870  -9.288  1.00  0.00    -0.017 A 
HETATM    7  C1  UNL     1     -18.338   4.105  -8.773  1.00  0.00     0.018 C 
HETATM    8  C3  UNL     1     -17.207   3.004 -10.746  1.00  0.00     0.018 C 
HETATM    9  C6  UNL     1     -18.157   1.539  -8.894  1.00  0.00    -0.017 A 
HETATM   10  C7  UNL     1     -19.264   1.505  -7.883  1.00  0.00     0.018 C 
HETATM   11  C8  UNL     1     -18.131   0.370  -9.836  1.00  0.00     0.018 C 
ENDBRANCH   1   5
TORSDOF 1
ENDMDL
MODEL 4
REMARK VINA RESULT: -4.558447992      3.155      4.503
REMARK  1 active torsions:
REMARK  status: ('A' for Active; 'I' for Inactive)
REMARK    1  A    between atoms: C4_4  and  N1_5 
ROOT
HETATM    1  N1  UNL     1     -16.199   3.219  -7.414  1.00  0.00    -0.323 N 
ATOM      2  H1  UNL     1     -16.304   4.130  -7.861  1.00  0.00     0.172 HD
HETATM    3  C5  UNL     1     -15.389   3.152  -6.276  1.00  0.00     0.177 C 
HETATM    4  N2  UNL     1     -14.719   3.115  -5.345  1.00  0.00    -0.172 NA
ENDROOT
BRANCH   1   5
HETATM    5  C4  UNL     1     -16.891   2.120  -8.001  1.00  0.00     0.109 A 
HETATM    6  C2  UNL     1     -17.398   2.096  -9.377  1.00  0.00    -0.017 A 
HETATM    7  C1  UNL     1     -17.035   3.146 -10.395  1.00  0.00     0.018 C 
HETATM    8  C3  UNL     1     -17.555   0.707  -9.992  1.00  0.00     0.018 C 
HETATM    9  C6  UNL     1     -18.363   2.435  -8.308  1.00  0.00    -0.017 A 
HETATM   10  C7  UNL     1     -18.818   3.861  -8.224  1.00  0.00     0.018 C 
HETATM   11  C8  UNL     1     -19.348   1.430  -7.783  1.00  0.00     0.018 C 
ENDBRANCH   1   5
TORSDOF 1
ENDMDL
MODEL 5
REMARK VINA RESULT: -4.498963261      2.083      4.150
REMARK  1 active torsions:
REMARK  status: ('A' for Active; 'I' for Inactive)
REMARK    1  A    between atoms: C4_4  and  N1_5 
ROOT
HETATM    1  N1  UNL     1     -17.079   0.389 -11.588  1.00  0.00    -0.323 N 
ATOM      2  H1  UNL     1     -17.240  -0.433 -12.171  1.00  0.00     0.172 HD
HETATM    3  C5  UNL     1     -17.488   0.319 -10.253  1.00  0.00     0.177 C 
HETATM    4  N2  UNL     1     -17.831   0.244  -9.160  1.00  0.00    -0.172 NA
ENDROOT
BRANCH   1   5
HETATM    5  C4  UNL     1     -16.457   1.513 -12.203  1.00  0.00     0.109 A 
HETATM    6  C2  UNL     1     -16.826   2.910 -11.948  1.00  0.00    -0.017 A 
HETATM    7  C1  UNL     1     -17.751   3.315 -10.830  1.00  0.00     0.018 C 
HETATM    8  C3  UNL     1     -15.723   3.935 -12.203  1.00  0.00     0.018 C 
HETATM    9  C6  UNL     1     -17.395   2.270 -13.156  1.00  0.00    -0.017 A 
HETATM   10  C7  UNL     1     -18.856   1.937 -13.129  1.00  0.00     0.018 C 
HETATM   11  C8  UNL     1     -16.834   2.526 -14.526  1.00  0.00     0.018 C 
ENDBRANCH   1   5
TORSDOF 1
ENDMDL
