MODEL 1
REMARK VINA RESULT: -5.986555096      0.000      0.000
REMARK  2 active torsions:
REMARK  status: ('A' for Active; 'I' for Inactive)
REMARK    1  A    between atoms: O1_2  and  N1_3 
REMARK    2  A    between atoms: N1_3  and  C2_4 
ROOT
HETATM    1  C2  UNL     1     -16.877   1.576 -12.412  1.00  0.00     0.106 C 
HETATM    2  C3  UNL     1     -18.069   1.286 -13.278  1.00  0.00     0.024 C 
HETATM    3  C4  UNL     1     -17.931   1.845 -14.667  1.00  0.00     0.002 C 
HETATM    4  C5  UNL     1     -17.749   3.332 -14.696  1.00  0.00     0.000 C 
HETATM    5  C6  UNL     1     -16.389   3.797 -14.318  1.00  0.00     0.000 C 
HETATM    6  C7  UNL     1     -16.126   3.927 -12.866  1.00  0.00     0.002 C 
HETATM    7  C8  UNL     1     -16.930   3.013 -11.992  1.00  0.00     0.024 C 
ENDROOT
BRANCH   1   8
HETATM    8  N1  UNL     1     -17.002   0.757 -11.219  1.00  0.00    -0.097 NA
BRANCH   8   9
HETATM    9  O1  UNL     1     -18.266   0.538 -10.858  1.00  0.00    -0.291 OA
HETATM   10  C1  UNL     1     -18.383   0.697  -9.498  1.00  0.00     0.231 C 
ENDBRANCH   8   9
ENDBRANCH   1   8
TORSDOF 2
ENDMDL
MODEL 2
REMARK VINA RESULT: -5.969129423      1.867      3.916
REMARK  2 active torsions:
REMARK  status: ('A' for Active; 'I' for Inactive)
REMARK    1  A    between atoms: O1_2  and  N1_3 
REMARK    2  A    between atoms: N1_3  and  C2_4 
ROOT
HETATM    1  C2  UNL     1     -18.127   1.516 -11.567  1.00  0.00     0.106 C 
HETATM    2  C3  UNL     1     -18.180   0.536 -10.430  1.00  0.00     0.024 C 
HETATM    3  C4  UNL     1     -18.411   1.198  -9.100  1.00  0.00     0.002 C 
HETATM    4  C5  UNL     1     -17.352   2.195  -8.738  1.00  0.00     0.000 C 
HETATM    5  C6  UNL     1     -17.452   3.492  -9.458  1.00  0.00     0.000 C 
HETATM    6  C7  UNL     1     -16.842   3.535 -10.808  1.00  0.00     0.002 C 
HETATM    7  C8  UNL     1     -16.805   2.222 -11.528  1.00  0.00     0.024 C 
ENDROOT
BRANCH   1   8
HETATM    8  N1  UNL     1     -18.189   0.750 -12.799  1.00  0.00    -0.097 NA
BRANCH   8   9
HETATM    9  O1  UNL     1     -18.744   1.418 -13.810  1.00  0.00    -0.291 OA
HETATM   10  C1  UNL     1     -17.849   1.495 -14.849  1.00  0.00     0.231 C 
ENDBRANCH   8   9
ENDBRANCH   1   8
TORSDOF 2
ENDMDL
MODEL 3
REMARK VINA RESULT: -5.862774172      1.819      2.662
REMARK  2 active torsions:
REMARK  status: ('A' for Active; 'I' for Inactive)
REMARK    1  A    between atoms: O1_2  and  N1_3 
REMARK    2  A    between atoms: N1_3  and  C2_4 
ROOT
HETATM    1  C2  UNL     1     -17.037   3.281 -11.750  1.00  0.00     0.106 C 
HETATM    2  C3  UNL     1     -16.260   4.007 -12.811  1.00  0.00     0.024 C 
HETATM    3  C4  UNL     1     -16.828   3.807 -14.189  1.00  0.00     0.002 C 
HETATM    4  C5  UNL     1     -16.868   2.372 -14.615  1.00  0.00     0.000 C 
HETATM    5  C6  UNL     1     -17.958   1.573 -13.995  1.00  0.00     0.000 C 
HETATM    6  C7  UNL     1     -17.677   1.026 -12.647  1.00  0.00     0.002 C 
HETATM    7  C8  UNL     1     -16.706   1.822 -11.830  1.00  0.00     0.024 C 
ENDROOT
BRANCH   1   8
HETATM    8  N1  UNL     1     -16.577   3.774 -10.465  1.00  0.00    -0.097 NA
BRANCH   8   9
HETATM    9  O1  UNL     1     -17.087   3.110  -9.428  1.00  0.00    -0.291 OA
HETATM   10  C1  UNL     1     -18.195   3.777  -8.963  1.00  0.00     0.231 C 
ENDBRANCH   8   9
ENDBRANCH   1   8
TORSDOF 2
ENDMDL
MODEL 4
REMARK VINA RESULT: -5.821321384      0.538      2.012
REMARK  2 active torsions:
REMARK  status: ('A' for Active; 'I' for Inactive)
REMARK    1  A    between atoms: O1_2  and  N1_3 
REMARK    2  A    between atoms: N1_3  and  C2_4 
ROOT
HETATM    1  C2  UNL     1     -17.634   1.605 -12.404  1.00  0.00     0.106 C 
HETATM    2  C3  UNL     1     -16.446   2.475 -12.104  1.00  0.00     0.024 C 
HETATM    3  C4  UNL     1     -16.509   3.807 -12.798  1.00  0.00     0.002 C 
HETATM    4  C5  UNL     1     -16.577   3.699 -14.291  1.00  0.00     0.000 C 
HETATM    5  C6  UNL     1     -17.908   3.302 -14.823  1.00  0.00     0.000 C 
HETATM    6  C7  UNL     1     -18.194   1.849 -14.838  1.00  0.00     0.002 C 
HETATM    7  C8  UNL     1     -17.483   1.051 -13.788  1.00  0.00     0.024 C 
ENDROOT
BRANCH   1   8
HETATM    8  N1  UNL     1     -17.600   0.493 -11.471  1.00  0.00    -0.097 NA
BRANCH   8   9
HETATM    9  O1  UNL     1     -18.607   0.503 -10.598  1.00  0.00    -0.291 OA
HETATM   10  C1  UNL     1     -18.119   0.787  -9.346  1.00  0.00     0.231 C 
ENDBRANCH   8   9
ENDBRANCH   1   8
TORSDOF 2
ENDMDL
MODEL 5
REMARK VINA RESULT: -5.708266787      2.226      2.934
REMARK  2 active torsions:
REMARK  status: ('A' for Active; 'I' for Inactive)
REMARK    1  A    between atoms: O1_2  and  N1_3 
REMARK    2  A    between atoms: N1_3  and  C2_4 
ROOT
HETATM    1  C2  UNL     1     -17.442   1.507  -9.555  1.00  0.00     0.106 C 
HETATM    2  C3  UNL     1     -18.046   0.662 -10.640  1.00  0.00     0.024 C 
HETATM    3  C4  UNL     1     -17.316   0.784 -11.949  1.00  0.00     0.002 C 
HETATM    4  C5  UNL     1     -17.281   2.183 -12.484  1.00  0.00     0.000 C 
HETATM    5  C6  UNL     1     -16.313   3.082 -11.803  1.00  0.00     0.000 C 
HETATM    6  C7  UNL     1     -16.786   3.717 -10.550  1.00  0.00     0.002 C 
HETATM    7  C8  UNL     1     -17.820   2.937  -9.796  1.00  0.00     0.024 C 
ENDROOT
BRANCH   1   8
HETATM    8  N1  UNL     1     -18.043   1.092  -8.301  1.00  0.00    -0.097 NA
BRANCH   8   9
HETATM    9  O1  UNL     1     -17.369   1.506  -7.228  1.00  0.00    -0.291 OA
HETATM   10  C1  UNL     1     -18.259   1.875  -6.248  1.00  0.00     0.231 C 
ENDBRANCH   8   9
ENDBRANCH   1   8
TORSDOF 2
ENDMDL
