MODEL 1
REMARK VINA RESULT: -6.167248860      0.000      0.000
REMARK  4 active torsions:
REMARK  status: ('A' for Active; 'I' for Inactive)
REMARK    1  A    between atoms: N1_1  and  N2_4 
REMARK    2  A    between atoms: N2_4  and  N3_5 
REMARK    3  A    between atoms: N3_5  and  C1_7 
REMARK    4  A    between atoms: C6_12  and  O1_13 
ROOT
HETATM    1  C1  UNL     1     -16.924   1.417 -12.364  1.00  0.00     0.143 C 
HETATM    2  C2  UNL     1     -16.960   2.783 -11.693  1.00  0.00     0.030 C 
HETATM    3  C3  UNL     1     -16.236   3.721 -12.669  1.00  0.00     0.002 C 
HETATM    4  C4  UNL     1     -16.703   3.393 -14.053  1.00  0.00     0.003 C 
HETATM    5  C5  UNL     1     -18.063   2.736 -14.084  1.00  0.00     0.034 C 
HETATM    6  C6  UNL     1     -18.013   1.392 -13.423  1.00  0.00     0.143 C 
ENDROOT
BRANCH   1   7
HETATM    7  N3  UNL     1     -17.043   0.348 -11.417  1.00  0.00    -0.245 N 
ATOM      8  H3  UNL     1     -16.379  -0.425 -11.480  1.00  0.00     0.197 HD
BRANCH   7   9
HETATM    9  N2  UNL     1     -17.901   0.306 -10.531  1.00  0.00    -0.248 NA
BRANCH   9  10
HETATM   10  N1  UNL     1     -18.857   0.524  -9.762  1.00  0.00    -0.261 N 
ATOM     11  H12 UNL     1     -18.837   1.525  -9.951  1.00  0.00     0.193 HD
ATOM     12  H11 UNL     1     -19.629   0.456  -9.099  1.00  0.00     0.193 HD
ENDBRANCH   9  10
ENDBRANCH   7   9
ENDBRANCH   1   7
BRANCH   6  13
HETATM   13  O1  UNL     1     -19.244   1.014 -12.886  1.00  0.00    -0.393 OA
ATOM     14  H1  UNL     1     -19.620   0.278 -13.355  1.00  0.00     0.210 HD
ENDBRANCH   6  13
TORSDOF 4
ENDMDL
MODEL 2
REMARK VINA RESULT: -5.705898822      3.078      4.175
REMARK  4 active torsions:
REMARK  status: ('A' for Active; 'I' for Inactive)
REMARK    1  A    between atoms: N1_1  and  N2_4 
REMARK    2  A    between atoms: N2_4  and  N3_5 
REMARK    3  A    between atoms: N3_5  and  C1_7 
REMARK    4  A    between atoms: C6_12  and  O1_13 
ROOT
HETATM    1  C1  UNL     1     -18.848   2.002  -9.832  1.00  0.00     0.143 C 
HETATM    2  C2  UNL     1     -17.755   3.050  -9.985  1.00  0.00     0.030 C 
HETATM    3  C3  UNL     1     -17.983   4.030  -8.825  1.00  0.00     0.002 C 
HETATM    4  C4  UNL     1     -18.285   3.227  -7.598  1.00  0.00     0.003 C 
HETATM    5  C5  UNL     1     -17.739   1.820  -7.657  1.00  0.00     0.034 C 
HETATM    6  C6  UNL     1     -18.416   1.037  -8.741  1.00  0.00     0.143 C 
ENDROOT
BRANCH   1   7
HETATM    7  N3  UNL     1     -19.144   1.346 -11.071  1.00  0.00    -0.245 N 
ATOM      8  H3  UNL     1     -20.122   1.258 -11.347  1.00  0.00     0.197 HD
BRANCH   7   9
HETATM    9  N2  UNL     1     -18.284   0.880 -11.825  1.00  0.00    -0.248 NA
BRANCH   9  10
HETATM   10  N1  UNL     1     -17.283   0.332 -12.325  1.00  0.00    -0.261 N 
ATOM     11  H12 UNL     1     -16.763   0.385 -11.450  1.00  0.00     0.193 HD
ATOM     12  H11 UNL     1     -16.605  -0.121 -12.938  1.00  0.00     0.193 HD
ENDBRANCH   9  10
ENDBRANCH   7   9
ENDBRANCH   1   7
BRANCH   6  13
HETATM   13  O1  UNL     1     -17.610   0.017  -9.247  1.00  0.00    -0.393 OA
ATOM     14  H1  UNL     1     -17.885  -0.836  -8.931  1.00  0.00     0.210 HD
ENDBRANCH   6  13
TORSDOF 4
ENDMDL
MODEL 3
REMARK VINA RESULT: -5.611472098      2.543      3.453
REMARK  4 active torsions:
REMARK  status: ('A' for Active; 'I' for Inactive)
REMARK    1  A    between atoms: N1_1  and  N2_4 
REMARK    2  A    between atoms: N2_4  and  N3_5 
REMARK    3  A    between atoms: N3_5  and  C1_7 
REMARK    4  A    between atoms: C6_12  and  O1_13 
ROOT
HETATM    1  C1  UNL     1     -18.374   1.969 -11.606  1.00  0.00     0.143 C 
HETATM    2  C2  UNL     1     -16.875   2.225 -11.669  1.00  0.00     0.030 C 
HETATM    3  C3  UNL     1     -16.657   3.492 -10.829  1.00  0.00     0.002 C 
HETATM    4  C4  UNL     1     -17.491   3.372  -9.592  1.00  0.00     0.003 C 
HETATM    5  C5  UNL     1     -17.812   1.942  -9.224  1.00  0.00     0.034 C 
HETATM    6  C6  UNL     1     -18.677   1.310 -10.272  1.00  0.00     0.143 C 
ENDROOT
BRANCH   1   7
HETATM    7  N3  UNL     1     -18.837   1.201 -12.725  1.00  0.00    -0.245 N 
ATOM      8  H3  UNL     1     -19.335   0.331 -12.536  1.00  0.00     0.197 HD
BRANCH   7   9
HETATM    9  N2  UNL     1     -18.668   1.530 -13.902  1.00  0.00    -0.248 NA
BRANCH   9  10
HETATM   10  N1  UNL     1     -18.204   1.844 -15.016  1.00  0.00    -0.261 N 
ATOM     11  H12 UNL     1     -17.460   1.149 -14.950  1.00  0.00     0.193 HD
ATOM     12  H11 UNL     1     -18.012   2.263 -15.925  1.00  0.00     0.193 HD
ENDBRANCH   9  10
ENDBRANCH   7   9
ENDBRANCH   1   7
BRANCH   6  13
HETATM   13  O1  UNL     1     -18.516  -0.075 -10.334  1.00  0.00    -0.393 OA
ATOM     14  H1  UNL     1     -18.475  -0.462  -9.467  1.00  0.00     0.210 HD
ENDBRANCH   6  13
TORSDOF 4
ENDMDL
MODEL 4
REMARK VINA RESULT: -5.491648505      2.025      2.439
REMARK  4 active torsions:
REMARK  status: ('A' for Active; 'I' for Inactive)
REMARK    1  A    between atoms: N1_1  and  N2_4 
REMARK    2  A    between atoms: N2_4  and  N3_5 
REMARK    3  A    between atoms: N3_5  and  C1_7 
REMARK    4  A    between atoms: C6_12  and  O1_13 
ROOT
HETATM    1  C1  UNL     1     -16.972   1.557  -9.867  1.00  0.00     0.143 C 
HETATM    2  C2  UNL     1     -17.587   2.907 -10.211  1.00  0.00     0.030 C 
HETATM    3  C3  UNL     1     -16.797   3.399 -11.432  1.00  0.00     0.002 C 
HETATM    4  C4  UNL     1     -16.614   2.239 -12.360  1.00  0.00     0.003 C 
HETATM    5  C5  UNL     1     -17.660   1.163 -12.183  1.00  0.00     0.034 C 
HETATM    6  C6  UNL     1     -17.541   0.530 -10.831  1.00  0.00     0.143 C 
ENDROOT
BRANCH   1   7
HETATM    7  N3  UNL     1     -17.177   1.206  -8.493  1.00  0.00    -0.245 N 
ATOM      8  H3  UNL     1     -16.379   0.856  -7.962  1.00  0.00     0.197 HD
BRANCH   7   9
HETATM    9  N2  UNL     1     -18.263   1.301  -7.913  1.00  0.00    -0.248 NA
BRANCH   9  10
HETATM   10  N1  UNL     1     -19.470   1.339  -7.604  1.00  0.00    -0.261 N 
ATOM     11  H12 UNL     1     -19.739   0.785  -8.417  1.00  0.00     0.193 HD
ATOM     12  H11 UNL     1     -20.373   1.503  -7.160  1.00  0.00     0.193 HD
ENDBRANCH   9  10
ENDBRANCH   7   9
ENDBRANCH   1   7
BRANCH   6  13
HETATM   13  O1  UNL     1     -18.753   0.012 -10.374  1.00  0.00    -0.393 OA
ATOM     14  H1  UNL     1     -19.398  -0.037 -11.070  1.00  0.00     0.210 HD
ENDBRANCH   6  13
TORSDOF 4
ENDMDL
MODEL 5
REMARK VINA RESULT: -5.162799220      1.658      1.758
REMARK  4 active torsions:
REMARK  status: ('A' for Active; 'I' for Inactive)
REMARK    1  A    between atoms: N1_1  and  N2_4 
REMARK    2  A    between atoms: N2_4  and  N3_5 
REMARK    3  A    between atoms: N3_5  and  C1_7 
REMARK    4  A    between atoms: C6_12  and  O1_13 
ROOT
HETATM    1  C1  UNL     1     -16.953   2.025 -12.326  1.00  0.00     0.143 C 
HETATM    2  C2  UNL     1     -17.133   3.454 -12.819  1.00  0.00     0.030 C 
HETATM    3  C3  UNL     1     -16.448   3.485 -14.193  1.00  0.00     0.002 C 
HETATM    4  C4  UNL     1     -16.825   2.234 -14.924  1.00  0.00     0.003 C 
HETATM    5  C5  UNL     1     -18.123   1.630 -14.440  1.00  0.00     0.034 C 
HETATM    6  C6  UNL     1     -17.990   1.160 -13.023  1.00  0.00     0.143 C 
ENDROOT
BRANCH   1   7
HETATM    7  N3  UNL     1     -17.023   1.935 -10.897  1.00  0.00    -0.245 N 
ATOM      8  H3  UNL     1     -16.748   1.057 -10.458  1.00  0.00     0.197 HD
BRANCH   7   9
HETATM    9  N2  UNL     1     -17.397   2.857 -10.167  1.00  0.00    -0.248 NA
BRANCH   9  10
HETATM   10  N1  UNL     1     -17.486   3.780  -9.334  1.00  0.00    -0.261 N 
ATOM     11  H12 UNL     1     -16.946   3.264  -8.640  1.00  0.00     0.193 HD
ATOM     12  H11 UNL     1     -17.688   4.646  -8.834  1.00  0.00     0.193 HD
ENDBRANCH   9  10
ENDBRANCH   7   9
ENDBRANCH   1   7
BRANCH   6  13
HETATM   13  O1  UNL     1     -19.207   1.165 -12.341  1.00  0.00    -0.393 OA
ATOM     14  H1  UNL     1     -19.941   1.267 -12.936  1.00  0.00     0.210 HD
ENDBRANCH   6  13
TORSDOF 4
ENDMDL
