MODEL 1
REMARK VINA RESULT: -7.299579019      0.000      0.000
REMARK  12 active torsions:
REMARK  status: ('A' for Active; 'I' for Inactive)
REMARK    1  A    between atoms: N1_1  and  C1_4 
REMARK    2  A    between atoms: N3_7  and  C2_8 
REMARK    3  A    between atoms: C3_11  and  C4_12 
REMARK    4  A    between atoms: C5_18  and  C6_19 
REMARK    5  A    between atoms: C6_19  and  O3_20 
REMARK    6  A    between atoms: C6_19  and  C7_22 
REMARK    7  A    between atoms: C7_22  and  O4_23 
REMARK    8  A    between atoms: C7_22  and  C8_25 
REMARK    9  A    between atoms: C8_25  and  O5_26 
REMARK   10  A    between atoms: N7_33  and  C11_34 
REMARK   11  A    between atoms: C12_38  and  O7_39 
REMARK   12  A    between atoms: C12_38  and  O8_41 
ROOT
HETATM    1  C1  UNL     1      14.309  13.722 122.342  1.00  0.00     0.145 A 
HETATM    2  N2  UNL     1      15.647  13.686 122.333  1.00  0.00    -0.276 N 
ATOM      3  H2  UNL     1      16.242  14.515 122.311  1.00  0.00     0.189 HD
HETATM    4  N3  UNL     1      16.106  12.441 122.356  1.00  0.00    -0.225 N 
HETATM    5  C9  UNL     1      15.002  11.652 122.382  1.00  0.00     0.158 A 
HETATM    6  N6  UNL     1      14.556  10.379 122.413  1.00  0.00    -0.335 N 
ATOM      7  H6  UNL     1      15.146   9.547 122.427  1.00  0.00     0.168 HD
HETATM    8  C10 UNL     1      13.214  10.381 122.423  1.00  0.00     0.189 A 
HETATM    9  N7  UNL     1      12.765  11.651 122.399  1.00  0.00    -0.286 N 
HETATM   10  C13 UNL     1      13.861  12.430 122.374  1.00  0.00     0.130 A 
ENDROOT
BRANCH   4  11
HETATM   11  C2  UNL     1      17.500  12.008 122.354  1.00  0.00     0.354 C 
HETATM   12  N4  UNL     1      17.759  11.366 123.599  1.00  0.00    -0.343 N 
HETATM   13  C3  UNL     1      19.056  11.582 124.154  1.00  0.00     0.388 C 
ATOM     14  H4  UNL     1      17.061  10.788 124.066  1.00  0.00     0.160 HD
HETATM   15  N5  UNL     1      20.065  11.891 123.170  1.00  0.00    -0.015 N 
HETATM   16  C5  UNL     1      19.628  12.989 122.375  1.00  0.00     0.358 C 
ATOM     17  H52 UNL     1      20.978  12.058 123.592  1.00  0.00     0.283 HD
ATOM     18  H51 UNL     1      20.314  11.079 122.604  1.00  0.00     0.283 HD
HETATM   19  O6  UNL     1      18.329  13.034 122.016  1.00  0.00    -0.312 OA
BRANCH  13  20
HETATM   20  C4  UNL     1      18.981  12.596 125.239  1.00  0.00     0.225 C 
HETATM   21  O1  UNL     1      17.951  13.216 125.555  1.00  0.00    -0.645 OA
HETATM   22  O2  UNL     1      20.141  12.898 125.978  1.00  0.00    -0.645 OA
ENDBRANCH  13  20
BRANCH  16  23
HETATM   23  C6  UNL     1      20.475  12.959 121.091  1.00  0.00     0.205 C 
BRANCH  23  24
HETATM   24  O3  UNL     1      19.739  13.432 120.012  1.00  0.00    -0.389 OA
ATOM     25  H3  UNL     1      19.205  14.172 120.273  1.00  0.00     0.210 HD
ENDBRANCH  23  24
BRANCH  23  26
HETATM   26  C7  UNL     1      21.729  13.757 121.314  1.00  0.00     0.174 C 
BRANCH  26  27
HETATM   27  O4  UNL     1      21.426  15.054 121.708  1.00  0.00    -0.391 OA
ATOM     28  H4  UNL     1      22.127  15.420 122.233  1.00  0.00     0.210 HD
ENDBRANCH  26  27
BRANCH  26  29
HETATM   29  C8  UNL     1      22.603  13.789 120.076  1.00  0.00     0.198 C 
BRANCH  29  30
HETATM   30  O5  UNL     1      22.110  14.643 119.111  1.00  0.00    -0.398 OA
ATOM     31  H5  UNL     1      22.733  14.788 118.409  1.00  0.00     0.209 HD
ENDBRANCH  29  30
ENDBRANCH  26  29
ENDBRANCH  23  26
ENDBRANCH  16  23
ENDBRANCH   4  11
BRANCH   1  32
HETATM   32  N1  UNL     1      13.569  14.778 122.326  1.00  0.00    -0.382 N 
ATOM     33  H12 UNL     1      13.753  15.629 121.794  1.00  0.00     0.157 HD
ATOM     34  H11 UNL     1      12.698  14.917 122.837  1.00  0.00     0.157 HD
ENDBRANCH   1  32
BRANCH   9  35
HETATM   35  C11 UNL     1      11.372  12.027 122.402  1.00  0.00     0.452 C 
HETATM   36  N8  UNL     1      10.523  11.334 123.323  1.00  0.00     0.055 N 
HETATM   37  C12 UNL     1       9.889  12.650 123.472  1.00  0.00     0.467 C 
ATOM     38  H82 UNL     1      10.002  10.493 123.072  1.00  0.00     0.292 HD
ATOM     39  H81 UNL     1      10.883  10.799 124.113  1.00  0.00     0.292 HD
HETATM   40  O9  UNL     1      11.130  13.201 123.151  1.00  0.00    -0.258 OA
BRANCH  37  41
HETATM   41  O7  UNL     1       8.990  12.949 122.431  1.00  0.00    -0.320 OA
ATOM     42  H7  UNL     1       9.425  13.124 121.604  1.00  0.00     0.217 HD
ENDBRANCH  37  41
BRANCH  37  43
HETATM   43  O8  UNL     1       9.429  12.929 124.737  1.00  0.00    -0.320 OA
ATOM     44  H8  UNL     1       9.097  13.811 124.855  1.00  0.00     0.217 HD
ENDBRANCH  37  43
ENDBRANCH   9  35
TORSDOF 12
ENDMDL
MODEL 2
REMARK VINA RESULT: -6.993728547      0.831      1.835
REMARK  12 active torsions:
REMARK  status: ('A' for Active; 'I' for Inactive)
REMARK    1  A    between atoms: N1_1  and  C1_4 
REMARK    2  A    between atoms: N3_7  and  C2_8 
REMARK    3  A    between atoms: C3_11  and  C4_12 
REMARK    4  A    between atoms: C5_18  and  C6_19 
REMARK    5  A    between atoms: C6_19  and  O3_20 
REMARK    6  A    between atoms: C6_19  and  C7_22 
REMARK    7  A    between atoms: C7_22  and  O4_23 
REMARK    8  A    between atoms: C7_22  and  C8_25 
REMARK    9  A    between atoms: C8_25  and  O5_26 
REMARK   10  A    between atoms: N7_33  and  C11_34 
REMARK   11  A    between atoms: C12_38  and  O7_39 
REMARK   12  A    between atoms: C12_38  and  O8_41 
ROOT
HETATM    1  C1  UNL     1      14.592  10.185 122.055  1.00  0.00     0.145 A 
HETATM    2  N2  UNL     1      15.903   9.917 122.061  1.00  0.00    -0.276 N 
ATOM      3  H2  UNL     1      16.297   8.983 121.949  1.00  0.00     0.189 HD
HETATM    4  N3  UNL     1      16.629  11.015 122.233  1.00  0.00    -0.225 N 
HETATM    5  C9  UNL     1      15.729  12.027 122.338  1.00  0.00     0.158 A 
HETATM    6  N6  UNL     1      15.579  13.356 122.512  1.00  0.00    -0.335 N 
ATOM      7  H6  UNL     1      16.340  14.026 122.626  1.00  0.00     0.168 HD
HETATM    8  C10 UNL     1      14.272  13.658 122.509  1.00  0.00     0.189 A 
HETATM    9  N7  UNL     1      13.551  12.533 122.335  1.00  0.00    -0.286 N 
HETATM   10  C13 UNL     1      14.444  11.533 122.230  1.00  0.00     0.130 A 
ENDROOT
BRANCH   4  11
HETATM   11  C2  UNL     1      18.083  11.119 122.295  1.00  0.00     0.354 C 
HETATM   12  N4  UNL     1      18.488  10.797 123.621  1.00  0.00    -0.343 N 
HETATM   13  C3  UNL     1      19.591  11.542 124.135  1.00  0.00     0.388 C 
ATOM     14  H4  UNL     1      18.019  10.077 124.171  1.00  0.00     0.160 HD
HETATM   15  N5  UNL     1      20.473  12.054 123.114  1.00  0.00    -0.015 N 
HETATM   16  C5  UNL     1      19.715  12.796 122.164  1.00  0.00     0.358 C 
ATOM     17  H52 UNL     1      21.242  12.598 123.506  1.00  0.00     0.283 HD
ATOM     18  H51 UNL     1      21.026  11.316 122.677  1.00  0.00     0.283 HD
HETATM   19  O6  UNL     1      18.507  12.318 121.804  1.00  0.00    -0.312 OA
BRANCH  13  20
HETATM   20  C4  UNL     1      19.101  12.603 125.056  1.00  0.00     0.225 C 
HETATM   21  O1  UNL     1      19.809  13.199 125.885  1.00  0.00    -0.645 OA
HETATM   22  O2  UNL     1      17.744  12.979 125.012  1.00  0.00    -0.645 OA
ENDBRANCH  13  20
BRANCH  16  23
HETATM   23  C6  UNL     1      20.584  12.894 120.898  1.00  0.00     0.205 C 
BRANCH  23  24
HETATM   24  O3  UNL     1      19.860  13.458 119.855  1.00  0.00    -0.389 OA
ATOM     25  H3  UNL     1      20.442  13.726 119.153  1.00  0.00     0.210 HD
ENDBRANCH  23  24
BRANCH  23  26
HETATM   26  C7  UNL     1      21.824  13.680 121.217  1.00  0.00     0.174 C 
BRANCH  26  27
HETATM   27  O4  UNL     1      21.500  14.916 121.761  1.00  0.00    -0.391 OA
ATOM     28  H4  UNL     1      21.145  15.495 121.097  1.00  0.00     0.210 HD
ENDBRANCH  26  27
BRANCH  26  29
HETATM   29  C8  UNL     1      22.697  13.873 119.993  1.00  0.00     0.198 C 
BRANCH  29  30
HETATM   30  O5  UNL     1      22.173  14.804 119.120  1.00  0.00    -0.398 OA
ATOM     31  H5  UNL     1      21.415  15.247 119.480  1.00  0.00     0.209 HD
ENDBRANCH  29  30
ENDBRANCH  26  29
ENDBRANCH  23  26
ENDBRANCH  16  23
ENDBRANCH   4  11
BRANCH   1  32
HETATM   32  N1  UNL     1      13.635   9.333 121.908  1.00  0.00    -0.382 N 
ATOM     33  H12 UNL     1      13.687   8.334 122.111  1.00  0.00     0.157 HD
ATOM     34  H11 UNL     1      12.692   9.529 121.572  1.00  0.00     0.157 HD
ENDBRANCH   1  32
BRANCH   9  35
HETATM   35  C11 UNL     1      12.109  12.485 122.281  1.00  0.00     0.452 C 
HETATM   36  N8  UNL     1      11.459  11.656 123.251  1.00  0.00     0.055 N 
HETATM   37  C12 UNL     1      10.466  12.737 123.264  1.00  0.00     0.467 C 
ATOM     38  H82 UNL     1      11.215  10.682 123.074  1.00  0.00     0.292 HD
ATOM     39  H81 UNL     1      11.925  11.322 124.095  1.00  0.00     0.292 HD
HETATM   40  O9  UNL     1      11.506  13.597 122.910  1.00  0.00    -0.258 OA
BRANCH  37  41
HETATM   41  O7  UNL     1       9.564  12.669 122.185  1.00  0.00    -0.320 OA
ATOM     42  H7  UNL     1       9.592  13.437 121.628  1.00  0.00     0.217 HD
ENDBRANCH  37  41
BRANCH  37  43
HETATM   43  O8  UNL     1       9.891  12.979 124.489  1.00  0.00    -0.320 OA
ATOM     44  H8  UNL     1      10.462  13.399 125.122  1.00  0.00     0.217 HD
ENDBRANCH  37  43
ENDBRANCH   9  35
TORSDOF 12
ENDMDL
MODEL 3
REMARK VINA RESULT: -6.935010114      0.929      1.798
REMARK  12 active torsions:
REMARK  status: ('A' for Active; 'I' for Inactive)
REMARK    1  A    between atoms: N1_1  and  C1_4 
REMARK    2  A    between atoms: N3_7  and  C2_8 
REMARK    3  A    between atoms: C3_11  and  C4_12 
REMARK    4  A    between atoms: C5_18  and  C6_19 
REMARK    5  A    between atoms: C6_19  and  O3_20 
REMARK    6  A    between atoms: C6_19  and  C7_22 
REMARK    7  A    between atoms: C7_22  and  O4_23 
REMARK    8  A    between atoms: C7_22  and  C8_25 
REMARK    9  A    between atoms: C8_25  and  O5_26 
REMARK   10  A    between atoms: N7_33  and  C11_34 
REMARK   11  A    between atoms: C12_38  and  O7_39 
REMARK   12  A    between atoms: C12_38  and  O8_41 
ROOT
HETATM    1  C1  UNL     1      14.172  10.993 122.747  1.00  0.00     0.145 A 
HETATM    2  N2  UNL     1      15.428  10.529 122.752  1.00  0.00    -0.276 N 
ATOM      3  H2  UNL     1      15.674   9.544 122.853  1.00  0.00     0.189 HD
HETATM    4  N3  UNL     1      16.314  11.507 122.611  1.00  0.00    -0.225 N 
HETATM    5  C9  UNL     1      15.580  12.644 122.510  1.00  0.00     0.158 A 
HETATM    6  N6  UNL     1      15.635  13.984 122.357  1.00  0.00    -0.335 N 
ATOM      7  H6  UNL     1      16.490  14.532 122.264  1.00  0.00     0.168 HD
HETATM    8  C10 UNL     1      14.389  14.480 122.348  1.00  0.00     0.189 A 
HETATM    9  N7  UNL     1      13.503  13.475 122.494  1.00  0.00    -0.286 N 
HETATM   10  C13 UNL     1      14.233  12.350 122.593  1.00  0.00     0.130 A 
ENDROOT
BRANCH   4  11
HETATM   11  C2  UNL     1      17.767  11.390 122.570  1.00  0.00     0.354 C 
HETATM   12  N4  UNL     1      18.203  10.902 123.836  1.00  0.00    -0.343 N 
HETATM   13  C3  UNL     1      19.436  11.432 124.318  1.00  0.00     0.388 C 
ATOM     14  H4  UNL     1      17.665  10.216 124.365  1.00  0.00     0.160 HD
HETATM   15  N5  UNL     1      20.320  11.890 123.273  1.00  0.00    -0.015 N 
HETATM   16  C5  UNL     1      19.626  12.813 122.439  1.00  0.00     0.358 C 
ATOM     17  H52 UNL     1      21.186  12.280 123.643  1.00  0.00     0.283 HD
ATOM     18  H51 UNL     1      20.724  11.118 122.743  1.00  0.00     0.283 HD
HETATM   19  O6  UNL     1      18.338  12.549 122.137  1.00  0.00    -0.312 OA
BRANCH  13  20
HETATM   20  C4  UNL     1      19.174  12.473 125.347  1.00  0.00     0.225 C 
HETATM   21  O1  UNL     1      18.079  13.036 125.517  1.00  0.00    -0.645 OA
HETATM   22  O2  UNL     1      20.218  12.872 126.203  1.00  0.00    -0.645 OA
ENDBRANCH  13  20
BRANCH  16  23
HETATM   23  C6  UNL     1      20.416  12.886 121.122  1.00  0.00     0.205 C 
BRANCH  23  24
HETATM   24  O3  UNL     1      19.630  13.426 120.111  1.00  0.00    -0.389 OA
ATOM     25  H3  UNL     1      20.090  13.398 119.281  1.00  0.00     0.210 HD
ENDBRANCH  23  24
BRANCH  23  26
HETATM   26  C7  UNL     1      21.671  13.681 121.348  1.00  0.00     0.174 C 
BRANCH  26  27
HETATM   27  O4  UNL     1      21.370  14.973 121.760  1.00  0.00    -0.391 OA
ATOM     28  H4  UNL     1      21.546  15.081 122.686  1.00  0.00     0.210 HD
ENDBRANCH  26  27
BRANCH  26  29
HETATM   29  C8  UNL     1      22.540  13.728 120.107  1.00  0.00     0.198 C 
BRANCH  29  30
HETATM   30  O5  UNL     1      21.985  14.506 119.112  1.00  0.00    -0.398 OA
ATOM     31  H5  UNL     1      22.607  14.703 118.421  1.00  0.00     0.209 HD
ENDBRANCH  29  30
ENDBRANCH  26  29
ENDBRANCH  23  26
ENDBRANCH  16  23
ENDBRANCH   4  11
BRANCH   1  32
HETATM   32  N1  UNL     1      13.094  10.293 122.865  1.00  0.00    -0.382 N 
ATOM     33  H12 UNL     1      12.143  10.661 122.898  1.00  0.00     0.157 HD
ATOM     34  H11 UNL     1      13.034   9.278 122.941  1.00  0.00     0.157 HD
ENDBRANCH   1  32
BRANCH   9  35
HETATM   35  C11 UNL     1      12.070  13.646 122.527  1.00  0.00     0.452 C 
HETATM   36  N8  UNL     1      11.314  12.903 121.564  1.00  0.00     0.055 N 
HETATM   37  C12 UNL     1      10.361  12.758 122.671  1.00  0.00     0.467 C 
ATOM     38  H82 UNL     1      11.052  13.282 120.654  1.00  0.00     0.292 HD
ATOM     39  H81 UNL     1      11.696  12.107 121.054  1.00  0.00     0.292 HD
HETATM   40  O9  UNL     1      11.455  12.861 123.530  1.00  0.00    -0.258 OA
BRANCH  37  41
HETATM   41  O7  UNL     1       9.549  13.894 122.852  1.00  0.00    -0.320 OA
ATOM     42  H7  UNL     1       8.930  14.025 122.143  1.00  0.00     0.217 HD
ENDBRANCH  37  41
BRANCH  37  43
HETATM   43  O8  UNL     1       9.695  11.556 122.706  1.00  0.00    -0.320 OA
ATOM     44  H8  UNL     1       9.172  11.412 123.486  1.00  0.00     0.217 HD
ENDBRANCH  37  43
ENDBRANCH   9  35
TORSDOF 12
ENDMDL
MODEL 4
REMARK VINA RESULT: -6.859999055      2.844      4.245
REMARK  12 active torsions:
REMARK  status: ('A' for Active; 'I' for Inactive)
REMARK    1  A    between atoms: N1_1  and  C1_4 
REMARK    2  A    between atoms: N3_7  and  C2_8 
REMARK    3  A    between atoms: C3_11  and  C4_12 
REMARK    4  A    between atoms: C5_18  and  C6_19 
REMARK    5  A    between atoms: C6_19  and  O3_20 
REMARK    6  A    between atoms: C6_19  and  C7_22 
REMARK    7  A    between atoms: C7_22  and  O4_23 
REMARK    8  A    between atoms: C7_22  and  C8_25 
REMARK    9  A    between atoms: C8_25  and  O5_26 
REMARK   10  A    between atoms: N7_33  and  C11_34 
REMARK   11  A    between atoms: C12_38  and  O7_39 
REMARK   12  A    between atoms: C12_38  and  O8_41 
ROOT
HETATM    1  C1  UNL     1      12.633  14.313 122.143  1.00  0.00     0.145 A 
HETATM    2  N2  UNL     1      13.947  14.074 122.059  1.00  0.00    -0.276 N 
ATOM      3  H2  UNL     1      14.644  14.783 121.829  1.00  0.00     0.189 HD
HETATM    4  N3  UNL     1      14.233  12.803 122.312  1.00  0.00    -0.225 N 
HETATM    5  C9  UNL     1      13.039  12.211 122.570  1.00  0.00     0.158 A 
HETATM    6  N6  UNL     1      12.430  11.051 122.893  1.00  0.00    -0.335 N 
ATOM      7  H6  UNL     1      12.900  10.159 123.043  1.00  0.00     0.168 HD
HETATM    8  C10 UNL     1      11.107  11.258 122.985  1.00  0.00     0.189 A 
HETATM    9  N7  UNL     1      10.834  12.551 122.725  1.00  0.00    -0.286 N 
HETATM   10  C13 UNL     1      12.019  13.136 122.471  1.00  0.00     0.130 A 
ENDROOT
BRANCH   4  11
HETATM   11  C2  UNL     1      15.549  12.173 122.315  1.00  0.00     0.354 C 
HETATM   12  N4  UNL     1      15.492  11.038 121.456  1.00  0.00    -0.343 N 
HETATM   13  C3  UNL     1      16.247   9.902 121.871  1.00  0.00     0.388 C 
ATOM     14  H4  UNL     1      14.945  11.039 120.595  1.00  0.00     0.160 HD
HETATM   15  N5  UNL     1      17.370  10.227 122.718  1.00  0.00    -0.015 N 
HETATM   16  C5  UNL     1      16.918  11.008 123.821  1.00  0.00     0.358 C 
ATOM     17  H52 UNL     1      17.882   9.398 123.016  1.00  0.00     0.283 HD
ATOM     18  H51 UNL     1      18.122  10.685 122.203  1.00  0.00     0.283 HD
HETATM   19  O6  UNL     1      15.979  11.948 123.589  1.00  0.00    -0.312 OA
BRANCH  13  20
HETATM   20  C4  UNL     1      15.345   8.887 122.477  1.00  0.00     0.225 C 
HETATM   21  O1  UNL     1      15.689   8.062 123.341  1.00  0.00    -0.645 OA
HETATM   22  O2  UNL     1      14.000   8.829 122.064  1.00  0.00    -0.645 OA
ENDBRANCH  13  20
BRANCH  16  23
HETATM   23  C6  UNL     1      18.161  11.710 124.393  1.00  0.00     0.205 C 
BRANCH  23  24
HETATM   24  O3  UNL     1      18.141  13.064 124.084  1.00  0.00    -0.389 OA
ATOM     25  H3  UNL     1      18.985  13.459 124.265  1.00  0.00     0.210 HD
ENDBRANCH  23  24
BRANCH  23  26
HETATM   26  C7  UNL     1      18.219  11.468 125.876  1.00  0.00     0.174 C 
BRANCH  26  27
HETATM   27  O4  UNL     1      16.978  11.079 126.362  1.00  0.00    -0.391 OA
ATOM     28  H4  UNL     1      17.003  10.974 127.305  1.00  0.00     0.210 HD
ENDBRANCH  26  27
BRANCH  26  29
HETATM   29  C8  UNL     1      18.702  12.693 126.626  1.00  0.00     0.198 C 
BRANCH  29  30
HETATM   30  O5  UNL     1      17.721  13.657 126.739  1.00  0.00    -0.398 OA
ATOM     31  H5  UNL     1      17.153  13.505 127.485  1.00  0.00     0.209 HD
ENDBRANCH  29  30
ENDBRANCH  26  29
ENDBRANCH  23  26
ENDBRANCH  16  23
ENDBRANCH   4  11
BRANCH   1  32
HETATM   32  N1  UNL     1      12.044  15.445 121.953  1.00  0.00    -0.382 N 
ATOM     33  H12 UNL     1      12.471  16.282 121.556  1.00  0.00     0.157 HD
ATOM     34  H11 UNL     1      11.072  15.668 122.169  1.00  0.00     0.157 HD
ENDBRANCH   1  32
BRANCH   9  35
HETATM   35  C11 UNL     1       9.510  13.127 122.735  1.00  0.00     0.452 C 
HETATM   36  N8  UNL     1       8.668  12.777 123.839  1.00  0.00     0.055 N 
HETATM   37  C12 UNL     1       8.234  14.176 123.736  1.00  0.00     0.467 C 
ATOM     38  H82 UNL     1       8.017  11.992 123.812  1.00  0.00     0.292 HD
ATOM     39  H81 UNL     1       9.027  12.370 124.702  1.00  0.00     0.292 HD
HETATM   40  O9  UNL     1       9.501  14.454 123.222  1.00  0.00    -0.258 OA
BRANCH  37  41
HETATM   41  O7  UNL     1       7.288  14.385 122.715  1.00  0.00    -0.320 OA
ATOM     42  H7  UNL     1       6.423  14.061 122.937  1.00  0.00     0.217 HD
ENDBRANCH  37  41
BRANCH  37  43
HETATM   43  O8  UNL     1       7.939  14.779 124.935  1.00  0.00    -0.320 OA
ATOM     44  H8  UNL     1       7.138  14.476 125.348  1.00  0.00     0.217 HD
ENDBRANCH  37  43
ENDBRANCH   9  35
TORSDOF 12
ENDMDL
MODEL 5
REMARK VINA RESULT: -6.707107634      3.571      7.961
REMARK  12 active torsions:
REMARK  status: ('A' for Active; 'I' for Inactive)
REMARK    1  A    between atoms: N1_1  and  C1_4 
REMARK    2  A    between atoms: N3_7  and  C2_8 
REMARK    3  A    between atoms: C3_11  and  C4_12 
REMARK    4  A    between atoms: C5_18  and  C6_19 
REMARK    5  A    between atoms: C6_19  and  O3_20 
REMARK    6  A    between atoms: C6_19  and  C7_22 
REMARK    7  A    between atoms: C7_22  and  O4_23 
REMARK    8  A    between atoms: C7_22  and  C8_25 
REMARK    9  A    between atoms: C8_25  and  O5_26 
REMARK   10  A    between atoms: N7_33  and  C11_34 
REMARK   11  A    between atoms: C12_38  and  O7_39 
REMARK   12  A    between atoms: C12_38  and  O8_41 
ROOT
HETATM    1  C1  UNL     1      14.830   8.425 125.170  1.00  0.00     0.145 A 
HETATM    2  N2  UNL     1      14.039   9.142 124.363  1.00  0.00    -0.276 N 
ATOM      3  H2  UNL     1      13.031   9.005 124.280  1.00  0.00     0.189 HD
HETATM    4  N3  UNL     1      14.724  10.051 123.682  1.00  0.00    -0.225 N 
HETATM    5  C9  UNL     1      16.013   9.902 124.081  1.00  0.00     0.158 A 
HETATM    6  N6  UNL     1      17.275  10.356 123.930  1.00  0.00    -0.335 N 
ATOM      7  H6  UNL     1      17.560  11.112 123.307  1.00  0.00     0.168 HD
HETATM    8  C10 UNL     1      18.095   9.655 124.728  1.00  0.00     0.189 A 
HETATM    9  N7  UNL     1      17.384   8.737 125.410  1.00  0.00    -0.286 N 
HETATM   10  C13 UNL     1      16.108   8.888 125.014  1.00  0.00     0.130 A 
ENDROOT
BRANCH   4  11
HETATM   11  C2  UNL     1      14.208  11.011 122.711  1.00  0.00     0.354 C 
HETATM   12  N4  UNL     1      15.317  11.562 122.008  1.00  0.00    -0.343 N 
HETATM   13  C3  UNL     1      15.214  12.942 121.664  1.00  0.00     0.388 C 
ATOM     14  H4  UNL     1      16.135  11.003 121.766  1.00  0.00     0.160 HD
HETATM   15  N5  UNL     1      13.855  13.410 121.537  1.00  0.00    -0.015 N 
HETATM   16  C5  UNL     1      13.135  13.095 122.726  1.00  0.00     0.358 C 
ATOM     17  H52 UNL     1      13.808  14.403 121.309  1.00  0.00     0.283 HD
ATOM     18  H51 UNL     1      13.398  13.048 120.701  1.00  0.00     0.283 HD
HETATM   19  O6  UNL     1      13.364  11.900 123.307  1.00  0.00    -0.312 OA
BRANCH  13  20
HETATM   20  C4  UNL     1      16.020  13.762 122.608  1.00  0.00     0.225 C 
HETATM   21  O1  UNL     1      16.799  13.298 123.457  1.00  0.00    -0.645 OA
HETATM   22  O2  UNL     1      15.912  15.166 122.563  1.00  0.00    -0.645 OA
ENDBRANCH  13  20
BRANCH  16  23
HETATM   23  C6  UNL     1      11.643  13.168 122.360  1.00  0.00     0.205 C 
BRANCH  23  24
HETATM   24  O3  UNL     1      11.459  12.898 121.010  1.00  0.00    -0.389 OA
ATOM     25  H3  UNL     1      11.541  11.966 120.843  1.00  0.00     0.210 HD
ENDBRANCH  23  24
BRANCH  23  26
HETATM   26  C7  UNL     1      10.878  12.216 123.237  1.00  0.00     0.174 C 
BRANCH  26  27
HETATM   27  O4  UNL     1      10.875  10.938 122.692  1.00  0.00    -0.391 OA
ATOM     28  H4  UNL     1      10.339  10.351 123.212  1.00  0.00     0.210 HD
ENDBRANCH  26  27
BRANCH  26  29
HETATM   29  C8  UNL     1       9.454  12.680 123.463  1.00  0.00     0.198 C 
BRANCH  29  30
HETATM   30  O5  UNL     1       8.739  12.765 122.286  1.00  0.00    -0.398 OA
ATOM     31  H5  UNL     1       8.390  13.636 122.140  1.00  0.00     0.209 HD
ENDBRANCH  29  30
ENDBRANCH  26  29
ENDBRANCH  23  26
ENDBRANCH  16  23
ENDBRANCH   4  11
BRANCH   1  32
HETATM   32  N1  UNL     1      14.463   7.471 125.956  1.00  0.00    -0.382 N 
ATOM     33  H12 UNL     1      14.341   6.493 125.693  1.00  0.00     0.157 HD
ATOM     34  H11 UNL     1      14.244   7.552 126.949  1.00  0.00     0.157 HD
ENDBRANCH   1  32
BRANCH   9  35
HETATM   35  C11 UNL     1      17.945   7.808 126.362  1.00  0.00     0.452 C 
HETATM   36  N8  UNL     1      17.445   7.884 127.702  1.00  0.00     0.055 N 
HETATM   37  C12 UNL     1      17.566   6.422 127.653  1.00  0.00     0.467 C 
ATOM     38  H82 UNL     1      17.885   8.452 128.426  1.00  0.00     0.292 HD
ATOM     39  H81 UNL     1      16.577   8.361 127.943  1.00  0.00     0.292 HD
HETATM   40  O9  UNL     1      17.359   6.525 126.277  1.00  0.00    -0.258 OA
BRANCH  37  41
HETATM   41  O7  UNL     1      18.882   5.971 127.868  1.00  0.00    -0.320 OA
ATOM     42  H7  UNL     1      19.462   6.155 127.138  1.00  0.00     0.217 HD
ENDBRANCH  37  41
BRANCH  37  43
HETATM   43  O8  UNL     1      16.596   5.738 128.346  1.00  0.00    -0.320 OA
ATOM     44  H8  UNL     1      15.813   5.541 127.846  1.00  0.00     0.217 HD
ENDBRANCH  37  43
ENDBRANCH   9  35
TORSDOF 12
ENDMDL
