MODEL 1
REMARK VINA RESULT: -6.715274227      0.000      0.000
REMARK  13 active torsions:
REMARK  status: ('A' for Active; 'I' for Inactive)
REMARK       I    between atoms: C1_4  and  N2_5 
REMARK       I    between atoms: C1_4  and  N11_42 
REMARK    1  A    between atoms: N2_5  and  C2_7 
REMARK    2  A    between atoms: C4_12  and  O2_13 
REMARK    3  A    between atoms: N4_16  and  C6_17 
REMARK    4  A    between atoms: C6_17  and  O3_18 
REMARK    5  A    between atoms: C6_17  and  C7_20 
REMARK    6  A    between atoms: C7_20  and  O4_21 
REMARK    7  A    between atoms: C7_20  and  C8_23 
REMARK    8  A    between atoms: C8_23  and  C9_25 
REMARK    9  A    between atoms: C9_25  and  N5_26 
REMARK   10  A    between atoms: C9_25  and  N6_30 
REMARK   11  A    between atoms: N6_30  and  N7_31 
REMARK   12  A    between atoms: N7_31  and  C10_33 
REMARK   13  A    between atoms: N11_42  and  N12_44 
ROOT
HETATM    1  C6  UNL     1      16.789  11.047 122.826  1.00  0.00     0.278 C 
ENDROOT
BRANCH   1   2
HETATM    2  N4  UNL     1      17.377  11.333 124.110  1.00  0.00    -0.160 N 
HETATM    3  C2  UNL     1      17.313  10.370 125.073  1.00  0.00     0.704 A 
HETATM    4  N3  UNL     1      17.822  10.539 126.316  1.00  0.00    -0.153 N 
HETATM    5  C3  UNL     1      18.421  11.689 126.650  1.00  0.00     0.294 A 
ATOM      6  H3  UNL     1      17.750   9.787 127.000  1.00  0.00     0.187 HD
HETATM    7  O1  UNL     1      18.890  11.845 127.796  1.00  0.00    -0.265 OA
HETATM    8  C4  UNL     1      18.506  12.685 125.711  1.00  0.00     0.151 A 
HETATM    9  C5  UNL     1      17.972  12.493 124.426  1.00  0.00     0.154 A 
BRANCH   3  10
HETATM   10  N2  UNL     1      16.722   9.269 124.756  1.00  0.00    -0.021 N 
HETATM   11  C1  UNL     1      15.540   8.889 125.443  1.00  0.00     0.704 C 
HETATM   12  N1  UNL     1      14.349   9.227 125.084  1.00  0.00    -0.233 N 
HETATM   13  N11 UNL     1      15.626   8.073 126.621  1.00  0.00    -0.139 N 
ATOM     14  H12 UNL     1      14.288   9.807 124.247  1.00  0.00     0.174 HD
ATOM     15  H11 UNL     1      13.498   8.954 125.577  1.00  0.00     0.174 HD
ATOM     16  H11 UNL     1      15.225   8.425 127.492  1.00  0.00     0.205 HD
ATOM     17  H2  UNL     1      17.101   8.676 124.019  1.00  0.00     0.203 HD
BRANCH  13  18
HETATM   18  N12 UNL     1      16.229   6.831 126.621  1.00  0.00    -0.331 N 
ATOM     19 2H12 UNL     1      15.851   6.120 127.248  1.00  0.00     0.177 HD
ATOM     20 1H12 UNL     1      17.026   6.609 126.024  1.00  0.00     0.177 HD
ENDBRANCH  13  18
ENDBRANCH   3  10
BRANCH   8  21
HETATM   21  O2  UNL     1      19.114  13.893 126.005  1.00  0.00    -0.355 OA
ATOM     22  H2  UNL     1      18.865  14.393 126.773  1.00  0.00     0.218 HD
ENDBRANCH   8  21
ENDBRANCH   1   2
BRANCH   1  23
HETATM   23  O3  UNL     1      17.651  11.512 121.801  1.00  0.00    -0.373 OA
ATOM     24  H3  UNL     1      17.299  11.259 120.955  1.00  0.00     0.212 HD
ENDBRANCH   1  23
BRANCH   1  25
HETATM   25  C7  UNL     1      15.497  11.759 122.621  1.00  0.00     0.240 C 
BRANCH  25  26
HETATM   26  O4  UNL     1      14.615  11.674 123.666  1.00  0.00    -0.383 OA
ATOM     27  H4  UNL     1      14.967  11.932 124.510  1.00  0.00     0.210 HD
ENDBRANCH  25  26
BRANCH  25  28
HETATM   28  C8  UNL     1      14.808  11.532 121.335  1.00  0.00     0.207 C 
HETATM   29  O5  UNL     1      15.297  10.711 120.532  1.00  0.00    -0.291 OA
BRANCH  28  30
HETATM   30  C9  UNL     1      13.568  12.208 120.901  1.00  0.00     0.367 C 
BRANCH  30  31
HETATM   31  N5  UNL     1      13.595  13.582 121.355  1.00  0.00    -0.053 N 
ATOM     32  H53 UNL     1      13.018  13.728 122.184  1.00  0.00     0.276 HD
ATOM     33  H52 UNL     1      14.495  13.839 121.759  1.00  0.00     0.276 HD
ATOM     34  H51 UNL     1      13.327  14.194 120.584  1.00  0.00     0.276 HD
ENDBRANCH  30  31
BRANCH  30  35
HETATM   35  N6  UNL     1      12.434  11.500 121.467  1.00  0.00    -0.099 NA
BRANCH  35  36
HETATM   36  N7  UNL     1      11.960  12.086 122.619  1.00  0.00    -0.290 N 
ATOM     37  H7  UNL     1      12.622  12.451 123.304  1.00  0.00     0.183 HD
BRANCH  36  38
HETATM   38  C10 UNL     1      10.530  12.192 122.879  1.00  0.00     0.096 A 
HETATM   39  N8  UNL     1       9.986  13.334 122.999  1.00  0.00    -0.319 N 
HETATM   40  C11 UNL     1       8.595  13.498 123.253  1.00  0.00     0.189 A 
ATOM     41  H8  UNL     1      10.569  14.166 122.909  1.00  0.00     0.169 HD
HETATM   42  N9  UNL     1       8.044  14.793 123.375  1.00  0.00    -0.064 NA
HETATM   43  N10 UNL     1       7.900  12.426 123.360  1.00  0.00    -0.364 N 
HETATM   44  C12 UNL     1       8.346  11.081 123.257  1.00  0.00     0.130 A 
ATOM     45  H10 UNL     1       6.904  12.555 123.543  1.00  0.00     0.162 HD
HETATM   46  C13 UNL     1       9.790  10.939 122.984  1.00  0.00     0.097 A 
ENDBRANCH  36  38
ENDBRANCH  35  36
ENDBRANCH  30  35
ENDBRANCH  28  30
ENDBRANCH  25  28
ENDBRANCH   1  25
TORSDOF 13
ENDMDL
MODEL 2
REMARK VINA RESULT: -6.661600157      4.116      6.451
REMARK  13 active torsions:
REMARK  status: ('A' for Active; 'I' for Inactive)
REMARK       I    between atoms: C1_4  and  N2_5 
REMARK       I    between atoms: C1_4  and  N11_42 
REMARK    1  A    between atoms: N2_5  and  C2_7 
REMARK    2  A    between atoms: C4_12  and  O2_13 
REMARK    3  A    between atoms: N4_16  and  C6_17 
REMARK    4  A    between atoms: C6_17  and  O3_18 
REMARK    5  A    between atoms: C6_17  and  C7_20 
REMARK    6  A    between atoms: C7_20  and  O4_21 
REMARK    7  A    between atoms: C7_20  and  C8_23 
REMARK    8  A    between atoms: C8_23  and  C9_25 
REMARK    9  A    between atoms: C9_25  and  N5_26 
REMARK   10  A    between atoms: C9_25  and  N6_30 
REMARK   11  A    between atoms: N6_30  and  N7_31 
REMARK   12  A    between atoms: N7_31  and  C10_33 
REMARK   13  A    between atoms: N11_42  and  N12_44 
ROOT
HETATM    1  C6  UNL     1      13.279  10.270 120.918  1.00  0.00     0.278 C 
ENDROOT
BRANCH   1   2
HETATM    2  N4  UNL     1      12.795  10.111 119.570  1.00  0.00    -0.160 N 
HETATM    3  C2  UNL     1      12.192   8.934 119.241  1.00  0.00     0.704 A 
HETATM    4  N3  UNL     1      11.713   8.675 118.001  1.00  0.00    -0.153 N 
HETATM    5  C3  UNL     1      11.819   9.592 117.031  1.00  0.00     0.294 A 
ATOM      6  H3  UNL     1      11.268   7.779 117.805  1.00  0.00     0.187 HD
HETATM    7  O1  UNL     1      11.378   9.354 115.888  1.00  0.00    -0.265 OA
HETATM    8  C4  UNL     1      12.420  10.790 117.320  1.00  0.00     0.151 A 
HETATM    9  C5  UNL     1      12.912  11.041 118.611  1.00  0.00     0.154 A 
BRANCH   3  10
HETATM   10  N2  UNL     1      12.104   8.045 120.170  1.00  0.00    -0.021 N 
HETATM   11  C1  UNL     1      10.823   7.633 120.622  1.00  0.00     0.704 C 
HETATM   12  N1  UNL     1      10.146   6.663 120.110  1.00  0.00    -0.233 N 
HETATM   13  N11 UNL     1      10.199   8.311 121.723  1.00  0.00    -0.139 N 
ATOM     14  H12 UNL     1      10.591   6.181 119.327  1.00  0.00     0.174 HD
ATOM     15  H11 UNL     1       9.226   6.366 120.435  1.00  0.00     0.174 HD
ATOM     16  H11 UNL     1       9.281   8.734 121.583  1.00  0.00     0.205 HD
ATOM     17  H2  UNL     1      12.947   7.641 120.576  1.00  0.00     0.203 HD
BRANCH  13  18
HETATM   18  N12 UNL     1      10.795   8.413 122.966  1.00  0.00    -0.331 N 
ATOM     19 2H12 UNL     1      10.222   8.207 123.784  1.00  0.00     0.177 HD
ATOM     20 1H12 UNL     1      11.771   8.683 123.084  1.00  0.00     0.177 HD
ENDBRANCH  13  18
ENDBRANCH   3  10
BRANCH   8  21
HETATM   21  O2  UNL     1      12.556  11.772 116.354  1.00  0.00    -0.355 OA
ATOM     22  H2  UNL     1      13.191  12.472 116.452  1.00  0.00     0.218 HD
ENDBRANCH   8  21
ENDBRANCH   1   2
BRANCH   1  23
HETATM   23  O3  UNL     1      12.189  10.562 121.776  1.00  0.00    -0.373 OA
ATOM     24  H3  UNL     1      12.339  11.398 122.202  1.00  0.00     0.212 HD
ENDBRANCH   1  23
BRANCH   1  25
HETATM   25  C7  UNL     1      14.219  11.417 121.053  1.00  0.00     0.240 C 
BRANCH  25  26
HETATM   26  O4  UNL     1      15.524  11.073 121.292  1.00  0.00    -0.383 OA
ATOM     27  H4  UNL     1      15.719  10.839 122.191  1.00  0.00     0.210 HD
ENDBRANCH  25  26
BRANCH  25  28
HETATM   28  C8  UNL     1      13.798  12.522 121.938  1.00  0.00     0.207 C 
HETATM   29  O5  UNL     1      14.032  12.430 123.160  1.00  0.00    -0.291 OA
BRANCH  28  30
HETATM   30  C9  UNL     1      13.106  13.750 121.496  1.00  0.00     0.367 C 
BRANCH  30  31
HETATM   31  N5  UNL     1      13.461  14.838 122.381  1.00  0.00    -0.053 N 
ATOM     32  H53 UNL     1      14.372  15.239 122.158  1.00  0.00     0.276 HD
ATOM     33  H52 UNL     1      12.894  15.670 122.219  1.00  0.00     0.276 HD
ATOM     34  H51 UNL     1      13.406  14.514 123.347  1.00  0.00     0.276 HD
ENDBRANCH  30  31
BRANCH  30  35
HETATM   35  N6  UNL     1      11.675  13.509 121.523  1.00  0.00    -0.099 NA
BRANCH  35  36
HETATM   36  N7  UNL     1      11.201  13.252 122.789  1.00  0.00    -0.290 N 
ATOM     37  H7  UNL     1      11.827  13.353 123.588  1.00  0.00     0.183 HD
BRANCH  36  38
HETATM   38  C10 UNL     1       9.821  12.836 123.009  1.00  0.00     0.096 A 
HETATM   39  N8  UNL     1       9.520  11.602 123.020  1.00  0.00    -0.319 N 
HETATM   40  C11 UNL     1       8.190  11.139 123.229  1.00  0.00     0.189 A 
ATOM     41  H8  UNL     1      10.261  10.916 122.873  1.00  0.00     0.169 HD
HETATM   42  N9  UNL     1       7.914   9.754 123.233  1.00  0.00    -0.064 NA
HETATM   43  N10 UNL     1       7.291  12.035 123.408  1.00  0.00    -0.364 N 
HETATM   44  C12 UNL     1       7.454  13.446 123.423  1.00  0.00     0.130 A 
ATOM     45  H10 UNL     1       6.342  11.692 123.556  1.00  0.00     0.162 HD
HETATM   46  C13 UNL     1       8.843  13.900 123.213  1.00  0.00     0.097 A 
ENDBRANCH  36  38
ENDBRANCH  35  36
ENDBRANCH  30  35
ENDBRANCH  28  30
ENDBRANCH  25  28
ENDBRANCH   1  25
TORSDOF 13
ENDMDL
MODEL 3
REMARK VINA RESULT: -6.620663376      2.147      6.859
REMARK  13 active torsions:
REMARK  status: ('A' for Active; 'I' for Inactive)
REMARK       I    between atoms: C1_4  and  N2_5 
REMARK       I    between atoms: C1_4  and  N11_42 
REMARK    1  A    between atoms: N2_5  and  C2_7 
REMARK    2  A    between atoms: C4_12  and  O2_13 
REMARK    3  A    between atoms: N4_16  and  C6_17 
REMARK    4  A    between atoms: C6_17  and  O3_18 
REMARK    5  A    between atoms: C6_17  and  C7_20 
REMARK    6  A    between atoms: C7_20  and  O4_21 
REMARK    7  A    between atoms: C7_20  and  C8_23 
REMARK    8  A    between atoms: C8_23  and  C9_25 
REMARK    9  A    between atoms: C9_25  and  N5_26 
REMARK   10  A    between atoms: C9_25  and  N6_30 
REMARK   11  A    between atoms: N6_30  and  N7_31 
REMARK   12  A    between atoms: N7_31  and  C10_33 
REMARK   13  A    between atoms: N11_42  and  N12_44 
ROOT
HETATM    1  C6  UNL     1      13.988  10.139 122.197  1.00  0.00     0.278 C 
ENDROOT
BRANCH   1   2
HETATM    2  N4  UNL     1      14.572  11.449 122.335  1.00  0.00    -0.160 N 
HETATM    3  C2  UNL     1      13.804  12.529 122.016  1.00  0.00     0.704 A 
HETATM    4  N3  UNL     1      14.257  13.802 122.097  1.00  0.00    -0.153 N 
HETATM    5  C3  UNL     1      15.509  14.049 122.502  1.00  0.00     0.294 A 
ATOM      6  H3  UNL     1      13.642  14.577 121.848  1.00  0.00     0.187 HD
HETATM    7  O1  UNL     1      15.927  15.223 122.576  1.00  0.00    -0.265 OA
HETATM    8  C4  UNL     1      16.316  12.990 122.831  1.00  0.00     0.151 A 
HETATM    9  C5  UNL     1      15.830  11.676 122.741  1.00  0.00     0.154 A 
BRANCH   3  10
HETATM   10  N2  UNL     1      12.604  12.291 121.610  1.00  0.00    -0.021 N 
HETATM   11  C1  UNL     1      11.504  12.816 122.338  1.00  0.00     0.704 C 
HETATM   12  N1  UNL     1      10.975  13.972 122.126  1.00  0.00    -0.233 N 
HETATM   13  N11 UNL     1      10.906  12.043 123.390  1.00  0.00    -0.139 N 
ATOM     14  H12 UNL     1      11.400  14.521 121.378  1.00  0.00     0.174 HD
ATOM     15  H11 UNL     1      10.184  14.349 122.648  1.00  0.00     0.174 HD
ATOM     16  H11 UNL     1      10.864  12.441 124.329  1.00  0.00     0.205 HD
ATOM     17  H2  UNL     1      12.446  11.731 120.773  1.00  0.00     0.203 HD
BRANCH  13  18
HETATM   18  N12 UNL     1      10.385  10.781 123.179  1.00  0.00    -0.331 N 
ATOM     19 2H12 UNL     1      10.298  10.458 122.215  1.00  0.00     0.177 HD
ATOM     20 1H12 UNL     1      10.089  10.175 123.946  1.00  0.00     0.177 HD
ENDBRANCH  13  18
ENDBRANCH   3  10
BRANCH   8  21
HETATM   21  O2  UNL     1      17.618  13.190 123.255  1.00  0.00    -0.355 OA
ATOM     22  H2  UNL     1      18.330  12.659 122.918  1.00  0.00     0.218 HD
ENDBRANCH   8  21
ENDBRANCH   1   2
BRANCH   1  23
HETATM   23  O3  UNL     1      13.093   9.910 123.273  1.00  0.00    -0.373 OA
ATOM     24  H3  UNL     1      13.528  10.113 124.093  1.00  0.00     0.212 HD
ENDBRANCH   1  23
BRANCH   1  25
HETATM   25  C7  UNL     1      15.002   9.052 122.277  1.00  0.00     0.240 C 
BRANCH  25  26
HETATM   26  O4  UNL     1      15.444   8.581 121.069  1.00  0.00    -0.383 OA
ATOM     27  H4  UNL     1      15.455   7.635 120.986  1.00  0.00     0.210 HD
ENDBRANCH  25  26
BRANCH  25  28
HETATM   28  C8  UNL     1      14.713   7.937 123.201  1.00  0.00     0.207 C 
HETATM   29  O5  UNL     1      13.937   7.036 122.824  1.00  0.00    -0.291 OA
BRANCH  28  30
HETATM   30  C9  UNL     1      15.268   7.793 124.563  1.00  0.00     0.367 C 
BRANCH  30  31
HETATM   31  N5  UNL     1      14.230   8.078 125.529  1.00  0.00    -0.053 N 
ATOM     32  H53 UNL     1      14.052   9.078 125.623  1.00  0.00     0.276 HD
ATOM     33  H52 UNL     1      13.306   7.798 125.201  1.00  0.00     0.276 HD
ATOM     34  H51 UNL     1      14.473   7.642 126.419  1.00  0.00     0.276 HD
ENDBRANCH  30  31
BRANCH  30  35
HETATM   35  N6  UNL     1      16.377   8.717 124.709  1.00  0.00    -0.099 NA
BRANCH  35  36
HETATM   36  N7  UNL     1      16.157   9.664 125.683  1.00  0.00    -0.290 N 
ATOM     37  H7  UNL     1      15.201   9.880 125.965  1.00  0.00     0.183 HD
BRANCH  36  38
HETATM   38  C10 UNL     1      17.266  10.366 126.319  1.00  0.00     0.096 A 
HETATM   39  N8  UNL     1      17.595  11.529 125.926  1.00  0.00    -0.319 N 
HETATM   40  C11 UNL     1      18.668  12.260 126.509  1.00  0.00     0.189 A 
ATOM     41  H8  UNL     1      17.068  11.955 125.164  1.00  0.00     0.169 HD
HETATM   42  N9  UNL     1      18.988  13.550 126.033  1.00  0.00    -0.064 NA
HETATM   43  N10 UNL     1      19.304  11.686 127.463  1.00  0.00    -0.364 N 
HETATM   44  C12 UNL     1      19.070  10.399 128.018  1.00  0.00     0.130 A 
ATOM     45  H10 UNL     1      20.071  12.218 127.873  1.00  0.00     0.162 HD
HETATM   46  C13 UNL     1      17.946   9.665 127.403  1.00  0.00     0.097 A 
ENDBRANCH  36  38
ENDBRANCH  35  36
ENDBRANCH  30  35
ENDBRANCH  28  30
ENDBRANCH  25  28
ENDBRANCH   1  25
TORSDOF 13
ENDMDL
MODEL 4
REMARK VINA RESULT: -6.611835736      2.584      4.551
REMARK  13 active torsions:
REMARK  status: ('A' for Active; 'I' for Inactive)
REMARK       I    between atoms: C1_4  and  N2_5 
REMARK       I    between atoms: C1_4  and  N11_42 
REMARK    1  A    between atoms: N2_5  and  C2_7 
REMARK    2  A    between atoms: C4_12  and  O2_13 
REMARK    3  A    between atoms: N4_16  and  C6_17 
REMARK    4  A    between atoms: C6_17  and  O3_18 
REMARK    5  A    between atoms: C6_17  and  C7_20 
REMARK    6  A    between atoms: C7_20  and  O4_21 
REMARK    7  A    between atoms: C7_20  and  C8_23 
REMARK    8  A    between atoms: C8_23  and  C9_25 
REMARK    9  A    between atoms: C9_25  and  N5_26 
REMARK   10  A    between atoms: C9_25  and  N6_30 
REMARK   11  A    between atoms: N6_30  and  N7_31 
REMARK   12  A    between atoms: N7_31  and  C10_33 
REMARK   13  A    between atoms: N11_42  and  N12_44 
ROOT
HETATM    1  C6  UNL     1      15.279  11.643 122.028  1.00  0.00     0.278 C 
ENDROOT
BRANCH   1   2
HETATM    2  N4  UNL     1      16.530  11.902 122.695  1.00  0.00    -0.160 N 
HETATM    3  C2  UNL     1      17.019  10.945 123.534  1.00  0.00     0.704 A 
HETATM    4  N3  UNL     1      18.177  11.091 124.220  1.00  0.00    -0.153 N 
HETATM    5  C3  UNL     1      18.899  12.211 124.095  1.00  0.00     0.294 A 
ATOM      6  H3  UNL     1      18.501  10.344 124.834  1.00  0.00     0.187 HD
HETATM    7  O1  UNL     1      19.967  12.346 124.727  1.00  0.00    -0.265 OA
HETATM    8  C4  UNL     1      18.442  13.201 123.262  1.00  0.00     0.151 A 
HETATM    9  C5  UNL     1      17.239  13.032 122.558  1.00  0.00     0.154 A 
BRANCH   3  10
HETATM   10  N2  UNL     1      16.315   9.873 123.667  1.00  0.00    -0.021 N 
HETATM   11  C1  UNL     1      15.873   9.484 124.958  1.00  0.00     0.704 C 
HETATM   12  N1  UNL     1      14.764   9.863 125.494  1.00  0.00    -0.233 N 
HETATM   13  N11 UNL     1      16.683   8.609 125.759  1.00  0.00    -0.139 N 
ATOM     14  H12 UNL     1      14.189  10.485 124.924  1.00  0.00     0.174 HD
ATOM     15  H11 UNL     1      14.446   9.584 126.422  1.00  0.00     0.174 HD
ATOM     16  H11 UNL     1      16.981   8.925 126.683  1.00  0.00     0.205 HD
ATOM     17  H2  UNL     1      16.078   9.309 122.851  1.00  0.00     0.203 HD
BRANCH  13  18
HETATM   18  N12 UNL     1      17.072   7.356 125.328  1.00  0.00    -0.331 N 
ATOM     19 2H12 UNL     1      16.426   6.581 125.477  1.00  0.00     0.177 HD
ATOM     20 1H12 UNL     1      17.971   7.188 124.874  1.00  0.00     0.177 HD
ENDBRANCH  13  18
ENDBRANCH   3  10
BRANCH   8  21
HETATM   21  O2  UNL     1      19.150  14.378 123.097  1.00  0.00    -0.355 OA
ATOM     22  H2  UNL     1      19.233  15.003 123.807  1.00  0.00     0.218 HD
ENDBRANCH   8  21
ENDBRANCH   1   2
BRANCH   1  23
HETATM   23  O3  UNL     1      15.253  12.340 120.793  1.00  0.00    -0.373 OA
ATOM     24  H3  UNL     1      14.413  12.773 120.695  1.00  0.00     0.212 HD
ENDBRANCH   1  23
BRANCH   1  25
HETATM   25  C7  UNL     1      14.108  12.143 122.799  1.00  0.00     0.240 C 
BRANCH  25  26
HETATM   26  O4  UNL     1      13.220  11.178 123.197  1.00  0.00    -0.383 OA
ATOM     27  H4  UNL     1      12.717  10.782 122.496  1.00  0.00     0.210 HD
ENDBRANCH  25  26
BRANCH  25  28
HETATM   28  C8  UNL     1      13.397  13.314 122.247  1.00  0.00     0.207 C 
HETATM   29  O5  UNL     1      13.866  14.451 122.457  1.00  0.00    -0.291 OA
BRANCH  28  30
HETATM   30  C9  UNL     1      12.152  13.258 121.454  1.00  0.00     0.367 C 
BRANCH  30  31
HETATM   31  N5  UNL     1      11.038  12.997 122.340  1.00  0.00    -0.053 N 
ATOM     32  H53 UNL     1      10.137  13.128 121.880  1.00  0.00     0.276 HD
ATOM     33  H52 UNL     1      10.943  12.007 122.563  1.00  0.00     0.276 HD
ATOM     34  H51 UNL     1      11.134  13.575 123.176  1.00  0.00     0.276 HD
ENDBRANCH  30  31
BRANCH  30  35
HETATM   35  N6  UNL     1      12.280  12.204 120.465  1.00  0.00    -0.099 NA
BRANCH  35  36
HETATM   36  N7  UNL     1      12.573  12.685 119.208  1.00  0.00    -0.290 N 
ATOM     37  H7  UNL     1      12.282  13.628 118.953  1.00  0.00     0.183 HD
BRANCH  36  38
HETATM   38  C10 UNL     1      13.290  11.869 118.236  1.00  0.00     0.096 A 
HETATM   39  N8  UNL     1      14.113  10.984 118.628  1.00  0.00    -0.319 N 
HETATM   40  C11 UNL     1      14.841  10.159 117.724  1.00  0.00     0.189 A 
ATOM     41  H8  UNL     1      14.258  10.860 119.630  1.00  0.00     0.169 HD
HETATM   42  N9  UNL     1      15.742   9.190 118.217  1.00  0.00    -0.064 NA
HETATM   43  N10 UNL     1      14.630  10.351 116.474  1.00  0.00    -0.364 N 
HETATM   44  C12 UNL     1      13.753  11.291 115.870  1.00  0.00     0.130 A 
ATOM     45  H10 UNL     1      15.157   9.755 115.836  1.00  0.00     0.162 HD
HETATM   46  C13 UNL     1      13.003  12.127 116.829  1.00  0.00     0.097 A 
ENDBRANCH  36  38
ENDBRANCH  35  36
ENDBRANCH  30  35
ENDBRANCH  28  30
ENDBRANCH  25  28
ENDBRANCH   1  25
TORSDOF 13
ENDMDL
MODEL 5
REMARK VINA RESULT: -6.502716255      2.835      4.803
REMARK  13 active torsions:
REMARK  status: ('A' for Active; 'I' for Inactive)
REMARK       I    between atoms: C1_4  and  N2_5 
REMARK       I    between atoms: C1_4  and  N11_42 
REMARK    1  A    between atoms: N2_5  and  C2_7 
REMARK    2  A    between atoms: C4_12  and  O2_13 
REMARK    3  A    between atoms: N4_16  and  C6_17 
REMARK    4  A    between atoms: C6_17  and  O3_18 
REMARK    5  A    between atoms: C6_17  and  C7_20 
REMARK    6  A    between atoms: C7_20  and  O4_21 
REMARK    7  A    between atoms: C7_20  and  C8_23 
REMARK    8  A    between atoms: C8_23  and  C9_25 
REMARK    9  A    between atoms: C9_25  and  N5_26 
REMARK   10  A    between atoms: C9_25  and  N6_30 
REMARK   11  A    between atoms: N6_30  and  N7_31 
REMARK   12  A    between atoms: N7_31  and  C10_33 
REMARK   13  A    between atoms: N11_42  and  N12_44 
ROOT
HETATM    1  C6  UNL     1      15.212  12.204 121.795  1.00  0.00     0.278 C 
ENDROOT
BRANCH   1   2
HETATM    2  N4  UNL     1      16.461  11.916 122.453  1.00  0.00    -0.160 N 
HETATM    3  C2  UNL     1      16.966  10.654 122.345  1.00  0.00     0.704 A 
HETATM    4  N3  UNL     1      18.124  10.273 122.934  1.00  0.00    -0.153 N 
HETATM    5  C3  UNL     1      18.830  11.146 123.663  1.00  0.00     0.294 A 
ATOM      6  H3  UNL     1      18.460   9.317 122.822  1.00  0.00     0.187 HD
HETATM    7  O1  UNL     1      19.898  10.795 124.206  1.00  0.00    -0.265 OA
HETATM    8  C4  UNL     1      18.357  12.426 123.798  1.00  0.00     0.151 A 
HETATM    9  C5  UNL     1      17.154  12.804 123.181  1.00  0.00     0.154 A 
BRANCH   3  10
HETATM   10  N2  UNL     1      16.278   9.809 121.657  1.00  0.00    -0.021 N 
HETATM   11  C1  UNL     1      15.618   8.741 122.320  1.00  0.00     0.704 C 
HETATM   12  N1  UNL     1      14.420   8.806 122.792  1.00  0.00    -0.233 N 
HETATM   13  N11 UNL     1      16.290   7.485 122.501  1.00  0.00    -0.139 N 
ATOM     14  H12 UNL     1      13.943   9.698 122.663  1.00  0.00     0.174 HD
ATOM     15  H11 UNL     1      13.946   8.039 123.269  1.00  0.00     0.174 HD
ATOM     16  H11 UNL     1      16.407   7.123 123.448  1.00  0.00     0.205 HD
ATOM     17  H2  UNL     1      16.207   9.906 120.644  1.00  0.00     0.203 HD
BRANCH  13  18
HETATM   18  N12 UNL     1      16.784   6.748 121.443  1.00  0.00    -0.331 N 
ATOM     19 2H12 UNL     1      16.369   6.903 120.523  1.00  0.00     0.177 HD
ATOM     20 1H12 UNL     1      17.536   6.068 121.552  1.00  0.00     0.177 HD
ENDBRANCH  13  18
ENDBRANCH   3  10
BRANCH   8  21
HETATM   21  O2  UNL     1      19.048  13.367 124.540  1.00  0.00    -0.355 OA
ATOM     22  H2  UNL     1      19.930  13.629 124.302  1.00  0.00     0.218 HD
ENDBRANCH   8  21
ENDBRANCH   1   2
BRANCH   1  23
HETATM   23  O3  UNL     1      15.401  13.269 120.877  1.00  0.00    -0.373 OA
ATOM     24  H3  UNL     1      15.010  14.060 121.229  1.00  0.00     0.212 HD
ENDBRANCH   1  23
BRANCH   1  25
HETATM   25  C7  UNL     1      14.163  12.669 122.743  1.00  0.00     0.240 C 
BRANCH  25  26
HETATM   26  O4  UNL     1      13.501  11.672 123.410  1.00  0.00    -0.383 OA
ATOM     27  H4  UNL     1      14.040  11.152 123.994  1.00  0.00     0.210 HD
ENDBRANCH  25  26
BRANCH  25  28
HETATM   28  C8  UNL     1      13.215  13.684 122.242  1.00  0.00     0.207 C 
HETATM   29  O5  UNL     1      13.448  14.887 122.478  1.00  0.00    -0.291 OA
BRANCH  28  30
HETATM   30  C9  UNL     1      11.986  13.396 121.474  1.00  0.00     0.367 C 
BRANCH  30  31
HETATM   31  N5  UNL     1      10.928  13.032 122.391  1.00  0.00    -0.053 N 
ATOM     32  H53 UNL     1      11.001  12.063 122.703  1.00  0.00     0.276 HD
ATOM     33  H52 UNL     1      11.031  13.483 123.300  1.00  0.00     0.276 HD
ATOM     34  H51 UNL     1      10.027  13.233 121.959  1.00  0.00     0.276 HD
ENDBRANCH  30  31
BRANCH  30  35
HETATM   35  N6  UNL     1      12.262  12.312 120.550  1.00  0.00    -0.099 NA
BRANCH  35  36
HETATM   36  N7  UNL     1      12.645  12.756 119.304  1.00  0.00    -0.290 N 
ATOM     37  H7  UNL     1      12.413  13.707 119.019  1.00  0.00     0.183 HD
BRANCH  36  38
HETATM   38  C10 UNL     1      13.375  11.891 118.385  1.00  0.00     0.096 A 
HETATM   39  N8  UNL     1      14.190  11.026 118.833  1.00  0.00    -0.319 N 
HETATM   40  C11 UNL     1      14.929  10.156 117.984  1.00  0.00     0.189 A 
ATOM     41  H8  UNL     1      14.319  10.952 119.842  1.00  0.00     0.169 HD
HETATM   42  N9  UNL     1      15.821   9.212 118.538  1.00  0.00    -0.064 NA
HETATM   43  N10 UNL     1      14.738  10.285 116.722  1.00  0.00    -0.364 N 
HETATM   44  C12 UNL     1      13.871  11.194 116.058  1.00  0.00     0.130 A 
ATOM     45  H10 UNL     1      15.273   9.657 116.122  1.00  0.00     0.162 HD
HETATM   46  C13 UNL     1      13.109  12.079 116.962  1.00  0.00     0.097 A 
ENDBRANCH  36  38
ENDBRANCH  35  36
ENDBRANCH  30  35
ENDBRANCH  28  30
ENDBRANCH  25  28
ENDBRANCH   1  25
TORSDOF 13
ENDMDL
