MODEL 1
REMARK VINA RESULT: -6.378790752      0.000      0.000
REMARK  14 active torsions:
REMARK  status: ('A' for Active; 'I' for Inactive)
REMARK    1  A    between atoms: N1_1  and  C1_4 
REMARK    2  A    between atoms: N4_12  and  C5_13 
REMARK    3  A    between atoms: C6_15  and  C7_16 
REMARK    4  A    between atoms: C7_16  and  O2_17 
REMARK    5  A    between atoms: C8_19  and  O3_20 
REMARK    6  A    between atoms: C8_19  and  C9_22 
REMARK    7  A    between atoms: C9_22  and  O4_23 
REMARK    8  A    between atoms: O4_23  and  N5_24 
REMARK       I    between atoms: C10_26  and  N6_27 
REMARK       I    between atoms: C10_26  and  N8_32 
REMARK    9  A    between atoms: N6_27  and  N7_29 
REMARK   10  A    between atoms: N8_32  and  N9_34 
REMARK   11  A    between atoms: N9_34  and  N10_35 
REMARK   12  A    between atoms: N9_34  and  N11_38 
REMARK   13  A    between atoms: C11_41  and  O5_42 
REMARK   14  A    between atoms: C12_44  and  O6_45 
ROOT
HETATM    1  C5  UNL     1      12.575  10.997 119.022  1.00  0.00     0.263 C 
HETATM    2  O1  UNL     1      12.379  10.088 120.041  1.00  0.00    -0.353 OA
HETATM    3  C6  UNL     1      13.116  10.436 121.133  1.00  0.00     0.187 C 
HETATM    4  C8  UNL     1      13.926  11.665 120.801  1.00  0.00     0.139 C 
HETATM    5  C11 UNL     1      13.125  12.237 119.650  1.00  0.00     0.206 C 
ENDROOT
BRANCH   4   6
HETATM    6  O3  UNL     1      15.217  11.344 120.463  1.00  0.00    -0.382 OA
ATOM      7  H3  UNL     1      15.752  12.120 120.349  1.00  0.00     0.210 HD
ENDBRANCH   4   6
BRANCH   4   8
HETATM    8  C9  UNL     1      13.967  12.590 121.994  1.00  0.00     0.245 C 
BRANCH   8   9
HETATM    9  O4  UNL     1      14.977  12.250 122.893  1.00  0.00    -0.263 OA
BRANCH   9  10
HETATM   10  N5  UNL     1      16.234  12.745 122.703  1.00  0.00    -0.094 N 
HETATM   11  C10 UNL     1      17.264  11.963 122.736  1.00  0.00     0.729 C 
HETATM   12  N6  UNL     1      17.093  10.584 122.971  1.00  0.00    -0.136 N 
HETATM   13  N8  UNL     1      18.580  12.462 122.540  1.00  0.00    -0.113 N 
ATOM     14  H6  UNL     1      16.670  10.237 123.832  1.00  0.00     0.205 HD
ATOM     15  H8  UNL     1      19.386  12.037 122.997  1.00  0.00     0.203 HD
ATOM     16  H5  UNL     1      16.363  13.742 122.531  1.00  0.00     0.213 HD
BRANCH  12  17
HETATM   17  N7  UNL     1      17.535   9.707 121.958  1.00  0.00    -0.331 N 
ATOM     18  H72 UNL     1      18.128  10.044 121.200  1.00  0.00     0.177 HD
ATOM     19  H71 UNL     1      17.233   8.735 122.028  1.00  0.00     0.177 HD
ENDBRANCH  12  17
BRANCH  13  20
HETATM   20  N9  UNL     1      18.718  13.565 121.690  1.00  0.00    -0.039 NA
BRANCH  20  21
HETATM   21  N10 UNL     1      19.680  13.393 120.710  1.00  0.00    -0.327 NA
ATOM     22 2H10 UNL     1      19.789  14.222 120.126  1.00  0.00     0.174 HD
ATOM     23 1H10 UNL     1      20.596  13.131 121.076  1.00  0.00     0.174 HD
ENDBRANCH  20  21
BRANCH  20  24
HETATM   24  N11 UNL     1      18.952  14.701 122.469  1.00  0.00    -0.327 NA
ATOM     25 2H11 UNL     1      18.278  15.444 122.283  1.00  0.00     0.174 HD
ATOM     26 1H11 UNL     1      19.923  14.989 122.342  1.00  0.00     0.174 HD
ENDBRANCH  20  24
ENDBRANCH  13  20
ENDBRANCH   9  10
ENDBRANCH   8   9
ENDBRANCH   4   8
BRANCH   3  27
HETATM   27  C7  UNL     1      14.005   9.336 121.655  1.00  0.00     0.199 C 
BRANCH  27  28
HETATM   28  O2  UNL     1      14.399   9.549 122.966  1.00  0.00    -0.398 OA
ATOM     29  H2  UNL     1      14.869   8.807 123.330  1.00  0.00     0.209 HD
ENDBRANCH  27  28
ENDBRANCH   3  27
BRANCH   5  30
HETATM   30  O5  UNL     1      12.029  12.907 120.246  1.00  0.00    -0.388 OA
ATOM     31  H5  UNL     1      12.374  13.709 120.620  1.00  0.00     0.210 HD
ENDBRANCH   5  30
BRANCH   1  32
HETATM   32  N4  UNL     1      13.411  10.477 117.962  1.00  0.00    -0.297 N 
HETATM   33  C2  UNL     1      13.496   9.165 117.691  1.00  0.00     0.157 A 
HETATM   34  N2  UNL     1      12.911   8.060 118.240  1.00  0.00    -0.174 N 
HETATM   35  C3  UNL     1      14.365   8.982 116.636  1.00  0.00     0.130 A 
HETATM   36  C1  UNL     1      13.157   6.819 117.786  1.00  0.00     0.679 A 
ATOM     37  H2  UNL     1      12.266   8.180 119.021  1.00  0.00     0.186 HD
HETATM   38  N12 UNL     1      14.008   6.668 116.756  1.00  0.00    -0.168 N 
HETATM   39  C12 UNL     1      14.629   7.697 116.154  1.00  0.00     0.186 A 
ATOM     40  H12 UNL     1      14.191   5.725 116.414  1.00  0.00     0.186 HD
HETATM   41  N3  UNL     1      14.785  10.188 116.295  1.00  0.00    -0.346 N 
HETATM   42  C4  UNL     1      14.212  11.101 117.094  1.00  0.00     0.188 A 
ATOM     43  H3  UNL     1      15.443  10.393 115.542  1.00  0.00     0.167 HD
BRANCH  36  44
HETATM   44  N1  UNL     1      12.581   5.774 118.332  1.00  0.00    -0.234 N 
ATOM     45  H12 UNL     1      12.838   5.473 119.272  1.00  0.00     0.174 HD
ATOM     46  H11 UNL     1      11.869   5.244 117.829  1.00  0.00     0.174 HD
ENDBRANCH  36  44
BRANCH  39  47
HETATM   47  O6  UNL     1      15.507   7.568 115.097  1.00  0.00    -0.344 OA
ATOM     48  H6  UNL     1      15.797   6.694 114.862  1.00  0.00     0.219 HD
ENDBRANCH  39  47
ENDBRANCH   1  32
TORSDOF 14
ENDMDL
MODEL 2
REMARK VINA RESULT: -6.231692723      3.986      6.066
REMARK  14 active torsions:
REMARK  status: ('A' for Active; 'I' for Inactive)
REMARK    1  A    between atoms: N1_1  and  C1_4 
REMARK    2  A    between atoms: N4_12  and  C5_13 
REMARK    3  A    between atoms: C6_15  and  C7_16 
REMARK    4  A    between atoms: C7_16  and  O2_17 
REMARK    5  A    between atoms: C8_19  and  O3_20 
REMARK    6  A    between atoms: C8_19  and  C9_22 
REMARK    7  A    between atoms: C9_22  and  O4_23 
REMARK    8  A    between atoms: O4_23  and  N5_24 
REMARK       I    between atoms: C10_26  and  N6_27 
REMARK       I    between atoms: C10_26  and  N8_32 
REMARK    9  A    between atoms: N6_27  and  N7_29 
REMARK   10  A    between atoms: N8_32  and  N9_34 
REMARK   11  A    between atoms: N9_34  and  N10_35 
REMARK   12  A    between atoms: N9_34  and  N11_38 
REMARK   13  A    between atoms: C11_41  and  O5_42 
REMARK   14  A    between atoms: C12_44  and  O6_45 
ROOT
HETATM    1  C5  UNL     1      14.848  10.981 121.076  1.00  0.00     0.263 C 
HETATM    2  O1  UNL     1      15.347  12.267 121.053  1.00  0.00    -0.353 OA
HETATM    3  C6  UNL     1      16.340  12.405 121.975  1.00  0.00     0.187 C 
HETATM    4  C8  UNL     1      16.490  11.106 122.728  1.00  0.00     0.139 C 
HETATM    5  C11 UNL     1      15.881  10.130 121.742  1.00  0.00     0.206 C 
ENDROOT
BRANCH   4   6
HETATM    6  O3  UNL     1      15.837  11.143 123.934  1.00  0.00    -0.382 OA
ATOM      7  H3  UNL     1      16.413  11.428 124.635  1.00  0.00     0.210 HD
ENDBRANCH   4   6
BRANCH   4   8
HETATM    8  C9  UNL     1      17.951  10.829 122.988  1.00  0.00     0.245 C 
BRANCH   8   9
HETATM    9  O4  UNL     1      18.171  10.296 124.258  1.00  0.00    -0.263 OA
BRANCH   9  10
HETATM   10  N5  UNL     1      18.232  11.134 125.332  1.00  0.00    -0.094 N 
HETATM   11  C10 UNL     1      18.503  10.679 126.513  1.00  0.00     0.729 C 
HETATM   12  N6  UNL     1      18.739   9.302 126.697  1.00  0.00    -0.136 N 
HETATM   13  N8  UNL     1      18.570  11.538 127.642  1.00  0.00    -0.113 N 
ATOM     14  H6  UNL     1      18.030   8.602 126.475  1.00  0.00     0.205 HD
ATOM     15  H8  UNL     1      18.314  11.215 128.575  1.00  0.00     0.203 HD
ATOM     16  H5  UNL     1      18.062  12.132 125.204  1.00  0.00     0.213 HD
BRANCH  12  17
HETATM   17  N7  UNL     1      20.005   8.936 127.204  1.00  0.00    -0.331 N 
ATOM     18  H72 UNL     1      20.658   9.646 127.533  1.00  0.00     0.177 HD
ATOM     19  H71 UNL     1      20.223   7.940 127.220  1.00  0.00     0.177 HD
ENDBRANCH  12  17
BRANCH  13  20
HETATM   20  N9  UNL     1      19.004  12.849 127.415  1.00  0.00    -0.039 NA
BRANCH  20  21
HETATM   21  N10 UNL     1      18.064  13.643 126.783  1.00  0.00    -0.327 NA
ATOM     22 2H10 UNL     1      17.142  13.207 126.760  1.00  0.00     0.174 HD
ATOM     23 1H10 UNL     1      17.973  14.574 127.191  1.00  0.00     0.174 HD
ENDBRANCH  20  21
BRANCH  20  24
HETATM   24  N11 UNL     1      20.214  12.803 126.717  1.00  0.00    -0.327 NA
ATOM     25 2H11 UNL     1      21.002  12.570 127.323  1.00  0.00     0.174 HD
ATOM     26 1H11 UNL     1      20.331  13.681 126.212  1.00  0.00     0.174 HD
ENDBRANCH  20  24
ENDBRANCH  13  20
ENDBRANCH   9  10
ENDBRANCH   8   9
ENDBRANCH   4   8
BRANCH   3  27
HETATM   27  C7  UNL     1      16.142  13.555 122.929  1.00  0.00     0.199 C 
BRANCH  27  28
HETATM   28  O2  UNL     1      15.542  14.649 122.326  1.00  0.00    -0.398 OA
ATOM     29  H2  UNL     1      15.678  15.453 122.813  1.00  0.00     0.209 HD
ENDBRANCH  27  28
ENDBRANCH   3  27
BRANCH   5  30
HETATM   30  O5  UNL     1      16.887   9.887 120.777  1.00  0.00    -0.388 OA
ATOM     31  H5  UNL     1      17.668   9.636 121.257  1.00  0.00     0.210 HD
ENDBRANCH   5  30
BRANCH   1  32
HETATM   32  N4  UNL     1      13.548  10.897 121.706  1.00  0.00    -0.297 N 
HETATM   33  C2  UNL     1      12.797  11.981 121.954  1.00  0.00     0.157 A 
HETATM   34  N2  UNL     1      12.984  13.315 121.727  1.00  0.00    -0.174 N 
HETATM   35  C3  UNL     1      11.623  11.584 122.557  1.00  0.00     0.130 A 
HETATM   36  C1  UNL     1      12.066  14.235 122.071  1.00  0.00     0.679 A 
ATOM     37  H2  UNL     1      13.848  13.624 121.282  1.00  0.00     0.186 HD
HETATM   38  N12 UNL     1      10.929  13.820 122.657  1.00  0.00    -0.168 N 
HETATM   39  C12 UNL     1      10.659  12.530 122.919  1.00  0.00     0.186 A 
ATOM     40  H12 UNL     1      10.234  14.521 122.916  1.00  0.00     0.186 HD
HETATM   41  N3  UNL     1      11.692  10.268 122.659  1.00  0.00    -0.346 N 
HETATM   42  C4  UNL     1      12.857   9.842 122.146  1.00  0.00     0.188 A 
ATOM     43  H3  UNL     1      10.973   9.668 123.065  1.00  0.00     0.167 HD
BRANCH  36  44
HETATM   44  N1  UNL     1      12.269  15.511 121.842  1.00  0.00    -0.234 N 
ATOM     45  H12 UNL     1      13.012  15.811 121.211  1.00  0.00     0.174 HD
ATOM     46  H11 UNL     1      11.692  16.223 122.288  1.00  0.00     0.174 HD
ENDBRANCH  36  44
BRANCH  39  47
HETATM   47  O6  UNL     1       9.502  12.080 123.519  1.00  0.00    -0.344 OA
ATOM     48  H6  UNL     1       9.530  11.877 124.447  1.00  0.00     0.219 HD
ENDBRANCH  39  47
ENDBRANCH   1  32
TORSDOF 14
ENDMDL
MODEL 3
REMARK VINA RESULT: -6.088046325      1.452      1.755
REMARK  14 active torsions:
REMARK  status: ('A' for Active; 'I' for Inactive)
REMARK    1  A    between atoms: N1_1  and  C1_4 
REMARK    2  A    between atoms: N4_12  and  C5_13 
REMARK    3  A    between atoms: C6_15  and  C7_16 
REMARK    4  A    between atoms: C7_16  and  O2_17 
REMARK    5  A    between atoms: C8_19  and  O3_20 
REMARK    6  A    between atoms: C8_19  and  C9_22 
REMARK    7  A    between atoms: C9_22  and  O4_23 
REMARK    8  A    between atoms: O4_23  and  N5_24 
REMARK       I    between atoms: C10_26  and  N6_27 
REMARK       I    between atoms: C10_26  and  N8_32 
REMARK    9  A    between atoms: N6_27  and  N7_29 
REMARK   10  A    between atoms: N8_32  and  N9_34 
REMARK   11  A    between atoms: N9_34  and  N10_35 
REMARK   12  A    between atoms: N9_34  and  N11_38 
REMARK   13  A    between atoms: C11_41  and  O5_42 
REMARK   14  A    between atoms: C12_44  and  O6_45 
ROOT
HETATM    1  C5  UNL     1      13.022  10.906 119.575  1.00  0.00     0.263 C 
HETATM    2  O1  UNL     1      12.513  10.653 120.832  1.00  0.00    -0.353 OA
HETATM    3  C6  UNL     1      13.311  11.211 121.785  1.00  0.00     0.187 C 
HETATM    4  C8  UNL     1      14.497  11.856 121.111  1.00  0.00     0.139 C 
HETATM    5  C11 UNL     1      13.955  12.065 119.712  1.00  0.00     0.206 C 
ENDROOT
BRANCH   4   6
HETATM    6  O3  UNL     1      15.604  11.045 121.153  1.00  0.00    -0.382 OA
ATOM      7  H3  UNL     1      15.593  10.402 120.454  1.00  0.00     0.210 HD
ENDBRANCH   4   6
BRANCH   4   8
HETATM    8  C9  UNL     1      14.836  13.155 121.801  1.00  0.00     0.245 C 
BRANCH   8   9
HETATM    9  O4  UNL     1      15.614  12.961 122.942  1.00  0.00    -0.263 OA
BRANCH   9  10
HETATM   10  N5  UNL     1      16.932  13.309 122.918  1.00  0.00    -0.094 N 
HETATM   11  C10 UNL     1      17.848  12.450 123.228  1.00  0.00     0.729 C 
HETATM   12  N6  UNL     1      17.487  11.138 123.595  1.00  0.00    -0.136 N 
HETATM   13  N8  UNL     1      19.226  12.796 123.208  1.00  0.00    -0.113 N 
ATOM     14  H6  UNL     1      16.892  10.953 124.403  1.00  0.00     0.205 HD
ATOM     15  H8  UNL     1      19.894  12.367 123.849  1.00  0.00     0.203 HD
ATOM     16  H5  UNL     1      17.199  14.257 122.652  1.00  0.00     0.213 HD
BRANCH  12  17
HETATM   17  N7  UNL     1      17.987  10.092 122.790  1.00  0.00    -0.331 N 
ATOM     18  H72 UNL     1      18.581  10.293 121.986  1.00  0.00     0.177 HD
ATOM     19  H71 UNL     1      17.723   9.143 123.054  1.00  0.00     0.177 HD
ENDBRANCH  12  17
BRANCH  13  20
HETATM   20  N9  UNL     1      19.625  13.753 122.268  1.00  0.00    -0.039 NA
BRANCH  20  21
HETATM   21  N10 UNL     1      19.236  15.041 122.589  1.00  0.00    -0.327 NA
ATOM     22 2H10 UNL     1      18.921  15.564 121.772  1.00  0.00     0.174 HD
ATOM     23 1H10 UNL     1      18.509  15.084 123.303  1.00  0.00     0.174 HD
ENDBRANCH  20  21
BRANCH  20  24
HETATM   24  N11 UNL     1      19.166  13.358 121.009  1.00  0.00    -0.327 NA
ATOM     25 2H11 UNL     1      18.779  12.414 121.016  1.00  0.00     0.174 HD
ATOM     26 1H11 UNL     1      19.920  13.486 120.333  1.00  0.00     0.174 HD
ENDBRANCH  20  24
ENDBRANCH  13  20
ENDBRANCH   9  10
ENDBRANCH   8   9
ENDBRANCH   4   8
BRANCH   3  27
HETATM   27  C7  UNL     1      13.762  10.250 122.855  1.00  0.00     0.199 C 
BRANCH  27  28
HETATM   28  O2  UNL     1      14.177  10.895 124.009  1.00  0.00    -0.398 OA
ATOM     29  H2  UNL     1      14.993  11.365 123.890  1.00  0.00     0.209 HD
ENDBRANCH  27  28
ENDBRANCH   3  27
BRANCH   5  30
HETATM   30  O5  UNL     1      13.147  13.225 119.787  1.00  0.00    -0.388 OA
ATOM     31  H5  UNL     1      13.472  13.734 120.521  1.00  0.00     0.210 HD
ENDBRANCH   5  30
BRANCH   1  32
HETATM   32  N4  UNL     1      13.643   9.742 118.979  1.00  0.00    -0.297 N 
HETATM   33  C2  UNL     1      13.087   8.522 119.033  1.00  0.00     0.157 A 
HETATM   34  N2  UNL     1      11.929   8.050 119.583  1.00  0.00    -0.174 N 
HETATM   35  C3  UNL     1      13.909   7.626 118.382  1.00  0.00     0.130 A 
HETATM   36  C1  UNL     1      11.577   6.755 119.505  1.00  0.00     0.679 A 
ATOM     37  H2  UNL     1      11.312   8.700 120.067  1.00  0.00     0.186 HD
HETATM   38  N12 UNL     1      12.396   5.903 118.865  1.00  0.00    -0.168 N 
HETATM   39  C12 UNL     1      13.554   6.277 118.294  1.00  0.00     0.186 A 
ATOM     40  H12 UNL     1      12.124   4.921 118.808  1.00  0.00     0.186 HD
HETATM   41  N3  UNL     1      14.943   8.327 117.950  1.00  0.00    -0.346 N 
HETATM   42  C4  UNL     1      14.791   9.612 118.308  1.00  0.00     0.188 A 
ATOM     43  H3  UNL     1      15.734   7.951 117.427  1.00  0.00     0.167 HD
BRANCH  36  44
HETATM   44  N1  UNL     1      10.458   6.326 120.042  1.00  0.00    -0.234 N 
ATOM     45  H12 UNL     1      10.229   5.332 120.035  1.00  0.00     0.174 HD
ATOM     46  H11 UNL     1       9.800   6.975 120.472  1.00  0.00     0.174 HD
ENDBRANCH  36  44
BRANCH  39  47
HETATM   47  O6  UNL     1      14.411   5.423 117.633  1.00  0.00    -0.344 OA
ATOM     48  H6  UNL     1      14.178   4.502 117.589  1.00  0.00     0.219 HD
ENDBRANCH  39  47
ENDBRANCH   1  32
TORSDOF 14
ENDMDL
MODEL 4
REMARK VINA RESULT: -6.011014869      3.208      4.755
REMARK  14 active torsions:
REMARK  status: ('A' for Active; 'I' for Inactive)
REMARK    1  A    between atoms: N1_1  and  C1_4 
REMARK    2  A    between atoms: N4_12  and  C5_13 
REMARK    3  A    between atoms: C6_15  and  C7_16 
REMARK    4  A    between atoms: C7_16  and  O2_17 
REMARK    5  A    between atoms: C8_19  and  O3_20 
REMARK    6  A    between atoms: C8_19  and  C9_22 
REMARK    7  A    between atoms: C9_22  and  O4_23 
REMARK    8  A    between atoms: O4_23  and  N5_24 
REMARK       I    between atoms: C10_26  and  N6_27 
REMARK       I    between atoms: C10_26  and  N8_32 
REMARK    9  A    between atoms: N6_27  and  N7_29 
REMARK   10  A    between atoms: N8_32  and  N9_34 
REMARK   11  A    between atoms: N9_34  and  N10_35 
REMARK   12  A    between atoms: N9_34  and  N11_38 
REMARK   13  A    between atoms: C11_41  and  O5_42 
REMARK   14  A    between atoms: C12_44  and  O6_45 
ROOT
HETATM    1  C5  UNL     1      13.148   9.731 121.122  1.00  0.00     0.263 C 
HETATM    2  O1  UNL     1      12.167  10.697 121.041  1.00  0.00    -0.353 OA
HETATM    3  C6  UNL     1      12.618  11.873 121.561  1.00  0.00     0.187 C 
HETATM    4  C8  UNL     1      14.015  11.667 122.091  1.00  0.00     0.139 C 
HETATM    5  C11 UNL     1      14.447  10.449 121.300  1.00  0.00     0.206 C 
ENDROOT
BRANCH   4   6
HETATM    6  O3  UNL     1      14.017  11.466 123.448  1.00  0.00    -0.382 OA
ATOM      7  H3  UNL     1      14.900  11.409 123.793  1.00  0.00     0.210 HD
ENDBRANCH   4   6
BRANCH   4   8
HETATM    8  C9  UNL     1      14.862  12.880 121.791  1.00  0.00     0.245 C 
BRANCH   8   9
HETATM    9  O4  UNL     1      15.469  13.398 122.935  1.00  0.00    -0.263 OA
BRANCH   9  10
HETATM   10  N5  UNL     1      16.816  13.615 122.935  1.00  0.00    -0.094 N 
HETATM   11  C10 UNL     1      17.633  12.698 123.344  1.00  0.00     0.729 C 
HETATM   12  N6  UNL     1      17.132  11.460 123.794  1.00  0.00    -0.136 N 
HETATM   13  N8  UNL     1      19.038  12.908 123.350  1.00  0.00    -0.113 N 
ATOM     14  H6  UNL     1      16.498  11.397 124.590  1.00  0.00     0.205 HD
ATOM     15  H8  UNL     1      19.640  12.468 124.047  1.00  0.00     0.203 HD
ATOM     16  H5  UNL     1      17.183  14.508 122.610  1.00  0.00     0.213 HD
BRANCH  12  17
HETATM   17  N7  UNL     1      17.551  10.311 123.089  1.00  0.00    -0.331 N 
ATOM     18  H72 UNL     1      17.845  10.376 122.115  1.00  0.00     0.177 HD
ATOM     19  H71 UNL     1      17.542   9.429 123.602  1.00  0.00     0.177 HD
ENDBRANCH  12  17
BRANCH  13  20
HETATM   20  N9  UNL     1      19.558  13.745 122.358  1.00  0.00    -0.039 NA
BRANCH  20  21
HETATM   21  N10 UNL     1      19.294  15.087 122.568  1.00  0.00    -0.327 NA
ATOM     22 2H10 UNL     1      20.045  15.554 123.076  1.00  0.00     0.174 HD
ATOM     23 1H10 UNL     1      19.108  15.607 121.710  1.00  0.00     0.174 HD
ENDBRANCH  20  21
BRANCH  20  24
HETATM   24  N11 UNL     1      19.097  13.302 121.115  1.00  0.00    -0.327 NA
ATOM     25 2H11 UNL     1      18.088  13.144 121.110  1.00  0.00     0.174 HD
ATOM     26 1H11 UNL     1      19.640  12.484 120.839  1.00  0.00     0.174 HD
ENDBRANCH  20  24
ENDBRANCH  13  20
ENDBRANCH   9  10
ENDBRANCH   8   9
ENDBRANCH   4   8
BRANCH   3  27
HETATM   27  C7  UNL     1      11.725  12.462 122.623  1.00  0.00     0.199 C 
BRANCH  27  28
HETATM   28  O2  UNL     1      10.996  11.497 123.300  1.00  0.00    -0.398 OA
ATOM     29  H2  UNL     1      10.497  11.858 124.023  1.00  0.00     0.209 HD
ENDBRANCH  27  28
ENDBRANCH   3  27
BRANCH   5  30
HETATM   30  O5  UNL     1      14.816  10.936 120.023  1.00  0.00    -0.388 OA
ATOM     31  H5  UNL     1      15.597  10.459 119.767  1.00  0.00     0.210 HD
ENDBRANCH   5  30
BRANCH   1  32
HETATM   32  N4  UNL     1      12.889   8.757 122.162  1.00  0.00    -0.297 N 
HETATM   33  C2  UNL     1      11.649   8.349 122.472  1.00  0.00     0.157 A 
HETATM   34  N2  UNL     1      10.414   8.667 121.984  1.00  0.00    -0.174 N 
HETATM   35  C3  UNL     1      11.724   7.426 123.494  1.00  0.00     0.130 A 
HETATM   36  C1  UNL     1       9.288   8.112 122.467  1.00  0.00     0.679 A 
ATOM     37  H2  UNL     1      10.342   9.349 121.229  1.00  0.00     0.186 HD
HETATM   38  N12 UNL     1       9.390   7.215 123.462  1.00  0.00    -0.168 N 
HETATM   39  C12 UNL     1      10.562   6.841 124.004  1.00  0.00     0.186 A 
ATOM     40  H12 UNL     1       8.534   6.796 123.826  1.00  0.00     0.186 HD
HETATM   41  N3  UNL     1      13.010   7.298 123.777  1.00  0.00    -0.346 N 
HETATM   42  C4  UNL     1      13.723   8.103 122.974  1.00  0.00     0.188 A 
ATOM     43  H3  UNL     1      13.398   6.685 124.494  1.00  0.00     0.167 HD
BRANCH  36  44
HETATM   44  N1  UNL     1       8.114   8.436 121.980  1.00  0.00    -0.234 N 
ATOM     45  H12 UNL     1       7.641   9.284 122.290  1.00  0.00     0.174 HD
ATOM     46  H11 UNL     1       7.653   7.847 121.287  1.00  0.00     0.174 HD
ENDBRANCH  36  44
BRANCH  39  47
HETATM   47  O6  UNL     1      10.693   5.924 125.027  1.00  0.00    -0.344 OA
ATOM     48  H6  UNL     1       9.959   5.347 125.205  1.00  0.00     0.219 HD
ENDBRANCH  39  47
ENDBRANCH   1  32
TORSDOF 14
ENDMDL
MODEL 5
REMARK VINA RESULT: -5.970105915      3.472      5.143
REMARK  14 active torsions:
REMARK  status: ('A' for Active; 'I' for Inactive)
REMARK    1  A    between atoms: N1_1  and  C1_4 
REMARK    2  A    between atoms: N4_12  and  C5_13 
REMARK    3  A    between atoms: C6_15  and  C7_16 
REMARK    4  A    between atoms: C7_16  and  O2_17 
REMARK    5  A    between atoms: C8_19  and  O3_20 
REMARK    6  A    between atoms: C8_19  and  C9_22 
REMARK    7  A    between atoms: C9_22  and  O4_23 
REMARK    8  A    between atoms: O4_23  and  N5_24 
REMARK       I    between atoms: C10_26  and  N6_27 
REMARK       I    between atoms: C10_26  and  N8_32 
REMARK    9  A    between atoms: N6_27  and  N7_29 
REMARK   10  A    between atoms: N8_32  and  N9_34 
REMARK   11  A    between atoms: N9_34  and  N10_35 
REMARK   12  A    between atoms: N9_34  and  N11_38 
REMARK   13  A    between atoms: C11_41  and  O5_42 
REMARK   14  A    between atoms: C12_44  and  O6_45 
ROOT
HETATM    1  C5  UNL     1      13.153   9.897 121.406  1.00  0.00     0.263 C 
HETATM    2  O1  UNL     1      12.149  10.836 121.282  1.00  0.00    -0.353 OA
HETATM    3  C6  UNL     1      12.529  12.011 121.857  1.00  0.00     0.187 C 
HETATM    4  C8  UNL     1      13.894  11.833 122.474  1.00  0.00     0.139 C 
HETATM    5  C11 UNL     1      14.415  10.648 121.686  1.00  0.00     0.206 C 
ENDROOT
BRANCH   4   6
HETATM    6  O3  UNL     1      13.813  11.598 123.823  1.00  0.00    -0.382 OA
ATOM      7  H3  UNL     1      12.915  11.460 124.101  1.00  0.00     0.210 HD
ENDBRANCH   4   6
BRANCH   4   8
HETATM    8  C9  UNL     1      14.720  13.078 122.259  1.00  0.00     0.245 C 
BRANCH   8   9
HETATM    9  O4  UNL     1      16.088  12.806 122.216  1.00  0.00    -0.263 OA
BRANCH   9  10
HETATM   10  N5  UNL     1      16.787  12.718 123.384  1.00  0.00    -0.094 N 
HETATM   11  C10 UNL     1      18.079  12.642 123.377  1.00  0.00     0.729 C 
HETATM   12  N6  UNL     1      18.777  12.652 122.153  1.00  0.00    -0.136 N 
HETATM   13  N8  UNL     1      18.822  12.549 124.584  1.00  0.00    -0.113 N 
ATOM     14  H6  UNL     1      18.626  11.932 121.445  1.00  0.00     0.205 HD
ATOM     15  H8  UNL     1      19.706  12.040 124.629  1.00  0.00     0.203 HD
ATOM     16  H5  UNL     1      16.287  12.711 124.273  1.00  0.00     0.213 HD
BRANCH  12  17
HETATM   17  N7  UNL     1      19.695  13.705 121.952  1.00  0.00    -0.331 N 
ATOM     18  H72 UNL     1      20.603  13.529 121.522  1.00  0.00     0.177 HD
ATOM     19  H71 UNL     1      19.403  14.633 122.258  1.00  0.00     0.177 HD
ENDBRANCH  12  17
BRANCH  13  20
HETATM   20  N9  UNL     1      18.287  13.187 125.708  1.00  0.00    -0.039 NA
BRANCH  20  21
HETATM   21  N10 UNL     1      19.192  13.996 126.371  1.00  0.00    -0.327 NA
ATOM     22 2H10 UNL     1      18.754  14.534 127.119  1.00  0.00     0.174 HD
ATOM     23 1H10 UNL     1      19.989  13.489 126.757  1.00  0.00     0.174 HD
ENDBRANCH  20  21
BRANCH  20  24
HETATM   24  N11 UNL     1      17.730  12.218 126.546  1.00  0.00    -0.327 NA
ATOM     25 2H11 UNL     1      17.150  12.627 127.280  1.00  0.00     0.174 HD
ATOM     26 1H11 UNL     1      18.480  11.623 126.901  1.00  0.00     0.174 HD
ENDBRANCH  20  24
ENDBRANCH  13  20
ENDBRANCH   9  10
ENDBRANCH   8   9
ENDBRANCH   4   8
BRANCH   3  27
HETATM   27  C7  UNL     1      11.551  12.546 122.872  1.00  0.00     0.199 C 
BRANCH  27  28
HETATM   28  O2  UNL     1      10.727  11.559 123.389  1.00  0.00    -0.398 OA
ATOM     29  H2  UNL     1      10.267  11.841 124.171  1.00  0.00     0.209 HD
ENDBRANCH  27  28
ENDBRANCH   3  27
BRANCH   5  30
HETATM   30  O5  UNL     1      14.851  11.178 120.448  1.00  0.00    -0.388 OA
ATOM     31  H5  UNL     1      15.114  12.076 120.615  1.00  0.00     0.210 HD
ENDBRANCH   5  30
BRANCH   1  32
HETATM   32  N4  UNL     1      12.857   8.891 122.403  1.00  0.00    -0.297 N 
HETATM   33  C2  UNL     1      11.613   8.436 122.619  1.00  0.00     0.157 A 
HETATM   34  N2  UNL     1      10.403   8.727 122.055  1.00  0.00    -0.174 N 
HETATM   35  C3  UNL     1      11.650   7.491 123.622  1.00  0.00     0.130 A 
HETATM   36  C1  UNL     1       9.267   8.125 122.447  1.00  0.00     0.679 A 
ATOM     37  H2  UNL     1      10.361   9.424 121.312  1.00  0.00     0.186 HD
HETATM   38  N12 UNL     1       9.332   7.207 123.427  1.00  0.00    -0.168 N 
HETATM   39  C12 UNL     1      10.476   6.857 124.039  1.00  0.00     0.186 A 
ATOM     40  H12 UNL     1       8.467   6.752 123.721  1.00  0.00     0.186 HD
HETATM   41  N3  UNL     1      12.917   7.397 123.989  1.00  0.00    -0.346 N 
HETATM   42  C4  UNL     1      13.656   8.243 123.255  1.00  0.00     0.188 A 
ATOM     43  H3  UNL     1      13.276   6.779 124.717  1.00  0.00     0.167 HD
BRANCH  36  44
HETATM   44  N1  UNL     1       8.118   8.423 121.889  1.00  0.00    -0.234 N 
ATOM     45  H12 UNL     1       7.285   8.560 122.461  1.00  0.00     0.174 HD
ATOM     46  H11 UNL     1       8.036   8.521 120.877  1.00  0.00     0.174 HD
ENDBRANCH  36  44
BRANCH  39  47
HETATM   47  O6  UNL     1      10.568   5.919 125.047  1.00  0.00    -0.344 OA
ATOM     48  H6  UNL     1       9.804   5.774 125.593  1.00  0.00     0.219 HD
ENDBRANCH  39  47
ENDBRANCH   1  32
TORSDOF 14
ENDMDL
