MODEL 1
REMARK VINA RESULT: -6.923917516      0.000      0.000
REMARK  12 active torsions:
REMARK  status: ('A' for Active; 'I' for Inactive)
REMARK    1  A    between atoms: N1_1  and  C1_4 
REMARK    2  A    between atoms: C1_4  and  O1_5 
REMARK    3  A    between atoms: C1_4  and  C12_36 
REMARK    4  A    between atoms: O1_5  and  C2_6 
REMARK    5  A    between atoms: C2_6  and  C3_7 
REMARK    6  A    between atoms: C3_7  and  O2_8 
REMARK    7  A    between atoms: C4_11  and  C5_12 
REMARK    8  A    between atoms: C5_12  and  O4_13 
REMARK    9  A    between atoms: C6_16  and  N2_17 
REMARK   10  A    between atoms: C9_22  and  N4_23 
REMARK   11  A    between atoms: C10_28  and  N6_29 
REMARK   12  A    between atoms: C13_40  and  N11_41 
ROOT
HETATM    1  C3  UNL     1      18.573  12.443 124.698  1.00  0.00     0.309 C 
HETATM    2  O3  UNL     1      19.410  11.942 123.735  1.00  0.00    -0.298 OA
HETATM    3  C4  UNL     1      19.095  12.240 122.438  1.00  0.00     0.294 C 
HETATM    4  O5  UNL     1      17.769  12.242 122.108  1.00  0.00    -0.311 OA
HETATM    5  C6  UNL     1      16.877  12.191 123.145  1.00  0.00     0.387 C 
HETATM    6  O6  UNL     1      17.384  12.926 124.213  1.00  0.00    -0.281 OA
ENDROOT
BRANCH   1   7
HETATM    7  C2  UNL     1      18.251  11.336 125.710  1.00  0.00     0.279 C 
BRANCH   7   8
HETATM    8  O1  UNL     1      18.783  10.104 125.276  1.00  0.00    -0.328 OA
BRANCH   8   9
HETATM    9  C1  UNL     1      17.927   9.066 124.977  1.00  0.00     0.159 C 
BRANCH   9  10
HETATM   10  N1  UNL     1      18.233   8.295 123.989  1.00  0.00    -0.380 N 
ATOM     11  H12 UNL     1      18.879   8.621 123.270  1.00  0.00     0.158 HD
ATOM     12  H11 UNL     1      17.813   7.365 123.959  1.00  0.00     0.158 HD
ENDBRANCH   9  10
BRANCH   9  13
HETATM   13  C12 UNL     1      16.678   8.820 125.753  1.00  0.00     0.309 C 
HETATM   14  N8  UNL     1      15.574   9.277 124.947  1.00  0.00    -0.089 NA
HETATM   15  N9  UNL     1      14.335   9.096 125.541  1.00  0.00    -0.033 NA
HETATM   16  N10 UNL     1      14.298   8.000 126.392  1.00  0.00    -0.070 NA
HETATM   17  C13 UNL     1      15.279   7.001 126.076  1.00  0.00     0.435 C 
HETATM   18  O7  UNL     1      16.583   7.481 126.097  1.00  0.00    -0.315 OA
BRANCH  17  19
HETATM   19  N11 UNL     1      15.047   6.416 124.769  1.00  0.00    -0.037 N 
ATOM     20 3H11 UNL     1      15.509   5.510 124.679  1.00  0.00     0.279 HD
ATOM     21 2H11 UNL     1      14.079   6.112 124.664  1.00  0.00     0.279 HD
ATOM     22 1H11 UNL     1      15.321   7.049 124.018  1.00  0.00     0.279 HD
ENDBRANCH  17  19
ENDBRANCH   9  13
ENDBRANCH   8   9
ENDBRANCH   7   8
ENDBRANCH   1   7
BRANCH   1  23
HETATM   23  O2  UNL     1      19.243  13.496 125.364  1.00  0.00    -0.341 OA
ATOM     24  H2  UNL     1      18.620  13.967 125.906  1.00  0.00     0.215 HD
ENDBRANCH   1  23
BRANCH   3  25
HETATM   25  C5  UNL     1      19.733  13.546 121.971  1.00  0.00     0.225 C 
BRANCH  25  26
HETATM   26  O4  UNL     1      19.099  14.661 122.457  1.00  0.00    -0.396 OA
ATOM     27  H4  UNL     1      19.674  15.232 122.951  1.00  0.00     0.209 HD
ENDBRANCH  25  26
ENDBRANCH   3  25
BRANCH   5  28
HETATM   28  N2  UNL     1      15.606  12.831 122.786  1.00  0.00    -0.276 N 
HETATM   29  C7  UNL     1      15.362  14.113 122.497  1.00  0.00     0.190 A 
HETATM   30  N3  UNL     1      14.057  14.298 122.220  1.00  0.00    -0.346 N 
HETATM   31  C8  UNL     1      13.427  13.102 122.329  1.00  0.00     0.123 A 
ATOM     32  H3  UNL     1      13.618  15.184 121.970  1.00  0.00     0.167 HD
HETATM   33  C9  UNL     1      12.116  12.707 122.161  1.00  0.00     0.145 A 
HETATM   34  C11 UNL     1      14.414  12.195 122.686  1.00  0.00     0.158 A 
HETATM   35  N5  UNL     1      11.832  11.409 122.356  1.00  0.00    -0.175 N 
HETATM   36  C10 UNL     1      12.816  10.535 122.704  1.00  0.00     0.679 A 
ATOM     37  H5  UNL     1      10.874  11.076 122.241  1.00  0.00     0.186 HD
HETATM   38  N7  UNL     1      14.079  10.898 122.870  1.00  0.00    -0.174 N 
ATOM     39  H7  UNL     1      14.786  10.212 123.132  1.00  0.00     0.186 HD
BRANCH  33  40
HETATM   40  N4  UNL     1      11.194  13.554 121.828  1.00  0.00    -0.383 N 
ATOM     41  H42 UNL     1      10.915  13.677 120.855  1.00  0.00     0.157 HD
ATOM     42  H41 UNL     1      10.718  14.124 122.528  1.00  0.00     0.157 HD
ENDBRANCH  33  40
BRANCH  36  43
HETATM   43  N6  UNL     1      12.508   9.285 122.884  1.00  0.00    -0.234 N 
ATOM     44  H62 UNL     1      11.543   9.056 123.126  1.00  0.00     0.174 HD
ATOM     45  H61 UNL     1      13.237   8.580 122.778  1.00  0.00     0.174 HD
ENDBRANCH  36  43
ENDBRANCH   5  28
TORSDOF 12
ENDMDL
MODEL 2
REMARK VINA RESULT: -6.595759586      5.147      7.438
REMARK  12 active torsions:
REMARK  status: ('A' for Active; 'I' for Inactive)
REMARK    1  A    between atoms: N1_1  and  C1_4 
REMARK    2  A    between atoms: C1_4  and  O1_5 
REMARK    3  A    between atoms: C1_4  and  C12_36 
REMARK    4  A    between atoms: O1_5  and  C2_6 
REMARK    5  A    between atoms: C2_6  and  C3_7 
REMARK    6  A    between atoms: C3_7  and  O2_8 
REMARK    7  A    between atoms: C4_11  and  C5_12 
REMARK    8  A    between atoms: C5_12  and  O4_13 
REMARK    9  A    between atoms: C6_16  and  N2_17 
REMARK   10  A    between atoms: C9_22  and  N4_23 
REMARK   11  A    between atoms: C10_28  and  N6_29 
REMARK   12  A    between atoms: C13_40  and  N11_41 
ROOT
HETATM    1  C3  UNL     1      13.384  11.319 119.548  1.00  0.00     0.309 C 
HETATM    2  O3  UNL     1      14.414  11.405 118.649  1.00  0.00    -0.298 OA
HETATM    3  C4  UNL     1      14.319  10.621 117.534  1.00  0.00     0.294 C 
HETATM    4  O5  UNL     1      13.802   9.368 117.702  1.00  0.00    -0.311 OA
HETATM    5  C6  UNL     1      13.206   9.104 118.905  1.00  0.00     0.387 C 
HETATM    6  O6  UNL     1      12.549  10.250 119.343  1.00  0.00    -0.281 OA
ENDROOT
BRANCH   1   7
HETATM    7  C2  UNL     1      13.960  11.198 120.964  1.00  0.00     0.279 C 
BRANCH   7   8
HETATM    8  O1  UNL     1      15.172  11.911 121.064  1.00  0.00    -0.328 OA
BRANCH   8   9
HETATM    9  C1  UNL     1      15.221  13.057 121.828  1.00  0.00     0.159 C 
BRANCH   9  10
HETATM   10  N1  UNL     1      14.140  13.750 121.950  1.00  0.00    -0.380 N 
ATOM     11  H12 UNL     1      13.490  13.821 121.167  1.00  0.00     0.158 HD
ATOM     12  H11 UNL     1      13.965  14.212 122.843  1.00  0.00     0.158 HD
ENDBRANCH   9  10
BRANCH   9  13
HETATM   13  C12 UNL     1      16.473  13.506 122.503  1.00  0.00     0.309 C 
HETATM   14  N8  UNL     1      16.610  12.734 123.712  1.00  0.00    -0.089 NA
HETATM   15  N9  UNL     1      17.749  13.038 124.442  1.00  0.00    -0.033 NA
HETATM   16  N10 UNL     1      18.803  13.465 123.647  1.00  0.00    -0.070 NA
HETATM   17  C13 UNL     1      18.723  12.995 122.294  1.00  0.00     0.435 C 
HETATM   18  O7  UNL     1      17.554  13.372 121.646  1.00  0.00    -0.315 OA
BRANCH  17  19
HETATM   19  N11 UNL     1      18.817  11.548 122.223  1.00  0.00    -0.037 N 
ATOM     20 3H11 UNL     1      19.563  11.194 122.823  1.00  0.00     0.279 HD
ATOM     21 2H11 UNL     1      18.021  11.101 122.676  1.00  0.00     0.279 HD
ATOM     22 1H11 UNL     1      18.928  11.224 121.262  1.00  0.00     0.279 HD
ENDBRANCH  17  19
ENDBRANCH   9  13
ENDBRANCH   8   9
ENDBRANCH   7   8
ENDBRANCH   1   7
BRANCH   1  23
HETATM   23  O2  UNL     1      12.618  12.505 119.461  1.00  0.00    -0.341 OA
ATOM     24  H2  UNL     1      11.718  12.313 119.698  1.00  0.00     0.215 HD
ENDBRANCH   1  23
BRANCH   3  25
HETATM   25  C5  UNL     1      13.585  11.320 116.392  1.00  0.00     0.225 C 
BRANCH  25  26
HETATM   26  O4  UNL     1      12.247  11.495 116.638  1.00  0.00    -0.396 OA
ATOM     27  H4  UNL     1      11.720  11.507 115.848  1.00  0.00     0.209 HD
ENDBRANCH  25  26
ENDBRANCH   3  25
BRANCH   5  28
HETATM   28  N2  UNL     1      12.168   8.074 118.772  1.00  0.00    -0.276 N 
HETATM   29  C7  UNL     1      11.959   6.989 119.524  1.00  0.00     0.190 A 
HETATM   30  N3  UNL     1      10.899   6.293 119.070  1.00  0.00    -0.346 N 
HETATM   31  C8  UNL     1      10.399   6.940 117.988  1.00  0.00     0.123 A 
ATOM     32  H3  UNL     1      10.535   5.428 119.471  1.00  0.00     0.167 HD
HETATM   33  C9  UNL     1       9.340   6.683 117.142  1.00  0.00     0.145 A 
HETATM   34  C11 UNL     1      11.209   8.053 117.816  1.00  0.00     0.158 A 
HETATM   35  N5  UNL     1       9.123   7.556 116.144  1.00  0.00    -0.175 N 
HETATM   36  C10 UNL     1       9.929   8.643 115.993  1.00  0.00     0.679 A 
ATOM     37  H5  UNL     1       8.350   7.403 115.496  1.00  0.00     0.186 HD
HETATM   38  N7  UNL     1      10.949   8.902 116.797  1.00  0.00    -0.174 N 
ATOM     39  H7  UNL     1      11.529   9.728 116.649  1.00  0.00     0.186 HD
BRANCH  33  40
HETATM   40  N4  UNL     1       8.585   5.644 117.303  1.00  0.00    -0.383 N 
ATOM     41  H42 UNL     1       7.878   5.612 118.038  1.00  0.00     0.157 HD
ATOM     42  H41 UNL     1       8.672   4.825 116.700  1.00  0.00     0.157 HD
ENDBRANCH  33  40
BRANCH  36  43
HETATM   43  N6  UNL     1       9.690   9.468 115.017  1.00  0.00    -0.234 N 
ATOM     44  H62 UNL     1       8.848  10.042 115.066  1.00  0.00     0.174 HD
ATOM     45  H61 UNL     1      10.350   9.512 114.240  1.00  0.00     0.174 HD
ENDBRANCH  36  43
ENDBRANCH   5  28
TORSDOF 12
ENDMDL
MODEL 3
REMARK VINA RESULT: -6.519498527      2.494      5.079
REMARK  12 active torsions:
REMARK  status: ('A' for Active; 'I' for Inactive)
REMARK    1  A    between atoms: N1_1  and  C1_4 
REMARK    2  A    between atoms: C1_4  and  O1_5 
REMARK    3  A    between atoms: C1_4  and  C12_36 
REMARK    4  A    between atoms: O1_5  and  C2_6 
REMARK    5  A    between atoms: C2_6  and  C3_7 
REMARK    6  A    between atoms: C3_7  and  O2_8 
REMARK    7  A    between atoms: C4_11  and  C5_12 
REMARK    8  A    between atoms: C5_12  and  O4_13 
REMARK    9  A    between atoms: C6_16  and  N2_17 
REMARK   10  A    between atoms: C9_22  and  N4_23 
REMARK   11  A    between atoms: C10_28  and  N6_29 
REMARK   12  A    between atoms: C13_40  and  N11_41 
ROOT
HETATM    1  C3  UNL     1      17.930  12.453 122.778  1.00  0.00     0.309 C 
HETATM    2  O3  UNL     1      17.254  13.042 121.741  1.00  0.00    -0.298 OA
HETATM    3  C4  UNL     1      15.900  12.857 121.711  1.00  0.00     0.294 C 
HETATM    4  O5  UNL     1      15.436  11.626 122.078  1.00  0.00    -0.311 OA
HETATM    5  C6  UNL     1      16.334  10.781 122.671  1.00  0.00     0.387 C 
HETATM    6  O6  UNL     1      17.193  11.527 123.473  1.00  0.00    -0.281 OA
ENDROOT
BRANCH   1   7
HETATM    7  C2  UNL     1      19.175  11.745 122.230  1.00  0.00     0.279 C 
BRANCH   7   8
HETATM    8  O1  UNL     1      19.601  10.739 123.121  1.00  0.00    -0.328 OA
BRANCH   8   9
HETATM    9  C1  UNL     1      20.683  10.975 123.940  1.00  0.00     0.159 C 
BRANCH   9  10
HETATM   10  N1  UNL     1      21.858  10.973 123.407  1.00  0.00    -0.380 N 
ATOM     11  H12 UNL     1      21.956  10.966 122.392  1.00  0.00     0.158 HD
ATOM     12  H11 UNL     1      22.667  10.979 124.030  1.00  0.00     0.158 HD
ENDBRANCH   9  10
BRANCH   9  13
HETATM   13  C12 UNL     1      20.530  11.227 125.402  1.00  0.00     0.309 C 
HETATM   14  N8  UNL     1      20.265  12.634 125.570  1.00  0.00    -0.089 NA
HETATM   15  N9  UNL     1      20.084  13.015 126.890  1.00  0.00    -0.033 NA
HETATM   16  N10 UNL     1      19.546  12.006 127.675  1.00  0.00    -0.070 NA
HETATM   17  C13 UNL     1      18.794  11.040 126.926  1.00  0.00     0.435 C 
HETATM   18  O7  UNL     1      19.533  10.420 125.926  1.00  0.00    -0.315 OA
BRANCH  17  19
HETATM   19  N11 UNL     1      17.627  11.635 126.303  1.00  0.00    -0.037 N 
ATOM     20 3H11 UNL     1      17.072  10.936 125.808  1.00  0.00     0.279 HD
ATOM     21 2H11 UNL     1      16.938  11.920 127.000  1.00  0.00     0.279 HD
ATOM     22 1H11 UNL     1      17.879  12.412 125.692  1.00  0.00     0.279 HD
ENDBRANCH  17  19
ENDBRANCH   9  13
ENDBRANCH   8   9
ENDBRANCH   7   8
ENDBRANCH   1   7
BRANCH   1  23
HETATM   23  O2  UNL     1      18.332  13.467 123.678  1.00  0.00    -0.341 OA
ATOM     24  H2  UNL     1      17.764  13.450 124.440  1.00  0.00     0.215 HD
ENDBRANCH   1  23
BRANCH   3  25
HETATM   25  C5  UNL     1      15.149  13.933 122.492  1.00  0.00     0.225 C 
BRANCH  25  26
HETATM   26  O4  UNL     1      15.799  15.141 122.506  1.00  0.00    -0.396 OA
ATOM     27  H4  UNL     1      16.159  15.382 121.660  1.00  0.00     0.209 HD
ENDBRANCH  25  26
ENDBRANCH   3  25
BRANCH   5  28
HETATM   28  N2  UNL     1      15.663   9.837 123.573  1.00  0.00    -0.276 N 
HETATM   29  C7  UNL     1      14.358   9.698 123.825  1.00  0.00     0.190 A 
HETATM   30  N3  UNL     1      14.149   8.713 124.719  1.00  0.00    -0.346 N 
HETATM   31  C8  UNL     1      15.352   8.190 125.063  1.00  0.00     0.123 A 
ATOM     32  H3  UNL     1      13.242   8.411 125.076  1.00  0.00     0.167 HD
HETATM   33  C9  UNL     1      15.730   7.179 125.921  1.00  0.00     0.145 A 
HETATM   34  C11 UNL     1      16.289   8.908 124.335  1.00  0.00     0.158 A 
HETATM   35  N5  UNL     1      17.044   6.916 126.025  1.00  0.00    -0.175 N 
HETATM   36  C10 UNL     1      17.947   7.633 125.300  1.00  0.00     0.679 A 
ATOM     37  H5  UNL     1      17.366   6.176 126.649  1.00  0.00     0.186 HD
HETATM   38  N7  UNL     1      17.599   8.606 124.472  1.00  0.00    -0.174 N 
ATOM     39  H7  UNL     1      18.308   9.119 123.947  1.00  0.00     0.186 HD
BRANCH  33  40
HETATM   40  N4  UNL     1      14.856   6.508 126.602  1.00  0.00    -0.383 N 
ATOM     41  H42 UNL     1      13.894   6.836 126.694  1.00  0.00     0.157 HD
ATOM     42  H41 UNL     1      15.100   5.633 127.065  1.00  0.00     0.157 HD
ENDBRANCH  33  40
BRANCH  36  43
HETATM   43  N6  UNL     1      19.211   7.352 125.423  1.00  0.00    -0.234 N 
ATOM     44  H62 UNL     1      19.504   6.383 125.299  1.00  0.00     0.174 HD
ATOM     45  H61 UNL     1      19.861   8.108 125.639  1.00  0.00     0.174 HD
ENDBRANCH  36  43
ENDBRANCH   5  28
TORSDOF 12
ENDMDL
MODEL 4
REMARK VINA RESULT: -6.433638915      3.780      6.222
REMARK  12 active torsions:
REMARK  status: ('A' for Active; 'I' for Inactive)
REMARK    1  A    between atoms: N1_1  and  C1_4 
REMARK    2  A    between atoms: C1_4  and  O1_5 
REMARK    3  A    between atoms: C1_4  and  C12_36 
REMARK    4  A    between atoms: O1_5  and  C2_6 
REMARK    5  A    between atoms: C2_6  and  C3_7 
REMARK    6  A    between atoms: C3_7  and  O2_8 
REMARK    7  A    between atoms: C4_11  and  C5_12 
REMARK    8  A    between atoms: C5_12  and  O4_13 
REMARK    9  A    between atoms: C6_16  and  N2_17 
REMARK   10  A    between atoms: C9_22  and  N4_23 
REMARK   11  A    between atoms: C10_28  and  N6_29 
REMARK   12  A    between atoms: C13_40  and  N11_41 
ROOT
HETATM    1  C3  UNL     1      13.889  12.803 122.527  1.00  0.00     0.309 C 
HETATM    2  O3  UNL     1      12.810  13.592 122.829  1.00  0.00    -0.298 OA
HETATM    3  C4  UNL     1      11.653  13.331 122.149  1.00  0.00     0.294 C 
HETATM    4  O5  UNL     1      11.773  12.995 120.830  1.00  0.00    -0.311 OA
HETATM    5  C6  UNL     1      13.034  12.713 120.379  1.00  0.00     0.387 C 
HETATM    6  O6  UNL     1      13.737  12.056 121.386  1.00  0.00    -0.281 OA
ENDROOT
BRANCH   1   7
HETATM    7  C2  UNL     1      15.127  13.690 122.344  1.00  0.00     0.279 C 
BRANCH   7   8
HETATM    8  O1  UNL     1      16.093  13.395 123.328  1.00  0.00    -0.328 OA
BRANCH   8   9
HETATM    9  C1  UNL     1      17.166  12.595 123.002  1.00  0.00     0.159 C 
BRANCH   9  10
HETATM   10  N1  UNL     1      17.209  11.406 123.501  1.00  0.00    -0.380 N 
ATOM     11  H12 UNL     1      17.400  11.278 124.495  1.00  0.00     0.158 HD
ATOM     12  H11 UNL     1      17.045  10.617 122.874  1.00  0.00     0.158 HD
ENDBRANCH   9  10
BRANCH   9  13
HETATM   13  C12 UNL     1      18.261  13.064 122.104  1.00  0.00     0.309 C 
HETATM   14  N8  UNL     1      18.968  14.110 122.799  1.00  0.00    -0.089 NA
HETATM   15  N9  UNL     1      20.032  14.636 122.084  1.00  0.00    -0.033 NA
HETATM   16  N10 UNL     1      20.617  13.713 121.228  1.00  0.00    -0.070 NA
HETATM   17  C13 UNL     1      20.415  12.352 121.634  1.00  0.00     0.435 C 
HETATM   18  O7  UNL     1      19.075  12.002 121.746  1.00  0.00    -0.315 OA
BRANCH  17  19
HETATM   19  N11 UNL     1      21.050  12.072 122.909  1.00  0.00    -0.037 N 
ATOM     20 3H11 UNL     1      20.699  11.205 123.317  1.00  0.00     0.279 HD
ATOM     21 2H11 UNL     1      22.027  11.807 122.787  1.00  0.00     0.279 HD
ATOM     22 1H11 UNL     1      20.954  12.854 123.557  1.00  0.00     0.279 HD
ENDBRANCH  17  19
ENDBRANCH   9  13
ENDBRANCH   8   9
ENDBRANCH   7   8
ENDBRANCH   1   7
BRANCH   1  23
HETATM   23  O2  UNL     1      14.109  11.920 123.610  1.00  0.00    -0.341 OA
ATOM     24  H2  UNL     1      13.854  11.041 123.352  1.00  0.00     0.215 HD
ENDBRANCH   1  23
BRANCH   3  25
HETATM   25  C5  UNL     1      10.785  12.293 122.856  1.00  0.00     0.225 C 
BRANCH  25  26
HETATM   26  O4  UNL     1      11.204  11.004 122.643  1.00  0.00    -0.396 OA
ATOM     27  H4  UNL     1      11.289  10.501 123.445  1.00  0.00     0.209 HD
ENDBRANCH  25  26
ENDBRANCH   3  25
BRANCH   5  28
HETATM   28  N2  UNL     1      12.999  11.783 119.244  1.00  0.00    -0.276 N 
HETATM   29  C7  UNL     1      13.120  12.044 117.939  1.00  0.00     0.190 A 
HETATM   30  N3  UNL     1      13.030  10.911 117.217  1.00  0.00    -0.346 N 
HETATM   31  C8  UNL     1      12.846   9.876 118.073  1.00  0.00     0.123 A 
ATOM     32  H3  UNL     1      13.091  10.842 116.201  1.00  0.00     0.167 HD
HETATM   33  C9  UNL     1      12.693   8.517 117.892  1.00  0.00     0.145 A 
HETATM   34  C11 UNL     1      12.828  10.443 119.339  1.00  0.00     0.158 A 
HETATM   35  N5  UNL     1      12.525   7.763 118.991  1.00  0.00    -0.175 N 
HETATM   36  C10 UNL     1      12.511   8.339 120.224  1.00  0.00     0.679 A 
ATOM     37  H5  UNL     1      12.408   6.753 118.900  1.00  0.00     0.186 HD
HETATM   38  N7  UNL     1      12.657   9.641 120.415  1.00  0.00    -0.174 N 
ATOM     39  H7  UNL     1      12.641  10.033 121.356  1.00  0.00     0.186 HD
BRANCH  33  40
HETATM   40  N4  UNL     1      12.709   7.988 116.710  1.00  0.00    -0.383 N 
ATOM     41  H42 UNL     1      13.076   8.499 115.907  1.00  0.00     0.157 HD
ATOM     42  H41 UNL     1      12.355   7.046 116.545  1.00  0.00     0.157 HD
ENDBRANCH  33  40
BRANCH  36  43
HETATM   43  N6  UNL     1      12.348   7.580 121.267  1.00  0.00    -0.234 N 
ATOM     44  H62 UNL     1      12.137   6.593 121.117  1.00  0.00     0.174 HD
ATOM     45  H61 UNL     1      12.435   7.996 122.195  1.00  0.00     0.174 HD
ENDBRANCH  36  43
ENDBRANCH   5  28
TORSDOF 12
ENDMDL
MODEL 5
REMARK VINA RESULT: -6.412527268      3.753      5.515
REMARK  12 active torsions:
REMARK  status: ('A' for Active; 'I' for Inactive)
REMARK    1  A    between atoms: N1_1  and  C1_4 
REMARK    2  A    between atoms: C1_4  and  O1_5 
REMARK    3  A    between atoms: C1_4  and  C12_36 
REMARK    4  A    between atoms: O1_5  and  C2_6 
REMARK    5  A    between atoms: C2_6  and  C3_7 
REMARK    6  A    between atoms: C3_7  and  O2_8 
REMARK    7  A    between atoms: C4_11  and  C5_12 
REMARK    8  A    between atoms: C5_12  and  O4_13 
REMARK    9  A    between atoms: C6_16  and  N2_17 
REMARK   10  A    between atoms: C9_22  and  N4_23 
REMARK   11  A    between atoms: C10_28  and  N6_29 
REMARK   12  A    between atoms: C13_40  and  N11_41 
ROOT
HETATM    1  C3  UNL     1      14.517  12.414 122.447  1.00  0.00     0.309 C 
HETATM    2  O3  UNL     1      13.671  13.398 122.887  1.00  0.00    -0.298 OA
HETATM    3  C4  UNL     1      12.436  13.448 122.303  1.00  0.00     0.294 C 
HETATM    4  O5  UNL     1      12.375  13.191 120.962  1.00  0.00    -0.311 OA
HETATM    5  C6  UNL     1      13.500  12.671 120.384  1.00  0.00     0.387 C 
HETATM    6  O6  UNL     1      14.112  11.804 121.286  1.00  0.00    -0.281 OA
ENDROOT
BRANCH   1   7
HETATM    7  C2  UNL     1      15.905  13.017 122.199  1.00  0.00     0.279 C 
BRANCH   7   8
HETATM    8  O1  UNL     1      16.585  13.204 123.420  1.00  0.00    -0.328 OA
BRANCH   8   9
HETATM    9  C1  UNL     1      17.683  12.423 123.708  1.00  0.00     0.159 C 
BRANCH   9  10
HETATM   10  N1  UNL     1      17.808  11.300 123.085  1.00  0.00    -0.380 N 
ATOM     11  H12 UNL     1      17.004  10.679 122.989  1.00  0.00     0.158 HD
ATOM     12  H11 UNL     1      18.723  11.065 122.700  1.00  0.00     0.158 HD
ENDBRANCH   9  10
BRANCH   9  13
HETATM   13  C12 UNL     1      18.710  12.837 124.706  1.00  0.00     0.309 C 
HETATM   14  N8  UNL     1      18.012  13.223 125.906  1.00  0.00    -0.089 NA
HETATM   15  N9  UNL     1      18.849  13.623 126.936  1.00  0.00    -0.033 NA
HETATM   16  N10 UNL     1      20.085  12.992 126.903  1.00  0.00    -0.070 NA
HETATM   17  C13 UNL     1      20.061  11.727 126.226  1.00  0.00     0.435 C 
HETATM   18  O7  UNL     1      19.620  11.812 124.912  1.00  0.00    -0.315 OA
BRANCH  17  19
HETATM   19  N11 UNL     1      19.216  10.768 126.913  1.00  0.00    -0.037 N 
ATOM     20 3H11 UNL     1      19.440  10.719 127.907  1.00  0.00     0.279 HD
ATOM     21 2H11 UNL     1      18.255  11.101 126.982  1.00  0.00     0.279 HD
ATOM     22 1H11 UNL     1      19.260   9.847 126.476  1.00  0.00     0.279 HD
ENDBRANCH  17  19
ENDBRANCH   9  13
ENDBRANCH   8   9
ENDBRANCH   7   8
ENDBRANCH   1   7
BRANCH   1  23
HETATM   23  O2  UNL     1      14.614  11.428 123.456  1.00  0.00    -0.341 OA
ATOM     24  H2  UNL     1      14.485  11.837 124.304  1.00  0.00     0.215 HD
ENDBRANCH   1  23
BRANCH   3  25
HETATM   25  C5  UNL     1      11.413  12.579 123.030  1.00  0.00     0.225 C 
BRANCH  25  26
HETATM   26  O4  UNL     1      11.454  11.263 122.647  1.00  0.00    -0.396 OA
ATOM     27  H4  UNL     1      11.948  10.715 123.245  1.00  0.00     0.209 HD
ENDBRANCH  25  26
ENDBRANCH   3  25
BRANCH   5  28
HETATM   28  N2  UNL     1      13.168  11.856 119.209  1.00  0.00    -0.276 N 
HETATM   29  C7  UNL     1      13.175  12.201 117.917  1.00  0.00     0.190 A 
HETATM   30  N3  UNL     1      12.805  11.162 117.145  1.00  0.00    -0.346 N 
HETATM   31  C8  UNL     1      12.548  10.104 117.954  1.00  0.00     0.123 A 
ATOM     32  H3  UNL     1      12.731  11.168 116.128  1.00  0.00     0.167 HD
HETATM   33  C9  UNL     1      12.140   8.809 117.712  1.00  0.00     0.145 A 
HETATM   34  C11 UNL     1      12.780  10.559 119.243  1.00  0.00     0.158 A 
HETATM   35  N5  UNL     1      11.976   8.004 118.775  1.00  0.00    -0.175 N 
HETATM   36  C10 UNL     1      12.211   8.471 120.033  1.00  0.00     0.679 A 
ATOM     37  H5  UNL     1      11.675   7.039 118.640  1.00  0.00     0.186 HD
HETATM   38  N7  UNL     1      12.602   9.711 120.281  1.00  0.00    -0.174 N 
ATOM     39  H7  UNL     1      12.768  10.021 121.239  1.00  0.00     0.186 HD
BRANCH  33  40
HETATM   40  N4  UNL     1      11.922   8.384 116.508  1.00  0.00    -0.383 N 
ATOM     41  H42 UNL     1      12.634   8.465 115.782  1.00  0.00     0.157 HD
ATOM     42  H41 UNL     1      11.034   7.955 116.248  1.00  0.00     0.157 HD
ENDBRANCH  33  40
BRANCH  36  43
HETATM   43  N6  UNL     1      12.044   7.665 121.040  1.00  0.00    -0.234 N 
ATOM     44  H62 UNL     1      12.413   6.717 120.965  1.00  0.00     0.174 HD
ATOM     45  H61 UNL     1      11.552   8.008 121.865  1.00  0.00     0.174 HD
ENDBRANCH  36  43
ENDBRANCH   5  28
TORSDOF 12
ENDMDL
