MODEL 1
REMARK VINA RESULT: -6.818779157      0.000      0.000
REMARK  8 active torsions:
REMARK  status: ('A' for Active; 'I' for Inactive)
REMARK    1  A    between atoms: C3_5  and  N2_6 
REMARK    2  A    between atoms: C4_11  and  N4_12 
REMARK       I    between atoms: N4_12  and  C5_14 
REMARK    3  A    between atoms: N6_16  and  N7_18 
REMARK    4  A    between atoms: N7_18  and  N8_20 
REMARK    5  A    between atoms: N9_23  and  C6_24 
REMARK    6  A    between atoms: C6_24  and  C7_25 
REMARK    7  A    between atoms: C7_25  and  C8_26 
REMARK    8  A    between atoms: C8_26  and  N10_28 
ROOT
HETATM    1  C1  UNL     1      28.681  75.753  31.774  1.00  0.00     0.090 C 
HETATM    2  C2  UNL     1      29.775  76.364  32.597  1.00  0.00     0.112 A 
HETATM    3  N1  UNL     1      29.548  77.447  33.363  1.00  0.00    -0.180 N 
ATOM      4  H1  UNL     1      28.612  77.852  33.376  1.00  0.00     0.185 HD
HETATM    5  C3  UNL     1      30.511  78.014  34.110  1.00  0.00     0.691 A 
HETATM    6  N3  UNL     1      31.759  77.514  34.121  1.00  0.00    -0.022 N 
ATOM      7  H3  UNL     1      32.498  77.936  34.683  1.00  0.00     0.203 HD
HETATM    8  C4  UNL     1      31.987  76.431  33.356  1.00  0.00     0.702 A 
HETATM    9  N9  UNL     1      31.020  75.860  32.604  1.00  0.00    -0.171 N 
ENDROOT
BRANCH   8  10
HETATM   10  N4  UNL     1      33.193  75.923  33.347  1.00  0.00    -0.161 N 
HETATM   11  C5  UNL     1      33.755  75.362  34.508  1.00  0.00     0.222 C 
HETATM   12  N5  UNL     1      34.550  76.095  35.429  1.00  0.00    -0.061 NA
HETATM   13  N6  UNL     1      33.541  74.110  34.759  1.00  0.00    -0.259 N 
ATOM     14  H6  UNL     1      32.971  73.585  34.095  1.00  0.00     0.191 HD
ATOM     15  H4  UNL     1      33.735  75.934  32.482  1.00  0.00     0.187 HD
BRANCH  13  16
HETATM   16  N7  UNL     1      34.030  73.434  35.857  1.00  0.00    -0.247 N 
ATOM     17  H7  UNL     1      34.728  72.703  35.726  1.00  0.00     0.207 HD
BRANCH  16  18
HETATM   18  N8  UNL     1      33.586  73.733  37.138  1.00  0.00    -0.331 N 
ATOM     19  H82 UNL     1      32.652  74.127  37.249  1.00  0.00     0.178 HD
ATOM     20  H81 UNL     1      34.176  73.564  37.953  1.00  0.00     0.178 HD
ENDBRANCH  16  18
ENDBRANCH  13  16
ENDBRANCH   8  10
BRANCH   9  21
HETATM   21  C6  UNL     1      31.317  74.700  31.802  1.00  0.00     0.151 C 
BRANCH  21  22
HETATM   22  C7  UNL     1      31.910  75.053  30.456  1.00  0.00     0.053 C 
BRANCH  22  23
HETATM   23  C8  UNL     1      31.183  74.178  29.429  1.00  0.00     0.181 C 
HETATM   24  C9  UNL     1      30.340  75.071  28.538  1.00  0.00     0.039 C 
BRANCH  23  25
HETATM   25  N10 UNL     1      30.347  73.200  30.066  1.00  0.00    -0.075 N 
ATOM     26 3H10 UNL     1      30.055  73.506  30.993  1.00  0.00     0.274 HD
ATOM     27 2H10 UNL     1      29.430  73.146  29.620  1.00  0.00     0.274 HD
ATOM     28 1H10 UNL     1      30.798  72.286  30.101  1.00  0.00     0.274 HD
ENDBRANCH  23  25
ENDBRANCH  22  23
ENDBRANCH  21  22
ENDBRANCH   9  21
BRANCH   5  29
HETATM   29  N2  UNL     1      30.247  79.061  34.835  1.00  0.00    -0.234 N 
ATOM     30  H22 UNL     1      29.285  79.397  34.884  1.00  0.00     0.174 HD
ATOM     31  H21 UNL     1      30.992  79.534  35.346  1.00  0.00     0.174 HD
ENDBRANCH   5  29
TORSDOF 8
ENDMDL
MODEL 2
REMARK VINA RESULT: -6.511152162      1.641      4.456
REMARK  8 active torsions:
REMARK  status: ('A' for Active; 'I' for Inactive)
REMARK    1  A    between atoms: C3_5  and  N2_6 
REMARK    2  A    between atoms: C4_11  and  N4_12 
REMARK       I    between atoms: N4_12  and  C5_14 
REMARK    3  A    between atoms: N6_16  and  N7_18 
REMARK    4  A    between atoms: N7_18  and  N8_20 
REMARK    5  A    between atoms: N9_23  and  C6_24 
REMARK    6  A    between atoms: C6_24  and  C7_25 
REMARK    7  A    between atoms: C7_25  and  C8_26 
REMARK    8  A    between atoms: C8_26  and  N10_28 
ROOT
HETATM    1  C1  UNL     1      33.094  73.037  34.220  1.00  0.00     0.090 C 
HETATM    2  C2  UNL     1      33.093  74.529  34.079  1.00  0.00     0.112 A 
HETATM    3  N1  UNL     1      34.082  75.278  34.598  1.00  0.00    -0.180 N 
ATOM      4  H1  UNL     1      34.842  74.814  35.096  1.00  0.00     0.185 HD
HETATM    5  C3  UNL     1      34.105  76.618  34.485  1.00  0.00     0.691 A 
HETATM    6  N3  UNL     1      33.124  77.272  33.839  1.00  0.00    -0.022 N 
ATOM      7  H3  UNL     1      33.129  78.287  33.748  1.00  0.00     0.203 HD
HETATM    8  C4  UNL     1      32.134  76.523  33.319  1.00  0.00     0.702 A 
HETATM    9  N9  UNL     1      32.110  75.177  33.432  1.00  0.00    -0.171 N 
ENDROOT
BRANCH   8  10
HETATM   10  N4  UNL     1      31.165  77.133  32.685  1.00  0.00    -0.161 N 
HETATM   11  C5  UNL     1      29.969  77.475  33.341  1.00  0.00     0.222 C 
HETATM   12  N5  UNL     1      28.822  76.637  33.373  1.00  0.00    -0.061 NA
HETATM   13  N6  UNL     1      29.899  78.615  33.951  1.00  0.00    -0.259 N 
ATOM     14  H6  UNL     1      30.723  79.217  33.926  1.00  0.00     0.191 HD
ATOM     15  H4  UNL     1      31.280  77.365  31.698  1.00  0.00     0.187 HD
BRANCH  13  16
HETATM   16  N7  UNL     1      28.791  79.076  34.632  1.00  0.00    -0.247 N 
ATOM     17  H7  UNL     1      28.836  79.187  35.644  1.00  0.00     0.207 HD
BRANCH  16  18
HETATM   18  N8  UNL     1      27.617  79.390  33.962  1.00  0.00    -0.331 N 
ATOM     19  H82 UNL     1      27.637  79.437  32.943  1.00  0.00     0.178 HD
ATOM     20  H81 UNL     1      26.752  79.569  34.470  1.00  0.00     0.178 HD
ENDBRANCH  16  18
ENDBRANCH  13  16
ENDBRANCH   8  10
BRANCH   9  21
HETATM   21  C6  UNL     1      31.026  74.421  32.856  1.00  0.00     0.151 C 
BRANCH  21  22
HETATM   22  C7  UNL     1      31.131  74.298  31.352  1.00  0.00     0.053 C 
BRANCH  22  23
HETATM   23  C8  UNL     1      29.700  74.102  30.841  1.00  0.00     0.181 C 
HETATM   24  C9  UNL     1      29.731  73.156  29.655  1.00  0.00     0.039 C 
BRANCH  23  25
HETATM   25  N10 UNL     1      29.102  75.348  30.452  1.00  0.00    -0.075 N 
ATOM     26 3H10 UNL     1      29.399  75.628  29.517  1.00  0.00     0.274 HD
ATOM     27 2H10 UNL     1      28.102  75.243  30.276  1.00  0.00     0.274 HD
ATOM     28 1H10 UNL     1      29.285  76.082  31.136  1.00  0.00     0.274 HD
ENDBRANCH  23  25
ENDBRANCH  22  23
ENDBRANCH  21  22
ENDBRANCH   9  21
BRANCH   5  29
HETATM   29  N2  UNL     1      35.081  77.303  35.005  1.00  0.00    -0.234 N 
ATOM     30  H22 UNL     1      35.280  77.202  36.000  1.00  0.00     0.174 HD
ATOM     31  H21 UNL     1      35.637  77.929  34.422  1.00  0.00     0.174 HD
ENDBRANCH   5  29
TORSDOF 8
ENDMDL
MODEL 3
REMARK VINA RESULT: -6.375299831      1.945      5.495
REMARK  8 active torsions:
REMARK  status: ('A' for Active; 'I' for Inactive)
REMARK    1  A    between atoms: C3_5  and  N2_6 
REMARK    2  A    between atoms: C4_11  and  N4_12 
REMARK       I    between atoms: N4_12  and  C5_14 
REMARK    3  A    between atoms: N6_16  and  N7_18 
REMARK    4  A    between atoms: N7_18  and  N8_20 
REMARK    5  A    between atoms: N9_23  and  C6_24 
REMARK    6  A    between atoms: C6_24  and  C7_25 
REMARK    7  A    between atoms: C7_25  and  C8_26 
REMARK    8  A    between atoms: C8_26  and  N10_28 
ROOT
HETATM    1  C1  UNL     1      33.602  77.419  33.881  1.00  0.00     0.090 C 
HETATM    2  C2  UNL     1      33.011  76.043  33.811  1.00  0.00     0.112 A 
HETATM    3  N1  UNL     1      33.699  74.968  34.234  1.00  0.00    -0.180 N 
ATOM      4  H1  UNL     1      34.639  75.100  34.607  1.00  0.00     0.185 HD
HETATM    5  C3  UNL     1      33.191  73.723  34.181  1.00  0.00     0.691 A 
HETATM    6  N3  UNL     1      31.958  73.502  33.695  1.00  0.00    -0.022 N 
ATOM      7  H3  UNL     1      31.562  72.563  33.649  1.00  0.00     0.203 HD
HETATM    8  C4  UNL     1      31.269  74.578  33.272  1.00  0.00     0.702 A 
HETATM    9  N9  UNL     1      31.777  75.829  33.324  1.00  0.00    -0.171 N 
ENDROOT
BRANCH   8  10
HETATM   10  N4  UNL     1      30.065  74.392  32.794  1.00  0.00    -0.161 N 
HETATM   11  C5  UNL     1      29.853  74.182  31.419  1.00  0.00     0.222 C 
HETATM   12  N5  UNL     1      29.578  75.227  30.497  1.00  0.00    -0.061 NA
HETATM   13  N6  UNL     1      29.910  72.972  30.960  1.00  0.00    -0.259 N 
ATOM     14  H6  UNL     1      30.107  72.223  31.624  1.00  0.00     0.191 HD
ATOM     15  H4  UNL     1      29.266  74.400  33.428  1.00  0.00     0.187 HD
BRANCH  13  16
HETATM   16  N7  UNL     1      29.723  72.624  29.638  1.00  0.00    -0.247 N 
ATOM     17  H7  UNL     1      30.533  72.415  29.056  1.00  0.00     0.207 HD
BRANCH  16  18
HETATM   18  N8  UNL     1      28.450  72.553  29.089  1.00  0.00    -0.331 N 
ATOM     19  H82 UNL     1      28.173  73.264  28.412  1.00  0.00     0.178 HD
ATOM     20  H81 UNL     1      27.804  71.809  29.351  1.00  0.00     0.178 HD
ENDBRANCH  16  18
ENDBRANCH  13  16
ENDBRANCH   8  10
BRANCH   9  21
HETATM   21  C6  UNL     1      30.997  76.947  32.858  1.00  0.00     0.151 C 
BRANCH  21  22
HETATM   22  C7  UNL     1      30.027  77.461  33.899  1.00  0.00     0.053 C 
BRANCH  22  23
HETATM   23  C8  UNL     1      28.770  77.887  33.134  1.00  0.00     0.181 C 
HETATM   24  C9  UNL     1      28.096  79.015  33.893  1.00  0.00     0.039 C 
BRANCH  23  25
HETATM   25  N10 UNL     1      27.853  76.795  32.974  1.00  0.00    -0.075 N 
ATOM     26 3H10 UNL     1      27.240  76.937  32.171  1.00  0.00     0.274 HD
ATOM     27 2H10 UNL     1      28.331  75.949  32.660  1.00  0.00     0.274 HD
ATOM     28 1H10 UNL     1      27.317  76.627  33.825  1.00  0.00     0.274 HD
ENDBRANCH  23  25
ENDBRANCH  22  23
ENDBRANCH  21  22
ENDBRANCH   9  21
BRANCH   5  29
HETATM   29  N2  UNL     1      33.893  72.711  34.601  1.00  0.00    -0.234 N 
ATOM     30  H22 UNL     1      33.765  72.386  35.559  1.00  0.00     0.174 HD
ATOM     31  H21 UNL     1      34.557  72.252  33.977  1.00  0.00     0.174 HD
ENDBRANCH   5  29
TORSDOF 8
ENDMDL
MODEL 4
REMARK VINA RESULT: -6.355422104      2.514      4.714
REMARK  8 active torsions:
REMARK  status: ('A' for Active; 'I' for Inactive)
REMARK    1  A    between atoms: C3_5  and  N2_6 
REMARK    2  A    between atoms: C4_11  and  N4_12 
REMARK       I    between atoms: N4_12  and  C5_14 
REMARK    3  A    between atoms: N6_16  and  N7_18 
REMARK    4  A    between atoms: N7_18  and  N8_20 
REMARK    5  A    between atoms: N9_23  and  C6_24 
REMARK    6  A    between atoms: C6_24  and  C7_25 
REMARK    7  A    between atoms: C7_25  and  C8_26 
REMARK    8  A    between atoms: C8_26  and  N10_28 
ROOT
HETATM    1  C1  UNL     1      29.010  75.356  27.470  1.00  0.00     0.090 C 
HETATM    2  C2  UNL     1      30.297  75.170  28.216  1.00  0.00     0.112 A 
HETATM    3  N1  UNL     1      31.485  75.289  27.597  1.00  0.00    -0.180 N 
ATOM      4  H1  UNL     1      31.500  75.509  26.600  1.00  0.00     0.185 HD
HETATM    5  C3  UNL     1      32.653  75.127  28.243  1.00  0.00     0.691 A 
HETATM    6  N3  UNL     1      32.679  74.835  29.555  1.00  0.00    -0.022 N 
ATOM      7  H3  UNL     1      33.558  74.708  30.056  1.00  0.00     0.203 HD
HETATM    8  C4  UNL     1      31.491  74.716  30.175  1.00  0.00     0.702 A 
HETATM    9  N9  UNL     1      30.317  74.878  29.527  1.00  0.00    -0.171 N 
ENDROOT
BRANCH   8  10
HETATM   10  N4  UNL     1      31.487  74.431  31.453  1.00  0.00    -0.161 N 
HETATM   11  C5  UNL     1      32.345  75.094  32.349  1.00  0.00     0.222 C 
HETATM   12  N5  UNL     1      33.636  74.617  32.700  1.00  0.00    -0.061 NA
HETATM   13  N6  UNL     1      31.944  76.201  32.889  1.00  0.00    -0.259 N 
ATOM     14  H6  UNL     1      31.015  76.542  32.636  1.00  0.00     0.191 HD
ATOM     15  H4  UNL     1      30.850  73.716  31.805  1.00  0.00     0.187 HD
BRANCH  13  16
HETATM   16  N7  UNL     1      32.680  76.952  33.781  1.00  0.00    -0.247 N 
ATOM     17  H7  UNL     1      32.281  77.182  34.691  1.00  0.00     0.207 HD
BRANCH  16  18
HETATM   18  N8  UNL     1      33.954  77.400  33.460  1.00  0.00    -0.331 N 
ATOM     19  H82 UNL     1      34.557  76.793  32.905  1.00  0.00     0.178 HD
ATOM     20  H81 UNL     1      34.285  78.314  33.770  1.00  0.00     0.178 HD
ENDBRANCH  16  18
ENDBRANCH  13  16
ENDBRANCH   8  10
BRANCH   9  21
HETATM   21  C6  UNL     1      29.071  74.741  30.239  1.00  0.00     0.151 C 
BRANCH  21  22
HETATM   22  C7  UNL     1      28.440  73.378  30.060  1.00  0.00     0.053 C 
BRANCH  22  23
HETATM   23  C8  UNL     1      27.112  73.618  29.335  1.00  0.00     0.181 C 
HETATM   24  C9  UNL     1      25.991  73.624  30.359  1.00  0.00     0.039 C 
BRANCH  23  25
HETATM   25  N10 UNL     1      26.860  72.607  28.347  1.00  0.00    -0.075 N 
ATOM     26 3H10 UNL     1      26.658  73.019  27.436  1.00  0.00     0.274 HD
ATOM     27 2H10 UNL     1      27.712  72.100  28.106  1.00  0.00     0.274 HD
ATOM     28 1H10 UNL     1      26.118  71.971  28.640  1.00  0.00     0.274 HD
ENDBRANCH  23  25
ENDBRANCH  22  23
ENDBRANCH  21  22
ENDBRANCH   9  21
BRANCH   5  29
HETATM   29  N2  UNL     1      33.779  75.250  27.603  1.00  0.00    -0.234 N 
ATOM     30  H22 UNL     1      34.126  74.460  27.060  1.00  0.00     0.174 HD
ATOM     31  H21 UNL     1      34.301  76.125  27.646  1.00  0.00     0.174 HD
ENDBRANCH   5  29
TORSDOF 8
ENDMDL
MODEL 5
REMARK VINA RESULT: -6.327006264      1.718      5.496
REMARK  8 active torsions:
REMARK  status: ('A' for Active; 'I' for Inactive)
REMARK    1  A    between atoms: C3_5  and  N2_6 
REMARK    2  A    between atoms: C4_11  and  N4_12 
REMARK       I    between atoms: N4_12  and  C5_14 
REMARK    3  A    between atoms: N6_16  and  N7_18 
REMARK    4  A    between atoms: N7_18  and  N8_20 
REMARK    5  A    between atoms: N9_23  and  C6_24 
REMARK    6  A    between atoms: C6_24  and  C7_25 
REMARK    7  A    between atoms: C7_25  and  C8_26 
REMARK    8  A    between atoms: C8_26  and  N10_28 
ROOT
HETATM    1  C1  UNL     1      32.580  74.812  29.044  1.00  0.00     0.090 C 
HETATM    2  C2  UNL     1      31.219  74.834  29.672  1.00  0.00     0.112 A 
HETATM    3  N1  UNL     1      30.125  74.476  28.976  1.00  0.00    -0.180 N 
ATOM      4  H1  UNL     1      30.233  74.186  28.004  1.00  0.00     0.185 HD
HETATM    5  C3  UNL     1      28.893  74.488  29.516  1.00  0.00     0.691 A 
HETATM    6  N3  UNL     1      28.704  74.865  30.792  1.00  0.00    -0.022 N 
ATOM      7  H3  UNL     1      27.775  74.880  31.212  1.00  0.00     0.203 HD
HETATM    8  C4  UNL     1      29.797  75.224  31.489  1.00  0.00     0.702 A 
HETATM    9  N9  UNL     1      31.035  75.212  30.948  1.00  0.00    -0.171 N 
ENDROOT
BRANCH   8  10
HETATM   10  N4  UNL     1      29.643  75.596  32.733  1.00  0.00    -0.161 N 
HETATM   11  C5  UNL     1      29.099  76.854  33.055  1.00  0.00     0.222 C 
HETATM   12  N5  UNL     1      29.884  78.018  33.269  1.00  0.00    -0.061 NA
HETATM   13  N6  UNL     1      27.813  76.965  33.164  1.00  0.00    -0.259 N 
ATOM     14  H6  UNL     1      27.251  76.127  33.011  1.00  0.00     0.191 HD
ATOM     15  H4  UNL     1      29.921  74.964  33.485  1.00  0.00     0.187 HD
BRANCH  13  16
HETATM   16  N7  UNL     1      27.149  78.133  33.472  1.00  0.00    -0.247 N 
ATOM     17  H7  UNL     1      26.424  78.478  32.844  1.00  0.00     0.207 HD
BRANCH  16  18
HETATM   18  N8  UNL     1      27.452  78.848  34.623  1.00  0.00    -0.331 N 
ATOM     19  H82 UNL     1      28.306  79.405  34.638  1.00  0.00     0.178 HD
ATOM     20  H81 UNL     1      26.839  78.820  35.437  1.00  0.00     0.178 HD
ENDBRANCH  16  18
ENDBRANCH  13  16
ENDBRANCH   8  10
BRANCH   9  21
HETATM   21  C6  UNL     1      32.175  75.605  31.738  1.00  0.00     0.151 C 
BRANCH  21  22
HETATM   22  C7  UNL     1      32.696  74.487  32.613  1.00  0.00     0.053 C 
BRANCH  22  23
HETATM   23  C8  UNL     1      32.986  75.116  33.979  1.00  0.00     0.181 C 
HETATM   24  C9  UNL     1      33.846  76.349  33.776  1.00  0.00     0.039 C 
BRANCH  23  25
HETATM   25  N10 UNL     1      33.657  74.195  34.853  1.00  0.00    -0.075 N 
ATOM     26 3H10 UNL     1      34.058  74.673  35.660  1.00  0.00     0.274 HD
ATOM     27 2H10 UNL     1      32.993  73.592  35.340  1.00  0.00     0.274 HD
ATOM     28 1H10 UNL     1      34.361  73.650  34.356  1.00  0.00     0.274 HD
ENDBRANCH  23  25
ENDBRANCH  22  23
ENDBRANCH  21  22
ENDBRANCH   9  21
BRANCH   5  29
HETATM   29  N2  UNL     1      27.862  74.134  28.805  1.00  0.00    -0.234 N 
ATOM     30  H22 UNL     1      27.603  74.700  27.997  1.00  0.00     0.174 HD
ATOM     31  H21 UNL     1      27.327  73.303  29.054  1.00  0.00     0.174 HD
ENDBRANCH   5  29
TORSDOF 8
ENDMDL
