MODEL 1
REMARK VINA RESULT: -9.056092592      0.000      0.000
REMARK  4 active torsions:
REMARK  status: ('A' for Active; 'I' for Inactive)
REMARK       I    between atoms: C1_4  and  N3_6 
REMARK    1  A    between atoms: N3_6  and  N4_8 
REMARK       I    between atoms: N4_8  and  C2_10 
REMARK    2  A    between atoms: C2_10  and  C3_12 
REMARK    3  A    between atoms: C3_12  and  C4_13 
REMARK    4  A    between atoms: C3_12  and  N5_16 
ROOT
HETATM    1  C3  UNL     1      31.345  74.985  32.736  1.00  0.00     0.303 C 
ENDROOT
BRANCH   1   2
HETATM    2  C2  UNL     1      32.719  75.539  32.759  1.00  0.00     0.271 C 
HETATM    3  N4  UNL     1      32.927  76.720  33.544  1.00  0.00    -0.265 N 
ATOM      4  H4  UNL     1      32.130  77.118  34.042  1.00  0.00     0.190 HD
HETATM    5  O1  UNL     1      33.623  74.982  32.119  1.00  0.00    -0.269 OA
BRANCH   3   6
HETATM    6  N3  UNL     1      34.166  77.352  33.661  1.00  0.00    -0.271 N 
HETATM    7  C1  UNL     1      35.034  77.103  34.752  1.00  0.00     0.200 C 
HETATM    8  N1  UNL     1      36.101  77.795  34.928  1.00  0.00    -0.372 N 
HETATM    9  N2  UNL     1      34.755  76.073  35.713  1.00  0.00    -0.062 NA
ATOM     10  H12 UNL     1      36.726  77.616  35.714  1.00  0.00     0.158 HD
ATOM     11  H11 UNL     1      36.299  78.527  34.246  1.00  0.00     0.158 HD
ATOM     12  H3  UNL     1      34.455  78.012  32.939  1.00  0.00     0.189 HD
ENDBRANCH   3   6
ENDBRANCH   1   2
BRANCH   1  13
HETATM   13  C4  UNL     1      30.448  75.789  33.641  1.00  0.00     0.208 C 
HETATM   14  O2  UNL     1      29.884  76.843  33.274  1.00  0.00    -0.646 OA
HETATM   15  O3  UNL     1      30.230  75.361  34.938  1.00  0.00    -0.646 OA
ENDBRANCH   1  13
BRANCH   1  16
HETATM   16  N5  UNL     1      30.741  75.055  31.418  1.00  0.00    -0.247 N 
HETATM   17  N6  UNL     1      29.442  75.158  31.081  1.00  0.00    -0.277 N 
HETATM   18  C5  UNL     1      29.806  75.175  29.787  1.00  0.00     0.166 A 
ATOM     19  H6  UNL     1      28.560  75.204  31.590  1.00  0.00     0.189 HD
HETATM   20  N7  UNL     1      29.470  75.241  28.490  1.00  0.00    -0.347 N 
HETATM   21  C8  UNL     1      31.140  75.067  30.133  1.00  0.00     0.170 A 
HETATM   22  C6  UNL     1      30.407  75.206  27.507  1.00  0.00     0.107 A 
ATOM     23  H7  UNL     1      28.485  75.319  28.236  1.00  0.00     0.167 HD
HETATM   24  C7  UNL     1      31.721  75.100  27.894  1.00  0.00     0.107 A 
HETATM   25  N8  UNL     1      32.074  75.030  29.202  1.00  0.00    -0.347 N 
ATOM     26  H8  UNL     1      33.057  74.950  29.464  1.00  0.00     0.167 HD
ENDBRANCH   1  16
TORSDOF 4
ENDMDL
MODEL 2
REMARK VINA RESULT: -8.843186101      1.170      1.571
REMARK  4 active torsions:
REMARK  status: ('A' for Active; 'I' for Inactive)
REMARK       I    between atoms: C1_4  and  N3_6 
REMARK    1  A    between atoms: N3_6  and  N4_8 
REMARK       I    between atoms: N4_8  and  C2_10 
REMARK    2  A    between atoms: C2_10  and  C3_12 
REMARK    3  A    between atoms: C3_12  and  C4_13 
REMARK    4  A    between atoms: C3_12  and  N5_16 
ROOT
HETATM    1  C3  UNL     1      31.571  74.829  32.779  1.00  0.00     0.303 C 
ENDROOT
BRANCH   1   2
HETATM    2  C2  UNL     1      32.910  75.461  32.809  1.00  0.00     0.271 C 
HETATM    3  N4  UNL     1      33.042  76.661  33.581  1.00  0.00    -0.265 N 
ATOM      4  H4  UNL     1      32.218  77.019  34.065  1.00  0.00     0.190 HD
HETATM    5  O1  UNL     1      33.852  74.949  32.185  1.00  0.00    -0.269 OA
BRANCH   3   6
HETATM    6  N3  UNL     1      34.242  77.365  33.702  1.00  0.00    -0.271 N 
HETATM    7  C1  UNL     1      35.115  77.172  34.800  1.00  0.00     0.200 C 
HETATM    8  N1  UNL     1      36.139  77.925  34.979  1.00  0.00    -0.372 N 
HETATM    9  N2  UNL     1      34.890  76.131  35.764  1.00  0.00    -0.062 NA
ATOM     10  H12 UNL     1      36.768  77.787  35.770  1.00  0.00     0.158 HD
ATOM     11  H11 UNL     1      36.299  78.664  34.295  1.00  0.00     0.158 HD
ATOM     12  H3  UNL     1      34.496  78.037  32.979  1.00  0.00     0.189 HD
ENDBRANCH   3   6
ENDBRANCH   1   2
BRANCH   1  13
HETATM   13  C4  UNL     1      30.580  75.680  33.529  1.00  0.00     0.208 C 
HETATM   14  O2  UNL     1      29.860  76.534  32.969  1.00  0.00    -0.646 OA
HETATM   15  O3  UNL     1      30.451  75.528  34.898  1.00  0.00    -0.646 OA
ENDBRANCH   1  13
BRANCH   1  16
HETATM   16  N5  UNL     1      31.046  74.707  31.432  1.00  0.00    -0.247 N 
HETATM   17  N6  UNL     1      31.304  75.460  30.346  1.00  0.00    -0.277 N 
HETATM   18  C5  UNL     1      30.476  74.674  29.636  1.00  0.00     0.166 A 
ATOM     19  H6  UNL     1      31.881  76.277  30.147  1.00  0.00     0.189 HD
HETATM   20  N7  UNL     1      29.885  74.368  28.471  1.00  0.00    -0.347 N 
HETATM   21  C8  UNL     1      30.210  73.901  30.751  1.00  0.00     0.170 A 
HETATM   22  C6  UNL     1      29.031  73.317  28.359  1.00  0.00     0.107 A 
ATOM     23  H7  UNL     1      30.081  74.939  27.650  1.00  0.00     0.167 HD
HETATM   24  C7  UNL     1      28.795  72.575  29.491  1.00  0.00     0.107 A 
HETATM   25  N8  UNL     1      29.385  72.874  30.675  1.00  0.00    -0.347 N 
ATOM     26  H8  UNL     1      29.192  72.309  31.502  1.00  0.00     0.167 HD
ENDBRANCH   1  16
TORSDOF 4
ENDMDL
MODEL 3
REMARK VINA RESULT: -8.404028832      2.845      3.871
REMARK  4 active torsions:
REMARK  status: ('A' for Active; 'I' for Inactive)
REMARK       I    between atoms: C1_4  and  N3_6 
REMARK    1  A    between atoms: N3_6  and  N4_8 
REMARK       I    between atoms: N4_8  and  C2_10 
REMARK    2  A    between atoms: C2_10  and  C3_12 
REMARK    3  A    between atoms: C3_12  and  C4_13 
REMARK    4  A    between atoms: C3_12  and  N5_16 
ROOT
HETATM    1  C3  UNL     1      32.895  74.961  34.152  1.00  0.00     0.303 C 
ENDROOT
BRANCH   1   2
HETATM    2  C2  UNL     1      33.554  73.706  34.585  1.00  0.00     0.271 C 
HETATM    3  N4  UNL     1      33.477  73.383  35.979  1.00  0.00    -0.265 N 
ATOM      4  H4  UNL     1      32.980  74.024  36.598  1.00  0.00     0.190 HD
HETATM    5  O1  UNL     1      34.134  72.991  33.754  1.00  0.00    -0.269 OA
BRANCH   3   6
HETATM    6  N3  UNL     1      34.048  72.235  36.531  1.00  0.00    -0.271 N 
HETATM    7  C1  UNL     1      34.872  72.288  37.682  1.00  0.00     0.200 C 
HETATM    8  N1  UNL     1      35.510  71.253  38.094  1.00  0.00    -0.372 N 
HETATM    9  N2  UNL     1      35.037  73.501  38.432  1.00  0.00    -0.062 NA
ATOM     10  H12 UNL     1      36.104  71.291  38.923  1.00  0.00     0.158 HD
ATOM     11  H11 UNL     1      35.394  70.391  37.561  1.00  0.00     0.158 HD
ATOM     12  H3  UNL     1      33.866  71.332  36.093  1.00  0.00     0.189 HD
ENDBRANCH   3   6
ENDBRANCH   1   2
BRANCH   1  13
HETATM   13  C4  UNL     1      33.857  76.114  34.266  1.00  0.00     0.208 C 
HETATM   14  O2  UNL     1      33.964  76.996  33.387  1.00  0.00    -0.646 OA
HETATM   15  O3  UNL     1      34.667  76.217  35.382  1.00  0.00    -0.646 OA
ENDBRANCH   1  13
BRANCH   1  16
HETATM   16  N5  UNL     1      32.489  74.921  32.759  1.00  0.00    -0.247 N 
HETATM   17  N6  UNL     1      33.250  74.815  31.654  1.00  0.00    -0.277 N 
HETATM   18  C5  UNL     1      32.129  74.837  30.912  1.00  0.00     0.166 A 
ATOM     19  H6  UNL     1      34.249  74.748  31.461  1.00  0.00     0.189 HD
HETATM   20  N7  UNL     1      31.535  74.802  29.710  1.00  0.00    -0.347 N 
HETATM   21  C8  UNL     1      31.348  74.946  32.047  1.00  0.00     0.170 A 
HETATM   22  C6  UNL     1      30.184  74.871  29.579  1.00  0.00     0.107 A 
ATOM     23  H7  UNL     1      32.112  74.722  28.873  1.00  0.00     0.167 HD
HETATM   24  C7  UNL     1      29.445  74.979  30.732  1.00  0.00     0.107 A 
HETATM   25  N8  UNL     1      30.033  75.016  31.954  1.00  0.00    -0.347 N 
ATOM     26  H8  UNL     1      29.463  75.098  32.796  1.00  0.00     0.167 HD
ENDBRANCH   1  16
TORSDOF 4
ENDMDL
MODEL 4
REMARK VINA RESULT: -8.392694085      3.187      4.648
REMARK  4 active torsions:
REMARK  status: ('A' for Active; 'I' for Inactive)
REMARK       I    between atoms: C1_4  and  N3_6 
REMARK    1  A    between atoms: N3_6  and  N4_8 
REMARK       I    between atoms: N4_8  and  C2_10 
REMARK    2  A    between atoms: C2_10  and  C3_12 
REMARK    3  A    between atoms: C3_12  and  C4_13 
REMARK    4  A    between atoms: C3_12  and  N5_16 
ROOT
HETATM    1  C3  UNL     1      32.306  75.474  33.647  1.00  0.00     0.303 C 
ENDROOT
BRANCH   1   2
HETATM    2  C2  UNL     1      32.347  74.168  34.345  1.00  0.00     0.271 C 
HETATM    3  N4  UNL     1      33.614  73.758  34.875  1.00  0.00    -0.265 N 
ATOM      4  H4  UNL     1      34.416  74.375  34.747  1.00  0.00     0.190 HD
HETATM    5  O1  UNL     1      31.316  73.488  34.449  1.00  0.00    -0.269 OA
BRANCH   3   6
HETATM    6  N3  UNL     1      33.804  72.554  35.557  1.00  0.00    -0.271 N 
HETATM    7  C1  UNL     1      34.388  72.509  36.847  1.00  0.00     0.200 C 
HETATM    8  N1  UNL     1      34.693  71.393  37.403  1.00  0.00    -0.372 N 
HETATM    9  N2  UNL     1      34.672  73.708  37.585  1.00  0.00    -0.062 NA
ATOM     10  H12 UNL     1      35.114  71.360  38.331  1.00  0.00     0.158 HD
ATOM     11  H11 UNL     1      34.492  70.542  36.879  1.00  0.00     0.158 HD
ATOM     12  H3  UNL     1      33.513  71.683  35.115  1.00  0.00     0.189 HD
ENDBRANCH   3   6
ENDBRANCH   1   2
BRANCH   1  13
HETATM   13  C4  UNL     1      32.891  75.340  32.265  1.00  0.00     0.208 C 
HETATM   14  O2  UNL     1      34.089  75.047  32.062  1.00  0.00    -0.646 OA
HETATM   15  O3  UNL     1      32.085  75.552  31.161  1.00  0.00    -0.646 OA
ENDBRANCH   1  13
BRANCH   1  16
HETATM   16  N5  UNL     1      30.951  75.958  33.456  1.00  0.00    -0.247 N 
HETATM   17  N6  UNL     1      29.897  75.338  32.894  1.00  0.00    -0.277 N 
HETATM   18  C5  UNL     1      29.152  76.426  33.153  1.00  0.00     0.166 A 
ATOM     19  H6  UNL     1      29.734  74.431  32.458  1.00  0.00     0.189 HD
HETATM   20  N7  UNL     1      27.972  77.062  33.095  1.00  0.00    -0.347 N 
HETATM   21  C8  UNL     1      30.234  77.064  33.729  1.00  0.00     0.170 A 
HETATM   22  C6  UNL     1      27.813  78.318  33.590  1.00  0.00     0.107 A 
ATOM     23  H7  UNL     1      27.174  76.592  32.669  1.00  0.00     0.167 HD
HETATM   24  C7  UNL     1      28.914  78.915  34.155  1.00  0.00     0.107 A 
HETATM   25  N8  UNL     1      30.113  78.283  34.218  1.00  0.00    -0.347 N 
ATOM     26  H8  UNL     1      30.916  78.748  34.641  1.00  0.00     0.167 HD
ENDBRANCH   1  16
TORSDOF 4
ENDMDL
MODEL 5
REMARK VINA RESULT: -8.355020459      2.819      6.420
REMARK  4 active torsions:
REMARK  status: ('A' for Active; 'I' for Inactive)
REMARK       I    between atoms: C1_4  and  N3_6 
REMARK    1  A    between atoms: N3_6  and  N4_8 
REMARK       I    between atoms: N4_8  and  C2_10 
REMARK    2  A    between atoms: C2_10  and  C3_12 
REMARK    3  A    between atoms: C3_12  and  C4_13 
REMARK    4  A    between atoms: C3_12  and  N5_16 
ROOT
HETATM    1  C3  UNL     1      32.518  75.273  33.930  1.00  0.00     0.303 C 
ENDROOT
BRANCH   1   2
HETATM    2  C2  UNL     1      32.753  75.109  32.476  1.00  0.00     0.271 C 
HETATM    3  N4  UNL     1      31.598  75.130  31.628  1.00  0.00    -0.265 N 
ATOM      4  H4  UNL     1      30.682  75.254  32.059  1.00  0.00     0.190 HD
HETATM    5  O1  UNL     1      33.907  74.964  32.047  1.00  0.00    -0.269 OA
BRANCH   3   6
HETATM    6  N3  UNL     1      31.666  74.988  30.240  1.00  0.00    -0.271 N 
HETATM    7  C1  UNL     1      30.505  75.003  29.429  1.00  0.00     0.200 C 
HETATM    8  N1  UNL     1      30.562  74.726  28.176  1.00  0.00    -0.372 N 
HETATM    9  N2  UNL     1      29.213  75.320  29.972  1.00  0.00    -0.062 NA
ATOM     10  H12 UNL     1      29.726  74.736  27.592  1.00  0.00     0.158 HD
ATOM     11  H11 UNL     1      31.478  74.500  27.791  1.00  0.00     0.158 HD
ATOM     12  H3  UNL     1      32.577  74.872  29.798  1.00  0.00     0.189 HD
ENDBRANCH   3   6
ENDBRANCH   1   2
BRANCH   1  13
HETATM   13  C4  UNL     1      31.042  75.406  34.203  1.00  0.00     0.208 C 
HETATM   14  O2  UNL     1      30.488  76.506  34.411  1.00  0.00    -0.646 OA
HETATM   15  O3  UNL     1      30.251  74.272  34.232  1.00  0.00    -0.646 OA
ENDBRANCH   1  13
BRANCH   1  16
HETATM   16  N5  UNL     1      32.959  74.122  34.695  1.00  0.00    -0.247 N 
HETATM   17  N6  UNL     1      32.900  72.815  34.379  1.00  0.00    -0.277 N 
HETATM   18  C5  UNL     1      33.494  72.531  35.550  1.00  0.00     0.166 A 
ATOM     19  H6  UNL     1      32.552  72.273  33.588  1.00  0.00     0.189 HD
HETATM   20  N7  UNL     1      33.982  71.626  36.411  1.00  0.00    -0.347 N 
HETATM   21  C8  UNL     1      33.554  73.872  35.876  1.00  0.00     0.170 A 
HETATM   22  C6  UNL     1      34.535  71.994  37.596  1.00  0.00     0.107 A 
ATOM     23  H7  UNL     1      33.937  70.636  36.170  1.00  0.00     0.167 HD
HETATM   24  C7  UNL     1      34.576  73.337  37.881  1.00  0.00     0.107 A 
HETATM   25  N8  UNL     1      34.085  74.263  37.020  1.00  0.00    -0.347 N 
ATOM     26  H8  UNL     1      34.125  75.255  37.255  1.00  0.00     0.167 HD
ENDBRANCH   1  16
TORSDOF 4
ENDMDL
