MODEL 1
REMARK VINA RESULT: -7.646747269      0.000      0.000
REMARK  8 active torsions:
REMARK  status: ('A' for Active; 'I' for Inactive)
REMARK    1  A    between atoms: N1_1  and  C1_4 
REMARK    2  A    between atoms: C4_13  and  N5_14 
REMARK    3  A    between atoms: N5_14  and  N6_16 
REMARK    4  A    between atoms: N6_16  and  C5_18 
REMARK    5  A    between atoms: C5_18  and  C6_19 
REMARK    6  A    between atoms: C5_18  and  C7_21 
REMARK    7  A    between atoms: C7_21  and  N7_22 
REMARK    8  A    between atoms: C7_21  and  O2_26 
ROOT
HETATM    1  C1  UNL     1      29.611  78.599  34.397  1.00  0.00     0.115 A 
HETATM    2  N2  UNL     1      28.325  79.020  34.567  1.00  0.00    -0.338 N 
ATOM      3  H2  UNL     1      28.125  79.817  35.173  1.00  0.00     0.168 HD
HETATM    4  C2  UNL     1      27.321  78.386  33.937  1.00  0.00     0.183 A 
HETATM    5  N3  UNL     1      27.596  77.335  33.139  1.00  0.00    -0.337 N 
ATOM      6  H3  UNL     1      26.828  76.861  32.665  1.00  0.00     0.168 HD
HETATM    7  C3  UNL     1      28.857  76.890  32.949  1.00  0.00     0.137 A 
HETATM    8  N4  UNL     1      29.137  75.849  32.161  1.00  0.00    -0.174 N 
ATOM      9  H4  UNL     1      28.368  75.375  31.688  1.00  0.00     0.186 HD
HETATM   10  C4  UNL     1      30.417  75.388  31.960  1.00  0.00     0.698 A 
HETATM   11  N8  UNL     1      31.428  76.005  32.577  1.00  0.00    -0.199 N 
ATOM     12  H8  UNL     1      32.384  75.676  32.439  1.00  0.00     0.183 HD
HETATM   13  C8  UNL     1      31.193  77.053  33.375  1.00  0.00     0.125 A 
HETATM   14  C9  UNL     1      29.902  77.525  33.585  1.00  0.00     0.068 A 
ENDROOT
BRANCH  10  15
HETATM   15  N5  UNL     1      30.615  74.384  31.191  1.00  0.00    -0.135 N 
ATOM     16  H5  UNL     1      30.654  73.448  31.594  1.00  0.00     0.205 HD
BRANCH  15  17
HETATM   17  N6  UNL     1      30.778  74.540  29.832  1.00  0.00    -0.306 N 
ATOM     18  H6  UNL     1      31.646  74.952  29.490  1.00  0.00     0.181 HD
BRANCH  17  19
HETATM   19  C5  UNL     1      29.766  74.142  28.859  1.00  0.00     0.216 C 
BRANCH  19  20
HETATM   20  C6  UNL     1      29.167  75.355  28.270  1.00  0.00     0.262 C 
HETATM   21  O1  UNL     1      28.225  75.288  27.519  1.00  0.00    -0.304 OA
ENDBRANCH  19  20
BRANCH  19  22
HETATM   22  C7  UNL     1      28.723  73.252  29.512  1.00  0.00     0.347 C 
BRANCH  22  23
HETATM   23  N7  UNL     1      27.982  72.486  28.564  1.00  0.00    -0.051 N 
ATOM     24  H73 UNL     1      28.469  71.620  28.332  1.00  0.00     0.277 HD
ATOM     25  H72 UNL     1      27.141  72.093  28.987  1.00  0.00     0.277 HD
ATOM     26  H71 UNL     1      27.756  73.015  27.721  1.00  0.00     0.277 HD
ENDBRANCH  22  23
BRANCH  22  27
HETATM   27  O2  UNL     1      27.868  74.034  30.262  1.00  0.00    -0.368 OA
ATOM     28  H2  UNL     1      26.973  73.761  30.100  1.00  0.00     0.212 HD
ENDBRANCH  22  27
ENDBRANCH  19  22
ENDBRANCH  17  19
ENDBRANCH  15  17
ENDBRANCH  10  15
BRANCH   1  29
HETATM   29  N1  UNL     1      30.593  79.182  34.985  1.00  0.00    -0.385 N 
ATOM     30  H12 UNL     1      30.490  80.173  35.207  1.00  0.00     0.157 HD
ATOM     31  H11 UNL     1      31.447  78.679  35.222  1.00  0.00     0.157 HD
ENDBRANCH   1  29
TORSDOF 8
ENDMDL
MODEL 2
REMARK VINA RESULT: -7.281248849      3.898      6.084
REMARK  8 active torsions:
REMARK  status: ('A' for Active; 'I' for Inactive)
REMARK    1  A    between atoms: N1_1  and  C1_4 
REMARK    2  A    between atoms: C4_13  and  N5_14 
REMARK    3  A    between atoms: N5_14  and  N6_16 
REMARK    4  A    between atoms: N6_16  and  C5_18 
REMARK    5  A    between atoms: C5_18  and  C6_19 
REMARK    6  A    between atoms: C5_18  and  C7_21 
REMARK    7  A    between atoms: C7_21  and  N7_22 
REMARK    8  A    between atoms: C7_21  and  O2_26 
ROOT
HETATM    1  C1  UNL     1      30.839  75.119  27.946  1.00  0.00     0.115 A 
HETATM    2  N2  UNL     1      29.641  75.266  27.309  1.00  0.00    -0.338 N 
ATOM      3  H2  UNL     1      29.615  75.446  26.306  1.00  0.00     0.168 HD
HETATM    4  C2  UNL     1      28.495  75.172  28.005  1.00  0.00     0.183 A 
HETATM    5  N3  UNL     1      28.540  74.934  29.331  1.00  0.00    -0.337 N 
ATOM      6  H3  UNL     1      27.665  74.864  29.851  1.00  0.00     0.168 HD
HETATM    7  C3  UNL     1      29.707  74.784  29.993  1.00  0.00     0.137 A 
HETATM    8  N4  UNL     1      29.760  74.549  31.307  1.00  0.00    -0.174 N 
ATOM      9  H4  UNL     1      28.885  74.480  31.826  1.00  0.00     0.186 HD
HETATM   10  C4  UNL     1      30.943  74.395  31.990  1.00  0.00     0.698 A 
HETATM   11  N8  UNL     1      32.092  74.485  31.317  1.00  0.00    -0.199 N 
ATOM     12  H8  UNL     1      32.980  74.373  31.808  1.00  0.00     0.183 HD
HETATM   13  C8  UNL     1      32.086  74.719  29.999  1.00  0.00     0.125 A 
HETATM   14  C9  UNL     1      30.895  74.877  29.300  1.00  0.00     0.068 A 
ENDROOT
BRANCH  10  15
HETATM   15  N5  UNL     1      30.922  74.171  33.250  1.00  0.00    -0.135 N 
ATOM     16  H5  UNL     1      30.419  73.358  33.603  1.00  0.00     0.205 HD
BRANCH  15  17
HETATM   17  N6  UNL     1      31.564  75.005  34.140  1.00  0.00    -0.306 N 
ATOM     18  H6  UNL     1      31.139  75.907  34.354  1.00  0.00     0.181 HD
BRANCH  17  19
HETATM   19  C5  UNL     1      32.822  74.657  34.790  1.00  0.00     0.216 C 
BRANCH  19  20
HETATM   20  C6  UNL     1      33.897  75.502  34.233  1.00  0.00     0.262 C 
HETATM   21  O1  UNL     1      33.883  75.855  33.079  1.00  0.00    -0.304 OA
ENDBRANCH  19  20
BRANCH  19  22
HETATM   22  C7  UNL     1      33.117  73.177  34.619  1.00  0.00     0.347 C 
BRANCH  22  23
HETATM   23  N7  UNL     1      33.725  72.600  35.774  1.00  0.00    -0.051 N 
ATOM     24  H73 UNL     1      34.559  73.122  36.048  1.00  0.00     0.277 HD
ATOM     25  H72 UNL     1      33.154  72.755  36.605  1.00  0.00     0.277 HD
ATOM     26  H71 UNL     1      33.938  71.610  35.653  1.00  0.00     0.277 HD
ENDBRANCH  22  23
BRANCH  22  27
HETATM   27  O2  UNL     1      33.929  73.002  33.517  1.00  0.00    -0.368 OA
ATOM     28  H2  UNL     1      34.118  72.077  33.414  1.00  0.00     0.212 HD
ENDBRANCH  22  27
ENDBRANCH  19  22
ENDBRANCH  17  19
ENDBRANCH  15  17
ENDBRANCH  10  15
BRANCH   1  29
HETATM   29  N1  UNL     1      31.951  75.204  27.310  1.00  0.00    -0.385 N 
ATOM     30  H12 UNL     1      32.312  74.355  26.873  1.00  0.00     0.157 HD
ATOM     31  H11 UNL     1      32.461  76.084  27.241  1.00  0.00     0.157 HD
ENDBRANCH   1  29
TORSDOF 8
ENDMDL
MODEL 3
REMARK VINA RESULT: -7.214049633      0.947      1.735
REMARK  8 active torsions:
REMARK  status: ('A' for Active; 'I' for Inactive)
REMARK    1  A    between atoms: N1_1  and  C1_4 
REMARK    2  A    between atoms: C4_13  and  N5_14 
REMARK    3  A    between atoms: N5_14  and  N6_16 
REMARK    4  A    between atoms: N6_16  and  C5_18 
REMARK    5  A    between atoms: C5_18  and  C6_19 
REMARK    6  A    between atoms: C5_18  and  C7_21 
REMARK    7  A    between atoms: C7_21  and  N7_22 
REMARK    8  A    between atoms: C7_21  and  O2_26 
ROOT
HETATM    1  C1  UNL     1      29.615  78.576  34.368  1.00  0.00     0.115 A 
HETATM    2  N2  UNL     1      28.346  79.057  34.506  1.00  0.00    -0.338 N 
ATOM      3  H2  UNL     1      28.174  79.891  35.068  1.00  0.00     0.168 HD
HETATM    4  C2  UNL     1      27.322  78.432  33.900  1.00  0.00     0.183 A 
HETATM    5  N3  UNL     1      27.559  77.331  33.159  1.00  0.00    -0.337 N 
ATOM      6  H3  UNL     1      26.776  76.865  32.703  1.00  0.00     0.168 HD
HETATM    7  C3  UNL     1      28.802  76.827  33.003  1.00  0.00     0.137 A 
HETATM    8  N4  UNL     1      29.045  75.736  32.272  1.00  0.00    -0.174 N 
ATOM      9  H4  UNL     1      28.261  75.269  31.817  1.00  0.00     0.186 HD
HETATM   10  C4  UNL     1      30.306  75.215  32.106  1.00  0.00     0.698 A 
HETATM   11  N8  UNL     1      31.337  75.821  32.699  1.00  0.00    -0.199 N 
ATOM     12  H8  UNL     1      32.280  75.447  32.587  1.00  0.00     0.183 HD
HETATM   13  C8  UNL     1      31.139  76.917  33.441  1.00  0.00     0.125 A 
HETATM   14  C9  UNL     1      29.867  77.451  33.615  1.00  0.00     0.068 A 
ENDROOT
BRANCH  10  15
HETATM   15  N5  UNL     1      30.469  74.165  31.392  1.00  0.00    -0.135 N 
ATOM     16  H5  UNL     1      30.634  73.270  31.851  1.00  0.00     0.205 HD
BRANCH  15  17
HETATM   17  N6  UNL     1      30.426  74.218  30.015  1.00  0.00    -0.306 N 
ATOM     18  H6  UNL     1      31.296  74.374  29.507  1.00  0.00     0.181 HD
BRANCH  17  19
HETATM   19  C5  UNL     1      29.193  74.059  29.251  1.00  0.00     0.216 C 
BRANCH  19  20
HETATM   20  C6  UNL     1      28.737  72.661  29.367  1.00  0.00     0.262 C 
HETATM   21  O1  UNL     1      28.268  72.236  30.395  1.00  0.00    -0.304 OA
ENDBRANCH  19  20
BRANCH  19  22
HETATM   22  C7  UNL     1      29.408  74.469  27.805  1.00  0.00     0.347 C 
BRANCH  22  23
HETATM   23  N7  UNL     1      30.657  75.129  27.600  1.00  0.00    -0.051 N 
ATOM     24  H73 UNL     1      30.757  75.927  28.229  1.00  0.00     0.277 HD
ATOM     25  H72 UNL     1      31.432  74.558  27.935  1.00  0.00     0.277 HD
ATOM     26  H71 UNL     1      30.799  75.409  26.630  1.00  0.00     0.277 HD
ENDBRANCH  22  23
BRANCH  22  27
HETATM   27  O2  UNL     1      28.369  75.285  27.407  1.00  0.00    -0.368 OA
ATOM     28  H2  UNL     1      28.241  75.192  26.470  1.00  0.00     0.212 HD
ENDBRANCH  22  27
ENDBRANCH  19  22
ENDBRANCH  17  19
ENDBRANCH  15  17
ENDBRANCH  10  15
BRANCH   1  29
HETATM   29  N1  UNL     1      30.616  79.149  34.935  1.00  0.00    -0.385 N 
ATOM     30  H12 UNL     1      30.434  79.690  35.780  1.00  0.00     0.157 HD
ATOM     31  H11 UNL     1      31.559  79.070  34.556  1.00  0.00     0.157 HD
ENDBRANCH   1  29
TORSDOF 8
ENDMDL
MODEL 4
REMARK VINA RESULT: -7.203957275      4.573      6.841
REMARK  8 active torsions:
REMARK  status: ('A' for Active; 'I' for Inactive)
REMARK    1  A    between atoms: N1_1  and  C1_4 
REMARK    2  A    between atoms: C4_13  and  N5_14 
REMARK    3  A    between atoms: N5_14  and  N6_16 
REMARK    4  A    between atoms: N6_16  and  C5_18 
REMARK    5  A    between atoms: C5_18  and  C6_19 
REMARK    6  A    between atoms: C5_18  and  C7_21 
REMARK    7  A    between atoms: C7_21  and  N7_22 
REMARK    8  A    between atoms: C7_21  and  O2_26 
ROOT
HETATM    1  C1  UNL     1      29.168  74.627  28.552  1.00  0.00     0.115 A 
HETATM    2  N2  UNL     1      29.568  74.940  27.286  1.00  0.00    -0.338 N 
ATOM      3  H2  UNL     1      28.886  74.974  26.529  1.00  0.00     0.168 HD
HETATM    4  C2  UNL     1      30.863  75.204  27.037  1.00  0.00     0.183 A 
HETATM    5  N3  UNL     1      31.756  75.157  28.045  1.00  0.00    -0.337 N 
ATOM      6  H3  UNL     1      32.736  75.360  27.846  1.00  0.00     0.168 HD
HETATM    7  C3  UNL     1      31.396  74.850  29.309  1.00  0.00     0.137 A 
HETATM    8  N4  UNL     1      32.275  74.800  30.313  1.00  0.00    -0.174 N 
ATOM      9  H4  UNL     1      33.255  75.002  30.113  1.00  0.00     0.186 HD
HETATM   10  C4  UNL     1      31.919  74.489  31.603  1.00  0.00     0.698 A 
HETATM   11  N8  UNL     1      30.638  74.224  31.871  1.00  0.00    -0.199 N 
ATOM     12  H8  UNL     1      30.356  73.990  32.824  1.00  0.00     0.183 HD
HETATM   13  C8  UNL     1      29.722  74.262  30.896  1.00  0.00     0.125 A 
HETATM   14  C9  UNL     1      30.075  74.575  29.588  1.00  0.00     0.068 A 
ENDROOT
BRANCH  10  15
HETATM   15  N5  UNL     1      32.813  74.459  32.518  1.00  0.00    -0.135 N 
ATOM     16  H5  UNL     1      33.677  74.985  32.388  1.00  0.00     0.205 HD
BRANCH  15  17
HETATM   17  N6  UNL     1      32.636  73.731  33.674  1.00  0.00    -0.306 N 
ATOM     18  H6  UNL     1      32.274  72.780  33.600  1.00  0.00     0.181 HD
BRANCH  17  19
HETATM   19  C5  UNL     1      32.944  74.256  35.000  1.00  0.00     0.216 C 
BRANCH  19  20
HETATM   20  C6  UNL     1      33.905  75.367  34.861  1.00  0.00     0.262 C 
HETATM   21  O1  UNL     1      34.563  75.749  35.799  1.00  0.00    -0.304 OA
ENDBRANCH  19  20
BRANCH  19  22
HETATM   22  C7  UNL     1      33.474  73.153  35.898  1.00  0.00     0.347 C 
BRANCH  22  23
HETATM   23  N7  UNL     1      33.554  73.550  37.267  1.00  0.00    -0.051 N 
ATOM     24  H73 UNL     1      33.864  74.518  37.351  1.00  0.00     0.277 HD
ATOM     25  H72 UNL     1      32.625  73.639  37.677  1.00  0.00     0.277 HD
ATOM     26  H71 UNL     1      34.142  72.929  37.823  1.00  0.00     0.277 HD
ENDBRANCH  22  23
BRANCH  22  27
HETATM   27  O2  UNL     1      34.717  72.759  35.445  1.00  0.00    -0.368 OA
ATOM     28  H2  UNL     1      34.927  71.909  35.813  1.00  0.00     0.212 HD
ENDBRANCH  22  27
ENDBRANCH  19  22
ENDBRANCH  17  19
ENDBRANCH  15  17
ENDBRANCH  10  15
BRANCH   1  29
HETATM   29  N1  UNL     1      27.939  74.369  28.823  1.00  0.00    -0.385 N 
ATOM     30  H12 UNL     1      27.386  75.107  29.259  1.00  0.00     0.157 HD
ATOM     31  H11 UNL     1      27.527  73.460  28.614  1.00  0.00     0.157 HD
ENDBRANCH   1  29
TORSDOF 8
ENDMDL
MODEL 5
REMARK VINA RESULT: -7.181257517      3.910      6.435
REMARK  8 active torsions:
REMARK  status: ('A' for Active; 'I' for Inactive)
REMARK    1  A    between atoms: N1_1  and  C1_4 
REMARK    2  A    between atoms: C4_13  and  N5_14 
REMARK    3  A    between atoms: N5_14  and  N6_16 
REMARK    4  A    between atoms: N6_16  and  C5_18 
REMARK    5  A    between atoms: C5_18  and  C6_19 
REMARK    6  A    between atoms: C5_18  and  C7_21 
REMARK    7  A    between atoms: C7_21  and  N7_22 
REMARK    8  A    between atoms: C7_21  and  O2_26 
ROOT
HETATM    1  C1  UNL     1      30.249  75.147  27.935  1.00  0.00     0.115 A 
HETATM    2  N2  UNL     1      31.333  75.322  27.125  1.00  0.00    -0.338 N 
ATOM      3  H2  UNL     1      31.202  75.549  26.139  1.00  0.00     0.168 HD
HETATM    4  C2  UNL     1      32.574  75.193  27.626  1.00  0.00     0.183 A 
HETATM    5  N3  UNL     1      32.736  74.892  28.930  1.00  0.00    -0.337 N 
ATOM      6  H3  UNL     1      33.681  74.797  29.301  1.00  0.00     0.168 HD
HETATM    7  C3  UNL     1      31.686  74.712  29.760  1.00  0.00     0.137 A 
HETATM    8  N4  UNL     1      31.839  74.413  31.053  1.00  0.00    -0.174 N 
ATOM      9  H4  UNL     1      32.785  74.317  31.423  1.00  0.00     0.186 HD
HETATM   10  C4  UNL     1      30.778  74.227  31.906  1.00  0.00     0.698 A 
HETATM   11  N8  UNL     1      29.537  74.351  31.428  1.00  0.00    -0.199 N 
ATOM     12  H8  UNL     1      28.738  74.217  32.047  1.00  0.00     0.183 HD
HETATM   13  C8  UNL     1      29.338  74.650  30.139  1.00  0.00     0.125 A 
HETATM   14  C9  UNL     1      30.406  74.838  29.268  1.00  0.00     0.068 A 
ENDROOT
BRANCH  10  15
HETATM   15  N5  UNL     1      30.995  73.942  33.135  1.00  0.00    -0.135 N 
ATOM     16  H5  UNL     1      30.755  73.013  33.481  1.00  0.00     0.205 HD
BRANCH  15  17
HETATM   17  N6  UNL     1      31.546  74.861  34.001  1.00  0.00    -0.306 N 
ATOM     18  H6  UNL     1      31.033  75.723  34.186  1.00  0.00     0.181 HD
BRANCH  17  19
HETATM   19  C5  UNL     1      32.829  74.659  34.665  1.00  0.00     0.216 C 
BRANCH  19  20
HETATM   20  C6  UNL     1      33.841  75.518  34.020  1.00  0.00     0.262 C 
HETATM   21  O1  UNL     1      33.857  75.679  32.823  1.00  0.00    -0.304 OA
ENDBRANCH  19  20
BRANCH  19  22
HETATM   22  C7  UNL     1      33.221  73.193  34.627  1.00  0.00     0.347 C 
BRANCH  22  23
HETATM   23  N7  UNL     1      33.859  72.763  35.829  1.00  0.00    -0.051 N 
ATOM     24  H73 UNL     1      34.866  72.667  35.695  1.00  0.00     0.277 HD
ATOM     25  H72 UNL     1      33.856  73.503  36.530  1.00  0.00     0.277 HD
ATOM     26  H71 UNL     1      33.457  71.903  36.202  1.00  0.00     0.277 HD
ENDBRANCH  22  23
BRANCH  22  27
HETATM   27  O2  UNL     1      34.049  72.973  33.546  1.00  0.00    -0.368 OA
ATOM     28  H2  UNL     1      34.561  72.188  33.700  1.00  0.00     0.212 HD
ENDBRANCH  22  27
ENDBRANCH  19  22
ENDBRANCH  17  19
ENDBRANCH  15  17
ENDBRANCH  10  15
BRANCH   1  29
HETATM   29  N1  UNL     1      29.051  75.262  27.488  1.00  0.00    -0.385 N 
ATOM     30  H12 UNL     1      28.324  74.703  27.933  1.00  0.00     0.157 HD
ATOM     31  H11 UNL     1      28.829  75.889  26.714  1.00  0.00     0.157 HD
ENDBRANCH   1  29
TORSDOF 8
ENDMDL
