MODEL 1
REMARK VINA RESULT: -6.131050693      0.000      0.000
REMARK  2 active torsions:
REMARK  status: ('A' for Active; 'I' for Inactive)
REMARK    1  A    between atoms: S1_2  and  C2_3 
REMARK    2  A    between atoms: C5_6  and  O1_8 
ROOT
HETATM    1  C2  UNL     1      20.335  28.505   9.371  1.00  0.00     0.056 C 
HETATM    2  C3  UNL     1      20.515  29.586   8.308  1.00  0.00     0.024 C 
HETATM    3  C4  UNL     1      21.542  30.546   8.850  1.00  0.00     0.029 C 
HETATM    4  C5  UNL     1      20.833  31.447   9.817  1.00  0.00     0.059 C 
HETATM    5  C6  UNL     1      19.697  32.222   9.207  1.00  0.00     0.046 C 
HETATM    6  C7  UNL     1      20.350  30.435  10.851  1.00  0.00     0.048 C 
HETATM    7  C8  UNL     1      21.066  29.138  10.534  1.00  0.00    -0.021 C 
HETATM    8  C9  UNL     1      21.305  28.261  11.691  1.00  0.00     0.017 C 
HETATM    9  C10 UNL     1      22.290  29.631   9.815  1.00  0.00    -0.033 C 
HETATM   10  C11 UNL     1      23.281  30.335  10.667  1.00  0.00     0.016 C 
HETATM   11  C12 UNL     1      22.972  28.546   9.004  1.00  0.00     0.016 C 
ENDROOT
BRANCH   4  12
HETATM   12  O1  UNL     1      21.694  32.377  10.386  1.00  0.00    -0.390 OA
ATOM     13  H1  UNL     1      21.250  32.931  11.017  1.00  0.00     0.210 HD
ENDBRANCH   4  12
BRANCH   1  14
HETATM   14  S1  UNL     1      18.612  28.295   9.842  1.00  0.00    -0.168 SA
HETATM   15  C1  UNL     1      17.469  29.060   8.679  1.00  0.00     0.090 C 
ENDBRANCH   1  14
TORSDOF 2
ENDMDL
MODEL 2
REMARK VINA RESULT: -5.849278143      2.312      4.072
REMARK  2 active torsions:
REMARK  status: ('A' for Active; 'I' for Inactive)
REMARK    1  A    between atoms: S1_2  and  C2_3 
REMARK    2  A    between atoms: C5_6  and  O1_8 
ROOT
HETATM    1  C2  UNL     1      22.487  29.661  10.332  1.00  0.00     0.056 C 
HETATM    2  C3  UNL     1      22.287  28.333   9.606  1.00  0.00     0.024 C 
HETATM    3  C4  UNL     1      20.850  28.309   9.156  1.00  0.00     0.029 C 
HETATM    4  C5  UNL     1      20.024  27.919  10.346  1.00  0.00     0.059 C 
HETATM    5  C6  UNL     1      20.388  26.581  10.929  1.00  0.00     0.046 C 
HETATM    6  C7  UNL     1      20.336  29.068  11.300  1.00  0.00     0.048 C 
HETATM    7  C8  UNL     1      21.051  30.117  10.473  1.00  0.00    -0.021 C 
HETATM    8  C9  UNL     1      20.863  31.502  10.930  1.00  0.00     0.017 C 
HETATM    9  C10 UNL     1      20.558  29.804   9.088  1.00  0.00    -0.033 C 
HETATM   10  C11 UNL     1      19.132  30.130   8.839  1.00  0.00     0.016 C 
HETATM   11  C12 UNL     1      21.431  30.407   8.004  1.00  0.00     0.016 C 
ENDROOT
BRANCH   4  12
HETATM   12  O1  UNL     1      18.669  27.870  10.043  1.00  0.00    -0.390 OA
ATOM     13  H1  UNL     1      18.186  28.573  10.462  1.00  0.00     0.210 HD
ENDBRANCH   4  12
BRANCH   1  14
HETATM   14  S1  UNL     1      23.167  29.438  11.982  1.00  0.00    -0.168 SA
HETATM   15  C1  UNL     1      24.216  30.807  12.499  1.00  0.00     0.090 C 
ENDBRANCH   1  14
TORSDOF 2
ENDMDL
MODEL 3
REMARK VINA RESULT: -5.603957271      1.521      1.875
REMARK  2 active torsions:
REMARK  status: ('A' for Active; 'I' for Inactive)
REMARK    1  A    between atoms: S1_2  and  C2_3 
REMARK    2  A    between atoms: C5_6  and  O1_8 
ROOT
HETATM    1  C2  UNL     1      21.807  28.364  10.441  1.00  0.00     0.056 C 
HETATM    2  C3  UNL     1      21.518  28.700   8.980  1.00  0.00     0.024 C 
HETATM    3  C4  UNL     1      21.453  30.203   8.897  1.00  0.00     0.029 C 
HETATM    4  C5  UNL     1      20.094  30.610   9.383  1.00  0.00     0.059 C 
HETATM    5  C6  UNL     1      18.960  30.016   8.593  1.00  0.00     0.046 C 
HETATM    6  C7  UNL     1      20.134  30.089  10.816  1.00  0.00     0.048 C 
HETATM    7  C8  UNL     1      21.577  29.713  11.085  1.00  0.00    -0.021 C 
HETATM    8  C9  UNL     1      21.998  29.830  12.490  1.00  0.00     0.017 C 
HETATM    9  C10 UNL     1      22.309  30.581  10.101  1.00  0.00    -0.033 C 
HETATM   10  C11 UNL     1      22.301  32.033  10.414  1.00  0.00     0.016 C 
HETATM   11  C12 UNL     1      23.726  30.109   9.841  1.00  0.00     0.016 C 
ENDROOT
BRANCH   4  12
HETATM   12  O1  UNL     1      19.925  31.989   9.354  1.00  0.00    -0.390 OA
ATOM     13  H1  UNL     1      19.446  32.272   8.583  1.00  0.00     0.210 HD
ENDBRANCH   4  12
BRANCH   1  14
HETATM   14  S1  UNL     1      20.609  27.208  11.122  1.00  0.00    -0.168 SA
HETATM   15  C1  UNL     1      19.497  26.535   9.876  1.00  0.00     0.090 C 
ENDBRANCH   1  14
TORSDOF 2
ENDMDL
MODEL 4
REMARK VINA RESULT: -5.481531967      1.951      3.569
REMARK  2 active torsions:
REMARK  status: ('A' for Active; 'I' for Inactive)
REMARK    1  A    between atoms: S1_2  and  C2_3 
REMARK    2  A    between atoms: C5_6  and  O1_8 
ROOT
HETATM    1  C2  UNL     1      22.182  28.960  11.251  1.00  0.00     0.056 C 
HETATM    2  C3  UNL     1      21.068  29.813  11.851  1.00  0.00     0.024 C 
HETATM    3  C4  UNL     1      20.168  30.201  10.706  1.00  0.00     0.029 C 
HETATM    4  C5  UNL     1      20.827  31.347   9.999  1.00  0.00     0.059 C 
HETATM    5  C6  UNL     1      21.067  32.547  10.875  1.00  0.00     0.046 C 
HETATM    6  C7  UNL     1      22.129  30.694   9.547  1.00  0.00     0.048 C 
HETATM    7  C8  UNL     1      21.955  29.207   9.776  1.00  0.00    -0.021 C 
HETATM    8  C9  UNL     1      22.715  28.343   8.860  1.00  0.00     0.017 C 
HETATM    9  C10 UNL     1      20.460  29.064   9.732  1.00  0.00    -0.033 C 
HETATM   10  C11 UNL     1      19.848  29.247   8.392  1.00  0.00     0.016 C 
HETATM   11  C12 UNL     1      19.974  27.770  10.357  1.00  0.00     0.016 C 
ENDROOT
BRANCH   4  12
HETATM   12  O1  UNL     1      20.080  31.785   8.913  1.00  0.00    -0.390 OA
ATOM     13  H1  UNL     1      20.585  31.776   8.108  1.00  0.00     0.210 HD
ENDBRANCH   4  12
BRANCH   1  14
HETATM   14  S1  UNL     1      23.816  29.581  11.676  1.00  0.00    -0.168 SA
HETATM   15  C1  UNL     1      23.774  30.850  12.953  1.00  0.00     0.090 C 
ENDBRANCH   1  14
TORSDOF 2
ENDMDL
MODEL 5
REMARK VINA RESULT: -5.283676990      1.694      3.101
REMARK  2 active torsions:
REMARK  status: ('A' for Active; 'I' for Inactive)
REMARK    1  A    between atoms: S1_2  and  C2_3 
REMARK    2  A    between atoms: C5_6  and  O1_8 
ROOT
HETATM    1  C2  UNL     1      19.992  30.098   9.516  1.00  0.00     0.056 C 
HETATM    2  C3  UNL     1      19.839  29.754  10.995  1.00  0.00     0.024 C 
HETATM    3  C4  UNL     1      21.233  29.701  11.564  1.00  0.00     0.029 C 
HETATM    4  C5  UNL     1      21.809  28.368  11.191  1.00  0.00     0.059 C 
HETATM    5  C6  UNL     1      21.015  27.196  11.702  1.00  0.00     0.046 C 
HETATM    6  C7  UNL     1      21.784  28.461   9.669  1.00  0.00     0.048 C 
HETATM    7  C8  UNL     1      21.483  29.909   9.342  1.00  0.00    -0.021 C 
HETATM    8  C9  UNL     1      22.043  30.389   8.069  1.00  0.00     0.017 C 
HETATM    9  C10 UNL     1      21.964  30.609  10.582  1.00  0.00    -0.033 C 
HETATM   10  C11 UNL     1      23.438  30.630  10.762  1.00  0.00     0.016 C 
HETATM   11  C12 UNL     1      21.400  32.010  10.723  1.00  0.00     0.016 C 
ENDROOT
BRANCH   4  12
HETATM   12  O1  UNL     1      23.106  28.213  11.665  1.00  0.00    -0.390 OA
ATOM     13  H1  UNL     1      23.705  27.946  10.977  1.00  0.00     0.210 HD
ENDBRANCH   4  12
BRANCH   1  14
HETATM   14  S1  UNL     1      19.152  28.917   8.452  1.00  0.00    -0.168 SA
HETATM   15  C1  UNL     1      17.361  28.964   8.629  1.00  0.00     0.090 C 
ENDBRANCH   1  14
TORSDOF 2
ENDMDL
