MODEL 1
REMARK VINA RESULT: -5.725456888      0.000      0.000
REMARK  2 active torsions:
REMARK  status: ('A' for Active; 'I' for Inactive)
REMARK    1  A    between atoms: O1_1  and  C1_3 
REMARK    2  A    between atoms: N1_9  and  C7_11 
ROOT
HETATM    1  C1  UNL     1      19.838  30.058  10.007  1.00  0.00     0.123 C 
HETATM    2  C2  UNL     1      20.404  28.743  10.466  1.00  0.00     0.032 C 
HETATM    3  C3  UNL     1      21.212  28.047   9.412  1.00  0.00     0.003 C 
HETATM    4  C4  UNL     1      22.442  28.785   9.008  1.00  0.00     0.006 C 
HETATM    5  C5  UNL     1      22.962  29.560  10.197  1.00  0.00     0.052 C 
HETATM    6  C6  UNL     1      22.186  30.811  10.361  1.00  0.00    -0.015 C 
HETATM    7  N1  UNL     1      22.699  31.737  11.060  1.00  0.00    -0.391 N 
ATOM      8  H1  UNL     1      22.148  32.589  11.163  1.00  0.00     0.159 HD
HETATM    9  C11 UNL     1      20.852  31.123   9.800  1.00  0.00     0.083 C 
ENDROOT
BRANCH   7  10
HETATM   10  C7  UNL     1      23.948  31.711  11.710  1.00  0.00     0.091 C 
HETATM   11  C8  UNL     1      23.845  31.080  13.091  1.00  0.00     0.036 C 
HETATM   12  C9  UNL     1      25.311  30.956  13.532  1.00  0.00     0.076 C 
HETATM   13  S1  UNL     1      25.832  32.686  13.189  1.00  0.00    -0.167 SA
HETATM   14  C10 UNL     1      24.560  33.079  11.921  1.00  0.00     0.098 C 
ENDBRANCH   7  10
BRANCH   1  15
HETATM   15  O1  UNL     1      19.043  29.868   8.885  1.00  0.00    -0.395 OA
ATOM     16  H1  UNL     1      19.431  30.300   8.133  1.00  0.00     0.210 HD
ENDBRANCH   1  15
TORSDOF 2
ENDMDL
MODEL 2
REMARK VINA RESULT: -5.724229848      1.641      2.223
REMARK  2 active torsions:
REMARK  status: ('A' for Active; 'I' for Inactive)
REMARK    1  A    between atoms: O1_1  and  C1_3 
REMARK    2  A    between atoms: N1_9  and  C7_11 
ROOT
HETATM    1  C1  UNL     1      18.895  29.261   8.542  1.00  0.00     0.123 C 
HETATM    2  C2  UNL     1      18.596  28.660   9.887  1.00  0.00     0.032 C 
HETATM    3  C3  UNL     1      19.282  27.346  10.113  1.00  0.00     0.003 C 
HETATM    4  C4  UNL     1      20.769  27.438  10.143  1.00  0.00     0.006 C 
HETATM    5  C5  UNL     1      21.166  28.786  10.701  1.00  0.00     0.052 C 
HETATM    6  C6  UNL     1      21.058  29.820   9.645  1.00  0.00    -0.015 C 
HETATM    7  N1  UNL     1      21.681  30.910   9.820  1.00  0.00    -0.391 N 
ATOM      8  H1  UNL     1      21.593  31.610   9.083  1.00  0.00     0.159 HD
HETATM    9  C11 UNL     1      20.293  29.737   8.380  1.00  0.00     0.083 C 
ENDROOT
BRANCH   7  10
HETATM   10  C7  UNL     1      22.480  31.257  10.926  1.00  0.00     0.091 C 
HETATM   11  C8  UNL     1      23.067  32.652  10.773  1.00  0.00     0.036 C 
HETATM   12  C9  UNL     1      23.713  32.915  12.143  1.00  0.00     0.076 C 
HETATM   13  S1  UNL     1      24.686  31.360  12.273  1.00  0.00    -0.167 SA
HETATM   14  C10 UNL     1      23.658  30.331  11.148  1.00  0.00     0.098 C 
ENDBRANCH   7  10
BRANCH   1  15
HETATM   15  O1  UNL     1      18.524  28.382   7.534  1.00  0.00    -0.395 OA
ATOM     16  H1  UNL     1      19.155  27.676   7.467  1.00  0.00     0.210 HD
ENDBRANCH   1  15
TORSDOF 2
ENDMDL
MODEL 3
REMARK VINA RESULT: -5.488748134      1.483      1.709
REMARK  2 active torsions:
REMARK  status: ('A' for Active; 'I' for Inactive)
REMARK    1  A    between atoms: O1_1  and  C1_3 
REMARK    2  A    between atoms: N1_9  and  C7_11 
ROOT
HETATM    1  C1  UNL     1      20.784  31.775  10.463  1.00  0.00     0.123 C 
HETATM    2  C2  UNL     1      20.587  30.324  10.804  1.00  0.00     0.032 C 
HETATM    3  C3  UNL     1      21.021  29.396   9.709  1.00  0.00     0.003 C 
HETATM    4  C4  UNL     1      22.482  29.446   9.418  1.00  0.00     0.006 C 
HETATM    5  C5  UNL     1      23.226  29.768  10.694  1.00  0.00     0.052 C 
HETATM    6  C6  UNL     1      23.162  31.224  10.961  1.00  0.00    -0.015 C 
HETATM    7  N1  UNL     1      24.011  31.714  11.764  1.00  0.00    -0.391 N 
ATOM      8  H1  UNL     1      23.950  32.718  11.936  1.00  0.00     0.159 HD
HETATM    9  C11 UNL     1      22.205  32.201  10.394  1.00  0.00     0.083 C 
ENDROOT
BRANCH   7  10
HETATM   10  C7  UNL     1      25.029  31.019  12.444  1.00  0.00     0.091 C 
HETATM   11  C8  UNL     1      24.866  31.127  13.953  1.00  0.00     0.036 C 
HETATM   12  C9  UNL     1      25.922  30.151  14.493  1.00  0.00     0.076 C 
HETATM   13  S1  UNL     1      27.363  30.771  13.533  1.00  0.00    -0.167 SA
HETATM   14  C10 UNL     1      26.425  31.520  12.140  1.00  0.00     0.098 C 
ENDBRANCH   7  10
BRANCH   1  15
HETATM   15  O1  UNL     1      20.088  32.091   9.305  1.00  0.00    -0.395 OA
ATOM     16  H1  UNL     1      20.015  31.325   8.748  1.00  0.00     0.210 HD
ENDBRANCH   1  15
TORSDOF 2
ENDMDL
MODEL 4
REMARK VINA RESULT: -5.383961862      1.452      2.348
REMARK  2 active torsions:
REMARK  status: ('A' for Active; 'I' for Inactive)
REMARK    1  A    between atoms: O1_1  and  C1_3 
REMARK    2  A    between atoms: N1_9  and  C7_11 
ROOT
HETATM    1  C1  UNL     1      21.582  28.421  10.014  1.00  0.00     0.123 C 
HETATM    2  C2  UNL     1      21.747  29.548   9.034  1.00  0.00     0.032 C 
HETATM    3  C3  UNL     1      20.704  30.616   9.180  1.00  0.00     0.003 C 
HETATM    4  C4  UNL     1      20.755  31.335  10.485  1.00  0.00     0.006 C 
HETATM    5  C5  UNL     1      22.189  31.383  10.963  1.00  0.00     0.052 C 
HETATM    6  C6  UNL     1      22.555  30.090  11.587  1.00  0.00    -0.015 C 
HETATM    7  N1  UNL     1      23.567  30.068  12.350  1.00  0.00    -0.391 N 
ATOM      8  H1  UNL     1      23.804  29.169  12.768  1.00  0.00     0.159 HD
HETATM    9  C11 UNL     1      21.871  28.787  11.424  1.00  0.00     0.083 C 
ENDROOT
BRANCH   7  10
HETATM   10  C7  UNL     1      24.399  31.155  12.680  1.00  0.00     0.091 C 
HETATM   11  C8  UNL     1      25.710  31.109  11.908  1.00  0.00     0.036 C 
HETATM   12  C9  UNL     1      26.364  32.458  12.242  1.00  0.00     0.076 C 
HETATM   13  S1  UNL     1      26.204  32.377  14.072  1.00  0.00    -0.167 SA
HETATM   14  C10 UNL     1      24.780  31.217  14.144  1.00  0.00     0.098 C 
ENDBRANCH   7  10
BRANCH   1  15
HETATM   15  O1  UNL     1      20.327  27.845   9.872  1.00  0.00    -0.395 OA
ATOM     16  H1  UNL     1      19.724  28.216  10.505  1.00  0.00     0.210 HD
ENDBRANCH   1  15
TORSDOF 2
ENDMDL
MODEL 5
REMARK VINA RESULT: -5.139383687      3.289      5.596
REMARK  2 active torsions:
REMARK  status: ('A' for Active; 'I' for Inactive)
REMARK    1  A    between atoms: O1_1  and  C1_3 
REMARK    2  A    between atoms: N1_9  and  C7_11 
ROOT
HETATM    1  C1  UNL     1      25.544  33.285  11.802  1.00  0.00     0.123 C 
HETATM    2  C2  UNL     1      26.265  31.995  12.077  1.00  0.00     0.032 C 
HETATM    3  C3  UNL     1      26.108  31.521  13.492  1.00  0.00     0.003 C 
HETATM    4  C4  UNL     1      24.707  31.173  13.860  1.00  0.00     0.006 C 
HETATM    5  C5  UNL     1      23.992  30.650  12.634  1.00  0.00     0.052 C 
HETATM    6  C6  UNL     1      23.557  31.783  11.784  1.00  0.00    -0.015 C 
HETATM    7  N1  UNL     1      22.650  31.562  10.926  1.00  0.00    -0.391 N 
ATOM      8  H1  UNL     1      22.365  32.354  10.349  1.00  0.00     0.159 HD
HETATM    9  C11 UNL     1      24.063  33.174  11.810  1.00  0.00     0.083 C 
ENDROOT
BRANCH   7  10
HETATM   10  C7  UNL     1      21.995  30.340  10.685  1.00  0.00     0.091 C 
HETATM   11  C8  UNL     1      22.557  29.639   9.457  1.00  0.00     0.036 C 
HETATM   12  C9  UNL     1      21.874  28.263   9.492  1.00  0.00     0.076 C 
HETATM   13  S1  UNL     1      20.139  28.841   9.686  1.00  0.00    -0.167 SA
HETATM   14  C10 UNL     1      20.507  30.476  10.443  1.00  0.00     0.098 C 
ENDBRANCH   7  10
BRANCH   1  15
HETATM   15  O1  UNL     1      25.997  34.277  12.661  1.00  0.00    -0.395 OA
ATOM     16  H1  UNL     1      25.736  34.081  13.553  1.00  0.00     0.210 HD
ENDBRANCH   1  15
TORSDOF 2
ENDMDL
