MODEL 1
REMARK VINA RESULT: -6.868605832      0.000      0.000
REMARK  3 active torsions:
REMARK  status: ('A' for Active; 'I' for Inactive)
REMARK    1  A    between atoms: C4_4  and  O1_5 
REMARK    2  A    between atoms: C10_12  and  C11_13 
REMARK    3  A    between atoms: C11_13  and  O3_15 
ROOT
HETATM    1  C1  UNL     1      23.282  29.179   9.465  1.00  0.00     0.015 C 
HETATM    2  C2  UNL     1      21.932  29.206   9.473  1.00  0.00    -0.073 C 
HETATM    3  C3  UNL     1      21.497  27.761   9.583  1.00  0.00     0.065 C 
HETATM    4  C4  UNL     1      20.309  27.481  10.413  1.00  0.00     0.122 C 
HETATM    5  C5  UNL     1      18.928  27.495   9.845  1.00  0.00     0.036 C 
HETATM    6  C6  UNL     1      18.287  28.912   9.687  1.00  0.00    -0.016 C 
HETATM    7  C7  UNL     1      17.355  28.859   8.494  1.00  0.00     0.010 C 
HETATM    8  C8  UNL     1      19.400  29.744   9.470  1.00  0.00     0.005 C 
HETATM    9  C9  UNL     1      20.065  30.957   9.243  1.00  0.00     0.019 C 
HETATM   10  C10 UNL     1      21.554  30.623   9.364  1.00  0.00     0.114 C 
ENDROOT
BRANCH  10  11
HETATM   11  C11 UNL     1      22.080  31.420  10.493  1.00  0.00     0.266 C 
HETATM   12  O2  UNL     1      22.010  31.089  11.703  1.00  0.00    -0.265 OA
BRANCH  11  13
HETATM   13  O3  UNL     1      22.706  32.632  10.226  1.00  0.00    -0.326 OA
HETATM   14  C12 UNL     1      23.556  33.270  11.155  1.00  0.00     0.213 C 
ENDBRANCH  11  13
ENDBRANCH  10  11
BRANCH   4  15
HETATM   15  O1  UNL     1      20.447  26.090  10.764  1.00  0.00    -0.395 OA
ATOM     16  H1  UNL     1      19.681  25.678  10.382  1.00  0.00     0.210 HD
ENDBRANCH   4  15
TORSDOF 3
ENDMDL
MODEL 2
REMARK VINA RESULT: -6.850041250      0.642      1.056
REMARK  3 active torsions:
REMARK  status: ('A' for Active; 'I' for Inactive)
REMARK    1  A    between atoms: C4_4  and  O1_5 
REMARK    2  A    between atoms: C10_12  and  C11_13 
REMARK    3  A    between atoms: C11_13  and  O3_15 
ROOT
HETATM    1  C1  UNL     1      23.308  29.214   9.292  1.00  0.00     0.015 C 
HETATM    2  C2  UNL     1      21.960  29.240   9.357  1.00  0.00    -0.073 C 
HETATM    3  C3  UNL     1      21.533  27.799   9.526  1.00  0.00     0.065 C 
HETATM    4  C4  UNL     1      20.381  27.542  10.412  1.00  0.00     0.122 C 
HETATM    5  C5  UNL     1      18.977  27.539   9.903  1.00  0.00     0.036 C 
HETATM    6  C6  UNL     1      18.327  28.950   9.732  1.00  0.00    -0.016 C 
HETATM    7  C7  UNL     1      17.346  28.863   8.581  1.00  0.00     0.010 C 
HETATM    8  C8  UNL     1      19.428  29.777   9.445  1.00  0.00     0.005 C 
HETATM    9  C9  UNL     1      20.081  30.983   9.156  1.00  0.00     0.019 C 
HETATM   10  C10 UNL     1      21.575  30.654   9.224  1.00  0.00     0.114 C 
ENDROOT
BRANCH  10  11
HETATM   11  C11 UNL     1      22.146  31.483  10.306  1.00  0.00     0.266 C 
HETATM   12  O2  UNL     1      22.558  32.663  10.169  1.00  0.00    -0.265 OA
BRANCH  11  13
HETATM   13  O3  UNL     1      22.246  30.946  11.583  1.00  0.00    -0.326 OA
HETATM   14  C12 UNL     1      23.431  31.015  12.348  1.00  0.00     0.213 C 
ENDBRANCH  11  13
ENDBRANCH  10  11
BRANCH   4  15
HETATM   15  O1  UNL     1      20.536  26.161  10.796  1.00  0.00    -0.395 OA
ATOM     16  H1  UNL     1      19.745  25.743  10.478  1.00  0.00     0.210 HD
ENDBRANCH   4  15
TORSDOF 3
ENDMDL
MODEL 3
REMARK VINA RESULT: -6.296205902      1.989      2.968
REMARK  3 active torsions:
REMARK  status: ('A' for Active; 'I' for Inactive)
REMARK    1  A    between atoms: C4_4  and  O1_5 
REMARK    2  A    between atoms: C10_12  and  C11_13 
REMARK    3  A    between atoms: C11_13  and  O3_15 
ROOT
HETATM    1  C1  UNL     1      20.516  31.805  10.439  1.00  0.00     0.015 C 
HETATM    2  C2  UNL     1      20.524  30.456  10.467  1.00  0.00    -0.073 C 
HETATM    3  C3  UNL     1      19.372  30.024   9.586  1.00  0.00     0.065 C 
HETATM    4  C4  UNL     1      19.579  28.820   8.757  1.00  0.00     0.122 C 
HETATM    5  C5  UNL     1      19.259  27.451   9.259  1.00  0.00     0.036 C 
HETATM    6  C6  UNL     1      20.345  26.808  10.181  1.00  0.00    -0.016 C 
HETATM    7  C7  UNL     1      19.631  25.900  11.161  1.00  0.00     0.010 C 
HETATM    8  C8  UNL     1      20.936  27.922  10.803  1.00  0.00     0.005 C 
HETATM    9  C9  UNL     1      21.833  28.587  11.651  1.00  0.00     0.019 C 
HETATM   10  C10 UNL     1      21.643  30.075  11.344  1.00  0.00     0.114 C 
ENDROOT
BRANCH  10  11
HETATM   11  C11 UNL     1      22.936  30.575  10.833  1.00  0.00     0.266 C 
HETATM   12  O2  UNL     1      23.467  30.224   9.749  1.00  0.00    -0.265 OA
BRANCH  11  13
HETATM   13  O3  UNL     1      23.642  31.506  11.586  1.00  0.00    -0.326 OA
HETATM   14  C12 UNL     1      24.199  31.201  12.846  1.00  0.00     0.213 C 
ENDBRANCH  11  13
ENDBRANCH  10  11
BRANCH   4  15
HETATM   15  O1  UNL     1      18.613  28.956   7.696  1.00  0.00    -0.395 OA
ATOM     16  H1  UNL     1      18.941  28.386   7.011  1.00  0.00     0.210 HD
ENDBRANCH   4  15
TORSDOF 3
ENDMDL
MODEL 4
REMARK VINA RESULT: -5.976432289      2.034      5.391
REMARK  3 active torsions:
REMARK  status: ('A' for Active; 'I' for Inactive)
REMARK    1  A    between atoms: C4_4  and  O1_5 
REMARK    2  A    between atoms: C10_12  and  C11_13 
REMARK    3  A    between atoms: C11_13  and  O3_15 
ROOT
HETATM    1  C1  UNL     1      21.315  29.738   8.307  1.00  0.00     0.015 C 
HETATM    2  C2  UNL     1      21.885  29.823   9.527  1.00  0.00    -0.073 C 
HETATM    3  C3  UNL     1      22.639  31.135   9.534  1.00  0.00     0.065 C 
HETATM    4  C4  UNL     1      22.637  31.901  10.795  1.00  0.00     0.122 C 
HETATM    5  C5  UNL     1      23.676  31.694  11.847  1.00  0.00     0.036 C 
HETATM    6  C6  UNL     1      23.442  30.463  12.781  1.00  0.00    -0.016 C 
HETATM    7  C7  UNL     1      24.802  29.946  13.203  1.00  0.00     0.010 C 
HETATM    8  C8  UNL     1      22.751  29.560  11.953  1.00  0.00     0.005 C 
HETATM    9  C9  UNL     1      22.092  28.365  11.634  1.00  0.00     0.019 C 
HETATM   10  C10 UNL     1      21.497  28.597  10.242  1.00  0.00     0.114 C 
ENDROOT
BRANCH  10  11
HETATM   11  C11 UNL     1      20.030  28.482  10.380  1.00  0.00     0.266 C 
HETATM   12  O2  UNL     1      19.225  29.447  10.342  1.00  0.00    -0.265 OA
BRANCH  11  13
HETATM   13  O3  UNL     1      19.469  27.224  10.564  1.00  0.00    -0.326 OA
HETATM   14  C12 UNL     1      19.349  26.283   9.519  1.00  0.00     0.213 C 
ENDBRANCH  11  13
ENDBRANCH  10  11
BRANCH   4  15
HETATM   15  O1  UNL     1      22.928  33.252  10.384  1.00  0.00    -0.395 OA
ATOM     16  H1  UNL     1      23.874  33.314  10.448  1.00  0.00     0.210 HD
ENDBRANCH   4  15
TORSDOF 3
ENDMDL
MODEL 5
REMARK VINA RESULT: -5.820876176      1.908      5.210
REMARK  3 active torsions:
REMARK  status: ('A' for Active; 'I' for Inactive)
REMARK    1  A    between atoms: C4_4  and  O1_5 
REMARK    2  A    between atoms: C10_12  and  C11_13 
REMARK    3  A    between atoms: C11_13  and  O3_15 
ROOT
HETATM    1  C1  UNL     1      21.390  29.431   8.242  1.00  0.00     0.015 C 
HETATM    2  C2  UNL     1      21.936  29.581   9.468  1.00  0.00    -0.073 C 
HETATM    3  C3  UNL     1      22.543  30.967   9.475  1.00  0.00     0.065 C 
HETATM    4  C4  UNL     1      22.445  31.733  10.733  1.00  0.00     0.122 C 
HETATM    5  C5  UNL     1      23.490  31.643  11.796  1.00  0.00     0.036 C 
HETATM    6  C6  UNL     1      23.382  30.397  12.734  1.00  0.00    -0.016 C 
HETATM    7  C7  UNL     1      24.786  30.032  13.170  1.00  0.00     0.010 C 
HETATM    8  C8  UNL     1      22.801  29.422  11.903  1.00  0.00     0.005 C 
HETATM    9  C9  UNL     1      22.279  28.161  11.582  1.00  0.00     0.019 C 
HETATM   10  C10 UNL     1      21.676  28.322  10.184  1.00  0.00     0.114 C 
ENDROOT
BRANCH  10  11
HETATM   11  C11 UNL     1      20.229  28.049  10.308  1.00  0.00     0.266 C 
HETATM   12  O2  UNL     1      19.729  26.933  10.601  1.00  0.00    -0.265 OA
BRANCH  11  13
HETATM   13  O3  UNL     1      19.328  29.085  10.094  1.00  0.00    -0.326 OA
HETATM   14  C12 UNL     1      18.118  28.908   9.389  1.00  0.00     0.213 C 
ENDBRANCH  11  13
ENDBRANCH  10  11
BRANCH   4  15
HETATM   15  O1  UNL     1      22.593  33.106  10.319  1.00  0.00    -0.395 OA
ATOM     16  H1  UNL     1      21.756  33.318   9.922  1.00  0.00     0.210 HD
ENDBRANCH   4  15
TORSDOF 3
ENDMDL
