MODEL 1
REMARK VINA RESULT: -6.168154629      0.000      0.000
REMARK  4 active torsions:
REMARK  status: ('A' for Active; 'I' for Inactive)
REMARK    1  A    between atoms: C4_4  and  C5_5 
REMARK    2  A    between atoms: C5_5  and  C7_8 
REMARK    3  A    between atoms: C7_8  and  C8_13 
REMARK    4  A    between atoms: N2_9  and  O1_11 
ROOT
HETATM    1  C1  UNL     1      24.521  34.452  11.617  1.00  0.00     0.027 C 
HETATM    2  C2  UNL     1      24.018  33.355  11.656  1.00  0.00    -0.026 C 
HETATM    3  C3  UNL     1      23.448  32.060  11.706  1.00  0.00    -0.014 C 
HETATM    4  C4  UNL     1      22.980  30.943  11.745  1.00  0.00    -0.067 C 
ENDROOT
BRANCH   4   5
HETATM    5  C5  UNL     1      22.431  29.575  11.807  1.00  0.00     0.220 C 
HETATM    6  C6  UNL     1      23.368  28.679  12.496  1.00  0.00     0.082 C 
HETATM    7  N1  UNL     1      24.125  27.985  13.053  1.00  0.00    -0.196 NA
BRANCH   5   8
HETATM    8  C7  UNL     1      22.143  29.099  10.445  1.00  0.00     0.043 C 
HETATM    9  N2  UNL     1      23.060  29.283   9.555  1.00  0.00    -0.275 N 
ATOM     10  H2  UNL     1      23.926  29.743   9.839  1.00  0.00     0.193 HD
BRANCH   9  11
HETATM   11  O1  UNL     1      22.932  28.897   8.268  1.00  0.00    -0.290 OA
ATOM     12  H1  UNL     1      22.259  28.297   7.969  1.00  0.00     0.244 HD
ENDBRANCH   9  11
BRANCH   8  13
HETATM   13  C8  UNL     1      20.919  28.439  10.008  1.00  0.00     0.035 C 
HETATM   14  C9  UNL     1      20.465  27.262  10.819  1.00  0.00     0.010 C 
HETATM   15  C10 UNL     1      19.476  26.495   9.923  1.00  0.00     0.001 C 
HETATM   16  C11 UNL     1      18.726  27.411   9.008  1.00  0.00     0.000 C 
HETATM   17  C12 UNL     1      18.451  28.703   9.770  1.00  0.00     0.001 C 
HETATM   18  C13 UNL     1      19.763  29.453   9.905  1.00  0.00     0.010 C 
ENDBRANCH   8  13
ENDBRANCH   5   8
ENDBRANCH   4   5
TORSDOF 4
ENDMDL
MODEL 2
REMARK VINA RESULT: -5.747329999      2.219      3.024
REMARK  4 active torsions:
REMARK  status: ('A' for Active; 'I' for Inactive)
REMARK    1  A    between atoms: C4_4  and  C5_5 
REMARK    2  A    between atoms: C5_5  and  C7_8 
REMARK    3  A    between atoms: C7_8  and  C8_13 
REMARK    4  A    between atoms: N2_9  and  O1_11 
ROOT
HETATM    1  C1  UNL     1      25.958  31.192  15.090  1.00  0.00     0.027 C 
HETATM    2  C2  UNL     1      25.298  30.916  14.117  1.00  0.00    -0.026 C 
HETATM    3  C3  UNL     1      24.521  30.614  12.972  1.00  0.00    -0.014 C 
HETATM    4  C4  UNL     1      23.848  30.376  11.993  1.00  0.00    -0.067 C 
ENDROOT
BRANCH   4   5
HETATM    5  C5  UNL     1      23.035  30.109  10.791  1.00  0.00     0.220 C 
HETATM    6  C6  UNL     1      22.259  31.301  10.426  1.00  0.00     0.082 C 
HETATM    7  N1  UNL     1      21.656  32.262  10.149  1.00  0.00    -0.196 NA
BRANCH   5   8
HETATM    8  C7  UNL     1      22.155  28.956  11.039  1.00  0.00     0.043 C 
HETATM    9  N2  UNL     1      22.547  28.101  11.924  1.00  0.00    -0.275 N 
ATOM     10  H2  UNL     1      23.435  28.267  12.398  1.00  0.00     0.193 HD
BRANCH   9  11
HETATM   11  O1  UNL     1      21.842  26.998  12.251  1.00  0.00    -0.290 OA
ATOM     12  H1  UNL     1      21.143  26.999  12.894  1.00  0.00     0.244 HD
ENDBRANCH   9  11
BRANCH   8  13
HETATM   13  C8  UNL     1      20.883  28.690  10.379  1.00  0.00     0.035 C 
HETATM   14  C9  UNL     1      20.785  29.074   8.933  1.00  0.00     0.010 C 
HETATM   15  C10 UNL     1      19.280  29.130   8.617  1.00  0.00     0.001 C 
HETATM   16  C11 UNL     1      18.502  28.145   9.431  1.00  0.00     0.000 C 
HETATM   17  C12 UNL     1      19.356  26.890   9.578  1.00  0.00     0.001 C 
HETATM   18  C13 UNL     1      20.492  27.208  10.532  1.00  0.00     0.010 C 
ENDBRANCH   8  13
ENDBRANCH   5   8
ENDBRANCH   4   5
TORSDOF 4
ENDMDL
MODEL 3
REMARK VINA RESULT: -5.741115990      2.563      3.574
REMARK  4 active torsions:
REMARK  status: ('A' for Active; 'I' for Inactive)
REMARK    1  A    between atoms: C4_4  and  C5_5 
REMARK    2  A    between atoms: C5_5  and  C7_8 
REMARK    3  A    between atoms: C7_8  and  C8_13 
REMARK    4  A    between atoms: N2_9  and  O1_11 
ROOT
HETATM    1  C1  UNL     1      27.024  29.722  15.945  1.00  0.00     0.027 C 
HETATM    2  C2  UNL     1      26.321  29.829  14.968  1.00  0.00    -0.026 C 
HETATM    3  C3  UNL     1      25.514  29.968  13.814  1.00  0.00    -0.014 C 
HETATM    4  C4  UNL     1      24.833  30.105  12.820  1.00  0.00    -0.067 C 
ENDROOT
BRANCH   4   5
HETATM    5  C5  UNL     1      24.027  30.279  11.598  1.00  0.00     0.220 C 
HETATM    6  C6  UNL     1      23.420  31.615  11.572  1.00  0.00     0.082 C 
HETATM    7  N1  UNL     1      22.951  32.686  11.569  1.00  0.00    -0.196 NA
BRANCH   5   8
HETATM    8  C7  UNL     1      23.001  29.227  11.531  1.00  0.00     0.043 C 
HETATM    9  N2  UNL     1      23.114  28.246  12.365  1.00  0.00    -0.275 N 
ATOM     10  H2  UNL     1      23.899  28.253  13.017  1.00  0.00     0.193 HD
BRANCH   9  11
HETATM   11  O1  UNL     1      22.247  27.214  12.416  1.00  0.00    -0.290 OA
ATOM     12  H1  UNL     1      21.884  26.878  13.227  1.00  0.00     0.244 HD
ENDBRANCH   9  11
BRANCH   8  13
HETATM   13  C8  UNL     1      21.870  29.187  10.613  1.00  0.00     0.035 C 
HETATM   14  C9  UNL     1      20.706  30.073  10.943  1.00  0.00     0.010 C 
HETATM   15  C10 UNL     1      19.519  29.522  10.134  1.00  0.00     0.001 C 
HETATM   16  C11 UNL     1      19.960  28.914   8.840  1.00  0.00     0.000 C 
HETATM   17  C12 UNL     1      21.115  29.754   8.305  1.00  0.00     0.001 C 
HETATM   18  C13 UNL     1      22.330  29.481   9.172  1.00  0.00     0.010 C 
ENDBRANCH   8  13
ENDBRANCH   5   8
ENDBRANCH   4   5
TORSDOF 4
ENDMDL
MODEL 4
REMARK VINA RESULT: -5.726113262      0.612      1.417
REMARK  4 active torsions:
REMARK  status: ('A' for Active; 'I' for Inactive)
REMARK    1  A    between atoms: C4_4  and  C5_5 
REMARK    2  A    between atoms: C5_5  and  C7_8 
REMARK    3  A    between atoms: C7_8  and  C8_13 
REMARK    4  A    between atoms: N2_9  and  O1_11 
ROOT
HETATM    1  C1  UNL     1      24.528  34.549  11.574  1.00  0.00     0.027 C 
HETATM    2  C2  UNL     1      24.056  33.439  11.633  1.00  0.00    -0.026 C 
HETATM    3  C3  UNL     1      23.509  32.137  11.723  1.00  0.00    -0.014 C 
HETATM    4  C4  UNL     1      23.051  31.018  11.819  1.00  0.00    -0.067 C 
ENDROOT
BRANCH   4   5
HETATM    5  C5  UNL     1      22.493  29.661  11.961  1.00  0.00     0.220 C 
HETATM    6  C6  UNL     1      23.479  28.765  12.577  1.00  0.00     0.082 C 
HETATM    7  N1  UNL     1      24.276  28.070  13.074  1.00  0.00    -0.196 NA
BRANCH   5   8
HETATM    8  C7  UNL     1      22.070  29.162  10.643  1.00  0.00     0.043 C 
HETATM    9  N2  UNL     1      23.004  28.798   9.828  1.00  0.00    -0.275 N 
ATOM     10  H2  UNL     1      23.973  28.875  10.137  1.00  0.00     0.193 HD
BRANCH   9  11
HETATM   11  O1  UNL     1      22.762  28.323   8.589  1.00  0.00    -0.290 OA
ATOM     12  H1  UNL     1      23.072  28.747   7.798  1.00  0.00     0.244 HD
ENDBRANCH   9  11
BRANCH   8  13
HETATM   13  C8  UNL     1      20.696  29.041  10.172  1.00  0.00     0.035 C 
HETATM   14  C9  UNL     1      20.376  29.697   8.862  1.00  0.00     0.010 C 
HETATM   15  C10 UNL     1      18.843  29.828   8.825  1.00  0.00     0.001 C 
HETATM   16  C11 UNL     1      18.169  28.712   9.560  1.00  0.00     0.000 C 
HETATM   17  C12 UNL     1      18.982  27.444   9.319  1.00  0.00     0.001 C 
HETATM   18  C13 UNL     1      20.273  27.561  10.107  1.00  0.00     0.010 C 
ENDBRANCH   8  13
ENDBRANCH   5   8
ENDBRANCH   4   5
TORSDOF 4
ENDMDL
MODEL 5
REMARK VINA RESULT: -5.622771323      1.000      1.025
REMARK  4 active torsions:
REMARK  status: ('A' for Active; 'I' for Inactive)
REMARK    1  A    between atoms: C4_4  and  C5_5 
REMARK    2  A    between atoms: C5_5  and  C7_8 
REMARK    3  A    between atoms: C7_8  and  C8_13 
REMARK    4  A    between atoms: N2_9  and  O1_11 
ROOT
HETATM    1  C1  UNL     1      24.957  35.042  11.598  1.00  0.00     0.027 C 
HETATM    2  C2  UNL     1      24.318  34.017  11.600  1.00  0.00    -0.026 C 
HETATM    3  C3  UNL     1      23.585  32.806  11.615  1.00  0.00    -0.014 C 
HETATM    4  C4  UNL     1      22.976  31.758  11.632  1.00  0.00    -0.067 C 
ENDROOT
BRANCH   4   5
HETATM    5  C5  UNL     1      22.248  30.476  11.675  1.00  0.00     0.220 C 
HETATM    6  C6  UNL     1      23.132  29.403  12.147  1.00  0.00     0.082 C 
HETATM    7  N1  UNL     1      23.850  28.565  12.530  1.00  0.00    -0.196 NA
BRANCH   5   8
HETATM    8  C7  UNL     1      21.707  30.173  10.341  1.00  0.00     0.043 C 
HETATM    9  N2  UNL     1      22.081  30.938   9.370  1.00  0.00    -0.275 N 
ATOM     10  H2  UNL     1      22.724  31.703   9.576  1.00  0.00     0.193 HD
BRANCH   9  11
HETATM   11  O1  UNL     1      21.665  30.777   8.097  1.00  0.00    -0.290 OA
ATOM     12  H1  UNL     1      22.235  30.882   7.345  1.00  0.00     0.244 HD
ENDBRANCH   9  11
BRANCH   8  13
HETATM   13  C8  UNL     1      20.788  29.089  10.014  1.00  0.00     0.035 C 
HETATM   14  C9  UNL     1      20.720  27.951  10.986  1.00  0.00     0.010 C 
HETATM   15  C10 UNL     1      20.076  26.783  10.218  1.00  0.00     0.001 C 
HETATM   16  C11 UNL     1      19.100  27.263   9.190  1.00  0.00     0.000 C 
HETATM   17  C12 UNL     1      18.384  28.480   9.766  1.00  0.00     0.001 C 
HETATM   18  C13 UNL     1      19.367  29.635   9.780  1.00  0.00     0.010 C 
ENDBRANCH   8  13
ENDBRANCH   5   8
ENDBRANCH   4   5
TORSDOF 4
ENDMDL
