MODEL 1
REMARK VINA RESULT: -5.769424053      0.000      0.000
REMARK  1 active torsions:
REMARK  status: ('A' for Active; 'I' for Inactive)
REMARK    1  A    between atoms: C9_11  and  O2_13 
ROOT
HETATM    1  C1  UNL     1      20.012  26.835   9.662  1.00  0.00     0.046 C 
HETATM    2  C2  UNL     1      19.681  28.263   9.807  1.00  0.00     0.061 C 
HETATM    3  C3  UNL     1      18.167  28.436  10.017  1.00  0.00     0.046 C 
HETATM    4  O1  UNL     1      20.037  29.101   8.720  1.00  0.00    -0.365 OA
HETATM    5  C4  UNL     1      21.172  29.477   9.401  1.00  0.00     0.105 C 
HETATM    6  C5  UNL     1      22.365  28.666   9.049  1.00  0.00     0.051 C 
HETATM    7  C6  UNL     1      20.454  29.132  10.684  1.00  0.00     0.058 C 
HETATM    8  C7  UNL     1      21.375  28.625  11.707  1.00  0.00     0.021 C 
HETATM    9  C8  UNL     1      22.362  29.688  12.098  1.00  0.00     0.077 C 
HETATM   10  S1  UNL     1      22.398  31.119  11.053  1.00  0.00    -0.129 SA
HETATM   11  C9  UNL     1      21.494  30.929   9.489  1.00  0.00     0.133 C 
HETATM   12  C10 UNL     1      20.273  31.815   9.587  1.00  0.00     0.061 C 
ENDROOT
BRANCH  11  13
HETATM   13  O2  UNL     1      22.299  31.372   8.436  1.00  0.00    -0.377 OA
ATOM     14  H2  UNL     1      22.181  32.294   8.244  1.00  0.00     0.211 HD
ENDBRANCH  11  13
TORSDOF 1
ENDMDL
MODEL 2
REMARK VINA RESULT: -4.304077357      1.971      3.376
REMARK  1 active torsions:
REMARK  status: ('A' for Active; 'I' for Inactive)
REMARK    1  A    between atoms: C9_11  and  O2_13 
ROOT
HETATM    1  C1  UNL     1      21.083  30.750   7.948  1.00  0.00     0.046 C 
HETATM    2  C2  UNL     1      20.995  30.695   9.417  1.00  0.00     0.061 C 
HETATM    3  C3  UNL     1      20.328  31.973   9.954  1.00  0.00     0.046 C 
HETATM    4  O1  UNL     1      22.223  30.558  10.112  1.00  0.00    -0.365 OA
HETATM    5  C4  UNL     1      21.990  29.206  10.225  1.00  0.00     0.105 C 
HETATM    6  C5  UNL     1      22.618  28.408   9.141  1.00  0.00     0.051 C 
HETATM    7  C6  UNL     1      20.514  29.503  10.101  1.00  0.00     0.058 C 
HETATM    8  C7  UNL     1      19.795  28.422   9.418  1.00  0.00     0.021 C 
HETATM    9  C8  UNL     1      19.861  27.155  10.224  1.00  0.00     0.077 C 
HETATM   10  S1  UNL     1      21.011  27.168  11.573  1.00  0.00    -0.129 SA
HETATM   11  C9  UNL     1      22.169  28.567  11.559  1.00  0.00     0.133 C 
HETATM   12  C10 UNL     1      21.779  29.461  12.714  1.00  0.00     0.061 C 
ENDROOT
BRANCH  11  13
HETATM   13  O2  UNL     1      23.467  28.092  11.763  1.00  0.00    -0.377 OA
ATOM     14  H2  UNL     1      23.789  28.265  12.640  1.00  0.00     0.211 HD
ENDBRANCH  11  13
TORSDOF 1
ENDMDL
MODEL 3
REMARK VINA RESULT: -4.284171900      2.093      3.864
REMARK  1 active torsions:
REMARK  status: ('A' for Active; 'I' for Inactive)
REMARK    1  A    between atoms: C9_11  and  O2_13 
ROOT
HETATM    1  C1  UNL     1      23.657  30.927  12.450  1.00  0.00     0.046 C 
HETATM    2  C2  UNL     1      22.806  31.453  11.369  1.00  0.00     0.061 C 
HETATM    3  C3  UNL     1      23.222  32.893  11.023  1.00  0.00     0.046 C 
HETATM    4  O1  UNL     1      21.413  31.486  11.629  1.00  0.00    -0.365 OA
HETATM    5  C4  UNL     1      21.270  30.310  10.929  1.00  0.00     0.105 C 
HETATM    6  C5  UNL     1      21.312  29.102  11.792  1.00  0.00     0.051 C 
HETATM    7  C6  UNL     1      22.530  30.666  10.175  1.00  0.00     0.058 C 
HETATM    8  C7  UNL     1      23.300  29.474   9.804  1.00  0.00     0.021 C 
HETATM    9  C8  UNL     1      22.516  28.618   8.850  1.00  0.00     0.077 C 
HETATM   10  S1  UNL     1      20.806  29.048   8.666  1.00  0.00    -0.129 SA
HETATM   11  C9  UNL     1      20.191  30.223   9.906  1.00  0.00     0.133 C 
HETATM   12  C10 UNL     1      19.941  31.525   9.179  1.00  0.00     0.061 C 
ENDROOT
BRANCH  11  13
HETATM   13  O2  UNL     1      18.984  29.750  10.428  1.00  0.00    -0.377 OA
ATOM     14  H2  UNL     1      18.280  29.751   9.791  1.00  0.00     0.211 HD
ENDBRANCH  11  13
TORSDOF 1
ENDMDL
MODEL 4
REMARK VINA RESULT: -4.261204083      1.902      3.242
REMARK  1 active torsions:
REMARK  status: ('A' for Active; 'I' for Inactive)
REMARK    1  A    between atoms: C9_11  and  O2_13 
ROOT
HETATM    1  C1  UNL     1      23.390  29.274  10.636  1.00  0.00     0.046 C 
HETATM    2  C2  UNL     1      21.975  28.955  10.894  1.00  0.00     0.061 C 
HETATM    3  C3  UNL     1      21.820  28.337  12.294  1.00  0.00     0.046 C 
HETATM    4  O1  UNL     1      21.361  28.057   9.985  1.00  0.00    -0.365 OA
HETATM    5  C4  UNL     1      20.814  29.129   9.319  1.00  0.00     0.105 C 
HETATM    6  C5  UNL     1      21.635  29.590   8.170  1.00  0.00     0.051 C 
HETATM    7  C6  UNL     1      20.920  29.916  10.604  1.00  0.00     0.058 C 
HETATM    8  C7  UNL     1      21.176  31.339  10.355  1.00  0.00     0.021 C 
HETATM    9  C8  UNL     1      20.021  31.961   9.623  1.00  0.00     0.077 C 
HETATM   10  S1  UNL     1      18.829  30.823   8.969  1.00  0.00    -0.129 SA
HETATM   11  C9  UNL     1      19.363  29.088   8.982  1.00  0.00     0.133 C 
HETATM   12  C10 UNL     1      18.522  28.385  10.024  1.00  0.00     0.061 C 
ENDROOT
BRANCH  11  13
HETATM   13  O2  UNL     1      19.113  28.520   7.730  1.00  0.00    -0.377 OA
ATOM     14  H2  UNL     1      19.769  28.750   7.083  1.00  0.00     0.211 HD
ENDBRANCH  11  13
TORSDOF 1
ENDMDL
MODEL 5
REMARK VINA RESULT: -4.091872636      2.116      4.028
REMARK  1 active torsions:
REMARK  status: ('A' for Active; 'I' for Inactive)
REMARK    1  A    between atoms: C9_11  and  O2_13 
ROOT
HETATM    1  C1  UNL     1      23.737  31.840  10.938  1.00  0.00     0.046 C 
HETATM    2  C2  UNL     1      22.980  30.752  11.582  1.00  0.00     0.061 C 
HETATM    3  C3  UNL     1      23.150  30.824  13.110  1.00  0.00     0.046 C 
HETATM    4  O1  UNL     1      23.331  29.434  11.198  1.00  0.00    -0.365 OA
HETATM    5  C4  UNL     1      22.266  29.420  10.327  1.00  0.00     0.105 C 
HETATM    6  C5  UNL     1      22.629  29.823   8.945  1.00  0.00     0.051 C 
HETATM    7  C6  UNL     1      21.605  30.460  11.201  1.00  0.00     0.058 C 
HETATM    8  C7  UNL     1      20.776  31.384  10.420  1.00  0.00     0.021 C 
HETATM    9  C8  UNL     1      19.634  30.649   9.776  1.00  0.00     0.077 C 
HETATM   10  S1  UNL     1      19.738  28.880   9.830  1.00  0.00    -0.129 SA
HETATM   11  C9  UNL     1      21.358  28.238  10.340  1.00  0.00     0.133 C 
HETATM   12  C10 UNL     1      21.170  27.635  11.714  1.00  0.00     0.061 C 
ENDROOT
BRANCH  11  13
HETATM   13  O2  UNL     1      21.758  27.238   9.450  1.00  0.00    -0.377 OA
ATOM     14  H2  UNL     1      22.301  26.575   9.859  1.00  0.00     0.211 HD
ENDBRANCH  11  13
TORSDOF 1
ENDMDL
