MODEL 1
REMARK VINA RESULT: -6.227501713      0.000      0.000
REMARK  2 active torsions:
REMARK  status: ('A' for Active; 'I' for Inactive)
REMARK    1  A    between atoms: C2_2  and  C3_3 
REMARK    2  A    between atoms: C3_3  and  C5_5 
ROOT
HETATM    1  C5  UNL     1      14.960  -7.791  -8.443  1.00  0.00     0.004 C 
HETATM    2  C6  UNL     1      15.915  -6.846  -9.159  1.00  0.00     0.046 C 
HETATM    3  C7  UNL     1      16.351  -5.714  -8.292  1.00  0.00     0.098 C 
HETATM    4  C8  UNL     1      16.319  -4.377  -8.917  1.00  0.00     0.049 C 
HETATM    5  C9  UNL     1      15.619  -5.692  -6.956  1.00  0.00     0.113 C 
HETATM    6  C10 UNL     1      16.190  -7.002  -6.433  1.00  0.00     0.265 C 
HETATM    7  N1  UNL     1      16.058  -7.090  -5.011  1.00  0.00    -0.039 N 
ATOM      8  H11 UNL     1      15.101  -6.897  -4.716  1.00  0.00     0.281 HD
ATOM      9  H12 UNL     1      16.528  -6.312  -4.547  1.00  0.00     0.281 HD
HETATM   10  C11 UNL     1      16.513  -8.347  -4.504  1.00  0.00     0.236 C 
HETATM   11  C12 UNL     1      16.043  -9.536  -5.239  1.00  0.00     0.028 C 
HETATM   12  C13 UNL     1      15.949  -9.386  -6.740  1.00  0.00     0.011 C 
HETATM   13  C14 UNL     1      15.301  -8.090  -7.036  1.00  0.00     0.057 C 
HETATM   14  O1  UNL     1      17.463  -7.003  -6.926  1.00  0.00    -0.199 OA
HETATM   15  O2  UNL     1      17.630  -6.069  -7.797  1.00  0.00    -0.227 OA
ENDROOT
BRANCH   1  16
HETATM   16  C3  UNL     1      14.536  -8.927  -9.307  1.00  0.00     0.008 C 
HETATM   17  C4  UNL     1      14.468  -8.633 -10.779  1.00  0.00     0.014 C 
BRANCH  16  18
HETATM   18  C2  UNL     1      13.116  -9.288  -8.909  1.00  0.00    -0.032 C 
HETATM   19  C1  UNL     1      12.768 -10.475  -8.457  1.00  0.00     0.007 C 
ENDBRANCH  16  18
ENDBRANCH   1  16
TORSDOF 2
ENDMDL
MODEL 2
REMARK VINA RESULT: -6.127764977      2.928      5.492
REMARK  2 active torsions:
REMARK  status: ('A' for Active; 'I' for Inactive)
REMARK    1  A    between atoms: C2_2  and  C3_3 
REMARK    2  A    between atoms: C3_3  and  C5_5 
ROOT
HETATM    1  C5  UNL     1      14.955  -8.605  -8.045  1.00  0.00     0.004 C 
HETATM    2  C6  UNL     1      15.307  -9.904  -7.333  1.00  0.00     0.046 C 
HETATM    3  C7  UNL     1      14.178 -10.878  -7.337  1.00  0.00     0.098 C 
HETATM    4  C8  UNL     1      13.899 -11.543  -6.048  1.00  0.00     0.049 C 
HETATM    5  C9  UNL     1      12.901 -10.283  -7.915  1.00  0.00     0.113 C 
HETATM    6  C10 UNL     1      13.432 -10.091  -9.327  1.00  0.00     0.265 C 
HETATM    7  N1  UNL     1      12.360  -9.951 -10.265  1.00  0.00    -0.039 N 
ATOM      8  H11 UNL     1      11.695  -9.240  -9.963  1.00  0.00     0.281 HD
ATOM      9  H12 UNL     1      11.745 -10.764 -10.248  1.00  0.00     0.281 HD
HETATM   10  C11 UNL     1      12.833  -9.688 -11.589  1.00  0.00     0.236 C 
HETATM   11  C12 UNL     1      13.883  -8.657 -11.696  1.00  0.00     0.028 C 
HETATM   12  C13 UNL     1      14.900  -8.636 -10.578  1.00  0.00     0.011 C 
HETATM   13  C14 UNL     1      14.178  -8.757  -9.293  1.00  0.00     0.057 C 
HETATM   14  O1  UNL     1      14.251 -11.170  -9.498  1.00  0.00    -0.199 OA
HETATM   15  O2  UNL     1      14.451 -11.789  -8.387  1.00  0.00    -0.227 OA
ENDROOT
BRANCH   1  16
HETATM   16  C3  UNL     1      16.087  -7.639  -8.050  1.00  0.00     0.008 C 
HETATM   17  C4  UNL     1      16.973  -7.669  -6.835  1.00  0.00     0.014 C 
BRANCH  16  18
HETATM   18  C2  UNL     1      15.489  -6.245  -8.069  1.00  0.00    -0.032 C 
HETATM   19  C1  UNL     1      16.148  -5.176  -8.465  1.00  0.00     0.007 C 
ENDBRANCH  16  18
ENDBRANCH   1  16
TORSDOF 2
ENDMDL
MODEL 3
REMARK VINA RESULT: -5.684658795      2.219      5.151
REMARK  2 active torsions:
REMARK  status: ('A' for Active; 'I' for Inactive)
REMARK    1  A    between atoms: C2_2  and  C3_3 
REMARK    2  A    between atoms: C3_3  and  C5_5 
ROOT
HETATM    1  C5  UNL     1      15.245  -5.733  -5.584  1.00  0.00     0.004 C 
HETATM    2  C6  UNL     1      16.074  -6.940  -5.168  1.00  0.00     0.046 C 
HETATM    3  C7  UNL     1      16.298  -7.891  -6.294  1.00  0.00     0.098 C 
HETATM    4  C8  UNL     1      16.089  -9.319  -5.980  1.00  0.00     0.049 C 
HETATM    5  C9  UNL     1      15.518  -7.503  -7.544  1.00  0.00     0.113 C 
HETATM    6  C10 UNL     1      16.258  -6.201  -7.803  1.00  0.00     0.265 C 
HETATM    7  N1  UNL     1      16.084  -5.771  -9.158  1.00  0.00    -0.039 N 
ATOM      8  H11 UNL     1      15.098  -5.756  -9.416  1.00  0.00     0.281 HD
ATOM      9  H12 UNL     1      16.412  -6.478  -9.815  1.00  0.00     0.281 HD
HETATM   10  C11 UNL     1      16.703  -4.506  -9.405  1.00  0.00     0.236 C 
HETATM   11  C12 UNL     1      16.449  -3.464  -8.392  1.00  0.00     0.028 C 
HETATM   12  C13 UNL     1      16.395  -3.941  -6.959  1.00  0.00     0.011 C 
HETATM   13  C14 UNL     1      15.570  -5.168  -6.910  1.00  0.00     0.057 C 
HETATM   14  O1  UNL     1      17.536  -6.489  -7.419  1.00  0.00    -0.199 OA
HETATM   15  O2  UNL     1      17.595  -7.612  -6.791  1.00  0.00    -0.227 OA
ENDROOT
BRANCH   1  16
HETATM   16  C3  UNL     1      15.033  -4.779  -4.461  1.00  0.00     0.008 C 
HETATM   17  C4  UNL     1      15.269  -5.334  -3.084  1.00  0.00     0.014 C 
BRANCH  16  18
HETATM   18  C2  UNL     1      13.569  -4.379  -4.481  1.00  0.00    -0.032 C 
HETATM   19  C1  UNL     1      13.141  -3.174  -4.169  1.00  0.00     0.007 C 
ENDBRANCH  16  18
ENDBRANCH   1  16
TORSDOF 2
ENDMDL
MODEL 4
REMARK VINA RESULT: -5.229428307      2.740      3.907
REMARK  2 active torsions:
REMARK  status: ('A' for Active; 'I' for Inactive)
REMARK    1  A    between atoms: C2_2  and  C3_3 
REMARK    2  A    between atoms: C3_3  and  C5_5 
ROOT
HETATM    1  C5  UNL     1      15.990  -7.610  -4.950  1.00  0.00     0.004 C 
HETATM    2  C6  UNL     1      15.901  -6.162  -5.412  1.00  0.00     0.046 C 
HETATM    3  C7  UNL     1      15.435  -5.248  -4.331  1.00  0.00     0.098 C 
HETATM    4  C8  UNL     1      14.394  -4.274  -4.718  1.00  0.00     0.049 C 
HETATM    5  C9  UNL     1      15.015  -6.002  -3.075  1.00  0.00     0.113 C 
HETATM    6  C10 UNL     1      16.395  -6.547  -2.741  1.00  0.00     0.265 C 
HETATM    7  N1  UNL     1      16.470  -6.952  -1.370  1.00  0.00    -0.039 N 
ATOM      8  H11 UNL     1      15.699  -7.572  -1.125  1.00  0.00     0.281 HD
ATOM      9  H12 UNL     1      16.258  -6.176  -0.743  1.00  0.00     0.281 HD
HETATM   10  C11 UNL     1      17.732  -7.544  -1.051  1.00  0.00     0.236 C 
HETATM   11  C12 UNL     1      18.227  -8.544  -2.016  1.00  0.00     0.028 C 
HETATM   12  C13 UNL     1      17.947  -8.249  -3.471  1.00  0.00     0.011 C 
HETATM   13  C14 UNL     1      16.540  -7.809  -3.592  1.00  0.00     0.057 C 
HETATM   14  O1  UNL     1      17.228  -5.534  -3.121  1.00  0.00    -0.199 OA
HETATM   15  O2  UNL     1      16.600  -4.640  -3.802  1.00  0.00    -0.227 OA
ENDROOT
BRANCH   1  16
HETATM   16  C3  UNL     1      16.467  -8.519  -6.027  1.00  0.00     0.008 C 
HETATM   17  C4  UNL     1      16.113  -8.107  -7.429  1.00  0.00     0.014 C 
BRANCH  16  18
HETATM   18  C2  UNL     1      15.780  -9.857  -5.823  1.00  0.00    -0.032 C 
HETATM   19  C1  UNL     1      15.383 -10.629  -6.814  1.00  0.00     0.007 C 
ENDBRANCH  16  18
ENDBRANCH   1  16
TORSDOF 2
ENDMDL
MODEL 5
REMARK VINA RESULT: -5.132568654      3.083      5.551
REMARK  2 active torsions:
REMARK  status: ('A' for Active; 'I' for Inactive)
REMARK    1  A    between atoms: C2_2  and  C3_3 
REMARK    2  A    between atoms: C3_3  and  C5_5 
ROOT
HETATM    1  C5  UNL     1      14.539  -5.021  -4.269  1.00  0.00     0.004 C 
HETATM    2  C6  UNL     1      15.440  -5.000  -3.042  1.00  0.00     0.046 C 
HETATM    3  C7  UNL     1      16.191  -6.275  -2.865  1.00  0.00     0.098 C 
HETATM    4  C8  UNL     1      16.206  -6.827  -1.496  1.00  0.00     0.049 C 
HETATM    5  C9  UNL     1      15.762  -7.343  -3.864  1.00  0.00     0.113 C 
HETATM    6  C10 UNL     1      16.252  -6.615  -5.106  1.00  0.00     0.265 C 
HETATM    7  N1  UNL     1      16.407  -7.519  -6.205  1.00  0.00    -0.039 N 
ATOM      8  H11 UNL     1      15.566  -8.078  -6.345  1.00  0.00     0.281 HD
ATOM      9  H12 UNL     1      17.062  -8.268  -5.977  1.00  0.00     0.281 HD
HETATM   10  C11 UNL     1      16.789  -6.846  -7.407  1.00  0.00     0.236 C 
HETATM   11  C12 UNL     1      16.025  -5.623  -7.721  1.00  0.00     0.028 C 
HETATM   12  C13 UNL     1      15.642  -4.766  -6.537  1.00  0.00     0.011 C 
HETATM   13  C14 UNL     1      15.122  -5.651  -5.472  1.00  0.00     0.057 C 
HETATM   14  O1  UNL     1      17.384  -5.988  -4.671  1.00  0.00    -0.199 OA
HETATM   15  O2  UNL     1      17.488  -6.043  -3.388  1.00  0.00    -0.227 OA
ENDROOT
BRANCH   1  16
HETATM   16  C3  UNL     1      13.800  -3.742  -4.450  1.00  0.00     0.008 C 
HETATM   17  C4  UNL     1      14.545  -2.499  -4.050  1.00  0.00     0.014 C 
BRANCH  16  18
HETATM   18  C2  UNL     1      12.590  -3.789  -3.535  1.00  0.00    -0.032 C 
HETATM   19  C1  UNL     1      11.356  -3.597  -3.952  1.00  0.00     0.007 C 
ENDBRANCH  16  18
ENDBRANCH   1  16
TORSDOF 2
ENDMDL
