MODEL 1
REMARK VINA RESULT: -6.701675833      0.000      0.000
REMARK  4 active torsions:
REMARK  status: ('A' for Active; 'I' for Inactive)
REMARK    1  A    between atoms: C6_9  and  C7_10 
REMARK    2  A    between atoms: N3_11  and  N4_13 
REMARK    3  A    between atoms: N4_13  and  C8_15 
REMARK    4  A    between atoms: C8_15  and  C10_17 
ROOT
HETATM    1  C7  UNL     1      14.533  -8.700  -8.640  1.00  0.00     0.122 C 
HETATM    2  N3  UNL     1      15.800  -8.649  -8.537  1.00  0.00    -0.315 N 
ATOM      3  H3  UNL     1      16.332  -9.409  -8.962  1.00  0.00     0.185 HD
ENDROOT
BRANCH   1   4
HETATM    4  C6  UNL     1      13.879  -9.783  -9.326  1.00  0.00     0.028 A 
HETATM    5  C2  UNL     1      13.555  -9.846 -10.687  1.00  0.00     0.035 A 
HETATM    6  C1  UNL     1      13.832  -8.784 -11.693  1.00  0.00     0.070 C 
HETATM    7  N1  UNL     1      12.956 -11.034 -10.885  1.00  0.00    -0.302 N 
HETATM    8  N2  UNL     1      12.879 -11.714  -9.774  1.00  0.00    -0.300 N 
ATOM      9  H1  UNL     1      12.608 -11.361 -11.786  1.00  0.00     0.186 HD
HETATM   10  C3  UNL     1      12.301 -13.049  -9.569  1.00  0.00     0.177 C 
HETATM   11  C4  UNL     1      13.432 -10.987  -8.791  1.00  0.00     0.037 A 
HETATM   12  C5  UNL     1      13.578 -11.350  -7.339  1.00  0.00     0.071 C 
ENDBRANCH   1   4
BRANCH   2  13
HETATM   13  N4  UNL     1      16.519  -7.656  -7.903  1.00  0.00    -0.332 N 
ATOM     14  H4  UNL     1      17.341  -7.250  -8.350  1.00  0.00     0.180 HD
BRANCH  13  15
HETATM   15  C8  UNL     1      16.099  -7.198  -6.604  1.00  0.00     0.102 C 
HETATM   16  C9  UNL     1      17.027  -7.822  -5.583  1.00  0.00     0.034 C 
BRANCH  15  17
HETATM   17  C10 UNL     1      16.168  -5.695  -6.471  1.00  0.00    -0.030 C 
HETATM   18  C11 UNL     1      16.086  -5.046  -7.856  1.00  0.00     0.016 C 
HETATM   19  C12 UNL     1      17.504  -5.279  -5.894  1.00  0.00     0.016 C 
HETATM   20  C13 UNL     1      15.045  -5.144  -5.652  1.00  0.00     0.016 C 
ENDBRANCH  15  17
ENDBRANCH  13  15
ENDBRANCH   2  13
TORSDOF 4
ENDMDL
MODEL 2
REMARK VINA RESULT: -6.681965064      0.056      1.033
REMARK  4 active torsions:
REMARK  status: ('A' for Active; 'I' for Inactive)
REMARK    1  A    between atoms: C6_9  and  C7_10 
REMARK    2  A    between atoms: N3_11  and  N4_13 
REMARK    3  A    between atoms: N4_13  and  C8_15 
REMARK    4  A    between atoms: C8_15  and  C10_17 
ROOT
HETATM    1  C7  UNL     1      14.539  -8.664  -8.644  1.00  0.00     0.122 C 
HETATM    2  N3  UNL     1      15.807  -8.608  -8.546  1.00  0.00    -0.315 N 
ATOM      3  H3  UNL     1      16.339  -9.370  -8.968  1.00  0.00     0.185 HD
ENDROOT
BRANCH   1   4
HETATM    4  C6  UNL     1      13.885  -9.753  -9.321  1.00  0.00     0.028 A 
HETATM    5  C2  UNL     1      13.561  -9.827 -10.681  1.00  0.00     0.035 A 
HETATM    6  C1  UNL     1      13.838  -8.773 -11.696  1.00  0.00     0.070 C 
HETATM    7  N1  UNL     1      12.964 -11.017 -10.869  1.00  0.00    -0.302 N 
HETATM    8  N2  UNL     1      12.887 -11.688  -9.753  1.00  0.00    -0.300 N 
ATOM      9  H1  UNL     1      12.615 -11.351 -11.768  1.00  0.00     0.186 HD
HETATM   10  C3  UNL     1      12.310 -13.021  -9.538  1.00  0.00     0.177 C 
HETATM   11  C4  UNL     1      13.439 -10.953  -8.776  1.00  0.00     0.037 A 
HETATM   12  C5  UNL     1      13.585 -11.304  -7.322  1.00  0.00     0.071 C 
ENDBRANCH   1   4
BRANCH   2  13
HETATM   13  N4  UNL     1      16.525  -7.610  -7.920  1.00  0.00    -0.332 N 
ATOM     14  H4  UNL     1      17.346  -7.207  -8.372  1.00  0.00     0.180 HD
BRANCH  13  15
HETATM   15  C8  UNL     1      16.106  -7.143  -6.624  1.00  0.00     0.102 C 
HETATM   16  C9  UNL     1      17.054  -7.735  -5.602  1.00  0.00     0.034 C 
BRANCH  15  17
HETATM   17  C10 UNL     1      16.146  -5.637  -6.511  1.00  0.00    -0.030 C 
HETATM   18  C11 UNL     1      17.450  -5.202  -5.834  1.00  0.00     0.016 C 
HETATM   19  C12 UNL     1      15.029  -5.147  -5.616  1.00  0.00     0.016 C 
HETATM   20  C13 UNL     1      16.089  -4.965  -7.845  1.00  0.00     0.016 C 
ENDBRANCH  15  17
ENDBRANCH  13  15
ENDBRANCH   2  13
TORSDOF 4
ENDMDL
MODEL 3
REMARK VINA RESULT: -6.647374572      1.020      1.691
REMARK  4 active torsions:
REMARK  status: ('A' for Active; 'I' for Inactive)
REMARK    1  A    between atoms: C6_9  and  C7_10 
REMARK    2  A    between atoms: N3_11  and  N4_13 
REMARK    3  A    between atoms: N4_13  and  C8_15 
REMARK    4  A    between atoms: C8_15  and  C10_17 
ROOT
HETATM    1  C7  UNL     1      14.418  -8.512  -8.576  1.00  0.00     0.122 C 
HETATM    2  N3  UNL     1      15.673  -8.301  -8.561  1.00  0.00    -0.315 N 
ATOM      3  H3  UNL     1      16.262  -8.969  -9.059  1.00  0.00     0.185 HD
ENDROOT
BRANCH   1   4
HETATM    4  C6  UNL     1      13.854  -9.642  -9.265  1.00  0.00     0.028 A 
HETATM    5  C2  UNL     1      13.605  -9.753 -10.638  1.00  0.00     0.035 A 
HETATM    6  C1  UNL     1      13.881  -8.703 -11.656  1.00  0.00     0.070 C 
HETATM    7  N1  UNL     1      13.077 -10.975 -10.835  1.00  0.00    -0.302 N 
HETATM    8  N2  UNL     1      12.976 -11.632  -9.712  1.00  0.00    -0.300 N 
ATOM      9  H1  UNL     1      12.792 -11.340 -11.744  1.00  0.00     0.186 HD
HETATM   10  C3  UNL     1      12.454 -12.988  -9.502  1.00  0.00     0.177 C 
HETATM   11  C4  UNL     1      13.440 -10.854  -8.722  1.00  0.00     0.037 A 
HETATM   12  C5  UNL     1      13.528 -11.175  -7.256  1.00  0.00     0.071 C 
ENDBRANCH   1   4
BRANCH   2  13
HETATM   13  N4  UNL     1      16.308  -7.251  -7.931  1.00  0.00    -0.332 N 
ATOM     14  H4  UNL     1      16.091  -6.288  -8.192  1.00  0.00     0.180 HD
BRANCH  13  15
HETATM   15  C8  UNL     1      17.278  -7.523  -6.903  1.00  0.00     0.102 C 
HETATM   16  C9  UNL     1      18.336  -6.443  -6.984  1.00  0.00     0.034 C 
BRANCH  15  17
HETATM   17  C10 UNL     1      16.673  -7.510  -5.519  1.00  0.00    -0.030 C 
HETATM   18  C11 UNL     1      17.758  -7.209  -4.480  1.00  0.00     0.016 C 
HETATM   19  C12 UNL     1      16.131  -8.879  -5.169  1.00  0.00     0.016 C 
HETATM   20  C13 UNL     1      15.611  -6.469  -5.372  1.00  0.00     0.016 C 
ENDBRANCH  15  17
ENDBRANCH  13  15
ENDBRANCH   2  13
TORSDOF 4
ENDMDL
MODEL 4
REMARK VINA RESULT: -6.610104300      1.020      1.580
REMARK  4 active torsions:
REMARK  status: ('A' for Active; 'I' for Inactive)
REMARK    1  A    between atoms: C6_9  and  C7_10 
REMARK    2  A    between atoms: N3_11  and  N4_13 
REMARK    3  A    between atoms: N4_13  and  C8_15 
REMARK    4  A    between atoms: C8_15  and  C10_17 
ROOT
HETATM    1  C7  UNL     1      14.395  -8.509  -8.570  1.00  0.00     0.122 C 
HETATM    2  N3  UNL     1      15.651  -8.316  -8.510  1.00  0.00    -0.315 N 
ATOM      3  H3  UNL     1      16.249  -9.000  -8.976  1.00  0.00     0.185 HD
ENDROOT
BRANCH   1   4
HETATM    4  C6  UNL     1      13.842  -9.642  -9.265  1.00  0.00     0.028 A 
HETATM    5  C2  UNL     1      13.603  -9.754 -10.639  1.00  0.00     0.035 A 
HETATM    6  C1  UNL     1      13.883  -8.702 -11.655  1.00  0.00     0.070 C 
HETATM    7  N1  UNL     1      13.082 -10.978 -10.841  1.00  0.00    -0.302 N 
HETATM    8  N2  UNL     1      12.976 -11.635  -9.719  1.00  0.00    -0.300 N 
ATOM      9  H1  UNL     1      12.806 -11.344 -11.752  1.00  0.00     0.186 HD
HETATM   10  C3  UNL     1      12.459 -12.994  -9.513  1.00  0.00     0.177 C 
HETATM   11  C4  UNL     1      13.429 -10.856  -8.725  1.00  0.00     0.037 A 
HETATM   12  C5  UNL     1      13.507 -11.177  -7.258  1.00  0.00     0.071 C 
ENDBRANCH   1   4
BRANCH   2  13
HETATM   13  N4  UNL     1      16.277  -7.265  -7.872  1.00  0.00    -0.332 N 
ATOM     14  H4  UNL     1      16.028  -6.302  -8.103  1.00  0.00     0.180 HD
BRANCH  13  15
HETATM   15  C8  UNL     1      17.283  -7.537  -6.879  1.00  0.00     0.102 C 
HETATM   16  C9  UNL     1      18.313  -6.430  -6.965  1.00  0.00     0.034 C 
BRANCH  15  17
HETATM   17  C10 UNL     1      16.718  -7.570  -5.478  1.00  0.00    -0.030 C 
HETATM   18  C11 UNL     1      15.629  -6.503  -5.331  1.00  0.00     0.016 C 
HETATM   19  C12 UNL     1      17.790  -7.211  -4.471  1.00  0.00     0.016 C 
HETATM   20  C13 UNL     1      16.101  -8.890  -5.144  1.00  0.00     0.016 C 
ENDBRANCH  15  17
ENDBRANCH  13  15
ENDBRANCH   2  13
TORSDOF 4
ENDMDL
MODEL 5
REMARK VINA RESULT: -6.528834519      0.883      1.256
REMARK  4 active torsions:
REMARK  status: ('A' for Active; 'I' for Inactive)
REMARK    1  A    between atoms: C6_9  and  C7_10 
REMARK    2  A    between atoms: N3_11  and  N4_13 
REMARK    3  A    between atoms: N4_13  and  C8_15 
REMARK    4  A    between atoms: C8_15  and  C10_17 
ROOT
HETATM    1  C7  UNL     1      14.548  -8.676  -8.637  1.00  0.00     0.122 C 
HETATM    2  N3  UNL     1      15.775  -8.750  -8.303  1.00  0.00    -0.315 N 
ATOM      3  H3  UNL     1      16.269  -9.611  -8.538  1.00  0.00     0.185 HD
ENDROOT
BRANCH   1   4
HETATM    4  C6  UNL     1      13.889  -9.761  -9.316  1.00  0.00     0.028 A 
HETATM    5  C2  UNL     1      13.564  -9.829 -10.676  1.00  0.00     0.035 A 
HETATM    6  C1  UNL     1      13.844  -8.774 -11.688  1.00  0.00     0.070 C 
HETATM    7  N1  UNL     1      12.961 -11.016 -10.867  1.00  0.00    -0.302 N 
HETATM    8  N2  UNL     1      12.882 -11.690  -9.753  1.00  0.00    -0.300 N 
ATOM      9  H1  UNL     1      12.610 -11.346 -11.766  1.00  0.00     0.186 HD
HETATM   10  C3  UNL     1      12.299 -13.021  -9.540  1.00  0.00     0.177 C 
HETATM   11  C4  UNL     1      13.439 -10.960  -8.774  1.00  0.00     0.037 A 
HETATM   12  C5  UNL     1      13.584 -11.316  -7.321  1.00  0.00     0.071 C 
ENDBRANCH   1   4
BRANCH   2  13
HETATM   13  N4  UNL     1      16.494  -7.769  -7.652  1.00  0.00    -0.332 N 
ATOM     14  H4  UNL     1      17.180  -7.210  -8.161  1.00  0.00     0.180 HD
BRANCH  13  15
HETATM   15  C8  UNL     1      16.268  -7.539  -6.248  1.00  0.00     0.102 C 
HETATM   16  C9  UNL     1      16.379  -8.878  -5.549  1.00  0.00     0.034 C 
BRANCH  15  17
HETATM   17  C10 UNL     1      17.279  -6.591  -5.647  1.00  0.00    -0.030 C 
HETATM   18  C11 UNL     1      16.621  -5.235  -5.374  1.00  0.00     0.016 C 
HETATM   19  C12 UNL     1      18.396  -6.321  -6.632  1.00  0.00     0.016 C 
HETATM   20  C13 UNL     1      17.828  -7.092  -4.350  1.00  0.00     0.016 C 
ENDBRANCH  15  17
ENDBRANCH  13  15
ENDBRANCH   2  13
TORSDOF 4
ENDMDL
