MODEL 1
REMARK VINA RESULT: -4.050363072      0.000      0.000
REMARK  3 active torsions:
REMARK  status: ('A' for Active; 'I' for Inactive)
REMARK    1  A    between atoms: C2_2  and  N1_4 
REMARK    2  A    between atoms: N1_4  and  C4_6 
REMARK    3  A    between atoms: N2_11  and  O1_12 
ROOT
HETATM    1  C4  UNL     1      14.893  -8.805  -7.891  1.00  0.00     0.111 C 
HETATM    2  C5  UNL     1      14.233  -9.308  -9.151  1.00  0.00     0.054 C 
HETATM    3  C6  UNL     1      13.579 -10.574  -8.552  1.00  0.00     0.034 C 
HETATM    4  C7  UNL     1      12.153 -10.229  -8.171  1.00  0.00     0.034 C 
HETATM    5  C8  UNL     1      13.499 -11.658  -9.609  1.00  0.00     0.034 C 
HETATM    6  N2  UNL     1      14.373 -10.963  -7.429  1.00  0.00    -0.180 NA
HETATM    7  C9  UNL     1      15.486 -10.016  -7.310  1.00  0.00     0.052 C 
HETATM    8  C10 UNL     1      16.665 -10.611  -7.989  1.00  0.00     0.036 C 
HETATM    9  C11 UNL     1      15.818  -9.892  -5.835  1.00  0.00     0.036 C 
ENDROOT
BRANCH   1  10
HETATM   10  N1  UNL     1      15.619  -7.606  -7.964  1.00  0.00    -0.373 N 
HETATM   11  C3  UNL     1      15.806  -7.054  -9.341  1.00  0.00     0.150 C 
BRANCH  10  12
HETATM   12  C2  UNL     1      16.178  -6.818  -6.940  1.00  0.00     0.071 C 
HETATM   13  C1  UNL     1      15.291  -5.941  -6.131  1.00  0.00     0.081 C 
HETATM   14  S1  UNL     1      17.758  -6.767  -6.578  1.00  0.00    -0.066 SA
ENDBRANCH  10  12
ENDBRANCH   1  10
BRANCH   6  15
HETATM   15  O1  UNL     1      13.702 -11.093  -6.283  1.00  0.00    -0.311 OA
ATOM     16  H1  UNL     1      13.792 -10.364  -5.681  1.00  0.00     0.237 HD
ENDBRANCH   6  15
TORSDOF 3
ENDMDL
MODEL 2
REMARK VINA RESULT: -4.039588141      2.349      3.267
REMARK  3 active torsions:
REMARK  status: ('A' for Active; 'I' for Inactive)
REMARK    1  A    between atoms: C2_2  and  N1_4 
REMARK    2  A    between atoms: N1_4  and  C4_6 
REMARK    3  A    between atoms: N2_11  and  O1_12 
ROOT
HETATM    1  C4  UNL     1      15.486  -6.595  -6.601  1.00  0.00     0.111 C 
HETATM    2  C5  UNL     1      15.225  -6.392  -8.073  1.00  0.00     0.054 C 
HETATM    3  C6  UNL     1      15.336  -7.871  -8.511  1.00  0.00     0.034 C 
HETATM    4  C7  UNL     1      13.939  -8.456  -8.540  1.00  0.00     0.034 C 
HETATM    5  C8  UNL     1      15.872  -7.947  -9.926  1.00  0.00     0.034 C 
HETATM    6  N2  UNL     1      16.189  -8.522  -7.566  1.00  0.00    -0.180 NA
HETATM    7  C9  UNL     1      16.621  -7.527  -6.581  1.00  0.00     0.052 C 
HETATM    8  C10 UNL     1      17.950  -7.016  -7.001  1.00  0.00     0.036 C 
HETATM    9  C11 UNL     1      16.801  -8.248  -5.259  1.00  0.00     0.036 C 
ENDROOT
BRANCH   1  10
HETATM   10  N1  UNL     1      15.460  -5.466  -5.768  1.00  0.00    -0.373 N 
HETATM   11  C3  UNL     1      16.157  -4.258  -6.306  1.00  0.00     0.150 C 
BRANCH  10  12
HETATM   12  C2  UNL     1      14.854  -5.278  -4.510  1.00  0.00     0.071 C 
HETATM   13  C1  UNL     1      13.628  -4.443  -4.412  1.00  0.00     0.081 C 
HETATM   14  S1  UNL     1      15.415  -5.892  -3.119  1.00  0.00    -0.066 SA
ENDBRANCH  10  12
ENDBRANCH   1  10
BRANCH   6  15
HETATM   15  O1  UNL     1      15.666  -9.605  -6.989  1.00  0.00    -0.311 OA
ATOM     16  H1  UNL     1      15.573  -9.550  -6.045  1.00  0.00     0.237 HD
ENDBRANCH   6  15
TORSDOF 3
ENDMDL
MODEL 3
REMARK VINA RESULT: -3.973267780      2.712      4.857
REMARK  3 active torsions:
REMARK  status: ('A' for Active; 'I' for Inactive)
REMARK    1  A    between atoms: C2_2  and  N1_4 
REMARK    2  A    between atoms: N1_4  and  C4_6 
REMARK    3  A    between atoms: N2_11  and  O1_12 
ROOT
HETATM    1  C4  UNL     1      15.754  -8.153  -6.459  1.00  0.00     0.111 C 
HETATM    2  C5  UNL     1      16.561  -8.742  -5.328  1.00  0.00     0.054 C 
HETATM    3  C6  UNL     1      16.701  -7.457  -4.480  1.00  0.00     0.034 C 
HETATM    4  C7  UNL     1      15.598  -7.460  -3.440  1.00  0.00     0.034 C 
HETATM    5  C8  UNL     1      18.015  -7.483  -3.724  1.00  0.00     0.034 C 
HETATM    6  N2  UNL     1      16.609  -6.351  -5.381  1.00  0.00    -0.180 NA
HETATM    7  C9  UNL     1      16.434  -6.881  -6.736  1.00  0.00     0.052 C 
HETATM    8  C10 UNL     1      17.771  -6.931  -7.382  1.00  0.00     0.036 C 
HETATM    9  C11 UNL     1      15.587  -5.886  -7.505  1.00  0.00     0.036 C 
ENDROOT
BRANCH   1  10
HETATM   10  N1  UNL     1      15.363  -9.008  -7.501  1.00  0.00    -0.373 N 
HETATM   11  C3  UNL     1      15.711 -10.449  -7.311  1.00  0.00     0.150 C 
BRANCH  10  12
HETATM   12  C2  UNL     1      14.663  -8.729  -8.691  1.00  0.00     0.071 C 
HETATM   13  C1  UNL     1      13.190  -8.924  -8.731  1.00  0.00     0.081 C 
HETATM   14  S1  UNL     1      15.356  -8.224 -10.067  1.00  0.00    -0.066 SA
ENDBRANCH  10  12
ENDBRANCH   1  10
BRANCH   6  15
HETATM   15  O1  UNL     1      15.676  -5.450  -5.071  1.00  0.00    -0.311 OA
ATOM     16  H1  UNL     1      15.987  -4.554  -5.015  1.00  0.00     0.237 HD
ENDBRANCH   6  15
TORSDOF 3
ENDMDL
MODEL 4
REMARK VINA RESULT: -3.855660873      3.373      5.838
REMARK  3 active torsions:
REMARK  status: ('A' for Active; 'I' for Inactive)
REMARK    1  A    between atoms: C2_2  and  N1_4 
REMARK    2  A    between atoms: N1_4  and  C4_6 
REMARK    3  A    between atoms: N2_11  and  O1_12 
ROOT
HETATM    1  C4  UNL     1      17.049  -6.785  -6.495  1.00  0.00     0.111 C 
HETATM    2  C5  UNL     1      18.417  -6.538  -7.080  1.00  0.00     0.054 C 
HETATM    3  C6  UNL     1      18.682  -5.166  -6.419  1.00  0.00     0.034 C 
HETATM    4  C7  UNL     1      19.477  -5.402  -5.151  1.00  0.00     0.034 C 
HETATM    5  C8  UNL     1      19.549  -4.318  -7.328  1.00  0.00     0.034 C 
HETATM    6  N2  UNL     1      17.406  -4.570  -6.169  1.00  0.00    -0.180 NA
HETATM    7  C9  UNL     1      16.372  -5.491  -6.650  1.00  0.00     0.052 C 
HETATM    8  C10 UNL     1      15.985  -5.067  -8.020  1.00  0.00     0.036 C 
HETATM    9  C11 UNL     1      15.161  -5.319  -5.754  1.00  0.00     0.036 C 
ENDROOT
BRANCH   1  10
HETATM   10  N1  UNL     1      16.401  -7.986  -6.824  1.00  0.00    -0.373 N 
HETATM   11  C3  UNL     1      16.118  -8.182  -8.279  1.00  0.00     0.150 C 
BRANCH  10  12
HETATM   12  C2  UNL     1      15.999  -9.058  -6.003  1.00  0.00     0.071 C 
HETATM   13  C1  UNL     1      16.137  -8.935  -4.528  1.00  0.00     0.081 C 
HETATM   14  S1  UNL     1      15.408 -10.464  -6.553  1.00  0.00    -0.066 SA
ENDBRANCH  10  12
ENDBRANCH   1  10
BRANCH   6  15
HETATM   15  O1  UNL     1      17.197  -4.199  -4.905  1.00  0.00    -0.311 OA
ATOM     16  H1  UNL     1      16.323  -3.874  -4.722  1.00  0.00     0.237 HD
ENDBRANCH   6  15
TORSDOF 3
ENDMDL
MODEL 5
REMARK VINA RESULT: -3.710535029      3.126      5.791
REMARK  3 active torsions:
REMARK  status: ('A' for Active; 'I' for Inactive)
REMARK    1  A    between atoms: C2_2  and  N1_4 
REMARK    2  A    between atoms: N1_4  and  C4_6 
REMARK    3  A    between atoms: N2_11  and  O1_12 
ROOT
HETATM    1  C4  UNL     1      16.087  -6.790  -5.645  1.00  0.00     0.111 C 
HETATM    2  C5  UNL     1      15.690  -6.363  -4.253  1.00  0.00     0.054 C 
HETATM    3  C6  UNL     1      15.699  -4.836  -4.492  1.00  0.00     0.034 C 
HETATM    4  C7  UNL     1      14.284  -4.406  -4.820  1.00  0.00     0.034 C 
HETATM    5  C8  UNL     1      16.089  -4.119  -3.215  1.00  0.00     0.034 C 
HETATM    6  N2  UNL     1      16.615  -4.586  -5.561  1.00  0.00    -0.180 NA
HETATM    7  C9  UNL     1      17.181  -5.871  -5.984  1.00  0.00     0.052 C 
HETATM    8  C10 UNL     1      18.481  -6.047  -5.290  1.00  0.00     0.036 C 
HETATM    9  C11 UNL     1      17.462  -5.773  -7.471  1.00  0.00     0.036 C 
ENDROOT
BRANCH   1  10
HETATM   10  N1  UNL     1      16.188  -8.165  -5.906  1.00  0.00    -0.373 N 
HETATM   11  C3  UNL     1      16.912  -8.962  -4.869  1.00  0.00     0.150 C 
BRANCH  10  12
HETATM   12  C2  UNL     1      15.688  -8.925  -6.981  1.00  0.00     0.071 C 
HETATM   13  C1  UNL     1      15.630 -10.406  -6.860  1.00  0.00     0.081 C 
HETATM   14  S1  UNL     1      15.180  -8.301  -8.389  1.00  0.00    -0.066 SA
ENDBRANCH  10  12
ENDBRANCH   1  10
BRANCH   6  15
HETATM   15  O1  UNL     1      16.109  -3.900  -6.587  1.00  0.00    -0.311 OA
ATOM     16  H1  UNL     1      15.743  -4.432  -7.283  1.00  0.00     0.237 HD
ENDBRANCH   6  15
TORSDOF 3
ENDMDL
