MODEL 1
REMARK VINA RESULT: -3.900397639      0.000      0.000
REMARK  3 active torsions:
REMARK  status: ('A' for Active; 'I' for Inactive)
REMARK    1  A    between atoms: C2_2  and  C3_4 
REMARK    2  A    between atoms: C8_10  and  N1_11 
REMARK    3  A    between atoms: N1_11  and  C9_13 
ROOT
HETATM    1  C3  UNL     1      17.143  -7.328  -4.064  1.00  0.00     0.045 C 
HETATM    2  C4  UNL     1      18.130  -6.571  -4.944  1.00  0.00     0.026 C 
HETATM    3  C5  UNL     1      18.050  -8.167  -3.137  1.00  0.00     0.092 C 
HETATM    4  S1  UNL     1      18.535  -7.189  -1.678  1.00  0.00    -0.168 SA
HETATM    5  C6  UNL     1      16.976  -6.610  -0.943  1.00  0.00     0.076 C 
HETATM    6  C7  UNL     1      15.872  -7.039  -1.908  1.00  0.00     0.036 C 
HETATM    7  C8  UNL     1      16.232  -6.447  -3.271  1.00  0.00     0.094 C 
ENDROOT
BRANCH   7   8
HETATM    8  N1  UNL     1      15.034  -6.066  -3.930  1.00  0.00    -0.408 N 
ATOM      9  H1  UNL     1      14.294  -6.736  -4.136  1.00  0.00     0.154 HD
BRANCH   8  10
HETATM   10  C9  UNL     1      14.927  -4.699  -4.285  1.00  0.00     0.015 C 
HETATM   11  C10 UNL     1      15.176  -4.596  -5.794  1.00  0.00     0.037 C 
HETATM   12  C11 UNL     1      15.826  -3.738  -3.602  1.00  0.00     0.037 C 
HETATM   13  C12 UNL     1      13.499  -4.179  -4.116  1.00  0.00     0.037 C 
ENDBRANCH   8  10
ENDBRANCH   7   8
BRANCH   1  14
HETATM   14  C2  UNL     1      16.423  -8.267  -4.982  1.00  0.00     0.134 C 
HETATM   15  C1  UNL     1      16.460  -8.101  -6.440  1.00  0.00     0.091 C 
HETATM   16  O1  UNL     1      15.814  -9.182  -4.502  1.00  0.00    -0.297 OA
ENDBRANCH   1  14
TORSDOF 3
ENDMDL
MODEL 2
REMARK VINA RESULT: -3.895374245      3.190      5.324
REMARK  3 active torsions:
REMARK  status: ('A' for Active; 'I' for Inactive)
REMARK    1  A    between atoms: C2_2  and  C3_4 
REMARK    2  A    between atoms: C8_10  and  N1_11 
REMARK    3  A    between atoms: N1_11  and  C9_13 
ROOT
HETATM    1  C3  UNL     1      16.753  -5.993  -6.470  1.00  0.00     0.045 C 
HETATM    2  C4  UNL     1      17.774  -7.067  -6.118  1.00  0.00     0.026 C 
HETATM    3  C5  UNL     1      17.563  -4.680  -6.395  1.00  0.00     0.092 C 
HETATM    4  S1  UNL     1      18.388  -4.358  -7.987  1.00  0.00    -0.168 SA
HETATM    5  C6  UNL     1      17.065  -4.398  -9.234  1.00  0.00     0.076 C 
HETATM    6  C7  UNL     1      15.801  -4.830  -8.492  1.00  0.00     0.036 C 
HETATM    7  C8  UNL     1      16.128  -6.163  -7.818  1.00  0.00     0.094 C 
ENDROOT
BRANCH   7   8
HETATM    8  N1  UNL     1      14.970  -6.983  -7.848  1.00  0.00    -0.408 N 
ATOM      9  H1  UNL     1      14.146  -6.774  -7.287  1.00  0.00     0.154 HD
BRANCH   8  10
HETATM   10  C9  UNL     1      15.028  -8.108  -8.705  1.00  0.00     0.015 C 
HETATM   11  C10 UNL     1      15.668  -9.255  -7.916  1.00  0.00     0.037 C 
HETATM   12  C11 UNL     1      15.762  -7.963  -9.985  1.00  0.00     0.037 C 
HETATM   13  C12 UNL     1      13.632  -8.635  -9.045  1.00  0.00     0.037 C 
ENDBRANCH   8  10
ENDBRANCH   7   8
BRANCH   1  14
HETATM   14  C2  UNL     1      15.764  -5.993  -5.345  1.00  0.00     0.134 C 
HETATM   15  C1  UNL     1      14.949  -4.812  -5.034  1.00  0.00     0.091 C 
HETATM   16  O1  UNL     1      15.633  -6.994  -4.696  1.00  0.00    -0.297 OA
ENDBRANCH   1  14
TORSDOF 3
ENDMDL
MODEL 3
REMARK VINA RESULT: -3.894123381      2.214      4.461
REMARK  3 active torsions:
REMARK  status: ('A' for Active; 'I' for Inactive)
REMARK    1  A    between atoms: C2_2  and  C3_4 
REMARK    2  A    between atoms: C8_10  and  N1_11 
REMARK    3  A    between atoms: N1_11  and  C9_13 
ROOT
HETATM    1  C3  UNL     1      15.891  -5.177  -2.328  1.00  0.00     0.045 C 
HETATM    2  C4  UNL     1      17.339  -5.046  -1.876  1.00  0.00     0.026 C 
HETATM    3  C5  UNL     1      15.367  -3.724  -2.305  1.00  0.00     0.092 C 
HETATM    4  S1  UNL     1      15.742  -2.895  -3.883  1.00  0.00    -0.168 SA
HETATM    5  C6  UNL     1      15.035  -3.965  -5.172  1.00  0.00     0.076 C 
HETATM    6  C7  UNL     1      14.533  -5.215  -4.450  1.00  0.00     0.036 C 
HETATM    7  C8  UNL     1      15.727  -5.784  -3.685  1.00  0.00     0.094 C 
ENDROOT
BRANCH   7   8
HETATM    8  N1  UNL     1      15.646  -7.201  -3.707  1.00  0.00    -0.408 N 
ATOM      9  H1  UNL     1      14.893  -7.706  -3.240  1.00  0.00     0.154 HD
BRANCH   8  10
HETATM   10  C9  UNL     1      16.672  -7.872  -4.416  1.00  0.00     0.015 C 
HETATM   11  C10 UNL     1      17.660  -8.422  -3.382  1.00  0.00     0.037 C 
HETATM   12  C11 UNL     1      17.437  -7.095  -5.419  1.00  0.00     0.037 C 
HETATM   13  C12 UNL     1      16.149  -9.125  -5.121  1.00  0.00     0.037 C 
ENDBRANCH   8  10
ENDBRANCH   7   8
BRANCH   1  14
HETATM   14  C2  UNL     1      15.195  -5.938  -1.241  1.00  0.00     0.134 C 
HETATM   15  C1  UNL     1      13.951  -5.452  -0.634  1.00  0.00     0.091 C 
HETATM   16  O1  UNL     1      15.670  -6.977  -0.875  1.00  0.00    -0.297 OA
ENDBRANCH   1  14
TORSDOF 3
ENDMDL
MODEL 4
REMARK VINA RESULT: -3.785911476      2.797      5.199
REMARK  3 active torsions:
REMARK  status: ('A' for Active; 'I' for Inactive)
REMARK    1  A    between atoms: C2_2  and  C3_4 
REMARK    2  A    between atoms: C8_10  and  N1_11 
REMARK    3  A    between atoms: N1_11  and  C9_13 
ROOT
HETATM    1  C3  UNL     1      14.288  -3.349  -3.285  1.00  0.00     0.045 C 
HETATM    2  C4  UNL     1      14.928  -2.791  -2.021  1.00  0.00     0.026 C 
HETATM    3  C5  UNL     1      14.141  -2.112  -4.198  1.00  0.00     0.092 C 
HETATM    4  S1  UNL     1      15.675  -1.843  -5.144  1.00  0.00    -0.168 SA
HETATM    5  C6  UNL     1      16.000  -3.416  -5.995  1.00  0.00     0.076 C 
HETATM    6  C7  UNL     1      14.951  -4.399  -5.477  1.00  0.00     0.036 C 
HETATM    7  C8  UNL     1      15.090  -4.419  -3.954  1.00  0.00     0.094 C 
ENDROOT
BRANCH   7   8
HETATM    8  N1  UNL     1      14.842  -5.738  -3.494  1.00  0.00    -0.408 N 
ATOM      9  H1  UNL     1      13.923  -6.174  -3.571  1.00  0.00     0.154 HD
BRANCH   8  10
HETATM   10  C9  UNL     1      15.946  -6.414  -2.920  1.00  0.00     0.015 C 
HETATM   11  C10 UNL     1      15.563  -6.784  -1.483  1.00  0.00     0.037 C 
HETATM   12  C11 UNL     1      17.246  -5.702  -2.883  1.00  0.00     0.037 C 
HETATM   13  C12 UNL     1      16.193  -7.767  -3.589  1.00  0.00     0.037 C 
ENDBRANCH   8  10
ENDBRANCH   7   8
BRANCH   1  14
HETATM   14  C2  UNL     1      12.915  -3.792  -2.880  1.00  0.00     0.134 C 
HETATM   15  C1  UNL     1      11.759  -3.633  -3.770  1.00  0.00     0.091 C 
HETATM   16  O1  UNL     1      12.771  -4.301  -1.803  1.00  0.00    -0.297 OA
ENDBRANCH   1  14
TORSDOF 3
ENDMDL
MODEL 5
REMARK VINA RESULT: -3.750632865      3.874      5.118
REMARK  3 active torsions:
REMARK  status: ('A' for Active; 'I' for Inactive)
REMARK    1  A    between atoms: C2_2  and  C3_4 
REMARK    2  A    between atoms: C8_10  and  N1_11 
REMARK    3  A    between atoms: N1_11  and  C9_13 
ROOT
HETATM    1  C3  UNL     1      14.836  -3.946  -0.909  1.00  0.00     0.045 C 
HETATM    2  C4  UNL     1      15.972  -4.293  -1.862  1.00  0.00     0.026 C 
HETATM    3  C5  UNL     1      15.553  -3.285   0.289  1.00  0.00     0.092 C 
HETATM    4  S1  UNL     1      15.783  -1.505  -0.019  1.00  0.00    -0.168 SA
HETATM    5  C6  UNL     1      14.126  -0.860  -0.398  1.00  0.00     0.076 C 
HETATM    6  C7  UNL     1      13.205  -2.079  -0.458  1.00  0.00     0.036 C 
HETATM    7  C8  UNL     1      13.809  -3.028  -1.492  1.00  0.00     0.094 C 
ENDROOT
BRANCH   7   8
HETATM    8  N1  UNL     1      12.752  -3.670  -2.190  1.00  0.00    -0.408 N 
ATOM      9  H1  UNL     1      12.037  -4.213  -1.707  1.00  0.00     0.154 HD
BRANCH   8  10
HETATM   10  C9  UNL     1      12.750  -3.512  -3.597  1.00  0.00     0.015 C 
HETATM   11  C10 UNL     1      11.291  -3.568  -4.064  1.00  0.00     0.037 C 
HETATM   12  C11 UNL     1      13.530  -4.483  -4.401  1.00  0.00     0.037 C 
HETATM   13  C12 UNL     1      13.210  -2.113  -4.012  1.00  0.00     0.037 C 
ENDBRANCH   8  10
ENDBRANCH   7   8
BRANCH   1  14
HETATM   14  C2  UNL     1      14.279  -5.258  -0.450  1.00  0.00     0.134 C 
HETATM   15  C1  UNL     1      15.028  -6.511  -0.605  1.00  0.00     0.091 C 
HETATM   16  O1  UNL     1      13.197  -5.271   0.068  1.00  0.00    -0.297 OA
ENDBRANCH   1  14
TORSDOF 3
ENDMDL
