MODEL 1
REMARK VINA RESULT: -5.013007294      0.000      0.000
REMARK  3 active torsions:
REMARK  status: ('A' for Active; 'I' for Inactive)
REMARK    1  A    between atoms: C2_2  and  C5_6 
REMARK    2  A    between atoms: C3_3  and  C4_4 
REMARK    3  A    between atoms: C11_13  and  O2_15 
ROOT
HETATM    1  C5  UNL     1      15.175  -9.011  -9.055  1.00  0.00     0.110 C 
HETATM    2  S1  UNL     1      15.146  -9.957  -7.483  1.00  0.00    -0.156 SA
HETATM    3  C6  UNL     1      14.409 -11.550  -7.944  1.00  0.00     0.083 C 
HETATM    4  C7  UNL     1      13.133 -11.251  -8.689  1.00  0.00    -0.036 C 
HETATM    5  C8  UNL     1      12.572 -12.604  -9.098  1.00  0.00     0.015 C 
HETATM    6  C9  UNL     1      12.149 -10.654  -7.722  1.00  0.00     0.015 C 
HETATM    7  C10 UNL     1      13.323 -10.464  -9.931  1.00  0.00     0.048 C 
HETATM    8  C11 UNL     1      13.875  -9.087  -9.783  1.00  0.00     0.071 C 
HETATM    9  C12 UNL     1      14.192  -8.627 -11.223  1.00  0.00     0.047 C 
ENDROOT
BRANCH   1  10
HETATM   10  C2  UNL     1      15.539  -7.597  -8.787  1.00  0.00    -0.064 C 
HETATM   11  C1  UNL     1      16.053  -6.702  -9.844  1.00  0.00     0.044 C 
HETATM   12  C3  UNL     1      15.399  -7.139  -7.561  1.00  0.00     0.045 C 
BRANCH  12  13
HETATM   13  C4  UNL     1      15.735  -5.785  -7.222  1.00  0.00     0.259 C 
HETATM   14  O1  UNL     1      15.190  -5.181  -6.260  1.00  0.00    -0.302 OA
ENDBRANCH  12  13
ENDBRANCH   1  10
BRANCH   8  15
HETATM   15  O2  UNL     1      12.922  -8.165  -9.345  1.00  0.00    -0.389 OA
ATOM     16  H2  UNL     1      12.559  -7.624 -10.036  1.00  0.00     0.210 HD
ENDBRANCH   8  15
TORSDOF 3
ENDMDL
MODEL 2
REMARK VINA RESULT: -4.796403629      1.212      1.570
REMARK  3 active torsions:
REMARK  status: ('A' for Active; 'I' for Inactive)
REMARK    1  A    between atoms: C2_2  and  C5_6 
REMARK    2  A    between atoms: C3_3  and  C4_4 
REMARK    3  A    between atoms: C11_13  and  O2_15 
ROOT
HETATM    1  C5  UNL     1      15.263  -8.919  -8.968  1.00  0.00     0.110 C 
HETATM    2  S1  UNL     1      15.218  -9.904  -7.420  1.00  0.00    -0.156 SA
HETATM    3  C6  UNL     1      14.499 -11.489  -7.930  1.00  0.00     0.083 C 
HETATM    4  C7  UNL     1      13.230 -11.180  -8.684  1.00  0.00    -0.036 C 
HETATM    5  C8  UNL     1      12.684 -12.526  -9.134  1.00  0.00     0.015 C 
HETATM    6  C9  UNL     1      12.230 -10.613  -7.716  1.00  0.00     0.015 C 
HETATM    7  C10 UNL     1      13.432 -10.361  -9.904  1.00  0.00     0.048 C 
HETATM    8  C11 UNL     1      13.973  -8.985  -9.715  1.00  0.00     0.071 C 
HETATM    9  C12 UNL     1      14.306  -8.487 -11.139  1.00  0.00     0.047 C 
ENDROOT
BRANCH   1  10
HETATM   10  C2  UNL     1      15.614  -7.509  -8.660  1.00  0.00    -0.064 C 
HETATM   11  C1  UNL     1      15.423  -6.927  -7.315  1.00  0.00     0.044 C 
HETATM   12  C3  UNL     1      16.104  -6.763  -9.625  1.00  0.00     0.045 C 
BRANCH  12  13
HETATM   13  C4  UNL     1      16.462  -5.390  -9.407  1.00  0.00     0.259 C 
HETATM   14  O1  UNL     1      16.760  -4.617 -10.355  1.00  0.00    -0.302 OA
ENDBRANCH  12  13
ENDBRANCH   1  10
BRANCH   8  15
HETATM   15  O2  UNL     1      13.008  -8.079  -9.266  1.00  0.00    -0.389 OA
ATOM     16  H2  UNL     1      12.369  -8.456  -8.672  1.00  0.00     0.210 HD
ENDBRANCH   8  15
TORSDOF 3
ENDMDL
MODEL 3
REMARK VINA RESULT: -4.444724933      1.754      2.295
REMARK  3 active torsions:
REMARK  status: ('A' for Active; 'I' for Inactive)
REMARK    1  A    between atoms: C2_2  and  C5_6 
REMARK    2  A    between atoms: C3_3  and  C4_4 
REMARK    3  A    between atoms: C11_13  and  O2_15 
ROOT
HETATM    1  C5  UNL     1      16.143  -8.735  -7.898  1.00  0.00     0.110 C 
HETATM    2  S1  UNL     1      15.313 -10.218  -7.206  1.00  0.00    -0.156 SA
HETATM    3  C6  UNL     1      14.510 -10.981  -8.642  1.00  0.00     0.083 C 
HETATM    4  C7  UNL     1      13.714  -9.903  -9.332  1.00  0.00    -0.036 C 
HETATM    5  C8  UNL     1      13.097 -10.568 -10.553  1.00  0.00     0.015 C 
HETATM    6  C9  UNL     1      12.573  -9.510  -8.436  1.00  0.00     0.015 C 
HETATM    7  C10 UNL     1      14.527  -8.764  -9.821  1.00  0.00     0.048 C 
HETATM    8  C11 UNL     1      15.243  -7.953  -8.795  1.00  0.00     0.071 C 
HETATM    9  C12 UNL     1      16.182  -7.027  -9.600  1.00  0.00     0.047 C 
ENDROOT
BRANCH   1  10
HETATM   10  C2  UNL     1      16.649  -7.879  -6.795  1.00  0.00    -0.064 C 
HETATM   11  C1  UNL     1      17.690  -6.851  -7.010  1.00  0.00     0.044 C 
HETATM   12  C3  UNL     1      16.152  -8.055  -5.590  1.00  0.00     0.045 C 
BRANCH  12  13
HETATM   13  C4  UNL     1      16.595  -7.271  -4.472  1.00  0.00     0.259 C 
HETATM   14  O1  UNL     1      15.797  -6.843  -3.596  1.00  0.00    -0.302 OA
ENDBRANCH  12  13
ENDBRANCH   1  10
BRANCH   8  15
HETATM   15  O2  UNL     1      14.401  -7.063  -8.122  1.00  0.00    -0.389 OA
ATOM     16  H2  UNL     1      14.679  -6.859  -7.238  1.00  0.00     0.210 HD
ENDBRANCH   8  15
TORSDOF 3
ENDMDL
MODEL 4
REMARK VINA RESULT: -4.357796759      2.033      2.670
REMARK  3 active torsions:
REMARK  status: ('A' for Active; 'I' for Inactive)
REMARK    1  A    between atoms: C2_2  and  C5_6 
REMARK    2  A    between atoms: C3_3  and  C4_4 
REMARK    3  A    between atoms: C11_13  and  O2_15 
ROOT
HETATM    1  C5  UNL     1      14.468  -8.936  -7.866  1.00  0.00     0.110 C 
HETATM    2  S1  UNL     1      13.441  -8.730  -9.373  1.00  0.00    -0.156 SA
HETATM    3  C6  UNL     1      12.258 -10.102  -9.288  1.00  0.00     0.083 C 
HETATM    4  C7  UNL     1      13.054 -11.363  -9.064  1.00  0.00    -0.036 C 
HETATM    5  C8  UNL     1      12.028 -12.480  -8.951  1.00  0.00     0.015 C 
HETATM    6  C9  UNL     1      13.858 -11.642 -10.303  1.00  0.00     0.015 C 
HETATM    7  C10 UNL     1      13.844 -11.368  -7.809  1.00  0.00     0.048 C 
HETATM    8  C11 UNL     1      14.921 -10.346  -7.682  1.00  0.00     0.071 C 
HETATM    9  C12 UNL     1      15.383 -10.431  -6.210  1.00  0.00     0.047 C 
ENDROOT
BRANCH   1  10
HETATM   10  C2  UNL     1      15.633  -8.018  -7.920  1.00  0.00    -0.064 C 
HETATM   11  C1  UNL     1      16.060  -7.360  -9.173  1.00  0.00     0.044 C 
HETATM   12  C3  UNL     1      16.303  -7.794  -6.811  1.00  0.00     0.045 C 
BRANCH  12  13
HETATM   13  C4  UNL     1      17.445  -6.924  -6.784  1.00  0.00     0.259 C 
HETATM   14  O1  UNL     1      17.962  -6.531  -5.705  1.00  0.00    -0.302 OA
ENDBRANCH  12  13
ENDBRANCH   1  10
BRANCH   8  15
HETATM   15  O2  UNL     1      16.070 -10.674  -8.407  1.00  0.00    -0.389 OA
ATOM     16  H2  UNL     1      15.901 -11.183  -9.191  1.00  0.00     0.210 HD
ENDBRANCH   8  15
TORSDOF 3
ENDMDL
MODEL 5
REMARK VINA RESULT: -4.339495660      2.479      5.386
REMARK  3 active torsions:
REMARK  status: ('A' for Active; 'I' for Inactive)
REMARK    1  A    between atoms: C2_2  and  C5_6 
REMARK    2  A    between atoms: C3_3  and  C4_4 
REMARK    3  A    between atoms: C11_13  and  O2_15 
ROOT
HETATM    1  C5  UNL     1      15.478  -9.236  -8.012  1.00  0.00     0.110 C 
HETATM    2  S1  UNL     1      15.544  -7.438  -8.371  1.00  0.00    -0.156 SA
HETATM    3  C6  UNL     1      16.983  -6.856  -7.432  1.00  0.00     0.083 C 
HETATM    4  C7  UNL     1      16.823  -7.355  -6.018  1.00  0.00    -0.036 C 
HETATM    5  C8  UNL     1      18.067  -6.890  -5.277  1.00  0.00     0.015 C 
HETATM    6  C9  UNL     1      15.658  -6.639  -5.393  1.00  0.00     0.015 C 
HETATM    7  C10 UNL     1      16.770  -8.832  -5.896  1.00  0.00     0.048 C 
HETATM    8  C11 UNL     1      15.627  -9.525  -6.555  1.00  0.00     0.071 C 
HETATM    9  C12 UNL     1      15.972 -11.029  -6.477  1.00  0.00     0.047 C 
ENDROOT
BRANCH   1  10
HETATM   10  C2  UNL     1      14.208  -9.807  -8.528  1.00  0.00    -0.064 C 
HETATM   11  C1  UNL     1      13.075  -8.956  -8.946  1.00  0.00     0.044 C 
HETATM   12  C3  UNL     1      14.099 -11.116  -8.606  1.00  0.00     0.045 C 
BRANCH  12  13
HETATM   13  C4  UNL     1      12.901 -11.743  -9.089  1.00  0.00     0.259 C 
HETATM   14  O1  UNL     1      12.454 -12.808  -8.587  1.00  0.00    -0.302 OA
ENDBRANCH  12  13
ENDBRANCH   1  10
BRANCH   8  15
HETATM   15  O2  UNL     1      14.437  -9.422  -5.829  1.00  0.00    -0.389 OA
ATOM     16  H2  UNL     1      14.126 -10.247  -5.476  1.00  0.00     0.210 HD
ENDBRANCH   8  15
TORSDOF 3
ENDMDL
