MODEL 1
REMARK VINA RESULT: -4.783611544      0.000      0.000
REMARK  1 active torsions:
REMARK  status: ('A' for Active; 'I' for Inactive)
REMARK    1  A    between atoms: C2_2  and  C3_3 
ROOT
HETATM    1  C1  UNL     1      14.967  -6.496  -7.330  1.00  0.00     0.047 C 
HETATM    2  C2  UNL     1      15.246  -7.799  -8.112  1.00  0.00     0.067 C 
HETATM    3  C4  UNL     1      16.050  -8.652  -7.207  1.00  0.00     0.038 C 
HETATM    4  C5  UNL     1      15.673 -10.086  -7.159  1.00  0.00     0.006 C 
HETATM    5  C6  UNL     1      15.050 -10.453  -8.489  1.00  0.00     0.038 C 
HETATM    6  C7  UNL     1      13.839  -9.583  -8.673  1.00  0.00     0.063 C 
HETATM    7  C8  UNL     1      13.362  -9.776 -10.118  1.00  0.00     0.039 C 
HETATM    8  C9  UNL     1      13.572 -11.178 -10.599  1.00  0.00     0.030 C 
HETATM    9  C10 UNL     1      12.586 -12.160 -10.042  1.00  0.00     0.232 C 
HETATM   10  N1  UNL     1      11.646 -11.585  -9.131  1.00  0.00    -0.075 N 
ATOM     11  H11 UNL     1      10.788 -12.132  -9.058  1.00  0.00     0.277 HD
ATOM     12  H12 UNL     1      11.232 -10.724  -9.489  1.00  0.00     0.277 HD
HETATM   13  C11 UNL     1      12.295 -11.400  -7.860  1.00  0.00     0.235 C 
HETATM   14  C12 UNL     1      12.775 -10.001  -7.701  1.00  0.00     0.065 C 
HETATM   15  O1  UNL     1      14.045  -8.254  -8.507  1.00  0.00    -0.369 OA
ENDROOT
BRANCH   2  16
HETATM   16  C3  UNL     1      16.065  -7.304  -9.315  1.00  0.00     0.123 C 
HETATM   17  S1  UNL     1      16.425  -5.540  -9.029  1.00  0.00    -0.095 SA
ENDBRANCH   2  16
TORSDOF 1
ENDMDL
MODEL 2
REMARK VINA RESULT: -4.527023623      2.761      3.857
REMARK  1 active torsions:
REMARK  status: ('A' for Active; 'I' for Inactive)
REMARK    1  A    between atoms: C2_2  and  C3_3 
ROOT
HETATM    1  C1  UNL     1      15.987  -3.742  -6.200  1.00  0.00     0.047 C 
HETATM    2  C2  UNL     1      16.436  -4.926  -7.085  1.00  0.00     0.067 C 
HETATM    3  C4  UNL     1      17.879  -5.115  -6.808  1.00  0.00     0.038 C 
HETATM    4  C5  UNL     1      18.333  -6.519  -6.649  1.00  0.00     0.006 C 
HETATM    5  C6  UNL     1      17.405  -7.406  -7.452  1.00  0.00     0.038 C 
HETATM    6  C7  UNL     1      16.020  -7.222  -6.902  1.00  0.00     0.063 C 
HETATM    7  C8  UNL     1      15.055  -7.920  -7.869  1.00  0.00     0.039 C 
HETATM    8  C9  UNL     1      15.653  -9.154  -8.470  1.00  0.00     0.030 C 
HETATM    9  C10 UNL     1      15.701 -10.319  -7.527  1.00  0.00     0.232 C 
HETATM   10  N1  UNL     1      15.196 -10.030  -6.221  1.00  0.00    -0.075 N 
ATOM     11  H11 UNL     1      14.884 -10.868  -5.728  1.00  0.00     0.277 HD
ATOM     12  H12 UNL     1      14.301  -9.542  -6.247  1.00  0.00     0.277 HD
HETATM   13  C11 UNL     1      16.202  -9.303  -5.492  1.00  0.00     0.235 C 
HETATM   14  C12 UNL     1      15.942  -7.838  -5.536  1.00  0.00     0.065 C 
HETATM   15  O1  UNL     1      15.601  -5.938  -6.795  1.00  0.00    -0.369 OA
ENDROOT
BRANCH   2  16
HETATM   16  C3  UNL     1      16.186  -4.402  -8.508  1.00  0.00     0.123 C 
HETATM   17  S1  UNL     1      17.737  -3.629  -9.074  1.00  0.00    -0.095 SA
ENDBRANCH   2  16
TORSDOF 1
ENDMDL
MODEL 3
REMARK VINA RESULT: -4.391768667      3.327      5.586
REMARK  1 active torsions:
REMARK  status: ('A' for Active; 'I' for Inactive)
REMARK    1  A    between atoms: C2_2  and  C3_3 
ROOT
HETATM    1  C1  UNL     1      15.791 -10.500  -8.531  1.00  0.00     0.047 C 
HETATM    2  C2  UNL     1      15.363  -9.459  -7.473  1.00  0.00     0.067 C 
HETATM    3  C4  UNL     1      15.761 -10.023  -6.162  1.00  0.00     0.038 C 
HETATM    4  C5  UNL     1      16.389  -9.076  -5.209  1.00  0.00     0.006 C 
HETATM    5  C6  UNL     1      15.869  -7.687  -5.516  1.00  0.00     0.038 C 
HETATM    6  C7  UNL     1      16.256  -7.365  -6.932  1.00  0.00     0.063 C 
HETATM    7  C8  UNL     1      15.517  -6.077  -7.318  1.00  0.00     0.039 C 
HETATM    8  C9  UNL     1      15.381  -5.136  -6.162  1.00  0.00     0.030 C 
HETATM    9  C10 UNL     1      16.651  -4.417  -5.818  1.00  0.00     0.232 C 
HETATM   10  N1  UNL     1      17.764  -4.783  -6.637  1.00  0.00    -0.075 N 
ATOM     11  H11 UNL     1      18.484  -4.060  -6.663  1.00  0.00     0.277 HD
ATOM     12  H12 UNL     1      17.534  -4.788  -7.630  1.00  0.00     0.277 HD
HETATM   13  C11 UNL     1      18.270  -6.051  -6.180  1.00  0.00     0.235 C 
HETATM   14  C12 UNL     1      17.742  -7.169  -7.008  1.00  0.00     0.065 C 
HETATM   15  O1  UNL     1      15.919  -8.297  -7.854  1.00  0.00    -0.369 OA
ENDROOT
BRANCH   2  16
HETATM   16  C3  UNL     1      13.835  -9.414  -7.640  1.00  0.00     0.123 C 
HETATM   17  S1  UNL     1      13.499  -9.054  -9.395  1.00  0.00    -0.095 SA
ENDBRANCH   2  16
TORSDOF 1
ENDMDL
MODEL 4
REMARK VINA RESULT: -4.191555787      7.438      9.156
REMARK  1 active torsions:
REMARK  status: ('A' for Active; 'I' for Inactive)
REMARK    1  A    between atoms: C2_2  and  C3_3 
ROOT
HETATM    1  C1  UNL     1      13.955  -5.503  -0.712  1.00  0.00     0.047 C 
HETATM    2  C2  UNL     1      14.312  -4.462  -1.797  1.00  0.00     0.067 C 
HETATM    3  C4  UNL     1      14.575  -5.237  -3.032  1.00  0.00     0.038 C 
HETATM    4  C5  UNL     1      13.998  -4.684  -4.283  1.00  0.00     0.006 C 
HETATM    5  C6  UNL     1      13.878  -3.183  -4.121  1.00  0.00     0.038 C 
HETATM    6  C7  UNL     1      12.972  -2.928  -2.950  1.00  0.00     0.063 C 
HETATM    7  C8  UNL     1      13.055  -1.429  -2.636  1.00  0.00     0.039 C 
HETATM    8  C9  UNL     1      13.220  -0.602  -3.872  1.00  0.00     0.030 C 
HETATM    9  C10 UNL     1      11.961  -0.461  -4.675  1.00  0.00     0.232 C 
HETATM   10  N1  UNL     1      10.843  -1.166  -4.129  1.00  0.00    -0.075 N 
ATOM     11  H11 UNL     1       9.950  -0.780  -4.436  1.00  0.00     0.277 HD
ATOM     12  H12 UNL     1      10.729  -1.004  -3.129  1.00  0.00     0.277 HD
HETATM   13  C11 UNL     1      10.982  -2.562  -4.452  1.00  0.00     0.235 C 
HETATM   14  C12 UNL     1      11.570  -3.320  -3.313  1.00  0.00     0.065 C 
HETATM   15  O1  UNL     1      13.296  -3.582  -1.809  1.00  0.00    -0.369 OA
ENDROOT
BRANCH   2  16
HETATM   16  C3  UNL     1      15.589  -3.815  -1.240  1.00  0.00     0.123 C 
HETATM   17  S1  UNL     1      16.998  -4.794  -1.854  1.00  0.00    -0.095 SA
ENDBRANCH   2  16
TORSDOF 1
ENDMDL
MODEL 5
REMARK VINA RESULT: -4.169001680      4.918      6.876
REMARK  1 active torsions:
REMARK  status: ('A' for Active; 'I' for Inactive)
REMARK    1  A    between atoms: C2_2  and  C3_3 
ROOT
HETATM    1  C1  UNL     1      18.003  -6.700  -7.082  1.00  0.00     0.047 C 
HETATM    2  C2  UNL     1      16.915  -6.885  -6.001  1.00  0.00     0.067 C 
HETATM    3  C4  UNL     1      16.406  -8.266  -6.169  1.00  0.00     0.038 C 
HETATM    4  C5  UNL     1      16.192  -9.037  -4.920  1.00  0.00     0.006 C 
HETATM    5  C6  UNL     1      15.897  -8.055  -3.806  1.00  0.00     0.038 C 
HETATM    6  C7  UNL     1      17.086  -7.145  -3.682  1.00  0.00     0.063 C 
HETATM    7  C8  UNL     1      16.684  -6.006  -2.736  1.00  0.00     0.039 C 
HETATM    8  C9  UNL     1      15.760  -6.470  -1.654  1.00  0.00     0.030 C 
HETATM    9  C10 UNL     1      16.445  -7.252  -0.573  1.00  0.00     0.232 C 
HETATM   10  N1  UNL     1      17.846  -7.437  -0.789  1.00  0.00    -0.075 N 
ATOM     11  H11 UNL     1      18.354  -7.617   0.077  1.00  0.00     0.277 HD
ATOM     12  H12 UNL     1      18.318  -6.572  -1.051  1.00  0.00     0.277 HD
HETATM   13  C11 UNL     1      18.024  -8.482  -1.763  1.00  0.00     0.235 C 
HETATM   14  C12 UNL     1      18.245  -7.917  -3.122  1.00  0.00     0.065 C 
HETATM   15  O1  UNL     1      17.499  -6.566  -4.834  1.00  0.00    -0.369 OA
ENDROOT
BRANCH   2  16
HETATM   16  C3  UNL     1      15.865  -5.833  -6.392  1.00  0.00     0.123 C 
HETATM   17  S1  UNL     1      16.118  -5.455  -8.157  1.00  0.00    -0.095 SA
ENDBRANCH   2  16
TORSDOF 1
ENDMDL
