MODEL 1
REMARK VINA RESULT: -6.748955100      0.000      0.000
REMARK  5 active torsions:
REMARK  status: ('A' for Active; 'I' for Inactive)
REMARK    1  A    between atoms: C2_2  and  C4_4 
REMARK    2  A    between atoms: C4_4  and  C5_5 
REMARK    3  A    between atoms: C5_5  and  O1_6 
REMARK    4  A    between atoms: C5_5  and  N1_8 
REMARK    5  A    between atoms: N1_8  and  N2_10 
ROOT
HETATM    1  N2  UNL     1      15.017  -9.025  -7.842  1.00  0.00    -0.307 N 
ATOM      2  H2  UNL     1      15.269  -8.077  -8.124  1.00  0.00     0.186 HD
HETATM    3  C6  UNL     1      13.993  -9.612  -8.365  1.00  0.00     0.004 C 
HETATM    4  C7  UNL     1      13.347  -8.689  -9.353  1.00  0.00     0.054 C 
HETATM    5  C8  UNL     1      13.611  -9.137 -10.760  1.00  0.00     0.006 C 
HETATM    6  C9  UNL     1      12.605 -10.233 -11.098  1.00  0.00     0.000 C 
HETATM    7  C10 UNL     1      13.121 -11.561 -10.665  1.00  0.00     0.000 C 
HETATM    8  C11 UNL     1      12.340 -12.197  -9.555  1.00  0.00     0.000 C 
HETATM    9  C12 UNL     1      12.360 -11.444  -8.271  1.00  0.00     0.006 C 
HETATM   10  C13 UNL     1      13.744 -10.990  -7.865  1.00  0.00     0.054 C 
ENDROOT
BRANCH   1  11
HETATM   11  N1  UNL     1      15.796  -9.720  -6.863  1.00  0.00    -0.280 N 
ATOM     12  H1  UNL     1      16.052 -10.699  -6.992  1.00  0.00     0.189 HD
BRANCH  11  13
HETATM   13  C5  UNL     1      16.193  -9.012  -5.723  1.00  0.00     0.154 C 
BRANCH  13  14
HETATM   14  C4  UNL     1      17.068  -7.899  -5.583  1.00  0.00     0.059 C 
BRANCH  14  15
HETATM   15  C2  UNL     1      17.030  -6.739  -6.122  1.00  0.00    -0.084 C 
HETATM   16  C1  UNL     1      15.859  -5.878  -6.250  1.00  0.00     0.043 C 
HETATM   17  C3  UNL     1      18.338  -6.182  -6.693  1.00  0.00     0.043 C 
ENDBRANCH  14  15
ENDBRANCH  13  14
BRANCH  13  18
HETATM   18  O1  UNL     1      15.636  -9.499  -4.625  1.00  0.00    -0.345 OA
ATOM     19  H1  UNL     1      15.219  -8.886  -4.031  1.00  0.00     0.219 HD
ENDBRANCH  13  18
ENDBRANCH  11  13
ENDBRANCH   1  11
TORSDOF 5
ENDMDL
MODEL 2
REMARK VINA RESULT: -6.623653953      1.680      2.147
REMARK  5 active torsions:
REMARK  status: ('A' for Active; 'I' for Inactive)
REMARK    1  A    between atoms: C2_2  and  C4_4 
REMARK    2  A    between atoms: C4_4  and  C5_5 
REMARK    3  A    between atoms: C5_5  and  O1_6 
REMARK    4  A    between atoms: C5_5  and  N1_8 
REMARK    5  A    between atoms: N1_8  and  N2_10 
ROOT
HETATM    1  N2  UNL     1      15.211  -8.260  -9.169  1.00  0.00    -0.307 N 
ATOM      2  H2  UNL     1      15.149  -7.506  -9.854  1.00  0.00     0.186 HD
HETATM    3  C6  UNL     1      14.236  -9.092  -9.023  1.00  0.00     0.004 C 
HETATM    4  C7  UNL     1      13.135  -8.734  -9.974  1.00  0.00     0.054 C 
HETATM    5  C8  UNL     1      13.058  -9.717 -11.104  1.00  0.00     0.006 C 
HETATM    6  C9  UNL     1      12.268 -10.928 -10.617  1.00  0.00     0.000 C 
HETATM    7  C10 UNL     1      13.173 -11.899  -9.942  1.00  0.00     0.000 C 
HETATM    8  C11 UNL     1      12.922 -12.060  -8.473  1.00  0.00     0.000 C 
HETATM    9  C12 UNL     1      13.157 -10.832  -7.665  1.00  0.00     0.006 C 
HETATM   10  C13 UNL     1      14.461 -10.140  -7.992  1.00  0.00     0.054 C 
ENDROOT
BRANCH   1  11
HETATM   11  N1  UNL     1      16.382  -8.407  -8.359  1.00  0.00    -0.280 N 
ATOM     12  H1  UNL     1      16.921  -9.273  -8.364  1.00  0.00     0.189 HD
BRANCH  11  13
HETATM   13  C5  UNL     1      16.762  -7.323  -7.560  1.00  0.00     0.154 C 
BRANCH  13  14
HETATM   14  C4  UNL     1      17.102  -7.266  -6.179  1.00  0.00     0.059 C 
BRANCH  14  15
HETATM   15  C2  UNL     1      16.477  -7.701  -5.151  1.00  0.00    -0.084 C 
HETATM   16  C1  UNL     1      16.141  -9.090  -4.859  1.00  0.00     0.043 C 
HETATM   17  C3  UNL     1      16.029  -6.670  -4.109  1.00  0.00     0.043 C 
ENDBRANCH  14  15
ENDBRANCH  13  14
BRANCH  13  18
HETATM   18  O1  UNL     1      16.793  -6.192  -8.248  1.00  0.00    -0.345 OA
ATOM     19  H1  UNL     1      17.369  -6.149  -9.002  1.00  0.00     0.219 HD
ENDBRANCH  13  18
ENDBRANCH  11  13
ENDBRANCH   1  11
TORSDOF 5
ENDMDL
MODEL 3
REMARK VINA RESULT: -6.585614995      2.095      3.154
REMARK  5 active torsions:
REMARK  status: ('A' for Active; 'I' for Inactive)
REMARK    1  A    between atoms: C2_2  and  C4_4 
REMARK    2  A    between atoms: C4_4  and  C5_5 
REMARK    3  A    between atoms: C5_5  and  O1_6 
REMARK    4  A    between atoms: C5_5  and  N1_8 
REMARK    5  A    between atoms: N1_8  and  N2_10 
ROOT
HETATM    1  N2  UNL     1      15.369  -8.155  -7.850  1.00  0.00    -0.307 N 
ATOM      2  H2  UNL     1      16.034  -8.298  -7.090  1.00  0.00     0.186 HD
HETATM    3  C6  UNL     1      14.830  -9.166  -8.444  1.00  0.00     0.004 C 
HETATM    4  C7  UNL     1      15.346 -10.432  -7.831  1.00  0.00     0.054 C 
HETATM    5  C8  UNL     1      14.295 -11.088  -6.985  1.00  0.00     0.006 C 
HETATM    6  C9  UNL     1      13.382 -11.887  -7.910  1.00  0.00     0.000 C 
HETATM    7  C10 UNL     1      12.296 -11.018  -8.442  1.00  0.00     0.000 C 
HETATM    8  C11 UNL     1      12.366 -10.775  -9.920  1.00  0.00     0.000 C 
HETATM    9  C12 UNL     1      13.577 -10.035 -10.370  1.00  0.00     0.006 C 
HETATM   10  C13 UNL     1      13.879  -8.814  -9.532  1.00  0.00     0.054 C 
ENDROOT
BRANCH   1  11
HETATM   11  N1  UNL     1      15.024  -6.832  -8.271  1.00  0.00    -0.280 N 
ATOM     12  H1  UNL     1      14.229  -6.666  -8.888  1.00  0.00     0.189 HD
BRANCH  11  13
HETATM   13  C5  UNL     1      15.813  -5.773  -7.808  1.00  0.00     0.154 C 
BRANCH  13  14
HETATM   14  C4  UNL     1      15.750  -5.035  -6.593  1.00  0.00     0.059 C 
BRANCH  14  15
HETATM   15  C2  UNL     1      15.285  -5.361  -5.446  1.00  0.00    -0.084 C 
HETATM   16  C1  UNL     1      14.171  -4.729  -4.747  1.00  0.00     0.043 C 
HETATM   17  C3  UNL     1      15.954  -6.533  -4.720  1.00  0.00     0.043 C 
ENDBRANCH  14  15
ENDBRANCH  13  14
BRANCH  13  18
HETATM   18  O1  UNL     1      16.753  -5.443  -8.680  1.00  0.00    -0.345 OA
ATOM     19  H1  UNL     1      16.790  -5.931  -9.495  1.00  0.00     0.219 HD
ENDBRANCH  13  18
ENDBRANCH  11  13
ENDBRANCH   1  11
TORSDOF 5
ENDMDL
MODEL 4
REMARK VINA RESULT: -6.547307303      1.421      5.826
REMARK  5 active torsions:
REMARK  status: ('A' for Active; 'I' for Inactive)
REMARK    1  A    between atoms: C2_2  and  C4_4 
REMARK    2  A    between atoms: C4_4  and  C5_5 
REMARK    3  A    between atoms: C5_5  and  O1_6 
REMARK    4  A    between atoms: C5_5  and  N1_8 
REMARK    5  A    between atoms: N1_8  and  N2_10 
ROOT
HETATM    1  N2  UNL     1      15.741  -9.129  -7.959  1.00  0.00    -0.307 N 
ATOM      2  H2  UNL     1      15.615  -8.939  -8.954  1.00  0.00     0.186 HD
HETATM    3  C6  UNL     1      16.206  -8.217  -7.174  1.00  0.00     0.004 C 
HETATM    4  C7  UNL     1      16.481  -6.976  -7.968  1.00  0.00     0.054 C 
HETATM    5  C8  UNL     1      15.464  -5.913  -7.674  1.00  0.00     0.006 C 
HETATM    6  C9  UNL     1      15.885  -5.206  -6.389  1.00  0.00     0.000 C 
HETATM    7  C10 UNL     1      15.352  -5.930  -5.201  1.00  0.00     0.000 C 
HETATM    8  C11 UNL     1      16.403  -6.559  -4.337  1.00  0.00     0.000 C 
HETATM    9  C12 UNL     1      17.193  -7.632  -5.002  1.00  0.00     0.006 C 
HETATM   10  C13 UNL     1      16.337  -8.628  -5.751  1.00  0.00     0.054 C 
ENDROOT
BRANCH   1  11
HETATM   11  N1  UNL     1      15.404 -10.410  -7.418  1.00  0.00    -0.280 N 
ATOM     12  H1  UNL     1      16.126 -11.046  -7.080  1.00  0.00     0.189 HD
BRANCH  11  13
HETATM   13  C5  UNL     1      14.050 -10.762  -7.368  1.00  0.00     0.154 C 
BRANCH  13  14
HETATM   14  C4  UNL     1      12.996 -10.514  -8.291  1.00  0.00     0.059 C 
BRANCH  14  15
HETATM   15  C2  UNL     1      12.780 -10.999  -9.456  1.00  0.00    -0.084 C 
HETATM   16  C1  UNL     1      12.816 -10.273 -10.720  1.00  0.00     0.043 C 
HETATM   17  C3  UNL     1      12.449 -12.492  -9.548  1.00  0.00     0.043 C 
ENDBRANCH  14  15
ENDBRANCH  13  14
BRANCH  13  18
HETATM   18  O1  UNL     1      13.757 -11.430  -6.263  1.00  0.00    -0.345 OA
ATOM     19  H1  UNL     1      14.423 -11.479  -5.587  1.00  0.00     0.219 HD
ENDBRANCH  13  18
ENDBRANCH  11  13
ENDBRANCH   1  11
TORSDOF 5
ENDMDL
MODEL 5
REMARK VINA RESULT: -6.538117385      1.702      2.120
REMARK  5 active torsions:
REMARK  status: ('A' for Active; 'I' for Inactive)
REMARK    1  A    between atoms: C2_2  and  C4_4 
REMARK    2  A    between atoms: C4_4  and  C5_5 
REMARK    3  A    between atoms: C5_5  and  O1_6 
REMARK    4  A    between atoms: C5_5  and  N1_8 
REMARK    5  A    between atoms: N1_8  and  N2_10 
ROOT
HETATM    1  N2  UNL     1      15.083  -8.053  -8.932  1.00  0.00    -0.307 N 
ATOM      2  H2  UNL     1      14.957  -7.275  -9.579  1.00  0.00     0.186 HD
HETATM    3  C6  UNL     1      14.171  -8.960  -8.816  1.00  0.00     0.004 C 
HETATM    4  C7  UNL     1      13.035  -8.637  -9.737  1.00  0.00     0.054 C 
HETATM    5  C8  UNL     1      13.013  -9.569 -10.912  1.00  0.00     0.006 C 
HETATM    6  C9  UNL     1      12.319 -10.855 -10.476  1.00  0.00     0.000 C 
HETATM    7  C10 UNL     1      13.300 -11.790  -9.857  1.00  0.00     0.000 C 
HETATM    8  C11 UNL     1      13.081 -12.037  -8.395  1.00  0.00     0.000 C 
HETATM    9  C12 UNL     1      13.238 -10.834  -7.532  1.00  0.00     0.006 C 
HETATM   10  C13 UNL     1      14.485 -10.036  -7.839  1.00  0.00     0.054 C 
ENDROOT
BRANCH   1  11
HETATM   11  N1  UNL     1      16.272  -8.154  -8.142  1.00  0.00    -0.280 N 
ATOM     12  H1  UNL     1      16.856  -8.989  -8.172  1.00  0.00     0.189 HD
BRANCH  11  13
HETATM   13  C5  UNL     1      16.606  -7.066  -7.326  1.00  0.00     0.154 C 
BRANCH  13  14
HETATM   14  C4  UNL     1      15.780  -6.095  -6.694  1.00  0.00     0.059 C 
BRANCH  14  15
HETATM   15  C2  UNL     1      15.474  -5.939  -5.462  1.00  0.00    -0.084 C 
HETATM   16  C1  UNL     1      15.897  -6.780  -4.347  1.00  0.00     0.043 C 
HETATM   17  C3  UNL     1      14.572  -4.753  -5.103  1.00  0.00     0.043 C 
ENDBRANCH  14  15
ENDBRANCH  13  14
BRANCH  13  18
HETATM   18  O1  UNL     1      17.915  -6.973  -7.146  1.00  0.00    -0.345 OA
ATOM     19  H1  UNL     1      18.478  -7.191  -7.879  1.00  0.00     0.219 HD
ENDBRANCH  13  18
ENDBRANCH  11  13
ENDBRANCH   1  11
TORSDOF 5
ENDMDL
