MODEL 1
REMARK VINA RESULT: -4.949589548      0.000      0.000
REMARK  4 active torsions:
REMARK  status: ('A' for Active; 'I' for Inactive)
REMARK    1  A    between atoms: O1_2  and  C2_3 
REMARK    2  A    between atoms: C2_3  and  O2_4 
REMARK    3  A    between atoms: C7_10  and  C8_11 
REMARK    4  A    between atoms: C9_12  and  C10_13 
ROOT
HETATM    1  C2  UNL     1      16.315  -6.155  -6.006  1.00  0.00     0.172 C 
HETATM    2  C3  UNL     1      16.059  -7.035  -4.827  1.00  0.00     0.096 C 
HETATM    3  C4  UNL     1      16.266  -8.475  -5.080  1.00  0.00    -0.018 C 
HETATM    4  C5  UNL     1      15.901  -8.978  -6.258  1.00  0.00    -0.079 C 
HETATM    5  C6  UNL     1      16.102 -10.404  -6.521  1.00  0.00     0.044 C 
HETATM    6  C7  UNL     1      15.306  -8.005  -7.224  1.00  0.00     0.049 C 
HETATM    7  C12 UNL     1      16.370  -6.896  -7.326  1.00  0.00     0.020 C 
HETATM    8  C13 UNL     1      16.047  -5.967  -8.475  1.00  0.00     0.021 C 
HETATM    9  C14 UNL     1      17.746  -7.470  -7.495  1.00  0.00     0.021 C 
ENDROOT
BRANCH   6  10
HETATM   10  C8  UNL     1      15.103  -8.555  -8.552  1.00  0.00    -0.013 C 
HETATM   11  C9  UNL     1      14.207  -9.377  -8.989  1.00  0.00     0.046 C 
BRANCH  11  12
HETATM   12  C10 UNL     1      13.117 -10.018  -8.302  1.00  0.00     0.145 C 
HETATM   13  C11 UNL     1      12.473 -11.273  -8.793  1.00  0.00     0.096 C 
HETATM   14  O3  UNL     1      12.654  -9.545  -7.252  1.00  0.00    -0.294 OA
ENDBRANCH  11  12
ENDBRANCH   6  10
BRANCH   1  15
HETATM   15  O1  UNL     1      15.292  -5.208  -6.127  1.00  0.00    -0.359 OA
HETATM   16  C1  UNL     1      15.631  -3.995  -5.562  1.00  0.00     0.205 C 
ENDBRANCH   1  15
BRANCH   1  17
HETATM   17  O2  UNL     1      17.532  -5.447  -5.875  1.00  0.00    -0.364 OA
ATOM     18  H2  UNL     1      18.237  -6.074  -5.979  1.00  0.00     0.213 HD
ENDBRANCH   1  17
TORSDOF 4
ENDMDL
MODEL 2
REMARK VINA RESULT: -4.765393652      2.686      5.654
REMARK  4 active torsions:
REMARK  status: ('A' for Active; 'I' for Inactive)
REMARK    1  A    between atoms: O1_2  and  C2_3 
REMARK    2  A    between atoms: C2_3  and  O2_4 
REMARK    3  A    between atoms: C7_10  and  C8_11 
REMARK    4  A    between atoms: C9_12  and  C10_13 
ROOT
HETATM    1  C2  UNL     1      16.093  -7.657  -6.726  1.00  0.00     0.172 C 
HETATM    2  C3  UNL     1      16.609  -8.366  -5.518  1.00  0.00     0.096 C 
HETATM    3  C4  UNL     1      17.180  -7.481  -4.483  1.00  0.00    -0.018 C 
HETATM    4  C5  UNL     1      17.886  -6.419  -4.868  1.00  0.00    -0.079 C 
HETATM    5  C6  UNL     1      18.457  -5.533  -3.852  1.00  0.00     0.044 C 
HETATM    6  C7  UNL     1      18.029  -6.233  -6.343  1.00  0.00     0.049 C 
HETATM    7  C12 UNL     1      16.575  -6.227  -6.853  1.00  0.00     0.020 C 
HETATM    8  C13 UNL     1      16.529  -5.771  -8.294  1.00  0.00     0.021 C 
HETATM    9  C14 UNL     1      15.701  -5.352  -6.004  1.00  0.00     0.021 C 
ENDROOT
BRANCH   6  10
HETATM   10  C8  UNL     1      18.639  -4.968  -6.713  1.00  0.00    -0.013 C 
HETATM   11  C9  UNL     1      19.883  -4.635  -6.811  1.00  0.00     0.046 C 
BRANCH  11  12
HETATM   12  C10 UNL     1      21.074  -5.411  -6.586  1.00  0.00     0.145 C 
HETATM   13  C11 UNL     1      21.786  -5.443  -5.272  1.00  0.00     0.096 C 
HETATM   14  O3  UNL     1      21.572  -6.100  -7.490  1.00  0.00    -0.294 OA
ENDBRANCH  11  12
ENDBRANCH   6  10
BRANCH   1  15
HETATM   15  O1  UNL     1      16.514  -8.320  -7.885  1.00  0.00    -0.359 OA
HETATM   16  C1  UNL     1      15.631  -9.306  -8.275  1.00  0.00     0.205 C 
ENDBRANCH   1  15
BRANCH   1  17
HETATM   17  O2  UNL     1      14.680  -7.624  -6.749  1.00  0.00    -0.364 OA
ATOM     18  H2  UNL     1      14.419  -6.711  -6.781  1.00  0.00     0.213 HD
ENDBRANCH   1  17
TORSDOF 4
ENDMDL
MODEL 3
REMARK VINA RESULT: -4.543544743      2.538      4.367
REMARK  4 active torsions:
REMARK  status: ('A' for Active; 'I' for Inactive)
REMARK    1  A    between atoms: O1_2  and  C2_3 
REMARK    2  A    between atoms: C2_3  and  O2_4 
REMARK    3  A    between atoms: C7_10  and  C8_11 
REMARK    4  A    between atoms: C9_12  and  C10_13 
ROOT
HETATM    1  C2  UNL     1      14.988  -9.011  -7.589  1.00  0.00     0.172 C 
HETATM    2  C3  UNL     1      16.040  -8.805  -8.628  1.00  0.00     0.096 C 
HETATM    3  C4  UNL     1      15.523  -8.429  -9.960  1.00  0.00    -0.018 C 
HETATM    4  C5  UNL     1      14.396  -8.993 -10.392  1.00  0.00    -0.079 C 
HETATM    5  C6  UNL     1      13.873  -8.628 -11.709  1.00  0.00     0.044 C 
HETATM    6  C7  UNL     1      13.760  -9.971  -9.458  1.00  0.00     0.049 C 
HETATM    7  C12 UNL     1      13.591  -9.172  -8.152  1.00  0.00     0.020 C 
HETATM    8  C13 UNL     1      12.708  -9.931  -7.187  1.00  0.00     0.021 C 
HETATM    9  C14 UNL     1      13.022  -7.809  -8.413  1.00  0.00     0.021 C 
ENDROOT
BRANCH   6  10
HETATM   10  C8  UNL     1      12.444 -10.411  -9.888  1.00  0.00    -0.013 C 
HETATM   11  C9  UNL     1      11.922 -11.593  -9.907  1.00  0.00     0.046 C 
BRANCH  11  12
HETATM   12  C10 UNL     1      12.473 -12.861  -9.508  1.00  0.00     0.145 C 
HETATM   13  C11 UNL     1      13.122 -13.083  -8.180  1.00  0.00     0.096 C 
HETATM   14  O3  UNL     1      12.435 -13.844 -10.264  1.00  0.00    -0.294 OA
ENDBRANCH  11  12
ENDBRANCH   6  10
BRANCH   1  15
HETATM   15  O1  UNL     1      15.257 -10.177  -6.862  1.00  0.00    -0.359 OA
HETATM   16  C1  UNL     1      15.929  -9.916  -5.685  1.00  0.00     0.205 C 
ENDBRANCH   1  15
BRANCH   1  17
HETATM   17  O2  UNL     1      14.945  -7.940  -6.668  1.00  0.00    -0.364 OA
ATOM     18  H2  UNL     1      14.234  -7.368  -6.932  1.00  0.00     0.213 HD
ENDBRANCH   1  17
TORSDOF 4
ENDMDL
MODEL 4
REMARK VINA RESULT: -4.428626701      1.620      2.243
REMARK  4 active torsions:
REMARK  status: ('A' for Active; 'I' for Inactive)
REMARK    1  A    between atoms: O1_2  and  C2_3 
REMARK    2  A    between atoms: C2_3  and  O2_4 
REMARK    3  A    between atoms: C7_10  and  C8_11 
REMARK    4  A    between atoms: C9_12  and  C10_13 
ROOT
HETATM    1  C2  UNL     1      17.102  -4.470  -5.836  1.00  0.00     0.172 C 
HETATM    2  C3  UNL     1      16.988  -4.809  -4.386  1.00  0.00     0.096 C 
HETATM    3  C4  UNL     1      17.497  -6.148  -4.026  1.00  0.00    -0.018 C 
HETATM    4  C5  UNL     1      17.288  -7.160  -4.868  1.00  0.00    -0.079 C 
HETATM    5  C6  UNL     1      17.787  -8.492  -4.523  1.00  0.00     0.044 C 
HETATM    6  C7  UNL     1      16.542  -6.822  -6.118  1.00  0.00     0.049 C 
HETATM    7  C12 UNL     1      17.358  -5.667  -6.729  1.00  0.00     0.020 C 
HETATM    8  C13 UNL     1      16.894  -5.391  -8.142  1.00  0.00     0.021 C 
HETATM    9  C14 UNL     1      18.828  -5.968  -6.715  1.00  0.00     0.021 C 
ENDROOT
BRANCH   6  10
HETATM   10  C8  UNL     1      16.507  -7.906  -7.084  1.00  0.00    -0.013 C 
HETATM   11  C9  UNL     1      15.682  -8.893  -7.204  1.00  0.00     0.046 C 
BRANCH  11  12
HETATM   12  C10 UNL     1      14.527  -9.242  -6.420  1.00  0.00     0.145 C 
HETATM   13  C11 UNL     1      13.181  -9.484  -7.021  1.00  0.00     0.096 C 
HETATM   14  O3  UNL     1      14.601  -9.359  -5.187  1.00  0.00    -0.294 OA
ENDBRANCH  11  12
ENDBRANCH   6  10
BRANCH   1  15
HETATM   15  O1  UNL     1      15.911  -3.889  -6.286  1.00  0.00    -0.359 OA
HETATM   16  C1  UNL     1      15.173  -3.343  -5.257  1.00  0.00     0.205 C 
ENDBRANCH   1  15
BRANCH   1  17
HETATM   17  O2  UNL     1      18.141  -3.542  -6.076  1.00  0.00    -0.364 OA
ATOM     18  H2  UNL     1      18.935  -3.903  -5.701  1.00  0.00     0.213 HD
ENDBRANCH   1  17
TORSDOF 4
ENDMDL
MODEL 5
REMARK VINA RESULT: -4.416138517      1.761      4.470
REMARK  4 active torsions:
REMARK  status: ('A' for Active; 'I' for Inactive)
REMARK    1  A    between atoms: O1_2  and  C2_3 
REMARK    2  A    between atoms: C2_3  and  O2_4 
REMARK    3  A    between atoms: C7_10  and  C8_11 
REMARK    4  A    between atoms: C9_12  and  C10_13 
ROOT
HETATM    1  C2  UNL     1      14.547  -9.582  -6.378  1.00  0.00     0.172 C 
HETATM    2  C3  UNL     1      13.141  -9.627  -6.878  1.00  0.00     0.096 C 
HETATM    3  C4  UNL     1      13.011  -9.621  -8.349  1.00  0.00    -0.018 C 
HETATM    4  C5  UNL     1      13.848  -8.869  -9.063  1.00  0.00    -0.079 C 
HETATM    5  C6  UNL     1      13.730  -8.855 -10.522  1.00  0.00     0.044 C 
HETATM    6  C7  UNL     1      14.854  -8.092  -8.277  1.00  0.00     0.049 C 
HETATM    7  C12 UNL     1      15.559  -9.164  -7.425  1.00  0.00     0.020 C 
HETATM    8  C13 UNL     1      16.795  -8.584  -6.774  1.00  0.00     0.021 C 
HETATM    9  C14 UNL     1      15.921 -10.366  -8.246  1.00  0.00     0.021 C 
ENDROOT
BRANCH   6  10
HETATM   10  C8  UNL     1      15.858  -7.443  -9.102  1.00  0.00    -0.013 C 
HETATM   11  C9  UNL     1      16.344  -6.247  -9.044  1.00  0.00     0.046 C 
BRANCH  11  12
HETATM   12  C10 UNL     1      16.047  -5.165  -8.142  1.00  0.00     0.145 C 
HETATM   13  C11 UNL     1      15.794  -5.369  -6.684  1.00  0.00     0.096 C 
HETATM   14  O3  UNL     1      15.986  -3.993  -8.545  1.00  0.00    -0.294 OA
ENDBRANCH  11  12
ENDBRANCH   6  10
BRANCH   1  15
HETATM   15  O1  UNL     1      14.654  -8.657  -5.333  1.00  0.00    -0.359 OA
HETATM   16  C1  UNL     1      15.708  -8.940  -4.488  1.00  0.00     0.205 C 
ENDBRANCH   1  15
BRANCH   1  17
HETATM   17  O2  UNL     1      14.963 -10.836  -5.875  1.00  0.00    -0.364 OA
ATOM     18  H2  UNL     1      15.776 -10.696  -5.404  1.00  0.00     0.213 HD
ENDBRANCH   1  17
TORSDOF 4
ENDMDL
