MODEL 1
REMARK VINA RESULT: -7.071923993      0.000      0.000
REMARK  5 active torsions:
REMARK  status: ('A' for Active; 'I' for Inactive)
REMARK    1  A    between atoms: C2_2  and  O2_4 
REMARK    2  A    between atoms: O2_4  and  C3_5 
REMARK    3  A    between atoms: C3_5  and  C4_6 
REMARK    4  A    between atoms: C3_5  and  C6_10 
REMARK    5  A    between atoms: C4_6  and  O3_8 
ROOT
HETATM    1  C6  UNL     1      15.779  -8.991  -8.092  1.00  0.00     0.040 C 
HETATM    2  C7  UNL     1      14.841 -10.133  -8.245  1.00  0.00    -0.023 C 
HETATM    3  C8  UNL     1      13.705 -10.580  -7.952  1.00  0.00    -0.030 C 
HETATM    4  C9  UNL     1      12.872 -11.808  -8.249  1.00  0.00     0.027 C 
HETATM    5  C10 UNL     1      12.149 -11.400  -9.606  1.00  0.00     0.004 C 
HETATM    6  C11 UNL     1      13.010 -10.713 -10.591  1.00  0.00     0.000 C 
HETATM    7  C12 UNL     1      13.174  -9.208 -10.704  1.00  0.00     0.000 C 
HETATM    8  C13 UNL     1      14.310  -8.872  -9.914  1.00  0.00     0.001 C 
HETATM    9  C14 UNL     1      15.416  -8.075  -9.443  1.00  0.00     0.011 C 
ENDROOT
BRANCH   1  10
HETATM   10  C3  UNL     1      15.733  -8.100  -6.939  1.00  0.00     0.167 C 
BRANCH  10  11
HETATM   11  O2  UNL     1      16.636  -7.001  -7.021  1.00  0.00    -0.313 OA
BRANCH  11  12
HETATM   12  C2  UNL     1      16.106  -5.709  -7.026  1.00  0.00     0.255 C 
HETATM   13  C1  UNL     1      16.383  -4.772  -8.178  1.00  0.00     0.126 C 
HETATM   14  O1  UNL     1      15.406  -5.333  -6.082  1.00  0.00    -0.266 OA
ENDBRANCH  11  12
ENDBRANCH  10  11
BRANCH  10  15
HETATM   15  C4  UNL     1      16.044  -8.916  -5.675  1.00  0.00     0.144 C 
HETATM   16  C5  UNL     1      17.053  -8.225  -4.827  1.00  0.00     0.042 C 
BRANCH  15  17
HETATM   17  O3  UNL     1      14.840  -9.006  -4.969  1.00  0.00    -0.393 OA
ATOM     18  H3  UNL     1      14.798  -8.230  -4.422  1.00  0.00     0.210 HD
ENDBRANCH  15  17
ENDBRANCH  10  15
ENDBRANCH   1  10
TORSDOF 5
ENDMDL
MODEL 2
REMARK VINA RESULT: -6.955157868      2.643      6.003
REMARK  5 active torsions:
REMARK  status: ('A' for Active; 'I' for Inactive)
REMARK    1  A    between atoms: C2_2  and  O2_4 
REMARK    2  A    between atoms: O2_4  and  C3_5 
REMARK    3  A    between atoms: C3_5  and  C4_6 
REMARK    4  A    between atoms: C3_5  and  C6_10 
REMARK    5  A    between atoms: C4_6  and  O3_8 
ROOT
HETATM    1  C6  UNL     1      15.111 -10.366  -8.335  1.00  0.00     0.040 C 
HETATM    2  C7  UNL     1      15.961  -9.180  -8.056  1.00  0.00    -0.023 C 
HETATM    3  C8  UNL     1      15.977  -7.931  -7.933  1.00  0.00    -0.030 C 
HETATM    4  C9  UNL     1      16.981  -6.851  -7.590  1.00  0.00     0.027 C 
HETATM    5  C10 UNL     1      16.898  -6.813  -6.001  1.00  0.00     0.004 C 
HETATM    6  C11 UNL     1      16.835  -8.135  -5.347  1.00  0.00     0.000 C 
HETATM    7  C12 UNL     1      15.554  -8.867  -4.987  1.00  0.00     0.000 C 
HETATM    8  C13 UNL     1      15.264  -9.723  -6.087  1.00  0.00     0.001 C 
HETATM    9  C14 UNL     1      14.659 -10.826  -6.793  1.00  0.00     0.011 C 
ENDROOT
BRANCH   1  10
HETATM   10  C3  UNL     1      13.896 -10.278  -9.135  1.00  0.00     0.167 C 
BRANCH  10  11
HETATM   11  O2  UNL     1      13.655 -11.423  -9.948  1.00  0.00    -0.313 OA
BRANCH  11  12
HETATM   12  C2  UNL     1      12.571 -12.243  -9.629  1.00  0.00     0.255 C 
HETATM   13  C1  UNL     1      11.446 -11.725  -8.763  1.00  0.00     0.126 C 
HETATM   14  O1  UNL     1      12.533 -13.399 -10.059  1.00  0.00    -0.266 OA
ENDBRANCH  11  12
ENDBRANCH  10  11
BRANCH  10  15
HETATM   15  C4  UNL     1      13.985  -9.032 -10.030  1.00  0.00     0.144 C 
HETATM   16  C5  UNL     1      13.615  -9.355 -11.435  1.00  0.00     0.042 C 
BRANCH  15  17
HETATM   17  O3  UNL     1      13.061  -8.119  -9.512  1.00  0.00    -0.393 OA
ATOM     18  H3  UNL     1      13.178  -8.134  -8.569  1.00  0.00     0.210 HD
ENDBRANCH  15  17
ENDBRANCH  10  15
ENDBRANCH   1  10
TORSDOF 5
ENDMDL
MODEL 3
REMARK VINA RESULT: -6.800237032      2.244      5.323
REMARK  5 active torsions:
REMARK  status: ('A' for Active; 'I' for Inactive)
REMARK    1  A    between atoms: C2_2  and  O2_4 
REMARK    2  A    between atoms: O2_4  and  C3_5 
REMARK    3  A    between atoms: C3_5  and  C4_6 
REMARK    4  A    between atoms: C3_5  and  C6_10 
REMARK    5  A    between atoms: C4_6  and  O3_8 
ROOT
HETATM    1  C6  UNL     1      15.679  -9.884  -8.167  1.00  0.00     0.040 C 
HETATM    2  C7  UNL     1      16.096  -8.483  -7.899  1.00  0.00    -0.023 C 
HETATM    3  C8  UNL     1      15.696  -7.318  -7.654  1.00  0.00    -0.030 C 
HETATM    4  C9  UNL     1      16.303  -5.964  -7.356  1.00  0.00     0.027 C 
HETATM    5  C10 UNL     1      16.493  -6.024  -5.778  1.00  0.00     0.004 C 
HETATM    6  C11 UNL     1      17.011  -7.306  -5.259  1.00  0.00     0.000 C 
HETATM    7  C12 UNL     1      16.152  -8.466  -4.788  1.00  0.00     0.000 C 
HETATM    8  C13 UNL     1      15.990  -9.322  -5.914  1.00  0.00     0.001 C 
HETATM    9  C14 UNL     1      15.695 -10.539  -6.629  1.00  0.00     0.011 C 
ENDROOT
BRANCH   1  10
HETATM   10  C3  UNL     1      14.389 -10.208  -8.763  1.00  0.00     0.167 C 
BRANCH  10  11
HETATM   11  O2  UNL     1      13.747  -9.102  -9.390  1.00  0.00    -0.313 OA
BRANCH  11  12
HETATM   12  C2  UNL     1      13.561  -9.144 -10.774  1.00  0.00     0.255 C 
HETATM   13  C1  UNL     1      12.457  -9.984 -11.373  1.00  0.00     0.126 C 
HETATM   14  O1  UNL     1      14.304  -8.489 -11.510  1.00  0.00    -0.266 OA
ENDBRANCH  11  12
ENDBRANCH  10  11
BRANCH  10  15
HETATM   15  C4  UNL     1      13.469 -10.772  -7.669  1.00  0.00     0.144 C 
HETATM   16  C5  UNL     1      12.527  -9.732  -7.173  1.00  0.00     0.042 C 
BRANCH  15  17
HETATM   17  O3  UNL     1      12.738 -11.801  -8.272  1.00  0.00    -0.393 OA
ATOM     18  H3  UNL     1      11.970 -11.388  -8.651  1.00  0.00     0.210 HD
ENDBRANCH  15  17
ENDBRANCH  10  15
ENDBRANCH   1  10
TORSDOF 5
ENDMDL
MODEL 4
REMARK VINA RESULT: -6.581594281      1.458      2.432
REMARK  5 active torsions:
REMARK  status: ('A' for Active; 'I' for Inactive)
REMARK    1  A    between atoms: C2_2  and  O2_4 
REMARK    2  A    between atoms: O2_4  and  C3_5 
REMARK    3  A    between atoms: C3_5  and  C4_6 
REMARK    4  A    between atoms: C3_5  and  C6_10 
REMARK    5  A    between atoms: C4_6  and  O3_8 
ROOT
HETATM    1  C6  UNL     1      13.704  -8.616  -7.322  1.00  0.00     0.040 C 
HETATM    2  C7  UNL     1      13.569  -8.598  -8.801  1.00  0.00    -0.023 C 
HETATM    3  C8  UNL     1      14.147  -8.832  -9.891  1.00  0.00    -0.030 C 
HETATM    4  C9  UNL     1      13.816  -8.788 -11.368  1.00  0.00     0.027 C 
HETATM    5  C10 UNL     1      13.189 -10.230 -11.611  1.00  0.00     0.004 C 
HETATM    6  C11 UNL     1      12.263 -10.694 -10.559  1.00  0.00     0.000 C 
HETATM    7  C12 UNL     1      12.663 -11.523  -9.351  1.00  0.00     0.000 C 
HETATM    8  C13 UNL     1      12.924 -10.595  -8.303  1.00  0.00     0.001 C 
HETATM    9  C14 UNL     1      13.112 -10.134  -6.949  1.00  0.00     0.011 C 
ENDROOT
BRANCH   1  10
HETATM   10  C3  UNL     1      14.996  -8.479  -6.660  1.00  0.00     0.167 C 
BRANCH  10  11
HETATM   11  O2  UNL     1      16.089  -8.300  -7.555  1.00  0.00    -0.313 OA
BRANCH  11  12
HETATM   12  C2  UNL     1      16.749  -7.069  -7.554  1.00  0.00     0.255 C 
HETATM   13  C1  UNL     1      16.198  -5.905  -8.343  1.00  0.00     0.126 C 
HETATM   14  O1  UNL     1      17.788  -6.935  -6.903  1.00  0.00    -0.266 OA
ENDBRANCH  11  12
ENDBRANCH  10  11
BRANCH  10  15
HETATM   15  C4  UNL     1      15.243  -9.731  -5.803  1.00  0.00     0.144 C 
HETATM   16  C5  UNL     1      16.299 -10.591  -6.405  1.00  0.00     0.042 C 
BRANCH  15  17
HETATM   17  O3  UNL     1      15.687  -9.267  -4.560  1.00  0.00    -0.393 OA
ATOM     18  H3  UNL     1      14.949  -8.810  -4.173  1.00  0.00     0.210 HD
ENDBRANCH  15  17
ENDBRANCH  10  15
ENDBRANCH   1  10
TORSDOF 5
ENDMDL
MODEL 5
REMARK VINA RESULT: -6.500864109      1.331      1.666
REMARK  5 active torsions:
REMARK  status: ('A' for Active; 'I' for Inactive)
REMARK    1  A    between atoms: C2_2  and  O2_4 
REMARK    2  A    between atoms: O2_4  and  C3_5 
REMARK    3  A    between atoms: C3_5  and  C4_6 
REMARK    4  A    between atoms: C3_5  and  C6_10 
REMARK    5  A    between atoms: C4_6  and  O3_8 
ROOT
HETATM    1  C6  UNL     1      15.849  -8.142  -8.841  1.00  0.00     0.040 C 
HETATM    2  C7  UNL     1      15.034  -9.301  -8.394  1.00  0.00    -0.023 C 
HETATM    3  C8  UNL     1      13.984  -9.655  -7.803  1.00  0.00    -0.030 C 
HETATM    4  C9  UNL     1      13.270 -10.946  -7.465  1.00  0.00     0.027 C 
HETATM    5  C10 UNL     1      12.389 -11.190  -8.768  1.00  0.00     0.004 C 
HETATM    6  C11 UNL     1      13.078 -10.925 -10.047  1.00  0.00     0.000 C 
HETATM    7  C12 UNL     1      13.064  -9.597 -10.785  1.00  0.00     0.000 C 
HETATM    8  C13 UNL     1      14.221  -8.890 -10.351  1.00  0.00     0.001 C 
HETATM    9  C14 UNL     1      15.269  -7.900 -10.390  1.00  0.00     0.011 C 
ENDROOT
BRANCH   1  10
HETATM   10  C3  UNL     1      15.806  -6.855  -8.157  1.00  0.00     0.167 C 
BRANCH  10  11
HETATM   11  O2  UNL     1      16.871  -5.977  -8.511  1.00  0.00    -0.313 OA
BRANCH  11  12
HETATM   12  C2  UNL     1      16.552  -4.667  -8.876  1.00  0.00     0.255 C 
HETATM   13  C1  UNL     1      16.659  -4.227 -10.318  1.00  0.00     0.126 C 
HETATM   14  O1  UNL     1      16.182  -3.865  -8.015  1.00  0.00    -0.266 OA
ENDBRANCH  11  12
ENDBRANCH  10  11
BRANCH  10  15
HETATM   15  C4  UNL     1      15.838  -7.103  -6.641  1.00  0.00     0.144 C 
HETATM   16  C5  UNL     1      17.232  -7.316  -6.163  1.00  0.00     0.042 C 
BRANCH  15  17
HETATM   17  O3  UNL     1      15.326  -5.943  -6.049  1.00  0.00    -0.393 OA
ATOM     18  H3  UNL     1      14.383  -6.058  -6.024  1.00  0.00     0.210 HD
ENDBRANCH  15  17
ENDBRANCH  10  15
ENDBRANCH   1  10
TORSDOF 5
ENDMDL
