MODEL 1
REMARK VINA RESULT: -6.243099111      0.000      0.000
REMARK  6 active torsions:
REMARK  status: ('A' for Active; 'I' for Inactive)
REMARK    1  A    between atoms: C2_2  and  N1_5 
REMARK    2  A    between atoms: N1_5  and  C5_7 
REMARK    3  A    between atoms: C5_7  and  O1_12 
REMARK    4  A    between atoms: O1_12  and  C7_13 
REMARK    5  A    between atoms: C7_13  and  C8_14 
REMARK    6  A    between atoms: C8_14  and  C9_15 
ROOT
HETATM    1  C5  UNL     1      16.008  -8.694  -4.951  1.00  0.00     0.229 C 
HETATM    2  N2  UNL     1      16.322  -8.605  -3.712  1.00  0.00    -0.259 N 
ATOM      3  H2  UNL     1      15.664  -8.923  -3.001  1.00  0.00     0.181 HD
HETATM    4  C6  UNL     1      17.556  -8.079  -3.323  1.00  0.00     0.185 C 
HETATM    5  N3  UNL     1      18.587  -7.632  -2.976  1.00  0.00    -0.172 NA
ENDROOT
BRANCH   1   6
HETATM    6  N1  UNL     1      16.944  -8.243  -5.916  1.00  0.00    -0.348 N 
ATOM      7  H1  UNL     1      17.792  -8.795  -6.050  1.00  0.00     0.163 HD
BRANCH   6   8
HETATM    8  C2  UNL     1      16.779  -7.069  -6.714  1.00  0.00     0.022 C 
HETATM    9  C1  UNL     1      15.700  -6.137  -6.177  1.00  0.00     0.037 C 
HETATM   10  C3  UNL     1      16.422  -7.390  -8.149  1.00  0.00     0.037 C 
HETATM   11  C4  UNL     1      18.074  -6.291  -6.741  1.00  0.00     0.037 C 
ENDBRANCH   6   8
ENDBRANCH   1   6
BRANCH   1  12
HETATM   12  O1  UNL     1      14.768  -9.225  -5.268  1.00  0.00    -0.322 OA
BRANCH  12  13
HETATM   13  C7  UNL     1      14.608 -10.154  -6.350  1.00  0.00     0.179 C 
BRANCH  13  14
HETATM   14  C8  UNL     1      13.552  -9.593  -7.254  1.00  0.00     0.031 C 
BRANCH  14  15
HETATM   15  C9  UNL     1      13.720 -10.002  -8.685  1.00  0.00    -0.013 C 
HETATM   16  C10 UNL     1      12.613 -11.000  -9.010  1.00  0.00     0.005 C 
HETATM   17  C11 UNL     1      12.711 -11.041 -10.531  1.00  0.00     0.000 C 
HETATM   18  C12 UNL     1      12.894  -9.599 -10.905  1.00  0.00     0.000 C 
HETATM   19  C13 UNL     1      13.400  -8.886  -9.653  1.00  0.00     0.005 C 
ENDBRANCH  14  15
ENDBRANCH  13  14
ENDBRANCH  12  13
ENDBRANCH   1  12
TORSDOF 6
ENDMDL
MODEL 2
REMARK VINA RESULT: -6.225837004      0.606      1.179
REMARK  6 active torsions:
REMARK  status: ('A' for Active; 'I' for Inactive)
REMARK    1  A    between atoms: C2_2  and  N1_5 
REMARK    2  A    between atoms: N1_5  and  C5_7 
REMARK    3  A    between atoms: C5_7  and  O1_12 
REMARK    4  A    between atoms: O1_12  and  C7_13 
REMARK    5  A    between atoms: C7_13  and  C8_14 
REMARK    6  A    between atoms: C8_14  and  C9_15 
ROOT
HETATM    1  C5  UNL     1      16.167  -8.762  -5.061  1.00  0.00     0.229 C 
HETATM    2  N2  UNL     1      16.332  -8.674  -3.793  1.00  0.00    -0.259 N 
ATOM      3  H2  UNL     1      15.677  -9.139  -3.166  1.00  0.00     0.181 HD
HETATM    4  C6  UNL     1      17.400  -7.948  -3.260  1.00  0.00     0.185 C 
HETATM    5  N3  UNL     1      18.288  -7.336  -2.793  1.00  0.00    -0.172 NA
ENDROOT
BRANCH   1   6
HETATM    6  N1  UNL     1      17.094  -8.103  -5.908  1.00  0.00    -0.348 N 
ATOM      7  H1  UNL     1      18.045  -8.471  -5.950  1.00  0.00     0.163 HD
BRANCH   6   8
HETATM    8  C2  UNL     1      16.786  -6.958  -6.707  1.00  0.00     0.022 C 
HETATM    9  C1  UNL     1      15.702  -6.083  -6.091  1.00  0.00     0.037 C 
HETATM   10  C3  UNL     1      16.324  -7.332  -8.098  1.00  0.00     0.037 C 
HETATM   11  C4  UNL     1      18.023  -6.104  -6.863  1.00  0.00     0.037 C 
ENDBRANCH   6   8
ENDBRANCH   1   6
BRANCH   1  12
HETATM   12  O1  UNL     1      15.087  -9.497  -5.523  1.00  0.00    -0.322 OA
BRANCH  12  13
HETATM   13  C7  UNL     1      15.248 -10.510  -6.527  1.00  0.00     0.179 C 
BRANCH  13  14
HETATM   14  C8  UNL     1      13.913 -11.171  -6.699  1.00  0.00     0.031 C 
BRANCH  14  15
HETATM   15  C9  UNL     1      13.124 -10.621  -7.847  1.00  0.00    -0.013 C 
HETATM   16  C10 UNL     1      14.112  -9.986  -8.820  1.00  0.00     0.005 C 
HETATM   17  C11 UNL     1      13.220  -9.800 -10.042  1.00  0.00     0.000 C 
HETATM   18  C12 UNL     1      12.446 -11.084 -10.104  1.00  0.00     0.000 C 
HETATM   19  C13 UNL     1      12.518 -11.703  -8.710  1.00  0.00     0.005 C 
ENDBRANCH  14  15
ENDBRANCH  13  14
ENDBRANCH  12  13
ENDBRANCH   1  12
TORSDOF 6
ENDMDL
MODEL 3
REMARK VINA RESULT: -6.212503445      2.129      3.500
REMARK  6 active torsions:
REMARK  status: ('A' for Active; 'I' for Inactive)
REMARK    1  A    between atoms: C2_2  and  N1_5 
REMARK    2  A    between atoms: N1_5  and  C5_7 
REMARK    3  A    between atoms: C5_7  and  O1_12 
REMARK    4  A    between atoms: O1_12  and  C7_13 
REMARK    5  A    between atoms: C7_13  and  C8_14 
REMARK    6  A    between atoms: C8_14  and  C9_15 
ROOT
HETATM    1  C5  UNL     1      16.055  -7.489  -8.328  1.00  0.00     0.229 C 
HETATM    2  N2  UNL     1      15.761  -6.258  -8.530  1.00  0.00    -0.259 N 
ATOM      3  H2  UNL     1      15.358  -5.977  -9.424  1.00  0.00     0.181 HD
HETATM    4  C6  UNL     1      15.984  -5.297  -7.542  1.00  0.00     0.185 C 
HETATM    5  N3  UNL     1      16.172  -4.473  -6.725  1.00  0.00    -0.172 NA
ENDROOT
BRANCH   1   6
HETATM    6  N1  UNL     1      16.614  -7.849  -7.075  1.00  0.00    -0.348 N 
ATOM      7  H1  UNL     1      17.535  -7.479  -6.841  1.00  0.00     0.163 HD
BRANCH   6   8
HETATM    8  C2  UNL     1      15.973  -8.696  -6.119  1.00  0.00     0.022 C 
HETATM    9  C1  UNL     1      16.041 -10.170  -6.496  1.00  0.00     0.037 C 
HETATM   10  C3  UNL     1      14.512  -8.349  -5.927  1.00  0.00     0.037 C 
HETATM   11  C4  UNL     1      16.647  -8.542  -4.775  1.00  0.00     0.037 C 
ENDBRANCH   6   8
ENDBRANCH   1   6
BRANCH   1  12
HETATM   12  O1  UNL     1      15.808  -8.391  -9.350  1.00  0.00    -0.322 OA
BRANCH  12  13
HETATM   13  C7  UNL     1      14.698  -8.220 -10.245  1.00  0.00     0.179 C 
BRANCH  13  14
HETATM   14  C8  UNL     1      13.501  -8.826  -9.575  1.00  0.00     0.031 C 
BRANCH  14  15
HETATM   15  C9  UNL     1      13.618 -10.307  -9.381  1.00  0.00    -0.013 C 
HETATM   16  C10 UNL     1      12.815 -10.671  -8.137  1.00  0.00     0.005 C 
HETATM   17  C11 UNL     1      12.750 -12.187  -8.280  1.00  0.00     0.000 C 
HETATM   18  C12 UNL     1      12.468 -12.384  -9.741  1.00  0.00     0.000 C 
HETATM   19  C13 UNL     1      12.885 -11.094 -10.442  1.00  0.00     0.005 C 
ENDBRANCH  14  15
ENDBRANCH  13  14
ENDBRANCH  12  13
ENDBRANCH   1  12
TORSDOF 6
ENDMDL
MODEL 4
REMARK VINA RESULT: -6.178291484      0.604      1.557
REMARK  6 active torsions:
REMARK  status: ('A' for Active; 'I' for Inactive)
REMARK    1  A    between atoms: C2_2  and  N1_5 
REMARK    2  A    between atoms: N1_5  and  C5_7 
REMARK    3  A    between atoms: C5_7  and  O1_12 
REMARK    4  A    between atoms: O1_12  and  C7_13 
REMARK    5  A    between atoms: C7_13  and  C8_14 
REMARK    6  A    between atoms: C8_14  and  C9_15 
ROOT
HETATM    1  C5  UNL     1      16.151  -8.774  -5.077  1.00  0.00     0.229 C 
HETATM    2  N2  UNL     1      16.316  -8.686  -3.809  1.00  0.00    -0.259 N 
ATOM      3  H2  UNL     1      15.658  -9.148  -3.183  1.00  0.00     0.181 HD
HETATM    4  C6  UNL     1      17.385  -7.964  -3.275  1.00  0.00     0.185 C 
HETATM    5  N3  UNL     1      18.275  -7.355  -2.807  1.00  0.00    -0.172 NA
ENDROOT
BRANCH   1   6
HETATM    6  N1  UNL     1      17.083  -8.119  -5.923  1.00  0.00    -0.348 N 
ATOM      7  H1  UNL     1      18.024  -8.506  -5.984  1.00  0.00     0.163 HD
BRANCH   6   8
HETATM    8  C2  UNL     1      16.790  -6.954  -6.697  1.00  0.00     0.022 C 
HETATM    9  C1  UNL     1      17.992  -6.033  -6.856  1.00  0.00     0.037 C 
HETATM   10  C3  UNL     1      15.670  -6.130  -6.100  1.00  0.00     0.037 C 
HETATM   11  C4  UNL     1      16.349  -7.365  -8.083  1.00  0.00     0.037 C 
ENDBRANCH   6   8
ENDBRANCH   1   6
BRANCH   1  12
HETATM   12  O1  UNL     1      15.070  -9.505  -5.541  1.00  0.00    -0.322 OA
BRANCH  12  13
HETATM   13  C7  UNL     1      15.232 -10.536  -6.527  1.00  0.00     0.179 C 
BRANCH  13  14
HETATM   14  C8  UNL     1      13.888 -11.174  -6.715  1.00  0.00     0.031 C 
BRANCH  14  15
HETATM   15  C9  UNL     1      13.116 -10.599  -7.862  1.00  0.00    -0.013 C 
HETATM   16  C10 UNL     1      14.122  -9.992  -8.835  1.00  0.00     0.005 C 
HETATM   17  C11 UNL     1      13.236  -9.777 -10.056  1.00  0.00     0.000 C 
HETATM   18  C12 UNL     1      12.424 -11.038 -10.120  1.00  0.00     0.000 C 
HETATM   19  C13 UNL     1      12.479 -11.662  -8.728  1.00  0.00     0.005 C 
ENDBRANCH  14  15
ENDBRANCH  13  14
ENDBRANCH  12  13
ENDBRANCH   1  12
TORSDOF 6
ENDMDL
MODEL 5
REMARK VINA RESULT: -5.983282724      2.787      6.446
REMARK  6 active torsions:
REMARK  status: ('A' for Active; 'I' for Inactive)
REMARK    1  A    between atoms: C2_2  and  N1_5 
REMARK    2  A    between atoms: N1_5  and  C5_7 
REMARK    3  A    between atoms: C5_7  and  O1_12 
REMARK    4  A    between atoms: O1_12  and  C7_13 
REMARK    5  A    between atoms: C7_13  and  C8_14 
REMARK    6  A    between atoms: C8_14  and  C9_15 
ROOT
HETATM    1  C5  UNL     1      15.287  -8.870  -9.039  1.00  0.00     0.229 C 
HETATM    2  N2  UNL     1      14.791  -8.280 -10.063  1.00  0.00    -0.259 N 
ATOM      3  H2  UNL     1      15.081  -7.329 -10.286  1.00  0.00     0.181 HD
HETATM    4  C6  UNL     1      13.857  -8.925 -10.878  1.00  0.00     0.185 C 
HETATM    5  N3  UNL     1      13.066  -9.450 -11.571  1.00  0.00    -0.172 NA
ENDROOT
BRANCH   1   6
HETATM    6  N1  UNL     1      14.864 -10.194  -8.755  1.00  0.00    -0.348 N 
ATOM      7  H1  UNL     1      15.195 -10.941  -9.365  1.00  0.00     0.163 HD
BRANCH   6   8
HETATM    8  C2  UNL     1      14.004 -10.551  -7.670  1.00  0.00     0.022 C 
HETATM    9  C1  UNL     1      13.106  -9.403  -7.226  1.00  0.00     0.037 C 
HETATM   10  C3  UNL     1      14.772 -11.017  -6.453  1.00  0.00     0.037 C 
HETATM   11  C4  UNL     1      13.105 -11.690  -8.092  1.00  0.00     0.037 C 
ENDBRANCH   6   8
ENDBRANCH   1   6
BRANCH   1  12
HETATM   12  O1  UNL     1      16.207  -8.173  -8.274  1.00  0.00    -0.322 OA
BRANCH  12  13
HETATM   13  C7  UNL     1      15.971  -6.815  -7.874  1.00  0.00     0.179 C 
BRANCH  13  14
HETATM   14  C8  UNL     1      15.723  -6.832  -6.396  1.00  0.00     0.031 C 
BRANCH  14  15
HETATM   15  C9  UNL     1      16.883  -7.356  -5.607  1.00  0.00    -0.013 C 
HETATM   16  C10 UNL     1      17.351  -6.239  -4.680  1.00  0.00     0.005 C 
HETATM   17  C11 UNL     1      18.265  -7.019  -3.742  1.00  0.00     0.000 C 
HETATM   18  C12 UNL     1      17.492  -8.278  -3.474  1.00  0.00     0.000 C 
HETATM   19  C13 UNL     1      16.479  -8.415  -4.607  1.00  0.00     0.005 C 
ENDBRANCH  14  15
ENDBRANCH  13  14
ENDBRANCH  12  13
ENDBRANCH   1  12
TORSDOF 6
ENDMDL
