MODEL 1
REMARK VINA RESULT: -7.159996305      0.000      0.000
REMARK  4 active torsions:
REMARK  status: ('A' for Active; 'I' for Inactive)
REMARK       I    between atoms: C1_2  and  N1_3 
REMARK    1  A    between atoms: C1_2  and  O3_13 
REMARK    2  A    between atoms: N1_3  and  C2_5 
REMARK    3  A    between atoms: C2_5  and  C3_6 
REMARK    4  A    between atoms: O3_13  and  C9_14 
ROOT
HETATM    1  O1  UNL     1      14.933  -9.096  -4.784  1.00  0.00    -0.239 OA
HETATM    2  C1  UNL     1      15.688  -9.203  -5.757  1.00  0.00     0.361 C 
HETATM    3  N1  UNL     1      15.486 -10.148  -6.800  1.00  0.00    -0.334 N 
ATOM      4  H1  UNL     1      16.130 -10.208  -7.589  1.00  0.00     0.164 HD
ENDROOT
BRANCH   3   5
HETATM    5  C2  UNL     1      14.355 -11.009  -6.709  1.00  0.00     0.169 C 
BRANCH   5   6
HETATM    6  C3  UNL     1      13.186 -10.472  -7.568  1.00  0.00     0.211 C 
HETATM    7  C4  UNL     1      13.495  -9.438  -8.474  1.00  0.00    -0.149 C 
HETATM    8  C5  UNL     1      13.803  -8.587  -9.552  1.00  0.00     0.086 C 
HETATM    9  C6  UNL     1      13.464  -9.373 -10.865  1.00  0.00     0.040 C 
HETATM   10  C7  UNL     1      12.562 -10.570 -10.567  1.00  0.00    -0.002 C 
HETATM   11  C8  UNL     1      12.929 -11.602  -9.632  1.00  0.00     0.132 C 
HETATM   12  O2  UNL     1      12.614 -11.580  -8.281  1.00  0.00    -0.345 OA
ENDBRANCH   5   6
ENDBRANCH   3   5
BRANCH   2  13
HETATM   13  O3  UNL     1      16.780  -8.368  -5.841  1.00  0.00    -0.299 OA
BRANCH  13  14
HETATM   14  C9  UNL     1      16.844  -7.177  -6.565  1.00  0.00     0.133 C 
HETATM   15  C10 UNL     1      16.734  -7.337  -8.042  1.00  0.00     0.032 C 
HETATM   16  C11 UNL     1      16.358  -5.952  -8.527  1.00  0.00     0.002 C 
HETATM   17  C12 UNL     1      15.999  -5.144  -7.313  1.00  0.00     0.002 C 
HETATM   18  C13 UNL     1      15.728  -6.214  -6.245  1.00  0.00     0.032 C 
ENDBRANCH  13  14
ENDBRANCH   2  13
TORSDOF 4
ENDMDL
MODEL 2
REMARK VINA RESULT: -6.772312804      0.613      1.025
REMARK  4 active torsions:
REMARK  status: ('A' for Active; 'I' for Inactive)
REMARK       I    between atoms: C1_2  and  N1_3 
REMARK    1  A    between atoms: C1_2  and  O3_13 
REMARK    2  A    between atoms: N1_3  and  C2_5 
REMARK    3  A    between atoms: C2_5  and  C3_6 
REMARK    4  A    between atoms: O3_13  and  C9_14 
ROOT
HETATM    1  O1  UNL     1      14.724  -9.142  -4.885  1.00  0.00    -0.239 OA
HETATM    2  C1  UNL     1      15.542  -9.263  -5.805  1.00  0.00     0.361 C 
HETATM    3  N1  UNL     1      15.425 -10.245  -6.827  1.00  0.00    -0.334 N 
ATOM      4  H1  UNL     1      16.119 -10.316  -7.571  1.00  0.00     0.164 HD
ENDROOT
BRANCH   3   5
HETATM    5  C2  UNL     1      14.308 -11.127  -6.779  1.00  0.00     0.169 C 
BRANCH   5   6
HETATM    6  C3  UNL     1      13.129 -10.566  -7.609  1.00  0.00     0.211 C 
HETATM    7  C4  UNL     1      13.427  -9.502  -8.484  1.00  0.00    -0.149 C 
HETATM    8  C5  UNL     1      13.722  -8.616  -9.537  1.00  0.00     0.086 C 
HETATM    9  C6  UNL     1      13.372  -9.360 -10.871  1.00  0.00     0.040 C 
HETATM   10  C7  UNL     1      12.476 -10.568 -10.603  1.00  0.00    -0.002 C 
HETATM   11  C8  UNL     1      12.854 -11.629  -9.706  1.00  0.00     0.132 C 
HETATM   12  O2  UNL     1      12.553 -11.651  -8.351  1.00  0.00    -0.345 OA
ENDBRANCH   5   6
ENDBRANCH   3   5
BRANCH   2  13
HETATM   13  O3  UNL     1      16.620  -8.408  -5.847  1.00  0.00    -0.299 OA
BRANCH  13  14
HETATM   14  C9  UNL     1      16.617  -7.116  -6.374  1.00  0.00     0.133 C 
HETATM   15  C10 UNL     1      17.763  -6.266  -5.948  1.00  0.00     0.032 C 
HETATM   16  C11 UNL     1      17.790  -5.155  -6.979  1.00  0.00     0.002 C 
HETATM   17  C12 UNL     1      16.861  -5.562  -8.087  1.00  0.00     0.002 C 
HETATM   18  C13 UNL     1      16.707  -7.077  -7.879  1.00  0.00     0.032 C 
ENDBRANCH  13  14
ENDBRANCH   2  13
TORSDOF 4
ENDMDL
MODEL 3
REMARK VINA RESULT: -6.491939767      1.325      5.353
REMARK  4 active torsions:
REMARK  status: ('A' for Active; 'I' for Inactive)
REMARK       I    between atoms: C1_2  and  N1_3 
REMARK    1  A    between atoms: C1_2  and  O3_13 
REMARK    2  A    between atoms: N1_3  and  C2_5 
REMARK    3  A    between atoms: C2_5  and  C3_6 
REMARK    4  A    between atoms: O3_13  and  C9_14 
ROOT
HETATM    1  O1  UNL     1      14.248 -11.529  -6.111  1.00  0.00    -0.239 OA
HETATM    2  C1  UNL     1      13.910 -10.520  -6.741  1.00  0.00     0.361 C 
HETATM    3  N1  UNL     1      14.312  -9.205  -6.378  1.00  0.00    -0.334 N 
ATOM      4  H1  UNL     1      14.014  -8.394  -6.921  1.00  0.00     0.164 HD
ENDROOT
BRANCH   3   5
HETATM    5  C2  UNL     1      15.142  -9.054  -5.231  1.00  0.00     0.169 C 
BRANCH   5   6
HETATM    6  C3  UNL     1      16.582  -8.665  -5.643  1.00  0.00     0.211 C 
HETATM    7  C4  UNL     1      16.709  -7.828  -6.769  1.00  0.00    -0.149 C 
HETATM    8  C5  UNL     1      16.871  -6.807  -7.725  1.00  0.00     0.086 C 
HETATM    9  C6  UNL     1      17.519  -5.587  -6.984  1.00  0.00     0.040 C 
HETATM   10  C7  UNL     1      18.125  -6.018  -5.650  1.00  0.00    -0.002 C 
HETATM   11  C8  UNL     1      17.355  -6.674  -4.625  1.00  0.00     0.132 C 
HETATM   12  O2  UNL     1      17.216  -8.049  -4.511  1.00  0.00    -0.345 OA
ENDBRANCH   5   6
ENDBRANCH   3   5
BRANCH   2  13
HETATM   13  O3  UNL     1      13.108 -10.670  -7.849  1.00  0.00    -0.299 OA
BRANCH  13  14
HETATM   14  C9  UNL     1      13.461 -10.356  -9.163  1.00  0.00     0.133 C 
HETATM   15  C10 UNL     1      12.460 -10.752 -10.191  1.00  0.00     0.032 C 
HETATM   16  C11 UNL     1      12.830  -9.913 -11.396  1.00  0.00     0.002 C 
HETATM   17  C12 UNL     1      13.826  -8.890 -10.930  1.00  0.00     0.002 C 
HETATM   18  C13 UNL     1      13.631  -8.877  -9.406  1.00  0.00     0.032 C 
ENDBRANCH  13  14
ENDBRANCH   2  13
TORSDOF 4
ENDMDL
MODEL 4
REMARK VINA RESULT: -6.425722844      1.339      5.311
REMARK  4 active torsions:
REMARK  status: ('A' for Active; 'I' for Inactive)
REMARK       I    between atoms: C1_2  and  N1_3 
REMARK    1  A    between atoms: C1_2  and  O3_13 
REMARK    2  A    between atoms: N1_3  and  C2_5 
REMARK    3  A    between atoms: C2_5  and  C3_6 
REMARK    4  A    between atoms: O3_13  and  C9_14 
ROOT
HETATM    1  O1  UNL     1      13.277 -10.444  -6.022  1.00  0.00    -0.239 OA
HETATM    2  C1  UNL     1      14.059 -10.620  -6.964  1.00  0.00     0.361 C 
HETATM    3  N1  UNL     1      15.427 -10.236  -6.922  1.00  0.00    -0.334 N 
ATOM      4  H1  UNL     1      16.044 -10.397  -7.718  1.00  0.00     0.164 HD
ENDROOT
BRANCH   3   5
HETATM    5  C2  UNL     1      15.911  -9.618  -5.733  1.00  0.00     0.169 C 
BRANCH   5   6
HETATM    6  C3  UNL     1      15.804  -8.078  -5.833  1.00  0.00     0.211 C 
HETATM    7  C4  UNL     1      16.760  -7.334  -5.112  1.00  0.00    -0.149 C 
HETATM    8  C5  UNL     1      17.828  -6.563  -4.616  1.00  0.00     0.086 C 
HETATM    9  C6  UNL     1      18.510  -5.880  -5.851  1.00  0.00     0.040 C 
HETATM   10  C7  UNL     1      17.593  -5.921  -7.073  1.00  0.00    -0.002 C 
HETATM   11  C8  UNL     1      17.068  -7.152  -7.606  1.00  0.00     0.132 C 
HETATM   12  O2  UNL     1      15.861  -7.718  -7.221  1.00  0.00    -0.345 OA
ENDBRANCH   5   6
ENDBRANCH   3   5
BRANCH   2  13
HETATM   13  O3  UNL     1      13.588 -11.218  -8.110  1.00  0.00    -0.299 OA
BRANCH  13  14
HETATM   14  C9  UNL     1      13.639 -10.675  -9.395  1.00  0.00     0.133 C 
HETATM   15  C10 UNL     1      12.474 -11.007 -10.260  1.00  0.00     0.032 C 
HETATM   16  C11 UNL     1      12.529  -9.962 -11.356  1.00  0.00     0.002 C 
HETATM   17  C12 UNL     1      13.530  -8.928 -10.926  1.00  0.00     0.002 C 
HETATM   18  C13 UNL     1      13.656  -9.167  -9.413  1.00  0.00     0.032 C 
ENDBRANCH  13  14
ENDBRANCH   2  13
TORSDOF 4
ENDMDL
MODEL 5
REMARK VINA RESULT: -6.423896148      1.223      5.274
REMARK  4 active torsions:
REMARK  status: ('A' for Active; 'I' for Inactive)
REMARK       I    between atoms: C1_2  and  N1_3 
REMARK    1  A    between atoms: C1_2  and  O3_13 
REMARK    2  A    between atoms: N1_3  and  C2_5 
REMARK    3  A    between atoms: C2_5  and  C3_6 
REMARK    4  A    between atoms: O3_13  and  C9_14 
ROOT
HETATM    1  O1  UNL     1      14.822 -11.029  -6.112  1.00  0.00    -0.239 OA
HETATM    2  C1  UNL     1      14.278 -10.073  -6.677  1.00  0.00     0.361 C 
HETATM    3  N1  UNL     1      14.604  -8.717  -6.402  1.00  0.00    -0.334 N 
ATOM      4  H1  UNL     1      14.134  -7.953  -6.888  1.00  0.00     0.164 HD
ENDROOT
BRANCH   3   5
HETATM    5  C2  UNL     1      15.608  -8.457  -5.426  1.00  0.00     0.169 C 
BRANCH   5   6
HETATM    6  C3  UNL     1      16.723  -7.558  -6.011  1.00  0.00     0.211 C 
HETATM    7  C4  UNL     1      16.564  -7.152  -7.352  1.00  0.00    -0.149 C 
HETATM    8  C5  UNL     1      16.328  -6.528  -8.591  1.00  0.00     0.086 C 
HETATM    9  C6  UNL     1      16.222  -4.989  -8.314  1.00  0.00     0.040 C 
HETATM   10  C7  UNL     1      16.800  -4.640  -6.943  1.00  0.00    -0.002 C 
HETATM   11  C8  UNL     1      16.323  -5.243  -5.725  1.00  0.00     0.132 C 
HETATM   12  O2  UNL     1      16.848  -6.401  -5.170  1.00  0.00    -0.345 OA
ENDBRANCH   5   6
ENDBRANCH   3   5
BRANCH   2  13
HETATM   13  O3  UNL     1      13.308 -10.329  -7.620  1.00  0.00    -0.299 OA
BRANCH  13  14
HETATM   14  C9  UNL     1      13.471 -10.241  -9.003  1.00  0.00     0.133 C 
HETATM   15  C10 UNL     1      12.389 -10.881  -9.801  1.00  0.00     0.032 C 
HETATM   16  C11 UNL     1      12.536 -10.257 -11.174  1.00  0.00     0.002 C 
HETATM   17  C12 UNL     1      13.489  -9.105 -11.032  1.00  0.00     0.002 C 
HETATM   18  C13 UNL     1      13.481  -8.824  -9.522  1.00  0.00     0.032 C 
ENDBRANCH  13  14
ENDBRANCH   2  13
TORSDOF 4
ENDMDL
