MODEL 1
REMARK VINA RESULT: -7.897488914      0.000      0.000
REMARK  6 active torsions:
REMARK  status: ('A' for Active; 'I' for Inactive)
REMARK    1  A    between atoms: C2_2  and  O2_4 
REMARK    2  A    between atoms: O2_4  and  C3_5 
REMARK    3  A    between atoms: C5_7  and  O3_8 
REMARK    4  A    between atoms: C10_14  and  O4_15 
REMARK    5  A    between atoms: C16_23  and  C17_24 
REMARK    6  A    between atoms: C20_29  and  C22_31 
ROOT
HETATM    1  C3  UNL     1      29.513  11.686  20.971  1.00  0.00     0.173 C 
HETATM    2  C4  UNL     1      29.116  12.130  22.310  1.00  0.00     0.039 C 
HETATM    3  C5  UNL     1      28.631  13.474  22.592  1.00  0.00     0.052 C 
HETATM    4  C6  UNL     1      27.538  14.089  21.776  1.00  0.00     0.026 C 
HETATM    5  C7  UNL     1      27.209  15.403  22.549  1.00  0.00     0.024 C 
HETATM    6  C8  UNL     1      26.407  13.182  22.109  1.00  0.00     0.020 C 
HETATM    7  C9  UNL     1      25.152  13.193  21.398  1.00  0.00     0.034 C 
HETATM    8  C10 UNL     1      24.983  12.058  20.456  1.00  0.00     0.127 C 
HETATM    9  C11 UNL     1      25.992  11.475  19.629  1.00  0.00    -0.006 A 
HETATM   10  C12 UNL     1      25.217  10.328  18.852  1.00  0.00     0.019 C 
HETATM   11  C13 UNL     1      26.715  12.210  18.595  1.00  0.00     0.037 A 
HETATM   12  C14 UNL     1      26.293  13.538  18.622  1.00  0.00     0.177 C 
HETATM   13  F1  UNL     1      26.171  13.977  17.255  1.00  0.00    -0.249 F 
HETATM   14  C15 UNL     1      26.805  14.670  19.381  1.00  0.00     0.064 C 
HETATM   15  C16 UNL     1      27.861  14.493  20.446  1.00  0.00     0.097 C 
HETATM   16  C19 UNL     1      28.754  13.532  19.690  1.00  0.00     0.155 C 
HETATM   17  O6  UNL     1      29.573  14.075  18.992  1.00  0.00    -0.296 OA
HETATM   18  C20 UNL     1      28.609  12.093  19.817  1.00  0.00     0.053 C 
HETATM   19  C21 UNL     1      29.477  11.605  18.602  1.00  0.00     0.027 C 
HETATM   20  C22 UNL     1      27.350  11.437  19.679  1.00  0.00     0.023 A 
ENDROOT
BRANCH   1  21
HETATM   21  O2  UNL     1      29.618  10.290  20.878  1.00  0.00    -0.311 OA
BRANCH  21  22
HETATM   22  C2  UNL     1      29.202   9.354  21.772  1.00  0.00     0.255 C 
HETATM   23  C1  UNL     1      29.876   9.040  23.060  1.00  0.00     0.126 C 
HETATM   24  O1  UNL     1      28.182   8.718  21.490  1.00  0.00    -0.266 OA
ENDBRANCH  21  22
ENDBRANCH   1  21
BRANCH   3  25
HETATM   25  O3  UNL     1      29.555  14.366  23.149  1.00  0.00    -0.364 OA
ATOM     26  H3  UNL     1      29.204  15.183  23.484  1.00  0.00     0.217 HD
ENDBRANCH   3  25
BRANCH  15  27
HETATM   27  C17 UNL     1      28.620  15.771  20.451  1.00  0.00     0.140 C 
HETATM   28  C18 UNL     1      28.264  17.142  20.112  1.00  0.00     0.092 C 
HETATM   29  O5  UNL     1      29.816  15.686  20.814  1.00  0.00    -0.297 OA
ENDBRANCH  15  27
BRANCH   8  30
HETATM   30  O4  UNL     1      24.530  10.972  21.283  1.00  0.00    -0.395 OA
ATOM     31  H4  UNL     1      25.308  10.449  21.432  1.00  0.00     0.210 HD
ENDBRANCH   8  30
TORSDOF 6
ENDMDL
MODEL 2
REMARK VINA RESULT: -7.883205675      2.054      5.030
REMARK  6 active torsions:
REMARK  status: ('A' for Active; 'I' for Inactive)
REMARK    1  A    between atoms: C2_2  and  O2_4 
REMARK    2  A    between atoms: O2_4  and  C3_5 
REMARK    3  A    between atoms: C5_7  and  O3_8 
REMARK    4  A    between atoms: C10_14  and  O4_15 
REMARK    5  A    between atoms: C16_23  and  C17_24 
REMARK    6  A    between atoms: C20_29  and  C22_31 
ROOT
HETATM    1  C3  UNL     1      27.421  14.574  20.910  1.00  0.00     0.173 C 
HETATM    2  C4  UNL     1      28.189  14.634  19.662  1.00  0.00     0.039 C 
HETATM    3  C5  UNL     1      28.832  13.470  19.068  1.00  0.00     0.052 C 
HETATM    4  C6  UNL     1      28.080  12.195  18.853  1.00  0.00     0.026 C 
HETATM    5  C7  UNL     1      29.073  11.327  18.021  1.00  0.00     0.024 C 
HETATM    6  C8  UNL     1      27.068  12.641  17.858  1.00  0.00     0.020 C 
HETATM    7  C9  UNL     1      25.929  11.841  17.478  1.00  0.00     0.034 C 
HETATM    8  C10 UNL     1      24.648  12.297  18.073  1.00  0.00     0.127 C 
HETATM    9  C11 UNL     1      24.451  12.808  19.393  1.00  0.00    -0.006 A 
HETATM   10  C12 UNL     1      22.894  13.110  19.445  1.00  0.00     0.019 C 
HETATM   11  C13 UNL     1      24.728  12.044  20.605  1.00  0.00     0.037 A 
HETATM   12  C14 UNL     1      25.257  10.808  20.237  1.00  0.00     0.177 C 
HETATM   13  F1  UNL     1      24.673   9.816  21.103  1.00  0.00    -0.249 F 
HETATM   14  C15 UNL     1      26.639  10.408  20.013  1.00  0.00     0.064 C 
HETATM   15  C16 UNL     1      27.762  11.419  20.008  1.00  0.00     0.097 C 
HETATM   16  C19 UNL     1      27.317  12.224  21.211  1.00  0.00     0.155 C 
HETATM   17  O6  UNL     1      27.728  11.798  22.261  1.00  0.00    -0.296 OA
HETATM   18  C20 UNL     1      26.472  13.397  21.076  1.00  0.00     0.053 C 
HETATM   19  C21 UNL     1      26.029  13.609  22.568  1.00  0.00     0.027 C 
HETATM   20  C22 UNL     1      25.266  13.386  20.314  1.00  0.00     0.023 A 
ENDROOT
BRANCH   1  21
HETATM   21  O2  UNL     1      26.627  15.714  21.106  1.00  0.00    -0.311 OA
BRANCH  21  22
HETATM   22  C2  UNL     1      27.000  17.020  21.038  1.00  0.00     0.255 C 
HETATM   23  C1  UNL     1      26.515  17.999  20.029  1.00  0.00     0.126 C 
HETATM   24  O1  UNL     1      27.805  17.421  21.884  1.00  0.00    -0.266 OA
ENDBRANCH  21  22
ENDBRANCH   1  21
BRANCH   3  25
HETATM   25  O3  UNL     1      30.209  13.339  19.287  1.00  0.00    -0.364 OA
ATOM     26  H3  UNL     1      30.568  12.463  19.204  1.00  0.00     0.217 HD
ENDBRANCH   3  25
BRANCH  15  27
HETATM   27  C17 UNL     1      28.954  10.672  20.488  1.00  0.00     0.140 C 
HETATM   28  C18 UNL     1      30.158  11.071  21.201  1.00  0.00     0.092 C 
HETATM   29  O5  UNL     1      28.955   9.444  20.241  1.00  0.00    -0.297 OA
ENDBRANCH  15  27
BRANCH   8  30
HETATM   30  O4  UNL     1      24.213  13.363  17.211  1.00  0.00    -0.395 OA
ATOM     31  H4  UNL     1      23.622  13.875  17.749  1.00  0.00     0.210 HD
ENDBRANCH   8  30
TORSDOF 6
ENDMDL
MODEL 3
REMARK VINA RESULT: -7.810627192      1.501      4.906
REMARK  6 active torsions:
REMARK  status: ('A' for Active; 'I' for Inactive)
REMARK    1  A    between atoms: C2_2  and  O2_4 
REMARK    2  A    between atoms: O2_4  and  C3_5 
REMARK    3  A    between atoms: C5_7  and  O3_8 
REMARK    4  A    between atoms: C10_14  and  O4_15 
REMARK    5  A    between atoms: C16_23  and  C17_24 
REMARK    6  A    between atoms: C20_29  and  C22_31 
ROOT
HETATM    1  C3  UNL     1      28.312  13.095  22.561  1.00  0.00     0.173 C 
HETATM    2  C4  UNL     1      29.075  11.865  22.334  1.00  0.00     0.039 C 
HETATM    3  C5  UNL     1      28.707  10.874  21.332  1.00  0.00     0.052 C 
HETATM    4  C6  UNL     1      28.422  11.271  19.918  1.00  0.00     0.026 C 
HETATM    5  C7  UNL     1      28.288   9.904  19.181  1.00  0.00     0.024 C 
HETATM    6  C8  UNL     1      29.757  11.778  19.503  1.00  0.00     0.020 C 
HETATM    7  C9  UNL     1      29.979  12.506  18.278  1.00  0.00     0.034 C 
HETATM    8  C10 UNL     1      30.164  13.966  18.471  1.00  0.00     0.127 C 
HETATM    9  C11 UNL     1      29.473  14.802  19.402  1.00  0.00    -0.006 A 
HETATM   10  C12 UNL     1      30.086  16.240  19.135  1.00  0.00     0.019 C 
HETATM   11  C13 UNL     1      28.027  14.999  19.392  1.00  0.00     0.037 A 
HETATM   12  C14 UNL     1      27.480  14.201  18.389  1.00  0.00     0.177 C 
HETATM   13  F1  UNL     1      26.451  14.972  17.741  1.00  0.00    -0.249 F 
HETATM   14  C15 UNL     1      27.003  12.826  18.440  1.00  0.00     0.064 C 
HETATM   15  C16 UNL     1      27.201  11.967  19.667  1.00  0.00     0.097 C 
HETATM   16  C19 UNL     1      26.838  13.008  20.705  1.00  0.00     0.155 C 
HETATM   17  O6  UNL     1      25.659  13.059  20.952  1.00  0.00    -0.296 OA
HETATM   18  C20 UNL     1      27.844  13.851  21.326  1.00  0.00     0.053 C 
HETATM   19  C21 UNL     1      26.934  14.941  22.000  1.00  0.00     0.027 C 
HETATM   20  C22 UNL     1      28.811  14.573  20.567  1.00  0.00     0.023 A 
ENDROOT
BRANCH   1  21
HETATM   21  O2  UNL     1      29.026  14.038  23.317  1.00  0.00    -0.311 OA
BRANCH  21  22
HETATM   22  C2  UNL     1      28.792  14.441  24.594  1.00  0.00     0.255 C 
HETATM   23  C1  UNL     1      29.542  15.510  25.307  1.00  0.00     0.126 C 
HETATM   24  O1  UNL     1      27.882  13.875  25.208  1.00  0.00    -0.266 OA
ENDBRANCH  21  22
ENDBRANCH   1  21
BRANCH   3  25
HETATM   25  O3  UNL     1      28.032   9.739  21.797  1.00  0.00    -0.364 OA
ATOM     26  H3  UNL     1      27.679   9.156  21.135  1.00  0.00     0.217 HD
ENDBRANCH   3  25
BRANCH  15  27
HETATM   27  C17 UNL     1      26.047  11.029  19.670  1.00  0.00     0.140 C 
HETATM   28  C18 UNL     1      25.158  10.541  18.625  1.00  0.00     0.092 C 
HETATM   29  O5  UNL     1      25.751  10.542  20.786  1.00  0.00    -0.297 OA
ENDBRANCH  15  27
BRANCH   8  30
HETATM   30  O4  UNL     1      31.550  14.105  18.829  1.00  0.00    -0.395 OA
ATOM     31  H4  UNL     1      31.629  13.639  19.653  1.00  0.00     0.210 HD
ENDBRANCH   8  30
TORSDOF 6
ENDMDL
MODEL 4
REMARK VINA RESULT: -7.491468646      1.832      4.833
REMARK  6 active torsions:
REMARK  status: ('A' for Active; 'I' for Inactive)
REMARK    1  A    between atoms: C2_2  and  O2_4 
REMARK    2  A    between atoms: O2_4  and  C3_5 
REMARK    3  A    between atoms: C5_7  and  O3_8 
REMARK    4  A    between atoms: C10_14  and  O4_15 
REMARK    5  A    between atoms: C16_23  and  C17_24 
REMARK    6  A    between atoms: C20_29  and  C22_31 
ROOT
HETATM    1  C3  UNL     1      26.549  12.973  22.930  1.00  0.00     0.173 C 
HETATM    2  C4  UNL     1      27.940  12.830  23.372  1.00  0.00     0.039 C 
HETATM    3  C5  UNL     1      28.916  12.008  22.671  1.00  0.00     0.052 C 
HETATM    4  C6  UNL     1      29.121  12.137  21.196  1.00  0.00     0.026 C 
HETATM    5  C7  UNL     1      30.372  11.246  20.927  1.00  0.00     0.024 C 
HETATM    6  C8  UNL     1      29.643  13.527  21.114  1.00  0.00     0.020 C 
HETATM    7  C9  UNL     1      29.788  14.244  19.871  1.00  0.00     0.034 C 
HETATM    8  C10 UNL     1      28.744  15.274  19.643  1.00  0.00     0.127 C 
HETATM    9  C11 UNL     1      27.358  15.176  19.975  1.00  0.00    -0.006 A 
HETATM   10  C12 UNL     1      26.762  16.564  19.489  1.00  0.00     0.019 C 
HETATM   11  C13 UNL     1      26.463  14.166  19.421  1.00  0.00     0.037 A 
HETATM   12  C14 UNL     1      27.208  13.321  18.599  1.00  0.00     0.177 C 
HETATM   13  F1  UNL     1      26.406  13.039  17.435  1.00  0.00    -0.249 F 
HETATM   14  C15 UNL     1      27.927  12.096  18.918  1.00  0.00     0.064 C 
HETATM   15  C16 UNL     1      28.094  11.628  20.344  1.00  0.00     0.097 C 
HETATM   16  C19 UNL     1      26.683  11.906  20.817  1.00  0.00     0.155 C 
HETATM   17  O6  UNL     1      25.917  10.995  20.625  1.00  0.00    -0.296 OA
HETATM   18  C20 UNL     1      26.319  13.166  21.439  1.00  0.00     0.053 C 
HETATM   19  C21 UNL     1      24.751  13.073  21.389  1.00  0.00     0.027 C 
HETATM   20  C22 UNL     1      26.649  14.427  20.860  1.00  0.00     0.023 A 
ENDROOT
BRANCH   1  21
HETATM   21  O2  UNL     1      25.900  14.056  23.543  1.00  0.00    -0.311 OA
BRANCH  21  22
HETATM   22  C2  UNL     1      25.579  14.209  24.856  1.00  0.00     0.255 C 
HETATM   23  C1  UNL     1      26.289  15.098  25.814  1.00  0.00     0.126 C 
HETATM   24  O1  UNL     1      24.620  13.558  25.282  1.00  0.00    -0.266 OA
ENDBRANCH  21  22
ENDBRANCH   1  21
BRANCH   3  25
HETATM   25  O3  UNL     1      29.172  10.744  23.217  1.00  0.00    -0.364 OA
ATOM     26  H3  UNL     1      28.631  10.030  22.900  1.00  0.00     0.217 HD
ENDBRANCH   3  25
BRANCH  15  27
HETATM   27  C17 UNL     1      28.166  10.146  20.257  1.00  0.00     0.140 C 
HETATM   28  C18 UNL     1      28.009   9.082  21.238  1.00  0.00     0.092 C 
HETATM   29  O5  UNL     1      28.413   9.684  19.119  1.00  0.00    -0.297 OA
ENDBRANCH  15  27
BRANCH   8  30
HETATM   30  O4  UNL     1      29.207  16.419  20.381  1.00  0.00    -0.395 OA
ATOM     31  H4  UNL     1      29.526  17.015  19.714  1.00  0.00     0.210 HD
ENDBRANCH   8  30
TORSDOF 6
ENDMDL
MODEL 5
REMARK VINA RESULT: -7.294466108      1.806      4.420
REMARK  6 active torsions:
REMARK  status: ('A' for Active; 'I' for Inactive)
REMARK    1  A    between atoms: C2_2  and  O2_4 
REMARK    2  A    between atoms: O2_4  and  C3_5 
REMARK    3  A    between atoms: C5_7  and  O3_8 
REMARK    4  A    between atoms: C10_14  and  O4_15 
REMARK    5  A    between atoms: C16_23  and  C17_24 
REMARK    6  A    between atoms: C20_29  and  C22_31 
ROOT
HETATM    1  C3  UNL     1      25.118  12.223  21.618  1.00  0.00     0.173 C 
HETATM    2  C4  UNL     1      25.618  13.270  22.514  1.00  0.00     0.039 C 
HETATM    3  C5  UNL     1      27.027  13.422  22.850  1.00  0.00     0.052 C 
HETATM    4  C6  UNL     1      28.078  13.462  21.787  1.00  0.00     0.026 C 
HETATM    5  C7  UNL     1      29.370  13.842  22.572  1.00  0.00     0.024 C 
HETATM    6  C8  UNL     1      27.701  14.715  21.080  1.00  0.00     0.020 C 
HETATM    7  C9  UNL     1      28.264  15.104  19.810  1.00  0.00     0.034 C 
HETATM    8  C10 UNL     1      27.349  14.903  18.658  1.00  0.00     0.127 C 
HETATM    9  C11 UNL     1      26.444  13.815  18.464  1.00  0.00    -0.006 A 
HETATM   10  C12 UNL     1      25.759  14.147  17.071  1.00  0.00     0.019 C 
HETATM   11  C13 UNL     1      26.866  12.422  18.354  1.00  0.00     0.037 A 
HETATM   12  C14 UNL     1      28.247  12.364  18.535  1.00  0.00     0.177 C 
HETATM   13  F1  UNL     1      28.765  11.413  17.584  1.00  0.00    -0.249 F 
HETATM   14  C15 UNL     1      29.028  12.206  19.753  1.00  0.00     0.064 C 
HETATM   15  C16 UNL     1      28.378  12.237  21.117  1.00  0.00     0.097 C 
HETATM   16  C19 UNL     1      27.174  11.381  20.788  1.00  0.00     0.155 C 
HETATM   17  O6  UNL     1      27.365  10.199  20.926  1.00  0.00    -0.296 OA
HETATM   18  C20 UNL     1      25.918  11.963  20.350  1.00  0.00     0.053 C 
HETATM   19  C21 UNL     1      25.177  10.686  19.814  1.00  0.00     0.027 C 
HETATM   20  C22 UNL     1      25.847  12.921  19.296  1.00  0.00     0.023 A 
ENDROOT
BRANCH   1  21
HETATM   21  O2  UNL     1      23.809  12.473  21.179  1.00  0.00    -0.311 OA
BRANCH  21  22
HETATM   22  C2  UNL     1      22.640  12.159  21.798  1.00  0.00     0.255 C 
HETATM   23  C1  UNL     1      21.397  12.976  21.750  1.00  0.00     0.126 C 
HETATM   24  O1  UNL     1      22.611  11.111  22.450  1.00  0.00    -0.266 OA
ENDBRANCH  21  22
ENDBRANCH   1  21
BRANCH   3  25
HETATM   25  O3  UNL     1      27.430  12.911  24.090  1.00  0.00    -0.364 OA
ATOM     26  H3  UNL     1      27.752  13.542  24.723  1.00  0.00     0.217 HD
ENDBRANCH   3  25
BRANCH  15  27
HETATM   27  C17 UNL     1      29.228  11.364  21.968  1.00  0.00     0.140 C 
HETATM   28  C18 UNL     1      30.418  10.567  21.702  1.00  0.00     0.092 C 
HETATM   29  O5  UNL     1      28.874  11.270  23.166  1.00  0.00    -0.297 OA
ENDBRANCH  15  27
BRANCH   8  30
HETATM   30  O4  UNL     1      26.507  16.069  18.666  1.00  0.00    -0.395 OA
ATOM     31  H4  UNL     1      26.541  16.390  17.773  1.00  0.00     0.210 HD
ENDBRANCH   8  30
TORSDOF 6
ENDMDL
