MODEL 1
REMARK VINA RESULT: -8.958179431      0.000      0.000
REMARK  1 active torsions:
REMARK  status: ('A' for Active; 'I' for Inactive)
REMARK    1  A    between atoms: O1_1  and  C1_3 
ROOT
HETATM    1  C1  UNL     1      28.348  12.252  18.324  1.00  0.00     0.122 C 
HETATM    2  C2  UNL     1      28.837  13.256  19.333  1.00  0.00     0.032 C 
HETATM    3  C3  UNL     1      28.420  12.714  20.708  1.00  0.00     0.007 C 
HETATM    4  C4  UNL     1      26.931  12.773  20.743  1.00  0.00     0.064 C 
HETATM    5  C5  UNL     1      26.247  11.976  19.686  1.00  0.00     0.170 C 
HETATM    6  C6  UNL     1      26.892  12.008  18.344  1.00  0.00     0.095 C 
HETATM    7  N1  UNL     1      26.030  10.661  20.155  1.00  0.00    -0.366 N 
ATOM      8  H1  UNL     1      26.742   9.954  19.971  1.00  0.00     0.161 HD
HETATM    9  C7  UNL     1      25.012  10.328  20.780  1.00  0.00     0.107 C 
HETATM   10  C8  UNL     1      23.902  11.266  21.110  1.00  0.00     0.180 C 
HETATM   11  O2  UNL     1      24.287  12.455  20.637  1.00  0.00    -0.214 OA
HETATM   12  O3  UNL     1      24.947  12.520  19.534  1.00  0.00    -0.206 OA
HETATM   13  C9  UNL     1      23.676  11.103  22.558  1.00  0.00     0.170 C 
HETATM   14  C10 UNL     1      23.457  12.321  23.443  1.00  0.00     0.042 C 
HETATM   15  C11 UNL     1      22.068  12.354  23.792  1.00  0.00     0.014 C 
HETATM   16  C12 UNL     1      21.206  12.811  24.831  1.00  0.00     0.237 C 
HETATM   17  N2  UNL     1      19.862  12.388  24.341  1.00  0.00    -0.074 N 
ATOM     18  H21 UNL     1      19.329  13.199  24.027  1.00  0.00     0.277 HD
ATOM     19  H22 UNL     1      19.280  12.086  25.123  1.00  0.00     0.277 HD
HETATM   20  C13 UNL     1      19.884  11.366  23.304  1.00  0.00     0.239 C 
HETATM   21  C14 UNL     1      20.712  11.705  22.052  1.00  0.00     0.045 C 
HETATM   22  C15 UNL     1      21.407  12.899  22.537  1.00  0.00     0.015 C 
HETATM   23  C16 UNL     1      21.652  10.632  21.683  1.00  0.00     0.161 C 
HETATM   24  O4  UNL     1      22.587  10.205  22.602  1.00  0.00    -0.372 OA
HETATM   25  C17 UNL     1      22.563  10.755  20.541  1.00  0.00     0.001 C 
HETATM   26  C18 UNL     1      22.161  11.190  19.239  1.00  0.00     0.065 C 
HETATM   27 BR1  UNL     1      21.865  12.973  18.742  1.00  0.00    -0.063 Br
ENDROOT
BRANCH   1  28
HETATM   28  O1  UNL     1      29.092  11.081  18.481  1.00  0.00    -0.395 OA
ATOM     29  H1  UNL     1      28.831  10.472  17.801  1.00  0.00     0.210 HD
ENDBRANCH   1  28
TORSDOF 1
ENDMDL
MODEL 2
REMARK VINA RESULT: -8.295385519      2.721      7.227
REMARK  1 active torsions:
REMARK  status: ('A' for Active; 'I' for Inactive)
REMARK    1  A    between atoms: O1_1  and  C1_3 
ROOT
HETATM    1  C1  UNL     1      22.262  10.135  21.631  1.00  0.00     0.122 C 
HETATM    2  C2  UNL     1      21.957  11.548  22.053  1.00  0.00     0.032 C 
HETATM    3  C3  UNL     1      22.425  12.445  20.898  1.00  0.00     0.007 C 
HETATM    4  C4  UNL     1      23.910  12.330  20.858  1.00  0.00     0.064 C 
HETATM    5  C5  UNL     1      24.426  10.951  20.631  1.00  0.00     0.170 C 
HETATM    6  C6  UNL     1      23.683   9.868  21.334  1.00  0.00     0.095 C 
HETATM    7  N1  UNL     1      24.547  10.716  19.243  1.00  0.00    -0.366 N 
ATOM      8  H1  UNL     1      23.755  10.305  18.747  1.00  0.00     0.161 HD
HETATM    9  C7  UNL     1      25.572  10.987  18.601  1.00  0.00     0.107 C 
HETATM   10  C8  UNL     1      26.793  11.588  19.209  1.00  0.00     0.180 C 
HETATM   11  O2  UNL     1      26.493  11.779  20.497  1.00  0.00    -0.214 OA
HETATM   12  O3  UNL     1      25.757  10.922  21.116  1.00  0.00    -0.206 OA
HETATM   13  C9  UNL     1      27.114  12.750  18.362  1.00  0.00     0.170 C 
HETATM   14  C10 UNL     1      27.523  14.072  18.994  1.00  0.00     0.042 C 
HETATM   15  C11 UNL     1      28.932  14.231  18.786  1.00  0.00     0.014 C 
HETATM   16  C12 UNL     1      29.914  15.253  18.646  1.00  0.00     0.237 C 
HETATM   17  N2  UNL     1      31.166  14.469  18.441  1.00  0.00    -0.074 N 
ATOM     18  H21 UNL     1      31.752  14.514  19.276  1.00  0.00     0.277 HD
ATOM     19  H22 UNL     1      31.774  14.942  17.773  1.00  0.00     0.277 HD
HETATM   20  C13 UNL     1      30.960  13.083  18.044  1.00  0.00     0.239 C 
HETATM   21  C14 UNL     1      30.075  12.245  18.982  1.00  0.00     0.045 C 
HETATM   22  C15 UNL     1      29.543  13.312  19.832  1.00  0.00     0.015 C 
HETATM   23  C16 UNL     1      29.006  11.527  18.266  1.00  0.00     0.161 C 
HETATM   24  O4  UNL     1      28.108  12.238  17.498  1.00  0.00    -0.372 OA
HETATM   25  C17 UNL     1      28.025  10.693  18.966  1.00  0.00     0.001 C 
HETATM   26  C18 UNL     1      28.365   9.713  19.950  1.00  0.00     0.065 C 
HETATM   27 BR1  UNL     1      28.798  10.082  21.736  1.00  0.00    -0.063 Br
ENDROOT
BRANCH   1  28
HETATM   28  O1  UNL     1      21.419   9.808  20.568  1.00  0.00    -0.395 OA
ATOM     29  H1  UNL     1      21.911   9.902  19.761  1.00  0.00     0.210 HD
ENDBRANCH   1  28
TORSDOF 1
ENDMDL
MODEL 3
REMARK VINA RESULT: -8.015457458      2.569      6.814
REMARK  1 active torsions:
REMARK  status: ('A' for Active; 'I' for Inactive)
REMARK    1  A    between atoms: O1_1  and  C1_3 
ROOT
HETATM    1  C1  UNL     1      21.411  10.087  21.178  1.00  0.00     0.122 C 
HETATM    2  C2  UNL     1      21.146  11.217  22.138  1.00  0.00     0.032 C 
HETATM    3  C3  UNL     1      21.632  12.493  21.436  1.00  0.00     0.007 C 
HETATM    4  C4  UNL     1      23.114  12.369  21.329  1.00  0.00     0.064 C 
HETATM    5  C5  UNL     1      23.591  11.187  20.558  1.00  0.00     0.170 C 
HETATM    6  C6  UNL     1      22.823   9.930  20.778  1.00  0.00     0.095 C 
HETATM    7  N1  UNL     1      23.699  11.529  19.192  1.00  0.00    -0.366 N 
ATOM      8  H1  UNL     1      22.894  11.371  18.585  1.00  0.00     0.161 HD
HETATM    9  C7  UNL     1      24.727  12.012  18.697  1.00  0.00     0.107 C 
HETATM   10  C8  UNL     1      25.967  12.289  19.476  1.00  0.00     0.180 C 
HETATM   11  O2  UNL     1      25.679  11.952  20.737  1.00  0.00    -0.214 OA
HETATM   12  O3  UNL     1      24.924  10.935  20.970  1.00  0.00    -0.206 OA
HETATM   13  C9  UNL     1      26.316  13.687  19.164  1.00  0.00     0.170 C 
HETATM   14  C10 UNL     1      26.763  14.633  20.269  1.00  0.00     0.042 C 
HETATM   15  C11 UNL     1      28.175  14.829  20.120  1.00  0.00     0.014 C 
HETATM   16  C12 UNL     1      29.183  15.799  20.388  1.00  0.00     0.237 C 
HETATM   17  N2  UNL     1      30.413  15.135  19.866  1.00  0.00    -0.074 N 
ATOM     18  H21 UNL     1      31.003  14.827  20.639  1.00  0.00     0.277 HD
ATOM     19  H22 UNL     1      31.030  15.824  19.436  1.00  0.00     0.277 HD
HETATM   20  C13 UNL     1      30.168  14.032  18.948  1.00  0.00     0.239 C 
HETATM   21  C14 UNL     1      29.265  12.908  19.482  1.00  0.00     0.045 C 
HETATM   22  C15 UNL     1      28.767  13.554  20.698  1.00  0.00     0.015 C 
HETATM   23  C16 UNL     1      28.173  12.564  18.554  1.00  0.00     0.161 C 
HETATM   24  O4  UNL     1      27.291  13.544  18.152  1.00  0.00    -0.372 OA
HETATM   25  C17 UNL     1      27.174  11.541  18.874  1.00  0.00     0.001 C 
HETATM   26  C18 UNL     1      27.491  10.239  19.375  1.00  0.00     0.065 C 
HETATM   27 BR1  UNL     1      27.944   9.848  21.152  1.00  0.00    -0.063 Br
ENDROOT
BRANCH   1  28
HETATM   28  O1  UNL     1      20.555  10.235  20.086  1.00  0.00    -0.395 OA
ATOM     29  H1  UNL     1      20.466   9.389  19.664  1.00  0.00     0.210 HD
ENDBRANCH   1  28
TORSDOF 1
ENDMDL
MODEL 4
REMARK VINA RESULT: -7.855545980      2.852      6.566
REMARK  1 active torsions:
REMARK  status: ('A' for Active; 'I' for Inactive)
REMARK    1  A    between atoms: O1_1  and  C1_3 
ROOT
HETATM    1  C1  UNL     1      21.576  10.691  19.896  1.00  0.00     0.122 C 
HETATM    2  C2  UNL     1      21.103  11.195  21.234  1.00  0.00     0.032 C 
HETATM    3  C3  UNL     1      21.685  12.608  21.383  1.00  0.00     0.007 C 
HETATM    4  C4  UNL     1      23.161  12.439  21.494  1.00  0.00     0.064 C 
HETATM    5  C5  UNL     1      23.807  11.778  20.326  1.00  0.00     0.170 C 
HETATM    6  C6  UNL     1      23.041  10.648  19.729  1.00  0.00     0.095 C 
HETATM    7  N1  UNL     1      24.168  12.755  19.371  1.00  0.00    -0.366 N 
ATOM      8  H1  UNL     1      23.499  12.990  18.637  1.00  0.00     0.161 HD
HETATM    9  C7  UNL     1      25.261  13.340  19.386  1.00  0.00     0.107 C 
HETATM   10  C8  UNL     1      26.320  13.085  20.404  1.00  0.00     0.180 C 
HETATM   11  O2  UNL     1      25.802  12.179  21.239  1.00  0.00    -0.214 OA
HETATM   12  O3  UNL     1      25.041  11.248  20.779  1.00  0.00    -0.206 OA
HETATM   13  C9  UNL     1      26.689  14.416  20.919  1.00  0.00     0.170 C 
HETATM   14  C10 UNL     1      26.891  14.633  22.411  1.00  0.00     0.042 C 
HETATM   15  C11 UNL     1      28.300  14.766  22.638  1.00  0.00     0.014 C 
HETATM   16  C12 UNL     1      29.214  15.383  23.539  1.00  0.00     0.237 C 
HETATM   17  N2  UNL     1      30.537  14.981  22.979  1.00  0.00    -0.074 N 
ATOM     18  H21 UNL     1      30.975  14.279  23.576  1.00  0.00     0.277 HD
ATOM     19  H22 UNL     1      31.209  15.742  23.080  1.00  0.00     0.277 HD
HETATM   20  C13 UNL     1      30.500  14.519  21.599  1.00  0.00     0.239 C 
HETATM   21  C14 UNL     1      29.539  13.354  21.312  1.00  0.00     0.045 C 
HETATM   22  C15 UNL     1      28.800  13.332  22.576  1.00  0.00     0.015 C 
HETATM   23  C16 UNL     1      28.655  13.614  20.162  1.00  0.00     0.161 C 
HETATM   24  O4  UNL     1      27.844  14.729  20.169  1.00  0.00    -0.372 OA
HETATM   25  C17 UNL     1      27.637  12.653  19.729  1.00  0.00     0.001 C 
HETATM   26  C18 UNL     1      27.884  11.256  19.540  1.00  0.00     0.065 C 
HETATM   27 BR1  UNL     1      27.994   9.985  20.913  1.00  0.00    -0.063 Br
ENDROOT
BRANCH   1  28
HETATM   28  O1  UNL     1      20.942  11.438  18.901  1.00  0.00    -0.395 OA
ATOM     29  H1  UNL     1      20.005  11.308  18.986  1.00  0.00     0.210 HD
ENDBRANCH   1  28
TORSDOF 1
ENDMDL
MODEL 5
REMARK VINA RESULT: -7.824124816      4.464      8.569
REMARK  1 active torsions:
REMARK  status: ('A' for Active; 'I' for Inactive)
REMARK    1  A    between atoms: O1_1  and  C1_3 
ROOT
HETATM    1  C1  UNL     1      17.184  17.115  26.916  1.00  0.00     0.122 C 
HETATM    2  C2  UNL     1      17.473  17.914  25.674  1.00  0.00     0.032 C 
HETATM    3  C3  UNL     1      17.420  16.918  24.507  1.00  0.00     0.007 C 
HETATM    4  C4  UNL     1      18.577  15.998  24.694  1.00  0.00     0.064 C 
HETATM    5  C5  UNL     1      18.573  15.236  25.974  1.00  0.00     0.170 C 
HETATM    6  C6  UNL     1      18.117  16.000  27.169  1.00  0.00     0.095 C 
HETATM    7  N1  UNL     1      17.866  14.026  25.799  1.00  0.00    -0.366 N 
ATOM      8  H1  UNL     1      16.865  14.012  25.998  1.00  0.00     0.161 HD
HETATM    9  C7  UNL     1      18.407  12.979  25.413  1.00  0.00     0.107 C 
HETATM   10  C8  UNL     1      19.858  12.870  25.090  1.00  0.00     0.180 C 
HETATM   11  O2  UNL     1      20.356  14.098  25.268  1.00  0.00    -0.214 OA
HETATM   12  O3  UNL     1      19.909  14.837  26.223  1.00  0.00    -0.206 OA
HETATM   13  C9  UNL     1      19.912  12.255  23.752  1.00  0.00     0.170 C 
HETATM   14  C10 UNL     1      20.874  12.786  22.700  1.00  0.00     0.042 C 
HETATM   15  C11 UNL     1      21.938  11.835  22.572  1.00  0.00     0.014 C 
HETATM   16  C12 UNL     1      22.880  11.363  21.614  1.00  0.00     0.237 C 
HETATM   17  N2  UNL     1      23.614  10.312  22.377  1.00  0.00    -0.074 N 
ATOM     18  H21 UNL     1      24.552  10.637  22.613  1.00  0.00     0.277 HD
ATOM     19  H22 UNL     1      23.848   9.529  21.766  1.00  0.00     0.277 HD
HETATM   20  C13 UNL     1      22.930   9.835  23.570  1.00  0.00     0.239 C 
HETATM   21  C14 UNL     1      22.539  10.916  24.592  1.00  0.00     0.045 C 
HETATM   22  C15 UNL     1      22.802  12.113  23.791  1.00  0.00     0.015 C 
HETATM   23  C16 UNL     1      21.128  10.827  25.004  1.00  0.00     0.161 C 
HETATM   24  O4  UNL     1      20.137  10.892  24.047  1.00  0.00    -0.372 OA
HETATM   25  C17 UNL     1      20.531  11.778  25.946  1.00  0.00     0.001 C 
HETATM   26  C18 UNL     1      21.128  12.154  27.191  1.00  0.00     0.065 C 
HETATM   27 BR1  UNL     1      22.530  13.383  27.387  1.00  0.00    -0.063 Br
ENDROOT
BRANCH   1  28
HETATM   28  O1  UNL     1      15.851  16.701  26.867  1.00  0.00    -0.395 OA
ATOM     29  H1  UNL     1      15.565  16.522  27.755  1.00  0.00     0.210 HD
ENDBRANCH   1  28
TORSDOF 1
ENDMDL
