MODEL 1
REMARK VINA RESULT: -8.368170254      0.000      0.000
REMARK  6 active torsions:
REMARK  status: ('A' for Active; 'I' for Inactive)
REMARK    1  A    between atoms: O1_2  and  C2_3 
REMARK    2  A    between atoms: C2_3  and  C3_5 
REMARK    3  A    between atoms: C13_16  and  O3_17 
REMARK    4  A    between atoms: O3_17  and  C14_18 
REMARK    5  A    between atoms: C19_24  and  O5_25 
REMARK    6  A    between atoms: C20_27  and  O6_28 
ROOT
HETATM    1  C3  UNL     1      27.743  12.246  19.636  1.00  0.00     0.052 C 
HETATM    2  C4  UNL     1      28.422  13.181  18.653  1.00  0.00     0.026 C 
HETATM    3  C5  UNL     1      27.482  12.981  20.931  1.00  0.00     0.022 C 
HETATM    4  C6  UNL     1      26.442  12.114  21.564  1.00  0.00     0.028 C 
HETATM    5  C7  UNL     1      25.544  11.646  20.412  1.00  0.00     0.049 C 
HETATM    6 CL1  UNL     1      25.441   9.854  20.602  1.00  0.00    -0.118 Cl
HETATM    7  C8  UNL     1      24.202  12.279  20.517  1.00  0.00     0.020 C 
HETATM    8  C9  UNL     1      23.721  13.011  19.311  1.00  0.00     0.023 C 
HETATM    9  C10 UNL     1      22.249  13.031  19.105  1.00  0.00     0.008 C 
HETATM   10  C11 UNL     1      21.607  13.235  20.470  1.00  0.00     0.008 C 
HETATM   11  C12 UNL     1      21.827  11.992  21.238  1.00  0.00     0.020 C 
HETATM   12  C13 UNL     1      21.820  12.359  22.731  1.00  0.00     0.136 C 
HETATM   13  C16 UNL     1      22.278  11.034  23.276  1.00  0.00     0.033 C 
HETATM   14  C17 UNL     1      23.419  10.686  22.327  1.00  0.00     0.008 C 
HETATM   15  C18 UNL     1      23.126  11.291  21.004  1.00  0.00    -0.002 C 
HETATM   16  C19 UNL     1      24.343  12.479  18.021  1.00  0.00     0.151 C 
HETATM   17  C20 UNL     1      25.812  12.840  18.202  1.00  0.00     0.154 C 
HETATM   18  C21 UNL     1      26.354  11.853  19.200  1.00  0.00     0.059 C 
ENDROOT
BRANCH   1  19
HETATM   19  C2  UNL     1      28.653  11.091  19.835  1.00  0.00     0.267 C 
HETATM   20  O2  UNL     1      28.450  10.013  19.256  1.00  0.00    -0.264 OA
BRANCH  19  21
HETATM   21  O1  UNL     1      29.761  11.186  20.678  1.00  0.00    -0.326 OA
HETATM   22  C1  UNL     1      29.857  10.313  21.784  1.00  0.00     0.213 C 
ENDBRANCH  19  21
ENDBRANCH   1  19
BRANCH  17  23
HETATM   23  O6  UNL     1      26.435  12.624  16.980  1.00  0.00    -0.393 OA
ATOM     24  H6  UNL     1      26.989  13.378  16.814  1.00  0.00     0.210 HD
ENDBRANCH  17  23
BRANCH  16  25
HETATM   25  O5  UNL     1      23.860  13.271  16.992  1.00  0.00    -0.393 OA
ATOM     26  H5  UNL     1      23.765  12.705  16.235  1.00  0.00     0.210 HD
ENDBRANCH  16  25
BRANCH  12  27
HETATM   27  O3  UNL     1      20.489  12.663  23.050  1.00  0.00    -0.316 OA
BRANCH  27  28
HETATM   28  C14 UNL     1      20.093  12.832  24.369  1.00  0.00     0.255 C 
HETATM   29  C15 UNL     1      18.941  12.048  24.904  1.00  0.00     0.126 C 
HETATM   30  O4  UNL     1      20.743  13.655  25.050  1.00  0.00    -0.266 OA
ENDBRANCH  27  28
ENDBRANCH  12  27
TORSDOF 6
ENDMDL
MODEL 2
REMARK VINA RESULT: -7.902014654      1.282      1.548
REMARK  6 active torsions:
REMARK  status: ('A' for Active; 'I' for Inactive)
REMARK    1  A    between atoms: O1_2  and  C2_3 
REMARK    2  A    between atoms: C2_3  and  C3_5 
REMARK    3  A    between atoms: C13_16  and  O3_17 
REMARK    4  A    between atoms: O3_17  and  C14_18 
REMARK    5  A    between atoms: C19_24  and  O5_25 
REMARK    6  A    between atoms: C20_27  and  O6_28 
ROOT
HETATM    1  C3  UNL     1      27.423  13.386  19.743  1.00  0.00     0.052 C 
HETATM    2  C4  UNL     1      27.760  14.616  18.921  1.00  0.00     0.026 C 
HETATM    3  C5  UNL     1      26.945  13.813  21.112  1.00  0.00     0.022 C 
HETATM    4  C6  UNL     1      26.243  12.580  21.583  1.00  0.00     0.028 C 
HETATM    5  C7  UNL     1      25.538  12.015  20.345  1.00  0.00     0.049 C 
HETATM    6 CL1  UNL     1      26.018  10.275  20.292  1.00  0.00    -0.118 Cl
HETATM    7  C8  UNL     1      24.064  12.165  20.479  1.00  0.00     0.020 C 
HETATM    8  C9  UNL     1      23.367  12.864  19.363  1.00  0.00     0.023 C 
HETATM    9  C10 UNL     1      21.966  12.441  19.103  1.00  0.00     0.008 C 
HETATM   10  C11 UNL     1      21.299  12.238  20.455  1.00  0.00     0.008 C 
HETATM   11  C12 UNL     1      21.911  11.037  21.060  1.00  0.00     0.020 C 
HETATM   12  C13 UNL     1      21.794  11.172  22.588  1.00  0.00     0.136 C 
HETATM   13  C16 UNL     1      22.657  10.001  22.970  1.00  0.00     0.033 C 
HETATM   14  C17 UNL     1      23.845  10.171  22.029  1.00  0.00     0.008 C 
HETATM   15  C18 UNL     1      23.366  10.828  20.787  1.00  0.00    -0.002 C 
HETATM   16  C19 UNL     1      24.121  12.742  18.039  1.00  0.00     0.151 C 
HETATM   17  C20 UNL     1      25.397  13.525  18.325  1.00  0.00     0.154 C 
HETATM   18  C21 UNL     1      26.232  12.635  19.204  1.00  0.00     0.059 C 
ENDROOT
BRANCH   1  19
HETATM   19  C2  UNL     1      28.657  12.566  19.823  1.00  0.00     0.267 C 
HETATM   20  O2  UNL     1      29.511  12.784  20.695  1.00  0.00    -0.264 OA
BRANCH  19  21
HETATM   21  O1  UNL     1      28.890  11.529  18.919  1.00  0.00    -0.326 OA
HETATM   22  C1  UNL     1      29.834  11.719  17.886  1.00  0.00     0.213 C 
ENDBRANCH  19  21
ENDBRANCH   1  19
BRANCH  17  23
HETATM   23  O6  UNL     1      26.050  13.690  17.111  1.00  0.00    -0.393 OA
ATOM     24  H6  UNL     1      25.970  14.607  16.876  1.00  0.00     0.210 HD
ENDBRANCH  17  23
BRANCH  16  25
HETATM   25  O5  UNL     1      23.403  13.472  17.106  1.00  0.00    -0.393 OA
ATOM     26  H5  UNL     1      22.627  13.792  17.550  1.00  0.00     0.210 HD
ENDBRANCH  16  25
BRANCH  12  27
HETATM   27  O3  UNL     1      20.437  10.988  22.891  1.00  0.00    -0.316 OA
BRANCH  27  28
HETATM   28  C14 UNL     1      19.840  11.683  23.932  1.00  0.00     0.255 C 
HETATM   29  C15 UNL     1      20.251  13.090  24.217  1.00  0.00     0.126 C 
HETATM   30  O4  UNL     1      18.968  11.073  24.589  1.00  0.00    -0.266 OA
ENDBRANCH  27  28
ENDBRANCH  12  27
TORSDOF 6
ENDMDL
MODEL 3
REMARK VINA RESULT: -7.698585598      3.985      9.149
REMARK  6 active torsions:
REMARK  status: ('A' for Active; 'I' for Inactive)
REMARK    1  A    between atoms: O1_2  and  C2_3 
REMARK    2  A    between atoms: C2_3  and  C3_5 
REMARK    3  A    between atoms: C13_16  and  O3_17 
REMARK    4  A    between atoms: O3_17  and  C14_18 
REMARK    5  A    between atoms: C19_24  and  O5_25 
REMARK    6  A    between atoms: C20_27  and  O6_28 
ROOT
HETATM    1  C3  UNL     1      18.827  14.286  27.103  1.00  0.00     0.052 C 
HETATM    2  C4  UNL     1      19.197  15.546  27.862  1.00  0.00     0.026 C 
HETATM    3  C5  UNL     1      18.470  14.644  25.679  1.00  0.00     0.022 C 
HETATM    4  C6  UNL     1      18.597  13.320  24.995  1.00  0.00     0.028 C 
HETATM    5  C7  UNL     1      19.809  12.642  25.644  1.00  0.00     0.049 C 
HETATM    6 CL1  UNL     1      19.226  10.998  26.110  1.00  0.00    -0.118 Cl
HETATM    7  C8  UNL     1      20.933  12.561  24.673  1.00  0.00     0.020 C 
HETATM    8  C9  UNL     1      22.235  13.134  25.120  1.00  0.00     0.023 C 
HETATM    9  C10 UNL     1      23.454  12.496  24.560  1.00  0.00     0.008 C 
HETATM   10  C11 UNL     1      23.175  12.202  23.093  1.00  0.00     0.008 C 
HETATM   11  C12 UNL     1      22.175  11.116  23.055  1.00  0.00     0.020 C 
HETATM   12  C13 UNL     1      21.397  11.244  21.734  1.00  0.00     0.136 C 
HETATM   13  C16 UNL     1      20.328  10.225  22.019  1.00  0.00     0.033 C 
HETATM   14  C17 UNL     1      19.945  10.570  23.454  1.00  0.00     0.008 C 
HETATM   15  C18 UNL     1      21.139  11.134  24.133  1.00  0.00    -0.002 C 
HETATM   16  C19 UNL     1      22.384  13.121  26.641  1.00  0.00     0.151 C 
HETATM   17  C20 UNL     1      21.297  14.095  27.077  1.00  0.00     0.154 C 
HETATM   18  C21 UNL     1      19.998  13.354  26.919  1.00  0.00     0.059 C 
ENDROOT
BRANCH   1  19
HETATM   19  C2  UNL     1      17.683  13.669  27.818  1.00  0.00     0.267 C 
HETATM   20  O2  UNL     1      17.860  13.000  28.847  1.00  0.00    -0.264 OA
BRANCH  19  21
HETATM   21  O1  UNL     1      16.377  13.824  27.352  1.00  0.00    -0.326 OA
HETATM   22  C1  UNL     1      15.466  14.594  28.109  1.00  0.00     0.213 C 
ENDBRANCH  19  21
ENDBRANCH   1  19
BRANCH  17  23
HETATM   23  O6  UNL     1      21.501  14.350  28.427  1.00  0.00    -0.393 OA
ATOM     24  H6  UNL     1      21.111  15.197  28.610  1.00  0.00     0.210 HD
ENDBRANCH  17  23
BRANCH  16  25
HETATM   25  O5  UNL     1      23.599  13.723  26.924  1.00  0.00    -0.393 OA
ATOM     26  H5  UNL     1      23.493  14.649  26.742  1.00  0.00     0.210 HD
ENDBRANCH  16  25
BRANCH  12  27
HETATM   27  O3  UNL     1      22.285  10.853  20.722  1.00  0.00    -0.316 OA
BRANCH  27  28
HETATM   28  C14 UNL     1      22.511  11.665  19.620  1.00  0.00     0.255 C 
HETATM   29  C15 UNL     1      21.794  12.969  19.501  1.00  0.00     0.126 C 
HETATM   30  O4  UNL     1      23.323  11.244  18.768  1.00  0.00    -0.266 OA
ENDBRANCH  27  28
ENDBRANCH  12  27
TORSDOF 6
ENDMDL
MODEL 4
REMARK VINA RESULT: -7.685854883      2.587      3.300
REMARK  6 active torsions:
REMARK  status: ('A' for Active; 'I' for Inactive)
REMARK    1  A    between atoms: O1_2  and  C2_3 
REMARK    2  A    between atoms: C2_3  and  C3_5 
REMARK    3  A    between atoms: C13_16  and  O3_17 
REMARK    4  A    between atoms: O3_17  and  C14_18 
REMARK    5  A    between atoms: C19_24  and  O5_25 
REMARK    6  A    between atoms: C20_27  and  O6_28 
ROOT
HETATM    1  C3  UNL     1      27.974  14.685  21.438  1.00  0.00     0.052 C 
HETATM    2  C4  UNL     1      28.212  16.133  21.058  1.00  0.00     0.026 C 
HETATM    3  C5  UNL     1      26.796  14.600  22.381  1.00  0.00     0.022 C 
HETATM    4  C6  UNL     1      26.427  13.155  22.271  1.00  0.00     0.028 C 
HETATM    5  C7  UNL     1      26.630  12.794  20.795  1.00  0.00     0.049 C 
HETATM    6 CL1  UNL     1      27.643  11.300  20.819  1.00  0.00    -0.118 Cl
HETATM    7  C8  UNL     1      25.317  12.546  20.142  1.00  0.00     0.020 C 
HETATM    8  C9  UNL     1      25.035  13.334  18.908  1.00  0.00     0.023 C 
HETATM    9  C10 UNL     1      24.163  12.675  17.900  1.00  0.00     0.008 C 
HETATM   10  C11 UNL     1      23.055  11.962  18.661  1.00  0.00     0.008 C 
HETATM   11  C12 UNL     1      23.680  10.825  19.365  1.00  0.00     0.020 C 
HETATM   12  C13 UNL     1      22.821  10.511  20.601  1.00  0.00     0.136 C 
HETATM   13  C16 UNL     1      23.745   9.521  21.256  1.00  0.00     0.033 C 
HETATM   14  C17 UNL     1      25.095  10.216  21.114  1.00  0.00     0.008 C 
HETATM   15  C18 UNL     1      25.063  11.049  19.886  1.00  0.00    -0.002 C 
HETATM   16  C19 UNL     1      26.312  13.757  18.183  1.00  0.00     0.151 C 
HETATM   17  C20 UNL     1      26.946  14.714  19.185  1.00  0.00     0.154 C 
HETATM   18  C21 UNL     1      27.518  13.845  20.272  1.00  0.00     0.059 C 
ENDROOT
BRANCH   1  19
HETATM   19  C2  UNL     1      29.222  14.192  22.073  1.00  0.00     0.267 C 
HETATM   20  O2  UNL     1      30.090  13.611  21.406  1.00  0.00    -0.264 OA
BRANCH  19  21
HETATM   21  O1  UNL     1      29.451  14.369  23.438  1.00  0.00    -0.326 OA
HETATM   22  C1  UNL     1      30.165  15.509  23.870  1.00  0.00     0.213 C 
ENDBRANCH  19  21
ENDBRANCH   1  19
BRANCH  17  23
HETATM   23  O6  UNL     1      27.991  15.350  18.529  1.00  0.00    -0.393 OA
ATOM     24  H6  UNL     1      28.465  15.850  19.184  1.00  0.00     0.210 HD
ENDBRANCH  17  23
BRANCH  16  25
HETATM   25  O5  UNL     1      25.916  14.518  17.096  1.00  0.00    -0.393 OA
ATOM     26  H5  UNL     1      24.992  14.343  16.963  1.00  0.00     0.210 HD
ENDBRANCH  16  25
BRANCH  12  27
HETATM   27  O3  UNL     1      21.639   9.934  20.116  1.00  0.00    -0.316 OA
BRANCH  27  28
HETATM   28  C14 UNL     1      20.523   9.806  20.930  1.00  0.00     0.255 C 
HETATM   29  C15 UNL     1      20.399  10.646  22.158  1.00  0.00     0.126 C 
HETATM   30  O4  UNL     1      19.662   8.970  20.577  1.00  0.00    -0.266 OA
ENDBRANCH  27  28
ENDBRANCH  12  27
TORSDOF 6
ENDMDL
MODEL 5
REMARK VINA RESULT: -7.672909001      2.311      3.787
REMARK  6 active torsions:
REMARK  status: ('A' for Active; 'I' for Inactive)
REMARK    1  A    between atoms: O1_2  and  C2_3 
REMARK    2  A    between atoms: C2_3  and  C3_5 
REMARK    3  A    between atoms: C13_16  and  O3_17 
REMARK    4  A    between atoms: O3_17  and  C14_18 
REMARK    5  A    between atoms: C19_24  and  O5_25 
REMARK    6  A    between atoms: C20_27  and  O6_28 
ROOT
HETATM    1  C3  UNL     1      28.820  11.692  19.857  1.00  0.00     0.052 C 
HETATM    2  C4  UNL     1      29.942  11.315  20.805  1.00  0.00     0.026 C 
HETATM    3  C5  UNL     1      28.002  10.462  19.532  1.00  0.00     0.022 C 
HETATM    4  C6  UNL     1      26.739  11.070  19.013  1.00  0.00     0.028 C 
HETATM    5  C7  UNL     1      26.492  12.305  19.887  1.00  0.00     0.049 C 
HETATM    6 CL1  UNL     1      26.209  13.651  18.718  1.00  0.00    -0.118 Cl
HETATM    7  C8  UNL     1      25.306  12.089  20.759  1.00  0.00     0.020 C 
HETATM    8  C9  UNL     1      25.515  12.294  22.220  1.00  0.00     0.023 C 
HETATM    9  C10 UNL     1      24.333  12.769  22.987  1.00  0.00     0.008 C 
HETATM   10  C11 UNL     1      23.121  12.021  22.452  1.00  0.00     0.008 C 
HETATM   11  C12 UNL     1      22.869  12.530  21.089  1.00  0.00     0.020 C 
HETATM   12  C13 UNL     1      22.155  11.419  20.300  1.00  0.00     0.136 C 
HETATM   13  C16 UNL     1      22.216  12.054  18.938  1.00  0.00     0.033 C 
HETATM   14  C17 UNL     1      23.654  12.560  18.895  1.00  0.00     0.008 C 
HETATM   15  C18 UNL     1      24.076  12.882  20.281  1.00  0.00    -0.002 C 
HETATM   16  C19 UNL     1      26.656  13.267  22.514  1.00  0.00     0.151 C 
HETATM   17  C20 UNL     1      27.869  12.503  21.996  1.00  0.00     0.154 C 
HETATM   18  C21 UNL     1      27.800  12.599  20.496  1.00  0.00     0.059 C 
ENDROOT
BRANCH   1  19
HETATM   19  C2  UNL     1      29.451  12.267  18.644  1.00  0.00     0.267 C 
HETATM   20  O2  UNL     1      29.824  11.539  17.713  1.00  0.00    -0.264 OA
BRANCH  19  21
HETATM   21  O1  UNL     1      29.644  13.643  18.519  1.00  0.00    -0.326 OA
HETATM   22  C1  UNL     1      30.931  14.129  18.199  1.00  0.00     0.213 C 
ENDBRANCH  19  21
ENDBRANCH   1  19
BRANCH  17  23
HETATM   23  O6  UNL     1      28.994  13.187  22.433  1.00  0.00    -0.393 OA
ATOM     24  H6  UNL     1      29.750  12.686  22.151  1.00  0.00     0.210 HD
ENDBRANCH  17  23
BRANCH  16  25
HETATM   25  O5  UNL     1      26.780  13.327  23.893  1.00  0.00    -0.393 OA
ATOM     26  H5  UNL     1      27.578  13.809  24.073  1.00  0.00     0.210 HD
ENDBRANCH  16  25
BRANCH  12  27
HETATM   27  O3  UNL     1      20.857  11.343  20.823  1.00  0.00    -0.316 OA
BRANCH  27  28
HETATM   28  C14 UNL     1      20.361  10.150  21.328  1.00  0.00     0.255 C 
HETATM   29  C15 UNL     1      20.041  10.036  22.782  1.00  0.00     0.126 C 
HETATM   30  O4  UNL     1      20.208   9.214  20.513  1.00  0.00    -0.266 OA
ENDBRANCH  27  28
ENDBRANCH  12  27
TORSDOF 6
ENDMDL
