MODEL 1
REMARK VINA RESULT: -7.744883919      0.000      0.000
REMARK  6 active torsions:
REMARK  status: ('A' for Active; 'I' for Inactive)
REMARK    1  A    between atoms: O1_2  and  C2_3 
REMARK    2  A    between atoms: C2_3  and  C3_5 
REMARK    3  A    between atoms: C4_7  and  O3_8 
REMARK    4  A    between atoms: O3_8  and  C5_9 
REMARK    5  A    between atoms: C14_19  and  O5_20 
REMARK    6  A    between atoms: C19_27  and  O7_28 
ROOT
HETATM    1  C3  UNL     1      19.350  11.658  25.537  1.00  0.00     0.221 C 
HETATM    2  F1  UNL     1      19.636  10.374  25.223  1.00  0.00    -0.229 F 
HETATM    3  C4  UNL     1      19.623  11.812  27.041  1.00  0.00     0.183 C 
HETATM    4  C7  UNL     1      21.132  12.038  27.030  1.00  0.00     0.046 C 
HETATM    5  C8  UNL     1      21.272  13.069  25.945  1.00  0.00    -0.034 C 
HETATM    6  C9  UNL     1      21.067  14.425  26.555  1.00  0.00     0.016 C 
HETATM    7  C10 UNL     1      22.596  12.956  25.218  1.00  0.00     0.015 C 
HETATM    8  C11 UNL     1      22.301  11.976  24.146  1.00  0.00    -0.002 C 
HETATM    9  C12 UNL     1      20.906  12.452  23.715  1.00  0.00     0.001 C 
HETATM   10  C13 UNL     1      20.408  11.458  22.748  1.00  0.00     0.037 C 
HETATM   11  C14 UNL     1      21.168  11.741  21.438  1.00  0.00     0.123 C 
HETATM   12  C15 UNL     1      22.478  12.411  21.676  1.00  0.00     0.028 C 
HETATM   13  C16 UNL     1      23.378  12.033  20.490  1.00  0.00     0.086 C 
HETATM   14  C17 UNL     1      24.624  12.814  20.653  1.00  0.00     0.129 C 
HETATM   15  O6  UNL     1      25.029  13.512  19.743  1.00  0.00    -0.298 OA
HETATM   16  C18 UNL     1      25.335  12.700  21.957  1.00  0.00     0.110 C 
HETATM   17  C19 UNL     1      24.373  12.940  23.119  1.00  0.00     0.130 C 
HETATM   18  C20 UNL     1      23.170  12.038  22.941  1.00  0.00     0.026 C 
HETATM   19  C21 UNL     1      20.194  12.702  24.944  1.00  0.00     0.051 C 
ENDROOT
BRANCH   1  20
HETATM   20  C2  UNL     1      17.892  11.936  25.272  1.00  0.00     0.301 C 
HETATM   21  O2  UNL     1      17.064  10.990  25.261  1.00  0.00    -0.261 OA
BRANCH  20  22
HETATM   22  O1  UNL     1      17.422  13.208  25.036  1.00  0.00    -0.324 OA
HETATM   23  C1  UNL     1      16.040  13.498  25.277  1.00  0.00     0.213 C 
ENDBRANCH  20  22
ENDBRANCH   1  20
BRANCH   3  24
HETATM   24  O3  UNL     1      18.922  12.887  27.592  1.00  0.00    -0.312 OA
BRANCH  24  25
HETATM   25  C5  UNL     1      18.627  12.914  28.961  1.00  0.00     0.255 C 
HETATM   26  C6  UNL     1      19.697  12.784  29.983  1.00  0.00     0.126 C 
HETATM   27  O4  UNL     1      17.410  13.053  29.284  1.00  0.00    -0.266 OA
ENDBRANCH  24  25
ENDBRANCH   3  24
BRANCH  11  28
HETATM   28  O5  UNL     1      21.305  10.566  20.692  1.00  0.00    -0.395 OA
ATOM     29  H5  UNL     1      22.107  10.590  20.183  1.00  0.00     0.210 HD
ENDBRANCH  11  28
BRANCH  17  30
HETATM   30  O7  UNL     1      25.106  12.586  24.275  1.00  0.00    -0.395 OA
ATOM     31  H7  UNL     1      24.969  13.306  24.880  1.00  0.00     0.210 HD
ENDBRANCH  17  30
TORSDOF 6
ENDMDL
MODEL 2
REMARK VINA RESULT: -7.625900941      1.992      2.844
REMARK  6 active torsions:
REMARK  status: ('A' for Active; 'I' for Inactive)
REMARK    1  A    between atoms: O1_2  and  C2_3 
REMARK    2  A    between atoms: C2_3  and  C3_5 
REMARK    3  A    between atoms: C4_7  and  O3_8 
REMARK    4  A    between atoms: O3_8  and  C5_9 
REMARK    5  A    between atoms: C14_19  and  O5_20 
REMARK    6  A    between atoms: C19_27  and  O7_28 
ROOT
HETATM    1  C3  UNL     1      20.856  11.802  23.827  1.00  0.00     0.221 C 
HETATM    2  F1  UNL     1      20.407  10.795  23.044  1.00  0.00    -0.229 F 
HETATM    3  C4  UNL     1      21.411  11.150  25.102  1.00  0.00     0.183 C 
HETATM    4  C7  UNL     1      22.805  10.750  24.629  1.00  0.00     0.046 C 
HETATM    5  C8  UNL     1      23.263  12.011  23.949  1.00  0.00    -0.034 C 
HETATM    6  C9  UNL     1      23.867  12.912  24.987  1.00  0.00     0.016 C 
HETATM    7  C10 UNL     1      24.214  11.729  22.804  1.00  0.00     0.015 C 
HETATM    8  C11 UNL     1      23.297  11.531  21.656  1.00  0.00    -0.002 C 
HETATM    9  C12 UNL     1      22.279  12.649  21.922  1.00  0.00     0.001 C 
HETATM   10  C13 UNL     1      21.200  12.472  20.933  1.00  0.00     0.037 C 
HETATM   11  C14 UNL     1      21.775  12.989  19.600  1.00  0.00     0.123 C 
HETATM   12  C15 UNL     1      23.262  12.914  19.557  1.00  0.00     0.028 C 
HETATM   13  C16 UNL     1      23.645  12.787  18.074  1.00  0.00     0.086 C 
HETATM   14  C17 UNL     1      25.122  12.860  18.022  1.00  0.00     0.129 C 
HETATM   15  O6  UNL     1      25.667  13.672  17.298  1.00  0.00    -0.298 OA
HETATM   16  C18 UNL     1      25.883  11.911  18.883  1.00  0.00     0.110 C 
HETATM   17  C19 UNL     1      25.374  11.961  20.322  1.00  0.00     0.130 C 
HETATM   18  C20 UNL     1      23.871  11.780  20.307  1.00  0.00     0.026 C 
HETATM   19  C21 UNL     1      22.000  12.580  23.334  1.00  0.00     0.051 C 
ENDROOT
BRANCH   1  20
HETATM   20  C2  UNL     1      19.713  12.711  24.198  1.00  0.00     0.301 C 
HETATM   21  O2  UNL     1      19.801  13.948  23.988  1.00  0.00    -0.261 OA
BRANCH  20  22
HETATM   22  O1  UNL     1      18.555  12.235  24.770  1.00  0.00    -0.324 OA
HETATM   23  C1  UNL     1      17.904  13.013  25.781  1.00  0.00     0.213 C 
ENDBRANCH  20  22
ENDBRANCH   1  20
BRANCH   3  24
HETATM   24  O3  UNL     1      21.443  12.044  26.175  1.00  0.00    -0.312 OA
BRANCH  24  25
HETATM   25  C5  UNL     1      21.001  11.645  27.443  1.00  0.00     0.255 C 
HETATM   26  C6  UNL     1      21.241  12.487  28.643  1.00  0.00     0.126 C 
HETATM   27  O4  UNL     1      20.392  10.537  27.517  1.00  0.00    -0.266 OA
ENDBRANCH  24  25
ENDBRANCH   3  24
BRANCH  11  28
HETATM   28  O5  UNL     1      21.182  12.321  18.524  1.00  0.00    -0.395 OA
ATOM     29  H5  UNL     1      21.110  12.900  17.775  1.00  0.00     0.210 HD
ENDBRANCH  11  28
BRANCH  17  30
HETATM   30  O7  UNL     1      26.010  10.875  20.968  1.00  0.00    -0.395 OA
ATOM     31  H7  UNL     1      25.534  10.106  20.677  1.00  0.00     0.210 HD
ENDBRANCH  17  30
TORSDOF 6
ENDMDL
MODEL 3
REMARK VINA RESULT: -7.525831491      3.960      9.768
REMARK  6 active torsions:
REMARK  status: ('A' for Active; 'I' for Inactive)
REMARK    1  A    between atoms: O1_2  and  C2_3 
REMARK    2  A    between atoms: C2_3  and  C3_5 
REMARK    3  A    between atoms: C4_7  and  O3_8 
REMARK    4  A    between atoms: O3_8  and  C5_9 
REMARK    5  A    between atoms: C14_19  and  O5_20 
REMARK    6  A    between atoms: C19_27  and  O7_28 
ROOT
HETATM    1  C3  UNL     1      28.354  13.138  20.947  1.00  0.00     0.221 C 
HETATM    2  F1  UNL     1      28.479  12.080  21.780  1.00  0.00    -0.229 F 
HETATM    3  C4  UNL     1      28.860  12.675  19.572  1.00  0.00     0.183 C 
HETATM    4  C7  UNL     1      27.616  11.970  19.039  1.00  0.00     0.046 C 
HETATM    5  C8  UNL     1      26.545  12.978  19.349  1.00  0.00    -0.034 C 
HETATM    6  C9  UNL     1      26.480  13.962  18.217  1.00  0.00     0.016 C 
HETATM    7  C10 UNL     1      25.207  12.323  19.622  1.00  0.00     0.015 C 
HETATM    8  C11 UNL     1      25.266  12.048  21.078  1.00  0.00    -0.002 C 
HETATM    9  C12 UNL     1      25.918  13.345  21.577  1.00  0.00     0.001 C 
HETATM   10  C13 UNL     1      26.191  13.148  23.012  1.00  0.00     0.037 C 
HETATM   11  C14 UNL     1      24.826  13.287  23.712  1.00  0.00     0.123 C 
HETATM   12  C15 UNL     1      23.688  12.968  22.806  1.00  0.00     0.028 C 
HETATM   13  C16 UNL     1      22.541  12.485  23.707  1.00  0.00     0.086 C 
HETATM   14  C17 UNL     1      21.368  12.308  22.822  1.00  0.00     0.129 C 
HETATM   15  O6  UNL     1      20.316  12.860  23.086  1.00  0.00    -0.298 OA
HETATM   16  C18 UNL     1      21.543  11.442  21.622  1.00  0.00     0.110 C 
HETATM   17  C19 UNL     1      22.779  11.861  20.830  1.00  0.00     0.130 C 
HETATM   18  C20 UNL     1      23.959  11.925  21.777  1.00  0.00     0.026 C 
HETATM   19  C21 UNL     1      26.994  13.608  20.654  1.00  0.00     0.051 C 
ENDROOT
BRANCH   1  20
HETATM   20  C2  UNL     1      29.218  14.274  21.430  1.00  0.00     0.301 C 
HETATM   21  O2  UNL     1      28.773  15.451  21.416  1.00  0.00    -0.261 OA
BRANCH  20  22
HETATM   22  O1  UNL     1      30.498  14.075  21.894  1.00  0.00    -0.324 OA
HETATM   23  C1  UNL     1      31.377  15.198  22.025  1.00  0.00     0.213 C 
ENDBRANCH  20  22
ENDBRANCH   1  20
BRANCH   3  24
HETATM   24  O3  UNL     1      29.254  13.751  18.772  1.00  0.00    -0.312 OA
BRANCH  24  25
HETATM   25  C5  UNL     1      30.548  13.799  18.238  1.00  0.00     0.255 C 
HETATM   26  C6  UNL     1      31.333  15.059  18.233  1.00  0.00     0.126 C 
HETATM   27  O4  UNL     1      31.014  12.722  17.761  1.00  0.00    -0.266 OA
ENDBRANCH  24  25
ENDBRANCH   3  24
BRANCH  11  28
HETATM   28  O5  UNL     1      24.800  12.519  24.882  1.00  0.00    -0.395 OA
ATOM     29  H5  UNL     1      24.138  11.841  24.816  1.00  0.00     0.210 HD
ENDBRANCH  11  28
BRANCH  17  30
HETATM   30  O7  UNL     1      22.955  10.841  19.867  1.00  0.00    -0.395 OA
ATOM     31  H7  UNL     1      22.589  11.196  19.065  1.00  0.00     0.210 HD
ENDBRANCH  17  30
TORSDOF 6
ENDMDL
MODEL 4
REMARK VINA RESULT: -7.505374385      5.244     10.007
REMARK  6 active torsions:
REMARK  status: ('A' for Active; 'I' for Inactive)
REMARK    1  A    between atoms: O1_2  and  C2_3 
REMARK    2  A    between atoms: C2_3  and  C3_5 
REMARK    3  A    between atoms: C4_7  and  O3_8 
REMARK    4  A    between atoms: O3_8  and  C5_9 
REMARK    5  A    between atoms: C14_19  and  O5_20 
REMARK    6  A    between atoms: C19_27  and  O7_28 
ROOT
HETATM    1  C3  UNL     1      28.404  11.012  19.533  1.00  0.00     0.221 C 
HETATM    2  F1  UNL     1      27.964   9.892  18.915  1.00  0.00    -0.229 F 
HETATM    3  C4  UNL     1      29.078  11.872  18.453  1.00  0.00     0.183 C 
HETATM    4  C7  UNL     1      27.860  12.558  17.840  1.00  0.00     0.046 C 
HETATM    5  C8  UNL     1      27.122  13.011  19.069  1.00  0.00    -0.034 C 
HETATM    6  C9  UNL     1      27.673  14.345  19.484  1.00  0.00     0.016 C 
HETATM    7  C10 UNL     1      25.623  13.046  18.855  1.00  0.00     0.015 C 
HETATM    8  C11 UNL     1      25.209  11.666  19.205  1.00  0.00    -0.002 C 
HETATM    9  C12 UNL     1      26.085  11.421  20.443  1.00  0.00     0.001 C 
HETATM   10  C13 UNL     1      25.895  10.008  20.813  1.00  0.00     0.037 C 
HETATM   11  C14 UNL     1      24.512   9.942  21.488  1.00  0.00     0.123 C 
HETATM   12  C15 UNL     1      23.611  11.041  21.043  1.00  0.00     0.028 C 
HETATM   13  C16 UNL     1      22.176  10.516  21.208  1.00  0.00     0.086 C 
HETATM   14  C17 UNL     1      21.283  11.657  20.905  1.00  0.00     0.129 C 
HETATM   15  O6  UNL     1      20.430  11.992  21.705  1.00  0.00    -0.298 OA
HETATM   16  C18 UNL     1      21.481  12.352  19.602  1.00  0.00     0.110 C 
HETATM   17  C19 UNL     1      22.948  12.728  19.409  1.00  0.00     0.130 C 
HETATM   18  C20 UNL     1      23.796  11.494  19.636  1.00  0.00     0.026 C 
HETATM   19  C21 UNL     1      27.391  11.919  20.087  1.00  0.00     0.051 C 
ENDROOT
BRANCH   1  20
HETATM   20  C2  UNL     1      29.426  10.651  20.580  1.00  0.00     0.301 C 
HETATM   21  O2  UNL     1      30.261  11.509  20.965  1.00  0.00    -0.261 OA
BRANCH  20  22
HETATM   22  O1  UNL     1      29.484   9.396  21.143  1.00  0.00    -0.324 OA
HETATM   23  C1  UNL     1      29.490   9.270  22.570  1.00  0.00     0.213 C 
ENDBRANCH  20  22
ENDBRANCH   1  20
BRANCH   3  24
HETATM   24  O3  UNL     1      29.988  12.780  19.000  1.00  0.00    -0.312 OA
BRANCH  24  25
HETATM   25  C5  UNL     1      30.930  13.418  18.183  1.00  0.00     0.255 C 
HETATM   26  C6  UNL     1      31.102  14.893  18.213  1.00  0.00     0.126 C 
HETATM   27  O4  UNL     1      31.623  12.681  17.421  1.00  0.00    -0.266 OA
ENDBRANCH  24  25
ENDBRANCH   3  24
BRANCH  11  28
HETATM   28  O5  UNL     1      23.938   8.680  21.298  1.00  0.00    -0.395 OA
ATOM     29  H5  UNL     1      23.192   8.567  21.875  1.00  0.00     0.210 HD
ENDBRANCH  11  28
BRANCH  17  30
HETATM   30  O7  UNL     1      23.037  13.165  18.067  1.00  0.00    -0.395 OA
ATOM     31  H7  UNL     1      23.574  12.513  17.633  1.00  0.00     0.210 HD
ENDBRANCH  17  30
TORSDOF 6
ENDMDL
MODEL 5
REMARK VINA RESULT: -7.379703017      4.061      6.893
REMARK  6 active torsions:
REMARK  status: ('A' for Active; 'I' for Inactive)
REMARK    1  A    between atoms: O1_2  and  C2_3 
REMARK    2  A    between atoms: C2_3  and  C3_5 
REMARK    3  A    between atoms: C4_7  and  O3_8 
REMARK    4  A    between atoms: O3_8  and  C5_9 
REMARK    5  A    between atoms: C14_19  and  O5_20 
REMARK    6  A    between atoms: C19_27  and  O7_28 
ROOT
HETATM    1  C3  UNL     1      23.010  11.810  21.491  1.00  0.00     0.221 C 
HETATM    2  F1  UNL     1      22.748  13.005  22.065  1.00  0.00    -0.229 F 
HETATM    3  C4  UNL     1      21.961  11.616  20.385  1.00  0.00     0.183 C 
HETATM    4  C7  UNL     1      22.593  12.421  19.254  1.00  0.00     0.046 C 
HETATM    5  C8  UNL     1      24.012  11.926  19.292  1.00  0.00    -0.034 C 
HETATM    6  C9  UNL     1      24.098  10.679  18.460  1.00  0.00     0.016 C 
HETATM    7  C10 UNL     1      24.998  12.987  18.847  1.00  0.00     0.015 C 
HETATM    8  C11 UNL     1      25.295  13.709  20.106  1.00  0.00    -0.002 C 
HETATM    9  C12 UNL     1      25.395  12.529  21.084  1.00  0.00     0.001 C 
HETATM   10  C13 UNL     1      25.532  13.114  22.429  1.00  0.00     0.037 C 
HETATM   11  C14 UNL     1      26.986  13.614  22.515  1.00  0.00     0.123 C 
HETATM   12  C15 UNL     1      27.562  13.917  21.174  1.00  0.00     0.028 C 
HETATM   13  C16 UNL     1      28.647  14.981  21.401  1.00  0.00     0.086 C 
HETATM   14  C17 UNL     1      29.315  15.173  20.095  1.00  0.00     0.129 C 
HETATM   15  O6  UNL     1      30.524  15.067  20.007  1.00  0.00    -0.298 OA
HETATM   16  C18 UNL     1      28.448  15.494  18.926  1.00  0.00     0.110 C 
HETATM   17  C19 UNL     1      27.295  14.499  18.820  1.00  0.00     0.130 C 
HETATM   18  C20 UNL     1      26.596  14.427  20.161  1.00  0.00     0.026 C 
HETATM   19  C21 UNL     1      24.278  11.675  20.763  1.00  0.00     0.051 C 
ENDROOT
BRANCH   1  20
HETATM   20  C2  UNL     1      22.860  10.708  22.508  1.00  0.00     0.301 C 
HETATM   21  O2  UNL     1      23.537   9.654  22.396  1.00  0.00    -0.261 OA
BRANCH  20  22
HETATM   22  O1  UNL     1      21.995  10.810  23.574  1.00  0.00    -0.324 OA
HETATM   23  C1  UNL     1      21.794   9.672  24.421  1.00  0.00     0.213 C 
ENDBRANCH  20  22
ENDBRANCH   1  20
BRANCH   3  24
HETATM   24  O3  UNL     1      21.791  10.268  20.057  1.00  0.00    -0.312 OA
BRANCH  24  25
HETATM   25  C5  UNL     1      20.516   9.689  20.082  1.00  0.00     0.255 C 
HETATM   26  C6  UNL     1      19.892   9.144  18.850  1.00  0.00     0.126 C 
HETATM   27  O4  UNL     1      19.924   9.651  21.202  1.00  0.00    -0.266 OA
ENDBRANCH  24  25
ENDBRANCH   3  24
BRANCH  11  28
HETATM   28  O5  UNL     1      27.074  14.706  23.385  1.00  0.00    -0.395 OA
ATOM     29  H5  UNL     1      27.878  14.662  23.889  1.00  0.00     0.210 HD
ENDBRANCH  11  28
BRANCH  17  30
HETATM   30  O7  UNL     1      26.441  15.039  17.830  1.00  0.00    -0.395 OA
ATOM     31  H7  UNL     1      26.674  15.959  17.782  1.00  0.00     0.210 HD
ENDBRANCH  17  30
TORSDOF 6
ENDMDL
