MODEL 1
REMARK VINA RESULT: -8.424853739      0.000      0.000
REMARK  9 active torsions:
REMARK  status: ('A' for Active; 'I' for Inactive)
REMARK    1  A    between atoms: C2_2  and  C3_4 
REMARK    2  A    between atoms: C7_11  and  C9_13 
REMARK    3  A    between atoms: C12_16  and  C13_17 
REMARK       I    between atoms: C13_17  and  N1_19 
REMARK    4  A    between atoms: N1_19  and  C14_21 
REMARK    5  A    between atoms: C19_29  and  C20_30 
REMARK    6  A    between atoms: C21_31  and  C22_32 
REMARK    7  A    between atoms: C22_32  and  N4_33 
REMARK       I    between atoms: N4_33  and  C23_35 
REMARK    8  A    between atoms: C23_35  and  C24_37 
REMARK    9  A    between atoms: C24_37  and  N5_39 
ROOT
HETATM    1  C3  UNL     1      -9.101 -25.307  -7.840  1.00  0.00     0.146 C 
HETATM    2  C4  UNL     1     -10.481 -25.020  -7.483  1.00  0.00     0.210 C 
HETATM    3  O2  UNL     1     -11.347 -25.870  -7.345  1.00  0.00    -0.290 OA
HETATM    4  C5  UNL     1     -10.717 -23.560  -7.304  1.00  0.00     0.309 C 
HETATM    5  F1  UNL     1      -9.884 -23.160  -6.243  1.00  0.00    -0.197 F 
HETATM    6  F2  UNL     1     -11.971 -23.426  -6.822  1.00  0.00    -0.197 F 
HETATM    7  C6  UNL     1     -10.364 -22.758  -8.470  1.00  0.00     0.090 C 
HETATM    8  C7  UNL     1     -11.072 -22.882  -9.768  1.00  0.00    -0.017 C 
HETATM    9  C8  UNL     1     -11.793 -24.132 -10.100  1.00  0.00     0.017 C 
HETATM   10  C12 UNL     1      -9.681 -22.703 -10.386  1.00  0.00     0.101 C 
HETATM   11  C19 UNL     1      -8.982 -23.061  -9.105  1.00  0.00     0.015 C 
HETATM   12  C26 UNL     1      -8.434 -24.347  -8.789  1.00  0.00     0.090 C 
HETATM   13 BR1  UNL     1      -7.919 -25.505 -10.300  1.00  0.00    -0.089 Br
ENDROOT
BRANCH  11  14
HETATM   14  C20 UNL     1      -8.130 -21.895  -8.674  1.00  0.00    -0.017 C 
HETATM   15  C21 UNL     1      -6.714 -21.739  -8.906  1.00  0.00    -0.010 C 
BRANCH  15  16
HETATM   16  C22 UNL     1      -5.675 -22.640  -8.387  1.00  0.00     0.149 C 
BRANCH  16  17
HETATM   17  N4  UNL     1      -5.836 -22.862  -6.935  1.00  0.00    -0.356 N 
HETATM   18  C23 UNL     1      -5.229 -22.069  -5.958  1.00  0.00     0.248 C 
HETATM   19  O4  UNL     1      -4.489 -21.101  -6.202  1.00  0.00    -0.271 OA
ATOM     20  H4  UNL     1      -6.423 -23.638  -6.628  1.00  0.00     0.162 HD
BRANCH  18  21
HETATM   21  C24 UNL     1      -5.458 -22.369  -4.507  1.00  0.00     0.270 C 
HETATM   22  C25 UNL     1      -6.565 -21.495  -3.934  1.00  0.00     0.050 C 
BRANCH  21  23
HETATM   23  N5  UNL     1      -4.247 -22.045  -3.747  1.00  0.00    -0.067 N 
ATOM     24  H53 UNL     1      -4.277 -22.412  -2.796  1.00  0.00     0.275 HD
ATOM     25  H52 UNL     1      -3.433 -22.564  -4.077  1.00  0.00     0.275 HD
ATOM     26  H51 UNL     1      -4.096 -21.036  -3.768  1.00  0.00     0.275 HD
ENDBRANCH  21  23
ENDBRANCH  18  21
ENDBRANCH  16  17
ENDBRANCH  15  16
ENDBRANCH  11  14
BRANCH  10  27
HETATM   27  C13 UNL     1      -9.426 -23.372 -11.631  1.00  0.00     0.228 C 
HETATM   28  O3  UNL     1      -9.796 -24.559 -11.955  1.00  0.00    -0.273 OA
HETATM   29  N1  UNL     1      -8.698 -22.743 -12.682  1.00  0.00    -0.325 N 
ATOM     30  H1  UNL     1      -7.733 -22.474 -12.497  1.00  0.00     0.169 HD
BRANCH  29  31
HETATM   31  C14 UNL     1      -9.178 -22.491 -13.850  1.00  0.00     0.053 A 
HETATM   32  C15 UNL     1     -10.263 -21.631 -13.983  1.00  0.00     0.049 A 
HETATM   33  C16 UNL     1     -10.826 -21.324 -15.195  1.00  0.00     0.109 A 
HETATM   34  N2  UNL     1     -10.288 -21.890 -16.293  1.00  0.00    -0.310 N 
HETATM   35  N3  UNL     1      -9.263 -22.704 -16.184  1.00  0.00    -0.306 N 
ATOM     36  H2  UNL     1     -10.679 -21.686 -17.213  1.00  0.00     0.186 HD
HETATM   37  C17 UNL     1      -8.757 -23.265 -17.445  1.00  0.00     0.177 C 
HETATM   38  C18 UNL     1      -8.687 -23.028 -15.019  1.00  0.00     0.139 A 
ENDBRANCH  29  31
ENDBRANCH  10  27
BRANCH   8  39
HETATM   39  C9  UNL     1     -11.998 -21.699 -10.068  1.00  0.00    -0.013 C 
HETATM   40  C10 UNL     1     -12.941 -21.368  -8.941  1.00  0.00     0.010 C 
HETATM   41  C11 UNL     1     -12.811 -21.847 -11.296  1.00  0.00     0.010 C 
ENDBRANCH   8  39
BRANCH   1  42
HETATM   42  C2  UNL     1      -8.343 -25.430  -6.535  1.00  0.00     0.135 C 
HETATM   43  C1  UNL     1      -8.050 -26.723  -5.924  1.00  0.00     0.091 C 
HETATM   44  O1  UNL     1      -7.971 -24.408  -5.992  1.00  0.00    -0.297 OA
ENDBRANCH   1  42
TORSDOF 9
ENDMDL
MODEL 2
REMARK VINA RESULT: -8.404081767      3.055      7.326
REMARK  9 active torsions:
REMARK  status: ('A' for Active; 'I' for Inactive)
REMARK    1  A    between atoms: C2_2  and  C3_4 
REMARK    2  A    between atoms: C7_11  and  C9_13 
REMARK    3  A    between atoms: C12_16  and  C13_17 
REMARK       I    between atoms: C13_17  and  N1_19 
REMARK    4  A    between atoms: N1_19  and  C14_21 
REMARK    5  A    between atoms: C19_29  and  C20_30 
REMARK    6  A    between atoms: C21_31  and  C22_32 
REMARK    7  A    between atoms: C22_32  and  N4_33 
REMARK       I    between atoms: N4_33  and  C23_35 
REMARK    8  A    between atoms: C23_35  and  C24_37 
REMARK    9  A    between atoms: C24_37  and  N5_39 
ROOT
HETATM    1  C3  UNL     1     -14.246 -19.627  -7.826  1.00  0.00     0.146 C 
HETATM    2  C4  UNL     1     -14.851 -20.806  -7.227  1.00  0.00     0.210 C 
HETATM    3  O2  UNL     1     -15.166 -20.895  -6.050  1.00  0.00    -0.290 OA
HETATM    4  C5  UNL     1     -15.045 -21.898  -8.222  1.00  0.00     0.309 C 
HETATM    5  F1  UNL     1     -15.921 -21.385  -9.195  1.00  0.00    -0.197 F 
HETATM    6  F2  UNL     1     -15.751 -22.866  -7.601  1.00  0.00    -0.197 F 
HETATM    7  C6  UNL     1     -13.818 -22.301  -8.900  1.00  0.00     0.090 C 
HETATM    8  C7  UNL     1     -12.679 -22.929  -8.184  1.00  0.00    -0.017 C 
HETATM    9  C8  UNL     1     -12.512 -22.714  -6.729  1.00  0.00     0.017 C 
HETATM   10  C12 UNL     1     -11.807 -22.075  -9.113  1.00  0.00     0.101 C 
HETATM   11  C19 UNL     1     -12.940 -21.148  -9.451  1.00  0.00     0.015 C 
HETATM   12  C26 UNL     1     -13.171 -19.866  -8.852  1.00  0.00     0.090 C 
HETATM   13 BR1  UNL     1     -11.612 -18.934  -8.083  1.00  0.00    -0.089 Br
ENDROOT
BRANCH  11  14
HETATM   14  C20 UNL     1     -13.180 -21.196 -10.937  1.00  0.00    -0.017 C 
HETATM   15  C21 UNL     1     -12.405 -21.937 -11.905  1.00  0.00    -0.010 C 
BRANCH  15  16
HETATM   16  C22 UNL     1     -10.979 -21.717 -12.181  1.00  0.00     0.149 C 
BRANCH  16  17
HETATM   17  N4  UNL     1     -10.615 -22.197 -13.531  1.00  0.00    -0.356 N 
HETATM   18  C23 UNL     1      -9.298 -22.312 -13.983  1.00  0.00     0.248 C 
HETATM   19  O4  UNL     1      -8.297 -22.021 -13.307  1.00  0.00    -0.271 OA
ATOM     20  H4  UNL     1     -11.367 -22.459 -14.168  1.00  0.00     0.162 HD
BRANCH  18  21
HETATM   21  C24 UNL     1      -9.028 -22.817 -15.369  1.00  0.00     0.270 C 
HETATM   22  C25 UNL     1     -10.169 -22.463 -16.314  1.00  0.00     0.050 C 
BRANCH  21  23
HETATM   23  N5  UNL     1      -8.956 -24.281 -15.346  1.00  0.00    -0.067 N 
ATOM     24  H53 UNL     1      -8.117 -24.635 -15.804  1.00  0.00     0.275 HD
ATOM     25  H52 UNL     1      -8.774 -24.644 -14.411  1.00  0.00     0.275 HD
ATOM     26  H51 UNL     1      -9.810 -24.667 -15.751  1.00  0.00     0.275 HD
ENDBRANCH  21  23
ENDBRANCH  18  21
ENDBRANCH  16  17
ENDBRANCH  15  16
ENDBRANCH  11  14
BRANCH  10  27
HETATM   27  C13 UNL     1     -10.548 -21.619  -8.591  1.00  0.00     0.228 C 
HETATM   28  O3  UNL     1     -10.335 -21.124  -7.425  1.00  0.00    -0.273 OA
HETATM   29  N1  UNL     1      -9.354 -21.676  -9.365  1.00  0.00    -0.325 N 
ATOM     30  H1  UNL     1      -9.322 -21.138 -10.231  1.00  0.00     0.169 HD
BRANCH  29  31
HETATM   31  C14 UNL     1      -8.313 -22.362  -9.046  1.00  0.00     0.053 A 
HETATM   32  C15 UNL     1      -8.394 -23.749  -8.966  1.00  0.00     0.049 A 
HETATM   33  C16 UNL     1      -7.326 -24.539  -8.627  1.00  0.00     0.109 A 
HETATM   34  N2  UNL     1      -6.154 -23.925  -8.364  1.00  0.00    -0.310 N 
HETATM   35  N3  UNL     1      -6.062 -22.618  -8.436  1.00  0.00    -0.306 N 
ATOM     36  H2  UNL     1      -5.337 -24.479  -8.109  1.00  0.00     0.186 HD
HETATM   37  C17 UNL     1      -4.739 -22.053  -8.130  1.00  0.00     0.177 C 
HETATM   38  C18 UNL     1      -7.082 -21.813  -8.764  1.00  0.00     0.139 A 
ENDBRANCH  29  31
ENDBRANCH  10  27
BRANCH   8  39
HETATM   39  C9  UNL     1     -12.537 -24.427  -8.470  1.00  0.00    -0.013 C 
HETATM   40  C10 UNL     1     -11.654 -25.149  -7.486  1.00  0.00     0.010 C 
HETATM   41  C11 UNL     1     -12.046 -24.753  -9.828  1.00  0.00     0.010 C 
ENDBRANCH   8  39
BRANCH   1  42
HETATM   42  C2  UNL     1     -15.386 -18.803  -8.384  1.00  0.00     0.135 C 
HETATM   43  C1  UNL     1     -15.358 -18.247  -9.734  1.00  0.00     0.091 C 
HETATM   44  O1  UNL     1     -16.351 -18.607  -7.671  1.00  0.00    -0.297 OA
ENDBRANCH   1  42
TORSDOF 9
ENDMDL
MODEL 3
REMARK VINA RESULT: -8.248485377      3.085      7.284
REMARK  9 active torsions:
REMARK  status: ('A' for Active; 'I' for Inactive)
REMARK    1  A    between atoms: C2_2  and  C3_4 
REMARK    2  A    between atoms: C7_11  and  C9_13 
REMARK    3  A    between atoms: C12_16  and  C13_17 
REMARK       I    between atoms: C13_17  and  N1_19 
REMARK    4  A    between atoms: N1_19  and  C14_21 
REMARK    5  A    between atoms: C19_29  and  C20_30 
REMARK    6  A    between atoms: C21_31  and  C22_32 
REMARK    7  A    between atoms: C22_32  and  N4_33 
REMARK       I    between atoms: N4_33  and  C23_35 
REMARK    8  A    between atoms: C23_35  and  C24_37 
REMARK    9  A    between atoms: C24_37  and  N5_39 
ROOT
HETATM    1  C3  UNL     1     -14.250 -19.624  -7.843  1.00  0.00     0.146 C 
HETATM    2  C4  UNL     1     -14.857 -20.801  -7.242  1.00  0.00     0.210 C 
HETATM    3  O2  UNL     1     -15.173 -20.886  -6.066  1.00  0.00    -0.290 OA
HETATM    4  C5  UNL     1     -15.049 -21.895  -8.235  1.00  0.00     0.309 C 
HETATM    5  F1  UNL     1     -15.924 -21.384  -9.210  1.00  0.00    -0.197 F 
HETATM    6  F2  UNL     1     -15.757 -22.861  -7.612  1.00  0.00    -0.197 F 
HETATM    7  C6  UNL     1     -13.822 -22.301  -8.910  1.00  0.00     0.090 C 
HETATM    8  C7  UNL     1     -12.684 -22.927  -8.191  1.00  0.00    -0.017 C 
HETATM    9  C8  UNL     1     -12.520 -22.709  -6.736  1.00  0.00     0.017 C 
HETATM   10  C12 UNL     1     -11.811 -22.076  -9.120  1.00  0.00     0.101 C 
HETATM   11  C19 UNL     1     -12.942 -21.149  -9.462  1.00  0.00     0.015 C 
HETATM   12  C26 UNL     1     -13.173 -19.865  -8.867  1.00  0.00     0.090 C 
HETATM   13 BR1  UNL     1     -11.615 -18.932  -8.099  1.00  0.00    -0.089 Br
ENDROOT
BRANCH  11  14
HETATM   14  C20 UNL     1     -13.180 -21.202 -10.949  1.00  0.00    -0.017 C 
HETATM   15  C21 UNL     1     -12.399 -21.938 -11.914  1.00  0.00    -0.010 C 
BRANCH  15  16
HETATM   16  C22 UNL     1     -10.974 -21.710 -12.189  1.00  0.00     0.149 C 
BRANCH  16  17
HETATM   17  N4  UNL     1     -10.588 -22.258 -13.507  1.00  0.00    -0.356 N 
HETATM   18  C23 UNL     1      -9.266 -22.355 -13.948  1.00  0.00     0.248 C 
HETATM   19  O4  UNL     1      -8.279 -21.989 -13.289  1.00  0.00    -0.271 OA
ATOM     20  H4  UNL     1     -11.329 -22.583 -14.129  1.00  0.00     0.162 HD
BRANCH  18  21
HETATM   21  C24 UNL     1      -8.974 -22.934 -15.300  1.00  0.00     0.270 C 
HETATM   22  C25 UNL     1      -9.986 -22.456 -16.333  1.00  0.00     0.050 C 
BRANCH  21  23
HETATM   23  N5  UNL     1      -9.107 -24.393 -15.242  1.00  0.00    -0.067 N 
ATOM     24  H53 UNL     1     -10.040 -24.707 -15.512  1.00  0.00     0.275 HD
ATOM     25  H52 UNL     1      -8.579 -24.859 -15.978  1.00  0.00     0.275 HD
ATOM     26  H51 UNL     1      -8.844 -24.718 -14.311  1.00  0.00     0.275 HD
ENDBRANCH  21  23
ENDBRANCH  18  21
ENDBRANCH  16  17
ENDBRANCH  15  16
ENDBRANCH  11  14
BRANCH  10  27
HETATM   27  C13 UNL     1     -10.552 -21.619  -8.598  1.00  0.00     0.228 C 
HETATM   28  O3  UNL     1     -10.340 -21.121  -7.433  1.00  0.00    -0.273 OA
HETATM   29  N1  UNL     1      -9.357 -21.680  -9.370  1.00  0.00    -0.325 N 
ATOM     30  H1  UNL     1      -9.323 -21.145 -10.237  1.00  0.00     0.169 HD
BRANCH  29  31
HETATM   31  C14 UNL     1      -8.317 -22.366  -9.048  1.00  0.00     0.053 A 
HETATM   32  C15 UNL     1      -7.134 -21.714  -8.712  1.00  0.00     0.049 A 
HETATM   33  C16 UNL     1      -5.988 -22.383  -8.364  1.00  0.00     0.109 A 
HETATM   34  N2  UNL     1      -6.032 -23.730  -8.352  1.00  0.00    -0.310 N 
HETATM   35  N3  UNL     1      -7.140 -24.359  -8.665  1.00  0.00    -0.306 N 
ATOM     36  H2  UNL     1      -5.200 -24.262  -8.098  1.00  0.00     0.186 HD
HETATM   37  C17 UNL     1      -7.076 -25.827  -8.619  1.00  0.00     0.177 C 
HETATM   38  C18 UNL     1      -8.279 -23.742  -9.011  1.00  0.00     0.139 A 
ENDBRANCH  29  31
ENDBRANCH  10  27
BRANCH   8  39
HETATM   39  C9  UNL     1     -12.543 -24.426  -8.472  1.00  0.00    -0.013 C 
HETATM   40  C10 UNL     1     -11.672 -25.148  -7.478  1.00  0.00     0.010 C 
HETATM   41  C11 UNL     1     -12.038 -24.756  -9.824  1.00  0.00     0.010 C 
ENDBRANCH   8  39
BRANCH   1  42
HETATM   42  C2  UNL     1     -15.389 -18.800  -8.405  1.00  0.00     0.135 C 
HETATM   43  C1  UNL     1     -15.358 -18.248  -9.757  1.00  0.00     0.091 C 
HETATM   44  O1  UNL     1     -16.355 -18.602  -7.695  1.00  0.00    -0.297 OA
ENDBRANCH   1  42
TORSDOF 9
ENDMDL
MODEL 4
REMARK VINA RESULT: -8.104100163      2.121      7.602
REMARK  9 active torsions:
REMARK  status: ('A' for Active; 'I' for Inactive)
REMARK    1  A    between atoms: C2_2  and  C3_4 
REMARK    2  A    between atoms: C7_11  and  C9_13 
REMARK    3  A    between atoms: C12_16  and  C13_17 
REMARK       I    between atoms: C13_17  and  N1_19 
REMARK    4  A    between atoms: N1_19  and  C14_21 
REMARK    5  A    between atoms: C19_29  and  C20_30 
REMARK    6  A    between atoms: C21_31  and  C22_32 
REMARK    7  A    between atoms: C22_32  and  N4_33 
REMARK       I    between atoms: N4_33  and  C23_35 
REMARK    8  A    between atoms: C23_35  and  C24_37 
REMARK    9  A    between atoms: C24_37  and  N5_39 
ROOT
HETATM    1  C3  UNL     1     -12.284 -22.251  -8.160  1.00  0.00     0.146 C 
HETATM    2  C4  UNL     1     -12.209 -23.371  -7.236  1.00  0.00     0.210 C 
HETATM    3  O2  UNL     1     -12.502 -23.307  -6.052  1.00  0.00    -0.290 OA
HETATM    4  C5  UNL     1     -11.732 -24.613  -7.906  1.00  0.00     0.309 C 
HETATM    5  F1  UNL     1     -12.684 -24.908  -8.898  1.00  0.00    -0.197 F 
HETATM    6  F2  UNL     1     -11.855 -25.611  -7.005  1.00  0.00    -0.197 F 
HETATM    7  C6  UNL     1     -10.438 -24.468  -8.563  1.00  0.00     0.090 C 
HETATM    8  C7  UNL     1      -9.187 -24.193  -7.813  1.00  0.00    -0.017 C 
HETATM    9  C8  UNL     1      -9.251 -23.558  -6.477  1.00  0.00     0.017 C 
HETATM   10  C12 UNL     1      -8.843 -23.281  -8.996  1.00  0.00     0.101 C 
HETATM   11  C19 UNL     1     -10.271 -23.212  -9.457  1.00  0.00     0.015 C 
HETATM   12  C26 UNL     1     -11.183 -22.141  -9.181  1.00  0.00     0.090 C 
HETATM   13 BR1  UNL     1     -10.406 -20.368  -8.805  1.00  0.00    -0.089 Br
ENDROOT
BRANCH  11  14
HETATM   14  C20 UNL     1     -10.356 -23.760 -10.858  1.00  0.00    -0.017 C 
HETATM   15  C21 UNL     1      -9.543 -23.359 -11.983  1.00  0.00    -0.010 C 
BRANCH  15  16
HETATM   16  C22 UNL     1      -9.512 -22.006 -12.555  1.00  0.00     0.149 C 
BRANCH  16  17
HETATM   17  N4  UNL     1      -9.147 -22.038 -13.987  1.00  0.00    -0.356 N 
HETATM   18  C23 UNL     1     -10.068 -22.254 -15.016  1.00  0.00     0.248 C 
HETATM   19  O4  UNL     1     -11.282 -22.447 -14.840  1.00  0.00    -0.271 OA
ATOM     20  H4  UNL     1      -8.169 -21.895 -14.238  1.00  0.00     0.162 HD
BRANCH  18  21
HETATM   21  C24 UNL     1      -9.602 -22.261 -16.441  1.00  0.00     0.270 C 
HETATM   22  C25 UNL     1     -10.626 -22.927 -17.350  1.00  0.00     0.050 C 
BRANCH  21  23
HETATM   23  N5  UNL     1      -8.379 -23.063 -16.547  1.00  0.00    -0.067 N 
ATOM     24  H53 UNL     1      -7.943 -23.225 -15.639  1.00  0.00     0.275 HD
ATOM     25  H52 UNL     1      -8.573 -24.033 -16.790  1.00  0.00     0.275 HD
ATOM     26  H51 UNL     1      -7.741 -22.618 -17.208  1.00  0.00     0.275 HD
ENDBRANCH  21  23
ENDBRANCH  18  21
ENDBRANCH  16  17
ENDBRANCH  15  16
ENDBRANCH  11  14
BRANCH  10  27
HETATM   27  C13 UNL     1      -8.053 -22.114  -8.714  1.00  0.00     0.228 C 
HETATM   28  O3  UNL     1      -8.490 -20.927  -8.489  1.00  0.00    -0.273 OA
HETATM   29  N1  UNL     1      -6.631 -22.172  -8.655  1.00  0.00    -0.325 N 
ATOM     30  H1  UNL     1      -6.131 -22.448  -9.500  1.00  0.00     0.169 HD
BRANCH  29  31
HETATM   31  C14 UNL     1      -5.935 -21.899  -7.608  1.00  0.00     0.053 A 
HETATM   32  C15 UNL     1      -5.113 -20.776  -7.595  1.00  0.00     0.049 A 
HETATM   33  C16 UNL     1      -4.341 -20.430  -6.516  1.00  0.00     0.109 A 
HETATM   34  N2  UNL     1      -4.396 -21.226  -5.429  1.00  0.00    -0.310 N 
HETATM   35  N3  UNL     1      -5.167 -22.289  -5.426  1.00  0.00    -0.306 N 
ATOM     36  H2  UNL     1      -3.837 -21.001  -4.607  1.00  0.00     0.186 HD
HETATM   37  C17 UNL     1      -5.151 -23.085  -4.190  1.00  0.00     0.177 C 
HETATM   38  C18 UNL     1      -5.934 -22.659  -6.460  1.00  0.00     0.139 A 
ENDBRANCH  29  31
ENDBRANCH  10  27
BRANCH   8  39
HETATM   39  C9  UNL     1      -8.256 -25.406  -7.725  1.00  0.00    -0.013 C 
HETATM   40  C10 UNL     1      -7.643 -25.795  -9.045  1.00  0.00     0.010 C 
HETATM   41  C11 UNL     1      -8.878 -26.621  -7.151  1.00  0.00     0.010 C 
ENDBRANCH   8  39
BRANCH   1  42
HETATM   42  C2  UNL     1     -13.650 -22.326  -8.807  1.00  0.00     0.135 C 
HETATM   43  C1  UNL     1     -13.865 -21.992 -10.212  1.00  0.00     0.091 C 
HETATM   44  O1  UNL     1     -14.589 -22.680  -8.120  1.00  0.00    -0.297 OA
ENDBRANCH   1  42
TORSDOF 9
ENDMDL
MODEL 5
REMARK VINA RESULT: -8.080952833      3.729      7.529
REMARK  9 active torsions:
REMARK  status: ('A' for Active; 'I' for Inactive)
REMARK    1  A    between atoms: C2_2  and  C3_4 
REMARK    2  A    between atoms: C7_11  and  C9_13 
REMARK    3  A    between atoms: C12_16  and  C13_17 
REMARK       I    between atoms: C13_17  and  N1_19 
REMARK    4  A    between atoms: N1_19  and  C14_21 
REMARK    5  A    between atoms: C19_29  and  C20_30 
REMARK    6  A    between atoms: C21_31  and  C22_32 
REMARK    7  A    between atoms: C22_32  and  N4_33 
REMARK       I    between atoms: N4_33  and  C23_35 
REMARK    8  A    between atoms: C23_35  and  C24_37 
REMARK    9  A    between atoms: C24_37  and  N5_39 
ROOT
HETATM    1  C3  UNL     1     -14.361 -18.463  -7.952  1.00  0.00     0.146 C 
HETATM    2  C4  UNL     1     -15.221 -19.128  -6.987  1.00  0.00     0.210 C 
HETATM    3  O2  UNL     1     -15.403 -18.738  -5.844  1.00  0.00    -0.290 OA
HETATM    4  C5  UNL     1     -15.859 -20.348  -7.558  1.00  0.00     0.309 C 
HETATM    5  F1  UNL     1     -16.646 -19.904  -8.636  1.00  0.00    -0.197 F 
HETATM    6  F2  UNL     1     -16.748 -20.785  -6.642  1.00  0.00    -0.197 F 
HETATM    7  C6  UNL     1     -14.906 -21.322  -8.078  1.00  0.00     0.090 C 
HETATM    8  C7  UNL     1     -13.936 -22.034  -7.209  1.00  0.00    -0.017 C 
HETATM    9  C8  UNL     1     -13.538 -21.445  -5.911  1.00  0.00     0.017 C 
HETATM   10  C12 UNL     1     -12.964 -21.848  -8.379  1.00  0.00     0.101 C 
HETATM   11  C19 UNL     1     -13.789 -20.754  -8.993  1.00  0.00     0.015 C 
HETATM   12  C26 UNL     1     -13.542 -19.348  -8.853  1.00  0.00     0.090 C 
HETATM   13 BR1  UNL     1     -11.692 -18.792  -8.458  1.00  0.00    -0.089 Br
ENDROOT
BRANCH  11  14
HETATM   14  C20 UNL     1     -14.211 -21.180 -10.375  1.00  0.00    -0.017 C 
HETATM   15  C21 UNL     1     -13.333 -21.551 -11.460  1.00  0.00    -0.010 C 
BRANCH  15  16
HETATM   16  C22 UNL     1     -12.342 -20.660 -12.078  1.00  0.00     0.149 C 
BRANCH  16  17
HETATM   17  N4  UNL     1     -11.051 -21.351 -12.279  1.00  0.00    -0.356 N 
HETATM   18  C23 UNL     1     -10.588 -21.779 -13.526  1.00  0.00     0.248 C 
HETATM   19  O4  UNL     1     -11.207 -21.632 -14.592  1.00  0.00    -0.271 OA
ATOM     20  H4  UNL     1     -10.466 -21.526 -11.461  1.00  0.00     0.162 HD
BRANCH  18  21
HETATM   21  C24 UNL     1      -9.259 -22.466 -13.629  1.00  0.00     0.270 C 
HETATM   22  C25 UNL     1      -9.406 -23.974 -13.474  1.00  0.00     0.050 C 
BRANCH  21  23
HETATM   23  N5  UNL     1      -8.398 -22.025 -12.527  1.00  0.00    -0.067 N 
ATOM     24  H53 UNL     1      -8.080 -22.803 -11.949  1.00  0.00     0.275 HD
ATOM     25  H52 UNL     1      -7.487 -21.704 -12.853  1.00  0.00     0.275 HD
ATOM     26  H51 UNL     1      -8.887 -21.313 -11.982  1.00  0.00     0.275 HD
ENDBRANCH  21  23
ENDBRANCH  18  21
ENDBRANCH  16  17
ENDBRANCH  15  16
ENDBRANCH  11  14
BRANCH  10  27
HETATM   27  C13 UNL     1     -11.572 -21.694  -8.055  1.00  0.00     0.228 C 
HETATM   28  O3  UNL     1     -11.074 -21.492  -6.888  1.00  0.00    -0.273 OA
HETATM   29  N1  UNL     1     -10.561 -21.753  -9.057  1.00  0.00    -0.325 N 
ATOM     30  H1  UNL     1     -10.585 -21.054  -9.798  1.00  0.00     0.169 HD
BRANCH  29  31
HETATM   31  C14 UNL     1      -9.620 -22.630  -9.089  1.00  0.00     0.053 A 
HETATM   32  C15 UNL     1      -9.840 -23.863  -9.695  1.00  0.00     0.049 A 
HETATM   33  C16 UNL     1      -8.884 -24.843  -9.760  1.00  0.00     0.109 A 
HETATM   34  N2  UNL     1      -7.683 -24.580  -9.206  1.00  0.00    -0.310 N 
HETATM   35  N3  UNL     1      -7.459 -23.422  -8.630  1.00  0.00    -0.306 N 
ATOM     36  H2  UNL     1      -6.946 -25.285  -9.234  1.00  0.00     0.186 HD
HETATM   37  C17 UNL     1      -6.117 -23.241  -8.059  1.00  0.00     0.177 C 
HETATM   38  C18 UNL     1      -8.368 -22.440  -8.547  1.00  0.00     0.139 A 
ENDBRANCH  29  31
ENDBRANCH  10  27
BRANCH   8  39
HETATM   39  C9  UNL     1     -14.297 -23.505  -6.980  1.00  0.00    -0.013 C 
HETATM   40  C10 UNL     1     -13.462 -24.464  -7.787  1.00  0.00     0.010 C 
HETATM   41  C11 UNL     1     -15.718 -23.838  -7.228  1.00  0.00     0.010 C 
ENDBRANCH   8  39
BRANCH   1  42
HETATM   42  C2  UNL     1     -15.252 -17.526  -8.738  1.00  0.00     0.135 C 
HETATM   43  C1  UNL     1     -16.191 -16.616  -8.089  1.00  0.00     0.091 C 
HETATM   44  O1  UNL     1     -15.169 -17.542  -9.951  1.00  0.00    -0.297 OA
ENDBRANCH   1  42
TORSDOF 9
ENDMDL
