MODEL 1
REMARK VINA RESULT: -7.835450226      0.000      0.000
REMARK  9 active torsions:
REMARK  status: ('A' for Active; 'I' for Inactive)
REMARK    1  A    between atoms: C2_2  and  C3_3 
REMARK    2  A    between atoms: C3_3  and  C4_4 
REMARK    3  A    between atoms: C4_4  and  N1_5 
REMARK       I    between atoms: N1_5  and  C5_7 
REMARK    4  A    between atoms: C5_7  and  C6_9 
REMARK    5  A    between atoms: C6_9  and  N2_10 
REMARK    6  A    between atoms: C6_9  and  C7_14 
REMARK    7  A    between atoms: C7_14  and  C8_15 
REMARK    8  A    between atoms: C10_17  and  S1_18 
REMARK    9  A    between atoms: S1_18  and  N3_21 
REMARK       I    between atoms: C11_23  and  N5_25 
ROOT
HETATM    1  C8  UNL     1      -9.911 -25.077 -12.480  1.00  0.00    -0.035 A 
HETATM    2  C9  UNL     1      -9.115 -25.176 -11.334  1.00  0.00     0.035 A 
HETATM    3  C10 UNL     1      -9.229 -24.358 -10.243  1.00  0.00     0.099 A 
HETATM    4  C14 UNL     1     -10.198 -23.357 -10.263  1.00  0.00     0.053 A 
HETATM    5 BR1  UNL     1     -10.377 -22.206  -8.757  1.00  0.00    -0.048 Br
HETATM    6  C15 UNL     1     -10.996 -23.226 -11.368  1.00  0.00     0.047 A 
HETATM    7 BR2  UNL     1     -12.325 -21.849 -11.390  1.00  0.00    -0.048 Br
HETATM    8  C16 UNL     1     -10.853 -24.082 -12.473  1.00  0.00     0.036 A 
HETATM    9 BR3  UNL     1     -11.971 -23.767 -13.995  1.00  0.00    -0.049 Br
ENDROOT
BRANCH   1  10
HETATM   10  C7  UNL     1      -9.751 -26.038 -13.571  1.00  0.00     0.082 C 
BRANCH  10  11
HETATM   11  C6  UNL     1      -8.402 -26.146 -14.178  1.00  0.00     0.278 C 
BRANCH  11  12
HETATM   12  C5  UNL     1      -8.432 -25.652 -15.593  1.00  0.00     0.248 C 
HETATM   13  N1  UNL     1      -8.905 -24.361 -15.890  1.00  0.00    -0.359 N 
ATOM     14  H1  UNL     1      -9.219 -23.789 -15.107  1.00  0.00     0.162 HD
HETATM   15  O1  UNL     1      -8.029 -26.402 -16.536  1.00  0.00    -0.271 OA
BRANCH  13  16
HETATM   16  C4  UNL     1      -8.984 -23.781 -17.196  1.00  0.00     0.122 C 
BRANCH  16  17
HETATM   17  C3  UNL     1     -10.388 -23.829 -17.733  1.00  0.00     0.019 C 
BRANCH  17  18
HETATM   18  C2  UNL     1     -10.561 -25.029 -18.650  1.00  0.00    -0.003 C 
HETATM   19  C1  UNL     1     -11.312 -26.160 -17.999  1.00  0.00     0.005 C 
ENDBRANCH  17  18
ENDBRANCH  16  17
ENDBRANCH  13  16
ENDBRANCH  11  12
BRANCH  11  20
HETATM   20  N2  UNL     1      -7.791 -27.423 -14.054  1.00  0.00    -0.066 N 
ATOM     21  H23 UNL     1      -6.808 -27.387 -14.327  1.00  0.00     0.275 HD
ATOM     22  H22 UNL     1      -7.679 -27.682 -13.074  1.00  0.00     0.275 HD
ATOM     23  H21 UNL     1      -8.286 -28.150 -14.570  1.00  0.00     0.275 HD
ENDBRANCH  11  20
ENDBRANCH  10  11
ENDBRANCH   1  10
BRANCH   3  24
HETATM   24  S1  UNL     1      -8.177 -24.607  -8.891  1.00  0.00     0.266 S 
HETATM   25  O2  UNL     1      -8.977 -24.511  -7.626  1.00  0.00    -0.200 OA
HETATM   26  O3  UNL     1      -7.612 -26.009  -9.020  1.00  0.00    -0.200 OA
BRANCH  24  27
HETATM   27  N3  UNL     1      -6.915 -23.459  -8.805  1.00  0.00    -0.254 N 
HETATM   28  C11 UNL     1      -5.927 -23.691  -7.992  1.00  0.00     0.199 C 
HETATM   29  N4  UNL     1      -5.900 -24.864  -7.201  1.00  0.00    -0.063 NA
HETATM   30  N5  UNL     1      -4.840 -22.797  -7.853  1.00  0.00    -0.364 N 
HETATM   31  C12 UNL     1      -3.736 -22.878  -8.769  1.00  0.00     0.151 C 
HETATM   32  C13 UNL     1      -4.846 -21.819  -6.803  1.00  0.00     0.151 C 
ATOM     33  H3  UNL     1      -6.937 -22.613  -9.375  1.00  0.00     0.181 HD
ENDBRANCH  24  27
ENDBRANCH   3  24
TORSDOF 9
ENDMDL
MODEL 2
REMARK VINA RESULT: -7.460989135      1.683      1.931
REMARK  9 active torsions:
REMARK  status: ('A' for Active; 'I' for Inactive)
REMARK    1  A    between atoms: C2_2  and  C3_3 
REMARK    2  A    between atoms: C3_3  and  C4_4 
REMARK    3  A    between atoms: C4_4  and  N1_5 
REMARK       I    between atoms: N1_5  and  C5_7 
REMARK    4  A    between atoms: C5_7  and  C6_9 
REMARK    5  A    between atoms: C6_9  and  N2_10 
REMARK    6  A    between atoms: C6_9  and  C7_14 
REMARK    7  A    between atoms: C7_14  and  C8_15 
REMARK    8  A    between atoms: C10_17  and  S1_18 
REMARK    9  A    between atoms: S1_18  and  N3_21 
REMARK       I    between atoms: C11_23  and  N5_25 
ROOT
HETATM    1  C8  UNL     1     -10.046 -22.616 -12.742  1.00  0.00    -0.035 A 
HETATM    2  C9  UNL     1      -9.344 -22.730 -11.537  1.00  0.00     0.035 A 
HETATM    3  C10 UNL     1      -9.849 -22.374 -10.315  1.00  0.00     0.099 A 
HETATM    4  C14 UNL     1     -11.144 -21.864 -10.255  1.00  0.00     0.053 A 
HETATM    5 BR1  UNL     1     -11.868 -21.363  -8.567  1.00  0.00    -0.048 Br
HETATM    6  C15 UNL     1     -11.861 -21.735 -11.414  1.00  0.00     0.047 A 
HETATM    7 BR2  UNL     1     -13.641 -21.033 -11.325  1.00  0.00    -0.048 Br
HETATM    8  C16 UNL     1     -11.315 -22.109 -12.653  1.00  0.00     0.036 A 
HETATM    9 BR3  UNL     1     -12.377 -21.820 -14.219  1.00  0.00    -0.049 Br
ENDROOT
BRANCH   1  10
HETATM   10  C7  UNL     1      -9.440 -23.079 -13.991  1.00  0.00     0.082 C 
BRANCH  10  11
HETATM   11  C6  UNL     1      -9.297 -24.545 -14.164  1.00  0.00     0.278 C 
BRANCH  11  12
HETATM   12  C5  UNL     1      -9.014 -24.869 -15.600  1.00  0.00     0.248 C 
HETATM   13  N1  UNL     1      -9.731 -24.236 -16.631  1.00  0.00    -0.359 N 
ATOM     14  H1  UNL     1     -10.440 -23.557 -16.357  1.00  0.00     0.162 HD
HETATM   15  O1  UNL     1      -8.119 -25.722 -15.894  1.00  0.00    -0.271 OA
BRANCH  13  16
HETATM   16  C4  UNL     1      -9.552 -24.464 -18.033  1.00  0.00     0.122 C 
BRANCH  16  17
HETATM   17  C3  UNL     1     -10.749 -25.147 -18.635  1.00  0.00     0.019 C 
BRANCH  17  18
HETATM   18  C2  UNL     1     -11.220 -26.277 -17.733  1.00  0.00    -0.003 C 
HETATM   19  C1  UNL     1     -12.341 -27.081 -18.336  1.00  0.00     0.005 C 
ENDBRANCH  17  18
ENDBRANCH  16  17
ENDBRANCH  13  16
ENDBRANCH  11  12
BRANCH  11  20
HETATM   20  N2  UNL     1     -10.360 -25.318 -13.625  1.00  0.00    -0.066 N 
ATOM     21  H23 UNL     1     -11.188 -25.267 -14.219  1.00  0.00     0.275 HD
ATOM     22  H22 UNL     1     -10.163 -26.316 -13.703  1.00  0.00     0.275 HD
ATOM     23  H21 UNL     1     -10.585 -25.065 -12.663  1.00  0.00     0.275 HD
ENDBRANCH  11  20
ENDBRANCH  10  11
ENDBRANCH   1  10
BRANCH   3  24
HETATM   24  S1  UNL     1      -8.864 -22.582  -8.906  1.00  0.00     0.266 S 
HETATM   25  O2  UNL     1      -9.441 -21.771  -7.785  1.00  0.00    -0.200 OA
HETATM   26  O3  UNL     1      -8.917 -24.053  -8.539  1.00  0.00    -0.200 OA
BRANCH  24  27
HETATM   27  N3  UNL     1      -7.248 -22.080  -9.141  1.00  0.00    -0.254 N 
HETATM   28  C11 UNL     1      -6.419 -22.191  -8.144  1.00  0.00     0.199 C 
HETATM   29  N4  UNL     1      -6.848 -22.712  -6.900  1.00  0.00    -0.063 NA
HETATM   30  N5  UNL     1      -5.063 -21.801  -8.245  1.00  0.00    -0.364 N 
HETATM   31  C12 UNL     1      -4.101 -22.722  -8.782  1.00  0.00     0.151 C 
HETATM   32  C13 UNL     1      -4.660 -20.493  -7.813  1.00  0.00     0.151 C 
ATOM     33  H3  UNL     1      -6.941 -21.705 -10.038  1.00  0.00     0.181 HD
ENDBRANCH  24  27
ENDBRANCH   3  24
TORSDOF 9
ENDMDL
MODEL 3
REMARK VINA RESULT: -7.434954639      2.000      2.681
REMARK  9 active torsions:
REMARK  status: ('A' for Active; 'I' for Inactive)
REMARK    1  A    between atoms: C2_2  and  C3_3 
REMARK    2  A    between atoms: C3_3  and  C4_4 
REMARK    3  A    between atoms: C4_4  and  N1_5 
REMARK       I    between atoms: N1_5  and  C5_7 
REMARK    4  A    between atoms: C5_7  and  C6_9 
REMARK    5  A    between atoms: C6_9  and  N2_10 
REMARK    6  A    between atoms: C6_9  and  C7_14 
REMARK    7  A    between atoms: C7_14  and  C8_15 
REMARK    8  A    between atoms: C10_17  and  S1_18 
REMARK    9  A    between atoms: S1_18  and  N3_21 
REMARK       I    between atoms: C11_23  and  N5_25 
ROOT
HETATM    1  C8  UNL     1     -11.553 -22.971 -11.715  1.00  0.00    -0.035 A 
HETATM    2  C9  UNL     1     -10.490 -23.740 -11.231  1.00  0.00     0.035 A 
HETATM    3  C10 UNL     1     -10.110 -23.790  -9.916  1.00  0.00     0.099 A 
HETATM    4  C14 UNL     1     -10.823 -23.029  -8.992  1.00  0.00     0.053 A 
HETATM    5 BR1  UNL     1     -10.314 -23.082  -7.158  1.00  0.00    -0.048 Br
HETATM    6  C15 UNL     1     -11.869 -22.262  -9.428  1.00  0.00     0.047 A 
HETATM    7 BR2  UNL     1     -12.844 -21.219  -8.152  1.00  0.00    -0.048 Br
HETATM    8  C16 UNL     1     -12.233 -22.232 -10.784  1.00  0.00     0.036 A 
HETATM    9 BR3  UNL     1     -13.666 -21.070 -11.296  1.00  0.00    -0.049 Br
ENDROOT
BRANCH   1  10
HETATM   10  C7  UNL     1     -11.918 -23.031 -13.131  1.00  0.00     0.082 C 
BRANCH  10  11
HETATM   11  C6  UNL     1     -11.132 -22.186 -14.063  1.00  0.00     0.278 C 
BRANCH  11  12
HETATM   12  C5  UNL     1     -10.074 -23.008 -14.735  1.00  0.00     0.248 C 
HETATM   13  N1  UNL     1     -10.426 -24.087 -15.566  1.00  0.00    -0.359 N 
ATOM     14  H1  UNL     1     -11.421 -24.276 -15.686  1.00  0.00     0.162 HD
HETATM   15  O1  UNL     1      -8.847 -22.733 -14.555  1.00  0.00    -0.271 OA
BRANCH  13  16
HETATM   16  C4  UNL     1      -9.510 -24.942 -16.257  1.00  0.00     0.122 C 
BRANCH  16  17
HETATM   17  C3  UNL     1      -9.350 -24.527 -17.694  1.00  0.00     0.019 C 
BRANCH  17  18
HETATM   18  C2  UNL     1     -10.601 -24.873 -18.486  1.00  0.00    -0.003 C 
HETATM   19  C1  UNL     1     -11.193 -26.201 -18.093  1.00  0.00     0.005 C 
ENDBRANCH  17  18
ENDBRANCH  16  17
ENDBRANCH  13  16
ENDBRANCH  11  12
BRANCH  11  20
HETATM   20  N2  UNL     1     -10.621 -20.986 -13.498  1.00  0.00    -0.066 N 
ATOM     21  H23 UNL     1     -10.331 -21.132 -12.531  1.00  0.00     0.275 HD
ATOM     22  H22 UNL     1      -9.717 -20.746 -13.906  1.00  0.00     0.275 HD
ATOM     23  H21 UNL     1     -11.274 -20.206 -13.570  1.00  0.00     0.275 HD
ENDBRANCH  11  20
ENDBRANCH  10  11
ENDBRANCH   1  10
BRANCH   3  24
HETATM   24  S1  UNL     1      -8.777 -24.797  -9.464  1.00  0.00     0.266 S 
HETATM   25  O2  UNL     1      -9.251 -25.821  -8.478  1.00  0.00    -0.200 OA
HETATM   26  O3  UNL     1      -8.302 -25.498 -10.723  1.00  0.00    -0.200 OA
BRANCH  24  27
HETATM   27  N3  UNL     1      -7.495 -23.926  -8.744  1.00  0.00    -0.254 N 
HETATM   28  C11 UNL     1      -6.447 -24.587  -8.350  1.00  0.00     0.199 C 
HETATM   29  N4  UNL     1      -6.372 -25.991  -8.516  1.00  0.00    -0.063 NA
HETATM   30  N5  UNL     1      -5.339 -23.951  -7.743  1.00  0.00    -0.364 N 
HETATM   31  C12 UNL     1      -4.316 -23.372  -8.569  1.00  0.00     0.151 C 
HETATM   32  C13 UNL     1      -5.244 -23.889  -6.313  1.00  0.00     0.151 C 
ATOM     33  H3  UNL     1      -7.552 -22.914  -8.625  1.00  0.00     0.181 HD
ENDBRANCH  24  27
ENDBRANCH   3  24
TORSDOF 9
ENDMDL
MODEL 4
REMARK VINA RESULT: -7.367266627      2.125      2.422
REMARK  9 active torsions:
REMARK  status: ('A' for Active; 'I' for Inactive)
REMARK    1  A    between atoms: C2_2  and  C3_3 
REMARK    2  A    between atoms: C3_3  and  C4_4 
REMARK    3  A    between atoms: C4_4  and  N1_5 
REMARK       I    between atoms: N1_5  and  C5_7 
REMARK    4  A    between atoms: C5_7  and  C6_9 
REMARK    5  A    between atoms: C6_9  and  N2_10 
REMARK    6  A    between atoms: C6_9  and  C7_14 
REMARK    7  A    between atoms: C7_14  and  C8_15 
REMARK    8  A    between atoms: C10_17  and  S1_18 
REMARK    9  A    between atoms: S1_18  and  N3_21 
REMARK       I    between atoms: C11_23  and  N5_25 
ROOT
HETATM    1  C8  UNL     1     -11.146 -24.264 -12.153  1.00  0.00    -0.035 A 
HETATM    2  C9  UNL     1     -10.814 -24.689 -10.862  1.00  0.00     0.035 A 
HETATM    3  C10 UNL     1     -11.219 -24.059  -9.716  1.00  0.00     0.099 A 
HETATM    4  C14 UNL     1     -12.013 -22.920  -9.830  1.00  0.00     0.053 A 
HETATM    5 BR1  UNL     1     -12.588 -22.027  -8.250  1.00  0.00    -0.048 Br
HETATM    6  C15 UNL     1     -12.357 -22.472 -11.077  1.00  0.00     0.047 A 
HETATM    7 BR2  UNL     1     -13.449 -20.907 -11.227  1.00  0.00    -0.048 Br
HETATM    8  C16 UNL     1     -11.925 -23.141 -12.235  1.00  0.00     0.036 A 
HETATM    9 BR3  UNL     1     -12.404 -22.389 -13.929  1.00  0.00    -0.049 Br
ENDROOT
BRANCH   1  10
HETATM   10  C7  UNL     1     -10.713 -25.040 -13.316  1.00  0.00     0.082 C 
BRANCH  10  11
HETATM   11  C6  UNL     1      -9.256 -25.084 -13.589  1.00  0.00     0.278 C 
BRANCH  11  12
HETATM   12  C5  UNL     1      -9.000 -24.876 -15.051  1.00  0.00     0.248 C 
HETATM   13  N1  UNL     1      -9.522 -23.753 -15.717  1.00  0.00    -0.359 N 
ATOM     14  H1  UNL     1     -10.073 -23.098 -15.163  1.00  0.00     0.162 HD
HETATM   15  O1  UNL     1      -8.306 -25.720 -15.700  1.00  0.00    -0.271 OA
BRANCH  13  16
HETATM   16  C4  UNL     1      -9.348 -23.450 -17.105  1.00  0.00     0.122 C 
BRANCH  16  17
HETATM   17  C3  UNL     1     -10.608 -23.706 -17.885  1.00  0.00     0.019 C 
BRANCH  17  18
HETATM   18  C2  UNL     1     -10.503 -25.023 -18.637  1.00  0.00    -0.003 C 
HETATM   19  C1  UNL     1     -11.209 -26.155 -17.938  1.00  0.00     0.005 C 
ENDBRANCH  17  18
ENDBRANCH  16  17
ENDBRANCH  13  16
ENDBRANCH  11  12
BRANCH  11  20
HETATM   20  N2  UNL     1      -8.583 -26.222 -13.068  1.00  0.00    -0.066 N 
ATOM     21  H23 UNL     1      -8.151 -26.765 -13.815  1.00  0.00     0.275 HD
ATOM     22  H22 UNL     1      -7.744 -25.948 -12.557  1.00  0.00     0.275 HD
ATOM     23  H21 UNL     1      -9.186 -26.808 -12.492  1.00  0.00     0.275 HD
ENDBRANCH  11  20
ENDBRANCH  10  11
ENDBRANCH   1  10
BRANCH   3  24
HETATM   24  S1  UNL     1     -10.735 -24.708  -8.185  1.00  0.00     0.266 S 
HETATM   25  O2  UNL     1     -10.389 -23.577  -7.264  1.00  0.00    -0.200 OA
HETATM   26  O3  UNL     1     -11.927 -25.461  -7.625  1.00  0.00    -0.200 OA
BRANCH  24  27
HETATM   27  N3  UNL     1      -9.374 -25.734  -8.294  1.00  0.00    -0.254 N 
HETATM   28  C11 UNL     1      -8.201 -25.188  -8.427  1.00  0.00     0.199 C 
HETATM   29  N4  UNL     1      -8.060 -23.781  -8.480  1.00  0.00    -0.063 NA
HETATM   30  N5  UNL     1      -7.019 -25.958  -8.525  1.00  0.00    -0.364 N 
HETATM   31  C12 UNL     1      -6.364 -26.405  -7.327  1.00  0.00     0.151 C 
HETATM   32  C13 UNL     1      -6.482 -26.286  -9.815  1.00  0.00     0.151 C 
ATOM     33  H3  UNL     1      -9.478 -26.748  -8.256  1.00  0.00     0.181 HD
ENDBRANCH  24  27
ENDBRANCH   3  24
TORSDOF 9
ENDMDL
MODEL 5
REMARK VINA RESULT: -7.365713453      1.674      2.267
REMARK  9 active torsions:
REMARK  status: ('A' for Active; 'I' for Inactive)
REMARK    1  A    between atoms: C2_2  and  C3_3 
REMARK    2  A    between atoms: C3_3  and  C4_4 
REMARK    3  A    between atoms: C4_4  and  N1_5 
REMARK       I    between atoms: N1_5  and  C5_7 
REMARK    4  A    between atoms: C5_7  and  C6_9 
REMARK    5  A    between atoms: C6_9  and  N2_10 
REMARK    6  A    between atoms: C6_9  and  C7_14 
REMARK    7  A    between atoms: C7_14  and  C8_15 
REMARK    8  A    between atoms: C10_17  and  S1_18 
REMARK    9  A    between atoms: S1_18  and  N3_21 
REMARK       I    between atoms: C11_23  and  N5_25 
ROOT
HETATM    1  C8  UNL     1      -9.990 -23.006 -12.407  1.00  0.00    -0.035 A 
HETATM    2  C9  UNL     1      -9.371 -23.032 -11.152  1.00  0.00     0.035 A 
HETATM    3  C10 UNL     1      -9.917 -22.506 -10.012  1.00  0.00     0.099 A 
HETATM    4  C14 UNL     1     -11.170 -21.902 -10.094  1.00  0.00     0.053 A 
HETATM    5 BR1  UNL     1     -11.949 -21.163  -8.523  1.00  0.00    -0.048 Br
HETATM    6  C15 UNL     1     -11.806 -21.854 -11.305  1.00  0.00     0.047 A 
HETATM    7 BR2  UNL     1     -13.528 -21.023 -11.411  1.00  0.00    -0.048 Br
HETATM    8  C16 UNL     1     -11.219 -22.403 -12.457  1.00  0.00     0.036 A 
HETATM    9 BR3  UNL     1     -12.164 -22.219 -14.112  1.00  0.00    -0.049 Br
ENDROOT
BRANCH   1  10
HETATM   10  C7  UNL     1      -9.351 -23.648 -13.555  1.00  0.00     0.082 C 
BRANCH  10  11
HETATM   11  C6  UNL     1      -9.405 -25.130 -13.610  1.00  0.00     0.278 C 
BRANCH  11  12
HETATM   12  C5  UNL     1      -9.334 -25.595 -15.033  1.00  0.00     0.248 C 
HETATM   13  N1  UNL     1     -10.428 -25.418 -15.900  1.00  0.00    -0.359 N 
ATOM     14  H1  UNL     1     -11.256 -24.963 -15.516  1.00  0.00     0.162 HD
HETATM   15  O1  UNL     1      -8.279 -26.157 -15.466  1.00  0.00    -0.271 OA
BRANCH  13  16
HETATM   16  C4  UNL     1     -10.480 -25.821 -17.272  1.00  0.00     0.122 C 
BRANCH  16  17
HETATM   17  C3  UNL     1     -10.167 -24.673 -18.192  1.00  0.00     0.019 C 
BRANCH  17  18
HETATM   18  C2  UNL     1     -10.182 -23.361 -17.423  1.00  0.00    -0.003 C 
HETATM   19  C1  UNL     1      -8.814 -22.749 -17.281  1.00  0.00     0.005 C 
ENDBRANCH  17  18
ENDBRANCH  16  17
ENDBRANCH  13  16
ENDBRANCH  11  12
BRANCH  11  20
HETATM   20  N2  UNL     1     -10.480 -25.718 -12.891  1.00  0.00    -0.066 N 
ATOM     21  H23 UNL     1     -10.837 -25.080 -12.180  1.00  0.00     0.275 HD
ATOM     22  H22 UNL     1     -11.312 -25.795 -13.476  1.00  0.00     0.275 HD
ATOM     23  H21 UNL     1     -10.236 -26.620 -12.483  1.00  0.00     0.275 HD
ENDBRANCH  11  20
ENDBRANCH  10  11
ENDBRANCH   1  10
BRANCH   3  24
HETATM   24  S1  UNL     1      -9.034 -22.622  -8.527  1.00  0.00     0.266 S 
HETATM   25  O2  UNL     1      -8.693 -21.241  -8.054  1.00  0.00    -0.200 OA
HETATM   26  O3  UNL     1      -9.951 -23.284  -7.516  1.00  0.00    -0.200 OA
BRANCH  24  27
HETATM   27  N3  UNL     1      -7.577 -23.501  -8.682  1.00  0.00    -0.254 N 
HETATM   28  C11 UNL     1      -6.782 -23.558  -7.655  1.00  0.00     0.199 C 
HETATM   29  N4  UNL     1      -7.117 -22.909  -6.442  1.00  0.00    -0.063 NA
HETATM   30  N5  UNL     1      -5.555 -24.261  -7.690  1.00  0.00    -0.364 N 
HETATM   31  C12 UNL     1      -5.542 -25.673  -7.425  1.00  0.00     0.151 C 
HETATM   32  C13 UNL     1      -4.338 -23.564  -7.989  1.00  0.00     0.151 C 
ATOM     33  H3  UNL     1      -7.338 -23.968  -9.556  1.00  0.00     0.181 HD
ENDBRANCH  24  27
ENDBRANCH   3  24
TORSDOF 9
ENDMDL
