MODEL 1
REMARK VINA RESULT: -7.609390305      0.000      0.000
REMARK  11 active torsions:
REMARK  status: ('A' for Active; 'I' for Inactive)
REMARK    1  A    between atoms: C2_2  and  C4_4 
REMARK    2  A    between atoms: C5_5  and  O1_6 
REMARK    3  A    between atoms: C7_10  and  C8_11 
REMARK    4  A    between atoms: C8_11  and  C9_12 
REMARK    5  A    between atoms: C16_24  and  C17_25 
REMARK    6  A    between atoms: C17_25  and  C18_26 
REMARK    7  A    between atoms: C18_26  and  C19_27 
REMARK    8  A    between atoms: C19_27  and  N3_28 
REMARK    9  A    between atoms: C21_33  and  O3_34 
REMARK   10  A    between atoms: N6_36  and  C22_37 
REMARK   11  A    between atoms: C22_37  and  N7_39 
ROOT
HETATM    1  C4  UNL     1      -8.921 -24.394  -7.118  1.00  0.00     0.171 C 
HETATM    2  C5  UNL     1     -10.326 -24.632  -7.275  1.00  0.00     0.138 C 
HETATM    3  N1  UNL     1     -11.433 -23.870  -7.700  1.00  0.00    -0.354 N 
HETATM    4  C6  UNL     1     -12.548 -23.706  -6.718  1.00  0.00     0.152 C 
HETATM    5  C7  UNL     1     -11.662 -23.255  -8.989  1.00  0.00     0.182 C 
HETATM    6  C15 UNL     1     -11.630 -24.282 -10.087  1.00  0.00     0.241 C 
HETATM    7  O2  UNL     1     -12.614 -24.485 -10.872  1.00  0.00    -0.271 OA
HETATM    8  N2  UNL     1     -10.485 -25.094 -10.306  1.00  0.00    -0.347 N 
ATOM      9  H2  UNL     1     -10.627 -26.102 -10.245  1.00  0.00     0.163 HD
HETATM   10  C16 UNL     1      -9.155 -24.659 -10.604  1.00  0.00     0.159 C 
HETATM   11  C21 UNL     1      -8.206 -24.808  -9.537  1.00  0.00     0.144 C 
HETATM   12  N6  UNL     1      -8.031 -24.205  -8.265  1.00  0.00    -0.292 N 
ENDROOT
BRANCH   5  13
HETATM   13  C8  UNL     1     -10.931 -22.004  -9.288  1.00  0.00     0.073 C 
BRANCH  13  14
HETATM   14  C9  UNL     1     -11.780 -20.778  -9.064  1.00  0.00    -0.052 A 
HETATM   15  C10 UNL     1     -11.263 -19.777  -8.255  1.00  0.00     0.031 A 
HETATM   16  C11 UNL     1     -12.025 -18.652  -8.025  1.00  0.00     0.036 A 
HETATM   17 CL1  UNL     1     -11.381 -17.363  -6.995  1.00  0.00    -0.084 Cl
HETATM   18  C12 UNL     1     -13.275 -18.537  -8.596  1.00  0.00     0.047 A 
HETATM   19  C13 UNL     1     -13.799 -19.521  -9.400  1.00  0.00     0.036 A 
HETATM   20 CL2  UNL     1     -15.406 -19.360 -10.125  1.00  0.00    -0.084 Cl
HETATM   21  C14 UNL     1     -13.016 -20.635  -9.611  1.00  0.00     0.031 A 
ENDBRANCH  13  14
ENDBRANCH   5  13
BRANCH   2  22
HETATM   22  O1  UNL     1     -10.675 -25.859  -6.933  1.00  0.00    -0.348 OA
ATOM     23  H1  UNL     1     -11.572 -25.911  -6.627  1.00  0.00     0.219 HD
ENDBRANCH   2  22
BRANCH   1  24
HETATM   24  C2  UNL     1      -8.286 -25.451  -6.213  1.00  0.00     0.009 C 
HETATM   25  C1  UNL     1      -7.601 -26.515  -7.084  1.00  0.00     0.012 C 
HETATM   26  C3  UNL     1      -7.272 -24.945  -5.260  1.00  0.00     0.012 C 
ENDBRANCH   1  24
BRANCH  10  27
HETATM   27  C17 UNL     1      -8.655 -25.332 -11.886  1.00  0.00     0.035 C 
BRANCH  27  28
HETATM   28  C18 UNL     1      -9.665 -25.559 -12.932  1.00  0.00     0.022 C 
BRANCH  28  29
HETATM   29  C19 UNL     1      -9.652 -24.293 -13.823  1.00  0.00     0.122 C 
BRANCH  29  30
HETATM   30  N3  UNL     1     -10.926 -23.650 -13.611  1.00  0.00    -0.367 N 
HETATM   31  C20 UNL     1     -10.996 -22.443 -13.183  1.00  0.00     0.196 C 
HETATM   32  N4  UNL     1     -12.219 -21.764 -12.959  1.00  0.00    -0.067 NA
HETATM   33  N5  UNL     1      -9.797 -21.732 -12.916  1.00  0.00    -0.067 NA
ATOM     34  H3  UNL     1     -11.786 -24.164 -13.804  1.00  0.00     0.161 HD
ENDBRANCH  29  30
ENDBRANCH  28  29
ENDBRANCH  27  28
ENDBRANCH  10  27
BRANCH  12  35
HETATM   35  C22 UNL     1      -6.875 -23.373  -8.077  1.00  0.00     0.193 C 
HETATM   36  S1  UNL     1      -7.233 -21.733  -7.955  1.00  0.00    -0.039 SA
BRANCH  35  37
HETATM   37  N7  UNL     1      -5.535 -23.645  -8.020  1.00  0.00    -0.270 N 
HETATM   38  C23 UNL     1      -4.769 -24.645  -7.320  1.00  0.00     0.174 C 
HETATM   39 CL3  UNL     1      -4.429 -22.567  -8.966  1.00  0.00     0.015 Cl
ENDBRANCH  35  37
ENDBRANCH  12  35
BRANCH  11  40
HETATM   40  O3  UNL     1      -7.266 -25.709  -9.776  1.00  0.00    -0.348 OA
ATOM     41  H3  UNL     1      -7.532 -26.603  -9.592  1.00  0.00     0.219 HD
ENDBRANCH  11  40
TORSDOF 11
ENDMDL
MODEL 2
REMARK VINA RESULT: -7.596248987      0.079      1.498
REMARK  11 active torsions:
REMARK  status: ('A' for Active; 'I' for Inactive)
REMARK    1  A    between atoms: C2_2  and  C4_4 
REMARK    2  A    between atoms: C5_5  and  O1_6 
REMARK    3  A    between atoms: C7_10  and  C8_11 
REMARK    4  A    between atoms: C8_11  and  C9_12 
REMARK    5  A    between atoms: C16_24  and  C17_25 
REMARK    6  A    between atoms: C17_25  and  C18_26 
REMARK    7  A    between atoms: C18_26  and  C19_27 
REMARK    8  A    between atoms: C19_27  and  N3_28 
REMARK    9  A    between atoms: C21_33  and  O3_34 
REMARK   10  A    between atoms: N6_36  and  C22_37 
REMARK   11  A    between atoms: C22_37  and  N7_39 
ROOT
HETATM    1  C4  UNL     1      -8.953 -24.382  -7.123  1.00  0.00     0.171 C 
HETATM    2  C5  UNL     1     -10.356 -24.615  -7.303  1.00  0.00     0.138 C 
HETATM    3  N1  UNL     1     -11.452 -23.852  -7.755  1.00  0.00    -0.354 N 
HETATM    4  C6  UNL     1     -12.583 -23.675  -6.795  1.00  0.00     0.152 C 
HETATM    5  C7  UNL     1     -11.655 -23.248  -9.054  1.00  0.00     0.182 C 
HETATM    6  C15 UNL     1     -11.607 -24.285 -10.141  1.00  0.00     0.241 C 
HETATM    7  O2  UNL     1     -12.578 -24.492 -10.942  1.00  0.00    -0.271 OA
HETATM    8  N2  UNL     1     -10.462 -25.104 -10.333  1.00  0.00    -0.347 N 
ATOM      9  H2  UNL     1     -10.610 -26.111 -10.265  1.00  0.00     0.163 HD
HETATM   10  C16 UNL     1      -9.125 -24.677 -10.610  1.00  0.00     0.159 C 
HETATM   11  C21 UNL     1      -8.196 -24.820  -9.525  1.00  0.00     0.144 C 
HETATM   12  N6  UNL     1      -8.041 -24.206  -8.256  1.00  0.00    -0.292 N 
ENDROOT
BRANCH   5  13
HETATM   13  C8  UNL     1     -10.913 -22.003  -9.351  1.00  0.00     0.073 C 
BRANCH  13  14
HETATM   14  C9  UNL     1     -11.730 -20.769  -9.064  1.00  0.00    -0.052 A 
HETATM   15  C10 UNL     1     -12.981 -20.674  -9.657  1.00  0.00     0.031 A 
HETATM   16  C11 UNL     1     -13.742 -19.550  -9.419  1.00  0.00     0.036 A 
HETATM   17 CL1  UNL     1     -15.341 -19.411 -10.167  1.00  0.00    -0.084 Cl
HETATM   18  C12 UNL     1     -13.258 -18.548  -8.605  1.00  0.00     0.047 A 
HETATM   19  C13 UNL     1     -12.021 -18.629  -8.010  1.00  0.00     0.036 A 
HETATM   20 CL2  UNL     1     -11.412 -17.335  -6.967  1.00  0.00    -0.084 Cl
HETATM   21  C14 UNL     1     -11.282 -19.763  -8.266  1.00  0.00     0.031 A 
ENDBRANCH  13  14
ENDBRANCH   5  13
BRANCH   2  22
HETATM   22  O1  UNL     1     -10.716 -25.837  -6.956  1.00  0.00    -0.348 OA
ATOM     23  H1  UNL     1     -10.508 -26.481  -7.622  1.00  0.00     0.219 HD
ENDBRANCH   2  22
BRANCH   1  24
HETATM   24  C2  UNL     1      -8.338 -25.433  -6.198  1.00  0.00     0.009 C 
HETATM   25  C1  UNL     1      -7.655 -26.515  -7.046  1.00  0.00     0.012 C 
HETATM   26  C3  UNL     1      -7.330 -24.924  -5.239  1.00  0.00     0.012 C 
ENDBRANCH   1  24
BRANCH  10  27
HETATM   27  C17 UNL     1      -8.605 -25.365 -11.877  1.00  0.00     0.035 C 
BRANCH  27  28
HETATM   28  C18 UNL     1      -9.600 -25.610 -12.933  1.00  0.00     0.022 C 
BRANCH  28  29
HETATM   29  C19 UNL     1      -9.578 -24.359 -13.844  1.00  0.00     0.122 C 
BRANCH  29  30
HETATM   30  N3  UNL     1     -10.823 -23.672 -13.598  1.00  0.00    -0.367 N 
HETATM   31  C20 UNL     1     -10.839 -22.444 -13.226  1.00  0.00     0.196 C 
HETATM   32  N4  UNL     1     -12.032 -21.723 -12.973  1.00  0.00    -0.067 NA
HETATM   33  N5  UNL     1      -9.612 -21.755 -13.054  1.00  0.00    -0.067 NA
ATOM     34  H3  UNL     1     -11.704 -24.170 -13.723  1.00  0.00     0.161 HD
ENDBRANCH  29  30
ENDBRANCH  28  29
ENDBRANCH  27  28
ENDBRANCH  10  27
BRANCH  12  35
HETATM   35  C22 UNL     1      -6.886 -23.377  -8.054  1.00  0.00     0.193 C 
HETATM   36  S1  UNL     1      -7.243 -21.739  -7.915  1.00  0.00    -0.039 SA
BRANCH  35  37
HETATM   37  N7  UNL     1      -5.545 -23.651  -7.995  1.00  0.00    -0.270 N 
HETATM   38  C23 UNL     1      -4.783 -24.658  -7.302  1.00  0.00     0.174 C 
HETATM   39 CL3  UNL     1      -4.436 -22.567  -8.930  1.00  0.00     0.015 Cl
ENDBRANCH  35  37
ENDBRANCH  12  35
BRANCH  11  40
HETATM   40  O3  UNL     1      -7.256 -25.728  -9.738  1.00  0.00    -0.348 OA
ATOM     41  H3  UNL     1      -6.382 -25.365  -9.833  1.00  0.00     0.219 HD
ENDBRANCH  11  40
TORSDOF 11
ENDMDL
MODEL 3
REMARK VINA RESULT: -7.552460649      2.534      6.667
REMARK  11 active torsions:
REMARK  status: ('A' for Active; 'I' for Inactive)
REMARK    1  A    between atoms: C2_2  and  C4_4 
REMARK    2  A    between atoms: C5_5  and  O1_6 
REMARK    3  A    between atoms: C7_10  and  C8_11 
REMARK    4  A    between atoms: C8_11  and  C9_12 
REMARK    5  A    between atoms: C16_24  and  C17_25 
REMARK    6  A    between atoms: C17_25  and  C18_26 
REMARK    7  A    between atoms: C18_26  and  C19_27 
REMARK    8  A    between atoms: C19_27  and  N3_28 
REMARK    9  A    between atoms: C21_33  and  O3_34 
REMARK   10  A    between atoms: N6_36  and  C22_37 
REMARK   11  A    between atoms: C22_37  and  N7_39 
ROOT
HETATM    1  C4  UNL     1     -10.455 -21.804  -7.977  1.00  0.00     0.171 C 
HETATM    2  C5  UNL     1      -9.157 -22.114  -8.500  1.00  0.00     0.138 C 
HETATM    3  N1  UNL     1      -8.183 -23.103  -8.252  1.00  0.00    -0.354 N 
HETATM    4  C6  UNL     1      -6.836 -22.619  -7.821  1.00  0.00     0.152 C 
HETATM    5  C7  UNL     1      -8.295 -24.537  -8.404  1.00  0.00     0.182 C 
HETATM    6  C15 UNL     1      -8.666 -24.900  -9.815  1.00  0.00     0.241 C 
HETATM    7  O2  UNL     1      -7.944 -25.655 -10.546  1.00  0.00    -0.271 OA
HETATM    8  N2  UNL     1      -9.855 -24.409 -10.417  1.00  0.00    -0.347 N 
ATOM      9  H2  UNL     1      -9.738 -23.864 -11.271  1.00  0.00     0.163 HD
HETATM   10  C16 UNL     1     -11.199 -24.593  -9.963  1.00  0.00     0.159 C 
HETATM   11  C21 UNL     1     -11.823 -23.429  -9.399  1.00  0.00     0.144 C 
HETATM   12  N6  UNL     1     -11.619 -22.656  -8.227  1.00  0.00    -0.292 N 
ENDROOT
BRANCH   5  13
HETATM   13  C8  UNL     1      -9.036 -25.277  -7.358  1.00  0.00     0.073 C 
BRANCH  13  14
HETATM   14  C9  UNL     1      -8.128 -26.143  -6.520  1.00  0.00    -0.052 A 
HETATM   15  C10 UNL     1      -7.393 -25.523  -5.521  1.00  0.00     0.031 A 
HETATM   16  C11 UNL     1      -6.547 -26.290  -4.749  1.00  0.00     0.036 A 
HETATM   17 CL1  UNL     1      -5.600 -25.516  -3.468  1.00  0.00    -0.084 Cl
HETATM   18  C12 UNL     1      -6.445 -27.646  -4.977  1.00  0.00     0.047 A 
HETATM   19  C13 UNL     1      -7.168 -28.273  -5.963  1.00  0.00     0.036 A 
HETATM   20 CL2  UNL     1      -7.027 -30.015  -6.244  1.00  0.00    -0.084 Cl
HETATM   21  C14 UNL     1      -8.005 -27.482  -6.719  1.00  0.00     0.031 A 
ENDBRANCH  13  14
ENDBRANCH   5  13
BRANCH   2  22
HETATM   22  O1  UNL     1      -8.772 -21.268  -9.437  1.00  0.00    -0.348 OA
ATOM     23  H1  UNL     1      -8.790 -21.652 -10.306  1.00  0.00     0.219 HD
ENDBRANCH   2  22
BRANCH   1  24
HETATM   24  C2  UNL     1     -10.854 -20.368  -8.322  1.00  0.00     0.009 C 
HETATM   25  C1  UNL     1     -12.113 -20.392  -9.200  1.00  0.00     0.012 C 
HETATM   26  C3  UNL     1     -11.145 -19.494  -7.162  1.00  0.00     0.012 C 
ENDBRANCH   1  24
BRANCH  10  27
HETATM   27  C17 UNL     1     -12.056 -25.191 -11.083  1.00  0.00     0.035 C 
BRANCH  27  28
HETATM   28  C18 UNL     1     -11.397 -25.344 -12.389  1.00  0.00     0.022 C 
BRANCH  28  29
HETATM   29  C19 UNL     1     -11.700 -24.048 -13.178  1.00  0.00     0.122 C 
BRANCH  29  30
HETATM   30  N3  UNL     1     -10.436 -23.609 -13.716  1.00  0.00    -0.367 N 
HETATM   31  C20 UNL     1      -9.833 -22.583 -13.238  1.00  0.00     0.196 C 
HETATM   32  N4  UNL     1      -8.590 -22.110 -13.728  1.00  0.00    -0.067 NA
HETATM   33  N5  UNL     1     -10.422 -21.871 -12.162  1.00  0.00    -0.067 NA
ATOM     34  H3  UNL     1     -10.015 -24.123 -14.490  1.00  0.00     0.161 HD
ENDBRANCH  29  30
ENDBRANCH  28  29
ENDBRANCH  27  28
ENDBRANCH  10  27
BRANCH  12  35
HETATM   35  C22 UNL     1     -12.648 -22.684  -7.225  1.00  0.00     0.193 C 
HETATM   36  S1  UNL     1     -12.058 -22.721  -5.649  1.00  0.00    -0.039 SA
BRANCH  35  37
HETATM   37  N7  UNL     1     -14.014 -22.730  -7.298  1.00  0.00    -0.270 N 
HETATM   38  C23 UNL     1     -14.954 -23.821  -7.361  1.00  0.00     0.174 C 
HETATM   39 CL3  UNL     1     -14.895 -21.149  -7.352  1.00  0.00     0.015 Cl
ENDBRANCH  35  37
ENDBRANCH  12  35
BRANCH  11  40
HETATM   40  O3  UNL     1     -12.824 -22.952 -10.122  1.00  0.00    -0.348 OA
ATOM     41  H3  UNL     1     -12.557 -22.324 -10.784  1.00  0.00     0.219 HD
ENDBRANCH  11  40
TORSDOF 11
ENDMDL
MODEL 4
REMARK VINA RESULT: -7.513983515      2.677      6.419
REMARK  11 active torsions:
REMARK  status: ('A' for Active; 'I' for Inactive)
REMARK    1  A    between atoms: C2_2  and  C4_4 
REMARK    2  A    between atoms: C5_5  and  O1_6 
REMARK    3  A    between atoms: C7_10  and  C8_11 
REMARK    4  A    between atoms: C8_11  and  C9_12 
REMARK    5  A    between atoms: C16_24  and  C17_25 
REMARK    6  A    between atoms: C17_25  and  C18_26 
REMARK    7  A    between atoms: C18_26  and  C19_27 
REMARK    8  A    between atoms: C19_27  and  N3_28 
REMARK    9  A    between atoms: C21_33  and  O3_34 
REMARK   10  A    between atoms: N6_36  and  C22_37 
REMARK   11  A    between atoms: C22_37  and  N7_39 
ROOT
HETATM    1  C4  UNL     1     -12.240 -23.114  -8.583  1.00  0.00     0.171 C 
HETATM    2  C5  UNL     1     -11.903 -24.268  -9.365  1.00  0.00     0.138 C 
HETATM    3  N1  UNL     1     -11.170 -24.503 -10.546  1.00  0.00    -0.354 N 
HETATM    4  C6  UNL     1     -11.910 -25.145 -11.674  1.00  0.00     0.152 C 
HETATM    5  C7  UNL     1      -9.770 -24.248 -10.803  1.00  0.00     0.182 C 
HETATM    6  C15 UNL     1      -8.901 -24.982  -9.819  1.00  0.00     0.241 C 
HETATM    7  O2  UNL     1      -8.017 -25.829 -10.175  1.00  0.00    -0.271 OA
HETATM    8  N2  UNL     1      -9.025 -24.768  -8.420  1.00  0.00    -0.347 N 
ATOM      9  H2  UNL     1      -9.247 -25.588  -7.856  1.00  0.00     0.163 HD
HETATM   10  C16 UNL     1      -8.873 -23.534  -7.712  1.00  0.00     0.159 C 
HETATM   11  C21 UNL     1     -10.088 -22.958  -7.211  1.00  0.00     0.144 C 
HETATM   12  N6  UNL     1     -11.238 -22.379  -7.808  1.00  0.00    -0.292 N 
ENDROOT
BRANCH   5  13
HETATM   13  C8  UNL     1      -9.367 -22.847 -11.061  1.00  0.00     0.073 C 
BRANCH  13  14
HETATM   14  C9  UNL     1      -9.667 -22.419 -12.476  1.00  0.00    -0.052 A 
HETATM   15  C10 UNL     1      -8.952 -23.029 -13.496  1.00  0.00     0.031 A 
HETATM   16  C11 UNL     1      -9.200 -22.647 -14.797  1.00  0.00     0.036 A 
HETATM   17 CL1  UNL     1      -8.297 -23.414 -16.114  1.00  0.00    -0.084 Cl
HETATM   18  C12 UNL     1     -10.142 -21.676 -15.064  1.00  0.00     0.047 A 
HETATM   19  C13 UNL     1     -10.857 -21.064 -14.062  1.00  0.00     0.036 A 
HETATM   20 CL2  UNL     1     -12.064 -19.819 -14.419  1.00  0.00    -0.084 Cl
HETATM   21  C14 UNL     1     -10.589 -21.465 -12.772  1.00  0.00     0.031 A 
ENDBRANCH  13  14
ENDBRANCH   5  13
BRANCH   2  22
HETATM   22  O1  UNL     1     -12.405 -25.382  -8.866  1.00  0.00    -0.348 OA
ATOM     23  H1  UNL     1     -11.818 -26.123  -8.965  1.00  0.00     0.219 HD
ENDBRANCH   2  22
BRANCH   1  24
HETATM   24  C2  UNL     1     -13.415 -23.409  -7.651  1.00  0.00     0.009 C 
HETATM   25  C1  UNL     1     -12.904 -23.496  -6.206  1.00  0.00     0.012 C 
HETATM   26  C3  UNL     1     -14.509 -22.410  -7.670  1.00  0.00     0.012 C 
ENDBRANCH   1  24
BRANCH  10  27
HETATM   27  C17 UNL     1      -7.835 -23.693  -6.595  1.00  0.00     0.035 C 
BRANCH  27  28
HETATM   28  C18 UNL     1      -6.436 -23.832  -7.028  1.00  0.00     0.022 C 
BRANCH  28  29
HETATM   29  C19 UNL     1      -5.568 -23.435  -5.810  1.00  0.00     0.122 C 
BRANCH  29  30
HETATM   30  N3  UNL     1      -4.728 -22.352  -6.261  1.00  0.00    -0.367 N 
HETATM   31  C20 UNL     1      -4.984 -21.137  -5.939  1.00  0.00     0.196 C 
HETATM   32  N4  UNL     1      -4.192 -20.038  -6.353  1.00  0.00    -0.067 NA
HETATM   33  N5  UNL     1      -6.111 -20.858  -5.124  1.00  0.00    -0.067 NA
ATOM     34  H3  UNL     1      -3.918 -22.556  -6.846  1.00  0.00     0.161 HD
ENDBRANCH  29  30
ENDBRANCH  28  29
ENDBRANCH  27  28
ENDBRANCH  10  27
BRANCH  12  35
HETATM   35  C22 UNL     1     -11.454 -20.973  -7.609  1.00  0.00     0.193 C 
HETATM   36  S1  UNL     1     -10.639 -19.998  -8.711  1.00  0.00    -0.039 SA
BRANCH  35  37
HETATM   37  N7  UNL     1     -12.159 -20.266  -6.672  1.00  0.00    -0.270 N 
HETATM   38  C23 UNL     1     -12.102 -20.222  -5.233  1.00  0.00     0.174 C 
HETATM   39 CL3  UNL     1     -13.457 -19.157  -7.275  1.00  0.00     0.015 Cl
ENDBRANCH  35  37
ENDBRANCH  12  35
BRANCH  11  40
HETATM   40  O3  UNL     1     -10.177 -22.952  -5.891  1.00  0.00    -0.348 OA
ATOM     41  H3  UNL     1     -10.169 -23.817  -5.499  1.00  0.00     0.219 HD
ENDBRANCH  11  40
TORSDOF 11
ENDMDL
MODEL 5
REMARK VINA RESULT: -7.506213276      2.680      6.438
REMARK  11 active torsions:
REMARK  status: ('A' for Active; 'I' for Inactive)
REMARK    1  A    between atoms: C2_2  and  C4_4 
REMARK    2  A    between atoms: C5_5  and  O1_6 
REMARK    3  A    between atoms: C7_10  and  C8_11 
REMARK    4  A    between atoms: C8_11  and  C9_12 
REMARK    5  A    between atoms: C16_24  and  C17_25 
REMARK    6  A    between atoms: C17_25  and  C18_26 
REMARK    7  A    between atoms: C18_26  and  C19_27 
REMARK    8  A    between atoms: C19_27  and  N3_28 
REMARK    9  A    between atoms: C21_33  and  O3_34 
REMARK   10  A    between atoms: N6_36  and  C22_37 
REMARK   11  A    between atoms: C22_37  and  N7_39 
ROOT
HETATM    1  C4  UNL     1     -12.201 -23.149  -8.585  1.00  0.00     0.171 C 
HETATM    2  C5  UNL     1     -11.858 -24.306  -9.360  1.00  0.00     0.138 C 
HETATM    3  N1  UNL     1     -11.128 -24.543 -10.543  1.00  0.00    -0.354 N 
HETATM    4  C6  UNL     1     -11.868 -25.198 -11.663  1.00  0.00     0.152 C 
HETATM    5  C7  UNL     1      -9.731 -24.278 -10.808  1.00  0.00     0.182 C 
HETATM    6  C15 UNL     1      -8.852 -24.997  -9.823  1.00  0.00     0.241 C 
HETATM    7  O2  UNL     1      -7.963 -25.840 -10.178  1.00  0.00    -0.271 OA
HETATM    8  N2  UNL     1      -8.971 -24.775  -8.425  1.00  0.00    -0.347 N 
ATOM      9  H2  UNL     1      -9.185 -25.593  -7.854  1.00  0.00     0.163 HD
HETATM   10  C16 UNL     1      -8.827 -23.535  -7.726  1.00  0.00     0.159 C 
HETATM   11  C21 UNL     1     -10.045 -22.966  -7.224  1.00  0.00     0.144 C 
HETATM   12  N6  UNL     1     -11.202 -22.401  -7.820  1.00  0.00    -0.292 N 
ENDROOT
BRANCH   5  13
HETATM   13  C8  UNL     1      -9.342 -22.875 -11.077  1.00  0.00     0.073 C 
BRANCH  13  14
HETATM   14  C9  UNL     1      -9.587 -22.481 -12.513  1.00  0.00    -0.052 A 
HETATM   15  C10 UNL     1     -10.506 -21.470 -12.753  1.00  0.00     0.031 A 
HETATM   16  C11 UNL     1     -10.755 -21.100 -14.057  1.00  0.00     0.036 A 
HETATM   17 CL1  UNL     1     -11.926 -19.812 -14.384  1.00  0.00    -0.084 Cl
HETATM   18  C12 UNL     1     -10.097 -21.730 -15.091  1.00  0.00     0.047 A 
HETATM   19  C13 UNL     1      -9.183 -22.732 -14.867  1.00  0.00     0.036 A 
HETATM   20 CL2  UNL     1      -8.345 -23.533 -16.206  1.00  0.00    -0.084 Cl
HETATM   21  C14 UNL     1      -8.954 -23.082 -13.555  1.00  0.00     0.031 A 
ENDBRANCH  13  14
ENDBRANCH   5  13
BRANCH   2  22
HETATM   22  O1  UNL     1     -12.348 -25.421  -8.852  1.00  0.00    -0.348 OA
ATOM     23  H1  UNL     1     -11.709 -26.123  -8.830  1.00  0.00     0.219 HD
ENDBRANCH   2  22
BRANCH   1  24
HETATM   24  C2  UNL     1     -13.370 -23.449  -7.645  1.00  0.00     0.009 C 
HETATM   25  C1  UNL     1     -12.850 -23.530  -6.203  1.00  0.00     0.012 C 
HETATM   26  C3  UNL     1     -14.469 -22.455  -7.661  1.00  0.00     0.012 C 
ENDBRANCH   1  24
BRANCH  10  27
HETATM   27  C17 UNL     1      -7.783 -23.677  -6.613  1.00  0.00     0.035 C 
BRANCH  27  28
HETATM   28  C18 UNL     1      -6.388 -23.833  -7.051  1.00  0.00     0.022 C 
BRANCH  28  29
HETATM   29  C19 UNL     1      -5.509 -23.440  -5.839  1.00  0.00     0.122 C 
BRANCH  29  30
HETATM   30  N3  UNL     1      -4.701 -22.330  -6.281  1.00  0.00    -0.367 N 
HETATM   31  C20 UNL     1      -4.988 -21.126  -5.944  1.00  0.00     0.196 C 
HETATM   32  N4  UNL     1      -4.228 -20.001  -6.350  1.00  0.00    -0.067 NA
HETATM   33  N5  UNL     1      -6.119 -20.887  -5.122  1.00  0.00    -0.067 NA
ATOM     34  H3  UNL     1      -3.889 -22.506  -6.872  1.00  0.00     0.161 HD
ENDBRANCH  29  30
ENDBRANCH  28  29
ENDBRANCH  27  28
ENDBRANCH  10  27
BRANCH  12  35
HETATM   35  C22 UNL     1     -11.430 -20.996  -7.629  1.00  0.00     0.193 C 
HETATM   36  S1  UNL     1     -10.544 -20.017  -8.673  1.00  0.00    -0.039 SA
BRANCH  35  37
HETATM   37  N7  UNL     1     -12.193 -20.292  -6.736  1.00  0.00    -0.270 N 
HETATM   38  C23 UNL     1     -12.242 -20.268  -5.296  1.00  0.00     0.174 C 
HETATM   39 CL3  UNL     1     -13.428 -19.155  -7.417  1.00  0.00     0.015 Cl
ENDBRANCH  35  37
ENDBRANCH  12  35
BRANCH  11  40
HETATM   40  O3  UNL     1     -10.128 -22.951  -5.903  1.00  0.00    -0.348 OA
ATOM     41  H3  UNL     1     -10.832 -23.485  -5.554  1.00  0.00     0.219 HD
ENDBRANCH  11  40
TORSDOF 11
ENDMDL
