MODEL 1
REMARK VINA RESULT: -4.831047498      0.000      0.000
REMARK  4 active torsions:
REMARK  status: ('A' for Active; 'I' for Inactive)
REMARK    1  A    between atoms: C2_2  and  C3_3 
REMARK    2  A    between atoms: C2_2  and  N2_8 
REMARK    3  A    between atoms: C3_3  and  N1_4 
REMARK    4  A    between atoms: N2_8  and  C7_10 
ROOT
HETATM    1  C1  UNL     1     -27.912  47.932 -26.376  1.00  0.00     0.034 C 
HETATM    2  C2  UNL     1     -28.426  46.728 -25.566  1.00  0.00     0.106 C 
ENDROOT
BRANCH   2   3
HETATM    3  C3  UNL     1     -27.728  46.795 -24.263  1.00  0.00     0.296 C 
BRANCH   3   4
HETATM    4  N1  UNL     1     -28.423  47.275 -23.162  1.00  0.00     0.090 N 
HETATM    5  C4  UNL     1     -28.212  48.535 -22.572  1.00  0.00     0.274 C 
HETATM    6  C5  UNL     1     -28.765  47.938 -21.267  1.00  0.00     0.060 C 
HETATM    7  C6  UNL     1     -28.528  46.576 -21.938  1.00  0.00     0.274 C 
ENDBRANCH   3   4
ENDBRANCH   2   3
BRANCH   2   8
HETATM    8  N2  UNL     1     -29.854  46.870 -25.528  1.00  0.00    -0.381 N 
ATOM      9  H2  UNL     1     -30.273  47.708 -25.125  1.00  0.00     0.160 HD
BRANCH   8  10
HETATM   10  C7  UNL     1     -30.683  45.842 -26.053  1.00  0.00     0.169 C 
HETATM   11  N3  UNL     1     -31.894  46.002 -26.455  1.00  0.00    -0.396 N 
ATOM     12  H32 UNL     1     -32.274  46.946 -26.384  1.00  0.00     0.156 HD
ATOM     13  H31 UNL     1     -32.489  45.264 -26.831  1.00  0.00     0.156 HD
ENDBRANCH   8  10
ENDBRANCH   2   8
TORSDOF 4
ENDMDL
MODEL 2
REMARK VINA RESULT: -4.814394691      0.665      1.087
REMARK  4 active torsions:
REMARK  status: ('A' for Active; 'I' for Inactive)
REMARK    1  A    between atoms: C2_2  and  C3_3 
REMARK    2  A    between atoms: C2_2  and  N2_8 
REMARK    3  A    between atoms: C3_3  and  N1_4 
REMARK    4  A    between atoms: N2_8  and  C7_10 
ROOT
HETATM    1  C1  UNL     1     -27.683  46.760 -26.409  1.00  0.00     0.034 C 
HETATM    2  C2  UNL     1     -28.493  46.764 -25.100  1.00  0.00     0.106 C 
ENDROOT
BRANCH   2   3
HETATM    3  C3  UNL     1     -27.871  47.800 -24.246  1.00  0.00     0.296 C 
BRANCH   3   4
HETATM    4  N1  UNL     1     -28.119  47.773 -22.881  1.00  0.00     0.090 N 
HETATM    5  C4  UNL     1     -28.412  46.608 -22.146  1.00  0.00     0.274 C 
HETATM    6  C5  UNL     1     -29.135  47.514 -21.136  1.00  0.00     0.060 C 
HETATM    7  C6  UNL     1     -29.096  48.574 -22.248  1.00  0.00     0.274 C 
ENDBRANCH   3   4
ENDBRANCH   2   3
BRANCH   2   8
HETATM    8  N2  UNL     1     -29.855  46.999 -25.489  1.00  0.00    -0.381 N 
ATOM      9  H2  UNL     1     -30.266  47.926 -25.378  1.00  0.00     0.160 HD
BRANCH   8  10
HETATM   10  C7  UNL     1     -30.631  45.938 -26.031  1.00  0.00     0.169 C 
HETATM   11  N3  UNL     1     -31.851  46.040 -26.423  1.00  0.00    -0.396 N 
ATOM     12  H32 UNL     1     -32.281  46.961 -26.332  1.00  0.00     0.156 HD
ATOM     13  H31 UNL     1     -32.408  45.279 -26.812  1.00  0.00     0.156 HD
ENDBRANCH   8  10
ENDBRANCH   2   8
TORSDOF 4
ENDMDL
MODEL 3
REMARK VINA RESULT: -4.698503062      1.821      2.204
REMARK  4 active torsions:
REMARK  status: ('A' for Active; 'I' for Inactive)
REMARK    1  A    between atoms: C2_2  and  C3_3 
REMARK    2  A    between atoms: C2_2  and  N2_8 
REMARK    3  A    between atoms: C3_3  and  N1_4 
REMARK    4  A    between atoms: N2_8  and  C7_10 
ROOT
HETATM    1  C1  UNL     1     -29.544  46.740 -25.515  1.00  0.00     0.034 C 
HETATM    2  C2  UNL     1     -28.215  47.505 -25.655  1.00  0.00     0.106 C 
ENDROOT
BRANCH   2   3
HETATM    3  C3  UNL     1     -27.672  47.620 -24.283  1.00  0.00     0.296 C 
BRANCH   3   4
HETATM    4  N1  UNL     1     -28.544  47.498 -23.212  1.00  0.00     0.090 N 
HETATM    5  C4  UNL     1     -28.979  48.570 -22.409  1.00  0.00     0.274 C 
HETATM    6  C5  UNL     1     -29.218  47.543 -21.290  1.00  0.00     0.060 C 
HETATM    7  C6  UNL     1     -28.339  46.606 -22.135  1.00  0.00     0.274 C 
ENDBRANCH   3   4
ENDBRANCH   2   3
BRANCH   2   8
HETATM    8  N2  UNL     1     -27.429  46.745 -26.585  1.00  0.00    -0.381 N 
ATOM      9  H2  UNL     1     -26.544  47.118 -26.931  1.00  0.00     0.160 HD
BRANCH   8  10
HETATM   10  C7  UNL     1     -27.883  45.472 -27.024  1.00  0.00     0.169 C 
HETATM   11  N3  UNL     1     -27.225  44.675 -27.789  1.00  0.00    -0.396 N 
ATOM     12  H32 UNL     1     -26.307  44.997 -28.096  1.00  0.00     0.156 HD
ATOM     13  H31 UNL     1     -27.551  43.761 -28.104  1.00  0.00     0.156 HD
ENDBRANCH   8  10
ENDBRANCH   2   8
TORSDOF 4
ENDMDL
MODEL 4
REMARK VINA RESULT: -4.527497826      1.972      4.250
REMARK  4 active torsions:
REMARK  status: ('A' for Active; 'I' for Inactive)
REMARK    1  A    between atoms: C2_2  and  C3_3 
REMARK    2  A    between atoms: C2_2  and  N2_8 
REMARK    3  A    between atoms: C3_3  and  N1_4 
REMARK    4  A    between atoms: N2_8  and  C7_10 
ROOT
HETATM    1  C1  UNL     1     -27.560  46.178 -22.354  1.00  0.00     0.034 C 
HETATM    2  C2  UNL     1     -27.309  47.685 -22.166  1.00  0.00     0.106 C 
ENDROOT
BRANCH   2   3
HETATM    3  C3  UNL     1     -27.626  48.311 -23.469  1.00  0.00     0.296 C 
BRANCH   3   4
HETATM    4  N1  UNL     1     -28.097  47.504 -24.495  1.00  0.00     0.090 N 
HETATM    5  C4  UNL     1     -27.545  47.456 -25.789  1.00  0.00     0.274 C 
HETATM    6  C5  UNL     1     -28.924  46.986 -26.282  1.00  0.00     0.060 C 
HETATM    7  C6  UNL     1     -29.442  47.496 -24.928  1.00  0.00     0.274 C 
ENDBRANCH   3   4
ENDBRANCH   2   3
BRANCH   2   8
HETATM    8  N2  UNL     1     -28.132  48.078 -21.057  1.00  0.00    -0.381 N 
ATOM      9  H2  UNL     1     -27.702  48.384 -20.184  1.00  0.00     0.160 HD
BRANCH   8  10
HETATM   10  C7  UNL     1     -29.548  48.042 -21.178  1.00  0.00     0.169 C 
HETATM   11  N3  UNL     1     -30.316  49.074 -21.191  1.00  0.00    -0.396 N 
ATOM     12  H32 UNL     1     -29.857  49.981 -21.107  1.00  0.00     0.156 HD
ATOM     13  H31 UNL     1     -31.332  49.048 -21.277  1.00  0.00     0.156 HD
ENDBRANCH   8  10
ENDBRANCH   2   8
TORSDOF 4
ENDMDL
MODEL 5
REMARK VINA RESULT: -4.464987472      1.501      2.589
REMARK  4 active torsions:
REMARK  status: ('A' for Active; 'I' for Inactive)
REMARK    1  A    between atoms: C2_2  and  C3_3 
REMARK    2  A    between atoms: C2_2  and  N2_8 
REMARK    3  A    between atoms: C3_3  and  N1_4 
REMARK    4  A    between atoms: N2_8  and  C7_10 
ROOT
HETATM    1  C1  UNL     1     -30.991  45.834 -26.076  1.00  0.00     0.034 C 
HETATM    2  C2  UNL     1     -29.812  46.644 -25.506  1.00  0.00     0.106 C 
ENDROOT
BRANCH   2   3
HETATM    3  C3  UNL     1     -29.928  46.541 -24.035  1.00  0.00     0.296 C 
BRANCH   3   4
HETATM    4  N1  UNL     1     -29.009  47.219 -23.247  1.00  0.00     0.090 N 
HETATM    5  C4  UNL     1     -28.068  46.599 -22.404  1.00  0.00     0.274 C 
HETATM    6  C5  UNL     1     -28.067  47.891 -21.572  1.00  0.00     0.060 C 
HETATM    7  C6  UNL     1     -29.366  48.227 -22.323  1.00  0.00     0.274 C 
ENDBRANCH   3   4
ENDBRANCH   2   3
BRANCH   2   8
HETATM    8  N2  UNL     1     -28.632  46.069 -26.090  1.00  0.00    -0.381 N 
ATOM      9  H2  UNL     1     -28.587  45.066 -26.267  1.00  0.00     0.160 HD
BRANCH   8  10
HETATM   10  C7  UNL     1     -27.527  46.900 -26.421  1.00  0.00     0.169 C 
HETATM   11  N3  UNL     1     -27.486  48.175 -26.257  1.00  0.00    -0.396 N 
ATOM     12  H32 UNL     1     -28.319  48.608 -25.858  1.00  0.00     0.156 HD
ATOM     13  H31 UNL     1     -26.694  48.772 -26.495  1.00  0.00     0.156 HD
ENDBRANCH   8  10
ENDBRANCH   2   8
TORSDOF 4
ENDMDL
