MODEL 1
REMARK VINA RESULT: -4.752161030      0.000      0.000
REMARK  5 active torsions:
REMARK  status: ('A' for Active; 'I' for Inactive)
REMARK    1  A    between atoms: C2_2  and  N1_3 
REMARK    2  A    between atoms: C2_2  and  C6_9 
REMARK    3  A    between atoms: N1_3  and  C3_6 
REMARK    4  A    between atoms: C6_9  and  N2_10 
REMARK    5  A    between atoms: C6_9  and  C7_14 
ROOT
HETATM    1  C1  UNL     1     -27.335  46.442 -22.652  1.00  0.00     0.042 C 
HETATM    2  C2  UNL     1     -28.284  47.528 -23.081  1.00  0.00     0.219 C 
ENDROOT
BRANCH   2   3
HETATM    3  N1  UNL     1     -29.368  47.014 -23.859  1.00  0.00    -0.065 N 
ATOM      4  H12 UNL     1     -29.449  46.006 -23.734  1.00  0.00     0.278 HD
ATOM      5  H11 UNL     1     -30.261  47.311 -23.466  1.00  0.00     0.278 HD
BRANCH   3   6
HETATM    6  C3  UNL     1     -29.300  47.341 -25.243  1.00  0.00     0.186 A 
HETATM    7  C4  UNL     1     -29.939  46.247 -26.136  1.00  0.00     0.035 A 
HETATM    8  C5  UNL     1     -28.485  46.647 -26.236  1.00  0.00     0.035 A 
ENDBRANCH   3   6
ENDBRANCH   2   3
BRANCH   2   9
HETATM    9  C6  UNL     1     -28.705  48.373 -21.923  1.00  0.00     0.274 C 
BRANCH   9  10
HETATM   10  N2  UNL     1     -27.940  48.200 -20.731  1.00  0.00    -0.067 N 
ATOM     11  H23 UNL     1     -27.950  47.220 -20.448  1.00  0.00     0.275 HD
ATOM     12  H22 UNL     1     -26.946  48.319 -20.932  1.00  0.00     0.275 HD
ATOM     13  H21 UNL     1     -28.212  48.794 -19.948  1.00  0.00     0.275 HD
ENDBRANCH   9  10
BRANCH   9  14
HETATM   14  C7  UNL     1     -30.168  48.241 -21.664  1.00  0.00     0.266 C 
HETATM   15  O1  UNL     1     -30.569  47.315 -21.013  1.00  0.00    -0.305 OA
ENDBRANCH   9  14
ENDBRANCH   2   9
TORSDOF 5
ENDMDL
MODEL 2
REMARK VINA RESULT: -4.649802333      2.643      4.651
REMARK  5 active torsions:
REMARK  status: ('A' for Active; 'I' for Inactive)
REMARK    1  A    between atoms: C2_2  and  N1_3 
REMARK    2  A    between atoms: C2_2  and  C6_9 
REMARK    3  A    between atoms: N1_3  and  C3_6 
REMARK    4  A    between atoms: C6_9  and  N2_10 
REMARK    5  A    between atoms: C6_9  and  C7_14 
ROOT
HETATM    1  C1  UNL     1     -30.199  46.334 -25.455  1.00  0.00     0.042 C 
HETATM    2  C2  UNL     1     -29.058  47.134 -24.885  1.00  0.00     0.219 C 
ENDROOT
BRANCH   2   3
HETATM    3  N1  UNL     1     -28.888  46.900 -23.485  1.00  0.00    -0.065 N 
ATOM      4  H12 UNL     1     -29.576  46.226 -23.150  1.00  0.00     0.278 HD
ATOM      5  H11 UNL     1     -28.032  46.374 -23.313  1.00  0.00     0.278 HD
BRANCH   3   6
HETATM    6  C3  UNL     1     -28.917  48.080 -22.688  1.00  0.00     0.186 A 
HETATM    7  C4  UNL     1     -28.497  47.807 -21.221  1.00  0.00     0.035 A 
HETATM    8  C5  UNL     1     -29.858  48.342 -21.603  1.00  0.00     0.035 A 
ENDBRANCH   3   6
ENDBRANCH   2   3
BRANCH   2   9
HETATM    9  C6  UNL     1     -27.814  46.959 -25.693  1.00  0.00     0.274 C 
BRANCH   9  10
HETATM   10  N2  UNL     1     -27.196  48.169 -26.132  1.00  0.00    -0.067 N 
ATOM     11  H23 UNL     1     -27.644  48.971 -25.690  1.00  0.00     0.275 HD
ATOM     12  H22 UNL     1     -26.258  48.246 -25.738  1.00  0.00     0.275 HD
ATOM     13  H21 UNL     1     -27.163  48.300 -27.143  1.00  0.00     0.275 HD
ENDBRANCH   9  10
BRANCH   9  14
HETATM   14  C7  UNL     1     -28.033  46.009 -26.823  1.00  0.00     0.266 C 
HETATM   15  O1  UNL     1     -27.309  45.058 -26.939  1.00  0.00    -0.305 OA
ENDBRANCH   9  14
ENDBRANCH   2   9
TORSDOF 5
ENDMDL
MODEL 3
REMARK VINA RESULT: -4.524775134      2.386      4.491
REMARK  5 active torsions:
REMARK  status: ('A' for Active; 'I' for Inactive)
REMARK    1  A    between atoms: C2_2  and  N1_3 
REMARK    2  A    between atoms: C2_2  and  C6_9 
REMARK    3  A    between atoms: N1_3  and  C3_6 
REMARK    4  A    between atoms: C6_9  and  N2_10 
REMARK    5  A    between atoms: C6_9  and  C7_14 
ROOT
HETATM    1  C1  UNL     1     -30.571  45.991 -25.604  1.00  0.00     0.042 C 
HETATM    2  C2  UNL     1     -29.468  46.965 -25.290  1.00  0.00     0.219 C 
ENDROOT
BRANCH   2   3
HETATM    3  N1  UNL     1     -28.869  46.703 -24.019  1.00  0.00    -0.065 N 
ATOM      4  H12 UNL     1     -29.052  45.742 -23.729  1.00  0.00     0.278 HD
ATOM      5  H11 UNL     1     -27.853  46.667 -24.103  1.00  0.00     0.278 HD
BRANCH   3   6
HETATM    6  C3  UNL     1     -29.252  47.614 -22.993  1.00  0.00     0.186 A 
HETATM    7  C4  UNL     1     -28.036  48.117 -22.172  1.00  0.00     0.035 A 
HETATM    8  C5  UNL     1     -29.184  47.348 -21.559  1.00  0.00     0.035 A 
ENDBRANCH   3   6
ENDBRANCH   2   3
BRANCH   2   9
HETATM    9  C6  UNL     1     -28.494  47.068 -26.418  1.00  0.00     0.274 C 
BRANCH   9  10
HETATM   10  N2  UNL     1     -27.677  45.917 -26.627  1.00  0.00    -0.067 N 
ATOM     11  H23 UNL     1     -26.738  46.200 -26.905  1.00  0.00     0.275 HD
ATOM     12  H22 UNL     1     -27.472  45.467 -25.734  1.00  0.00     0.275 HD
ATOM     13  H21 UNL     1     -28.047  45.233 -27.287  1.00  0.00     0.275 HD
ENDBRANCH   9  10
BRANCH   9  14
HETATM   14  C7  UNL     1     -27.677  48.313 -26.314  1.00  0.00     0.266 C 
HETATM   15  O1  UNL     1     -26.850  48.402 -25.448  1.00  0.00    -0.305 OA
ENDBRANCH   9  14
ENDBRANCH   2   9
TORSDOF 5
ENDMDL
MODEL 4
REMARK VINA RESULT: -4.522544521      1.323      1.493
REMARK  5 active torsions:
REMARK  status: ('A' for Active; 'I' for Inactive)
REMARK    1  A    between atoms: C2_2  and  N1_3 
REMARK    2  A    between atoms: C2_2  and  C6_9 
REMARK    3  A    between atoms: N1_3  and  C3_6 
REMARK    4  A    between atoms: C6_9  and  N2_10 
REMARK    5  A    between atoms: C6_9  and  C7_14 
ROOT
HETATM    1  C1  UNL     1     -27.001  46.180 -22.669  1.00  0.00     0.042 C 
HETATM    2  C2  UNL     1     -27.559  47.576 -22.603  1.00  0.00     0.219 C 
ENDROOT
BRANCH   2   3
HETATM    3  N1  UNL     1     -27.990  48.040 -23.884  1.00  0.00    -0.065 N 
ATOM      4  H12 UNL     1     -28.868  48.552 -23.802  1.00  0.00     0.278 HD
ATOM      5  H11 UNL     1     -27.383  48.790 -24.215  1.00  0.00     0.278 HD
BRANCH   3   6
HETATM    6  C3  UNL     1     -28.100  47.018 -24.870  1.00  0.00     0.186 A 
HETATM    7  C4  UNL     1     -27.996  47.579 -26.311  1.00  0.00     0.035 A 
HETATM    8  C5  UNL     1     -29.217  46.853 -25.795  1.00  0.00     0.035 A 
ENDBRANCH   3   6
ENDBRANCH   2   3
BRANCH   2   9
HETATM    9  C6  UNL     1     -28.588  47.701 -21.526  1.00  0.00     0.274 C 
BRANCH   9  10
HETATM   10  N2  UNL     1     -29.374  46.532 -21.294  1.00  0.00    -0.067 N 
ATOM     11  H23 UNL     1     -28.798  45.801 -20.875  1.00  0.00     0.275 HD
ATOM     12  H22 UNL     1     -30.033  46.699 -20.533  1.00  0.00     0.275 HD
ATOM     13  H21 UNL     1     -29.865  46.167 -22.110  1.00  0.00     0.275 HD
ENDBRANCH   9  10
BRANCH   9  14
HETATM   14  C7  UNL     1     -29.441  48.907 -21.734  1.00  0.00     0.266 C 
HETATM   15  O1  UNL     1     -30.267  49.191 -20.910  1.00  0.00    -0.305 OA
ENDBRANCH   9  14
ENDBRANCH   2   9
TORSDOF 5
ENDMDL
MODEL 5
REMARK VINA RESULT: -4.452442966      0.934      1.151
REMARK  5 active torsions:
REMARK  status: ('A' for Active; 'I' for Inactive)
REMARK    1  A    between atoms: C2_2  and  N1_3 
REMARK    2  A    between atoms: C2_2  and  C6_9 
REMARK    3  A    between atoms: N1_3  and  C3_6 
REMARK    4  A    between atoms: C6_9  and  N2_10 
REMARK    5  A    between atoms: C6_9  and  C7_14 
ROOT
HETATM    1  C1  UNL     1     -27.550  46.169 -22.503  1.00  0.00     0.042 C 
HETATM    2  C2  UNL     1     -27.591  47.663 -22.679  1.00  0.00     0.219 C 
ENDROOT
BRANCH   2   3
HETATM    3  N1  UNL     1     -27.716  48.036 -24.053  1.00  0.00    -0.065 N 
ATOM      4  H12 UNL     1     -28.425  48.761 -24.163  1.00  0.00     0.278 HD
ATOM      5  H11 UNL     1     -26.891  48.553 -24.359  1.00  0.00     0.278 HD
BRANCH   3   6
HETATM    6  C3  UNL     1     -27.976  46.947 -24.933  1.00  0.00     0.186 A 
HETATM    7  C4  UNL     1     -28.010  47.389 -26.418  1.00  0.00     0.035 A 
HETATM    8  C5  UNL     1     -29.195  46.767 -25.716  1.00  0.00     0.035 A 
ENDBRANCH   3   6
ENDBRANCH   2   3
BRANCH   2   9
HETATM    9  C6  UNL     1     -28.603  48.290 -21.777  1.00  0.00     0.274 C 
BRANCH   9  10
HETATM   10  N2  UNL     1     -28.298  48.235 -20.384  1.00  0.00    -0.067 N 
ATOM     11  H23 UNL     1     -29.159  48.250 -19.836  1.00  0.00     0.275 HD
ATOM     12  H22 UNL     1     -27.946  47.309 -20.139  1.00  0.00     0.275 HD
ATOM     13  H21 UNL     1     -27.657  48.954 -20.049  1.00  0.00     0.275 HD
ENDBRANCH   9  10
BRANCH   9  14
HETATM   14  C7  UNL     1     -29.973  47.772 -22.063  1.00  0.00     0.266 C 
HETATM   15  O1  UNL     1     -30.650  47.368 -21.156  1.00  0.00    -0.305 OA
ENDBRANCH   9  14
ENDBRANCH   2   9
TORSDOF 5
ENDMDL
