MODEL 1
REMARK VINA RESULT: -7.978273912      0.000      0.000
REMARK  14 active torsions:
REMARK  status: ('A' for Active; 'I' for Inactive)
REMARK    1  A    between atoms: C2_2  and  N1_3 
REMARK    2  A    between atoms: C4_9  and  S1_10 
REMARK    3  A    between atoms: S1_10  and  C5_11 
REMARK    4  A    between atoms: C10_21  and  N6_22 
REMARK    5  A    between atoms: N7_25  and  C11_26 
REMARK    6  A    between atoms: C11_26  and  N8_27 
REMARK    7  A    between atoms: N8_27  and  C12_29 
REMARK    8  A    between atoms: C12_29  and  C13_30 
REMARK    9  A    between atoms: C12_29  and  C14_33 
REMARK   10  A    between atoms: C12_29  and  N9_36 
REMARK   11  A    between atoms: C13_30  and  O1_31 
REMARK   12  A    between atoms: C14_33  and  O2_34 
REMARK   13  A    between atoms: N9_36  and  O3_38 
REMARK   14  A    between atoms: N10_40  and  C15_41 
ROOT
HETATM    1  C5  UNL     1      29.733-182.493  26.784  1.00  0.00     0.081 A 
HETATM    2  C6  UNL     1      30.991-182.639  26.186  1.00  0.00     0.070 A 
HETATM    3  C7  UNL     1      31.089-183.501  25.116  1.00  0.00     0.080 A 
HETATM    4  C8  UNL     1      30.045-184.210  24.609  1.00  0.00     0.082 A 
HETATM    5  C9  UNL     1      28.823-184.039  25.222  1.00  0.00     0.116 A 
HETATM    6  N4  UNL     1      27.808-184.687  24.780  1.00  0.00    -0.385 N 
ATOM      7  H41 UNL     1      26.903-184.560  25.234  1.00  0.00     0.157 HD
ATOM      8  H42 UNL     1      27.899-185.321  23.986  1.00  0.00     0.157 HD
HETATM    9  N5  UNL     1      28.701-183.188  26.288  1.00  0.00    -0.336 N 
ATOM     10  H5  UNL     1      27.785-183.079  26.723  1.00  0.00     0.168 HD
HETATM   11  C10 UNL     1      30.534-184.954  23.551  1.00  0.00     0.134 A 
HETATM   12  N7  UNL     1      31.848-184.696  23.424  1.00  0.00    -0.248 N 
HETATM   13  N10 UNL     1      32.177-183.824  24.364  1.00  0.00    -0.218 N 
ENDROOT
BRANCH  12  14
HETATM   14  C11 UNL     1      32.739-185.293  22.407  1.00  0.00     0.270 C 
BRANCH  14  15
HETATM   15  N8  UNL     1      33.254-184.337  21.513  1.00  0.00    -0.374 N 
ATOM     16  H8  UNL     1      34.209-183.998  21.620  1.00  0.00     0.157 HD
BRANCH  15  17
HETATM   17  C12 UNL     1      32.435-183.846  20.459  1.00  0.00     0.163 C 
BRANCH  17  18
HETATM   18  C13 UNL     1      33.371-183.176  19.433  1.00  0.00     0.221 C 
BRANCH  18  19
HETATM   19  O1  UNL     1      32.644-182.240  18.681  1.00  0.00    -0.396 OA
ATOM     20  H1  UNL     1      32.060-181.759  19.256  1.00  0.00     0.209 HD
ENDBRANCH  18  19
ENDBRANCH  17  18
BRANCH  17  21
HETATM   21  C14 UNL     1      31.757-184.952  19.675  1.00  0.00     0.221 C 
BRANCH  21  22
HETATM   22  O2  UNL     1      30.673-184.366  19.003  1.00  0.00    -0.396 OA
ATOM     23  H2  UNL     1      29.888-184.615  19.477  1.00  0.00     0.209 HD
ENDBRANCH  21  22
ENDBRANCH  17  21
BRANCH  17  24
HETATM   24  N9  UNL     1      31.453-182.873  20.790  1.00  0.00    -0.272 N 
ATOM     25  H9  UNL     1      30.531-182.887  20.355  1.00  0.00     0.190 HD
BRANCH  24  26
HETATM   26  O3  UNL     1      31.775-181.950  21.681  1.00  0.00    -0.292 OA
ATOM     27  H3  UNL     1      31.112-181.693  22.311  1.00  0.00     0.244 HD
ENDBRANCH  24  26
ENDBRANCH  17  24
ENDBRANCH  15  17
ENDBRANCH  14  15
ENDBRANCH  12  14
BRANCH  11  28
HETATM   28  N6  UNL     1      29.781-185.737  22.857  1.00  0.00    -0.383 N 
ATOM     29  H62 UNL     1      28.777-185.687  22.684  1.00  0.00     0.157 HD
ATOM     30  H61 UNL     1      30.149-186.555  22.373  1.00  0.00     0.157 HD
ENDBRANCH  11  28
BRANCH  13  31
HETATM   31  C15 UNL     1      33.468-183.294  24.570  1.00  0.00     0.214 C 
HETATM   32  N11 UNL     1      33.970-182.305  23.921  1.00  0.00    -0.272 N 
HETATM   33  N12 UNL     1      35.248-182.006  24.335  1.00  0.00    -0.119 NA
ATOM     34  H11 UNL     1      33.478-181.800  23.184  1.00  0.00     0.185 HD
HETATM   35  C16 UNL     1      35.691-183.121  25.138  1.00  0.00     0.259 C 
HETATM   36  N13 UNL     1      34.443-183.723  25.501  1.00  0.00    -0.345 N 
ATOM     37  H13 UNL     1      34.286-184.349  26.291  1.00  0.00     0.164 HD
ENDBRANCH  13  31
BRANCH   1  38
HETATM   38  S1  UNL     1      29.680-181.374  28.149  1.00  0.00    -0.035 SA
BRANCH  38  39
HETATM   39  C4  UNL     1      29.624-182.148  29.742  1.00  0.00     0.168 A 
HETATM   40  N1  UNL     1      28.477-182.602  30.318  1.00  0.00    -0.270 N 
HETATM   41  N2  UNL     1      28.720-183.133  31.501  1.00  0.00    -0.292 N 
HETATM   42  C3  UNL     1      30.043-183.021  31.694  1.00  0.00     0.199 A 
ATOM     43  H2  UNL     1      28.039-183.544  32.140  1.00  0.00     0.188 HD
HETATM   44  N3  UNL     1      30.606-182.424  30.631  1.00  0.00    -0.330 N 
ATOM     45  H3  UNL     1      31.598-182.215  30.515  1.00  0.00     0.168 HD
BRANCH  40  46
HETATM   46  C2  UNL     1      27.180-182.480  29.648  1.00  0.00     0.147 C 
HETATM   47  C1  UNL     1      26.056-182.875  30.585  1.00  0.00     0.028 C 
ENDBRANCH  40  46
ENDBRANCH  38  39
ENDBRANCH   1  38
TORSDOF 14
ENDMDL
MODEL 2
REMARK VINA RESULT: -7.875029447      1.920      2.508
REMARK  14 active torsions:
REMARK  status: ('A' for Active; 'I' for Inactive)
REMARK    1  A    between atoms: C2_2  and  N1_3 
REMARK    2  A    between atoms: C4_9  and  S1_10 
REMARK    3  A    between atoms: S1_10  and  C5_11 
REMARK    4  A    between atoms: C10_21  and  N6_22 
REMARK    5  A    between atoms: N7_25  and  C11_26 
REMARK    6  A    between atoms: C11_26  and  N8_27 
REMARK    7  A    between atoms: N8_27  and  C12_29 
REMARK    8  A    between atoms: C12_29  and  C13_30 
REMARK    9  A    between atoms: C12_29  and  C14_33 
REMARK   10  A    between atoms: C12_29  and  N9_36 
REMARK   11  A    between atoms: C13_30  and  O1_31 
REMARK   12  A    between atoms: C14_33  and  O2_34 
REMARK   13  A    between atoms: N9_36  and  O3_38 
REMARK   14  A    between atoms: N10_40  and  C15_41 
ROOT
HETATM    1  C5  UNL     1      29.857-183.961  24.672  1.00  0.00     0.081 A 
HETATM    2  C6  UNL     1      30.983-183.582  23.932  1.00  0.00     0.070 A 
HETATM    3  C7  UNL     1      31.418-184.446  22.951  1.00  0.00     0.080 A 
HETATM    4  C8  UNL     1      30.822-185.634  22.661  1.00  0.00     0.082 A 
HETATM    5  C9  UNL     1      29.716-185.973  23.410  1.00  0.00     0.116 A 
HETATM    6  N4  UNL     1      29.119-187.083  23.174  1.00  0.00    -0.385 N 
ATOM      7  H41 UNL     1      28.301-187.334  23.729  1.00  0.00     0.157 HD
ATOM      8  H42 UNL     1      29.456-187.711  22.444  1.00  0.00     0.157 HD
HETATM    9  N5  UNL     1      29.265-185.130  24.391  1.00  0.00    -0.336 N 
ATOM     10  H5  UNL     1      28.444-185.403  24.930  1.00  0.00     0.168 HD
HETATM   11  C10 UNL     1      31.540-186.209  21.628  1.00  0.00     0.134 A 
HETATM   12  N7  UNL     1      32.549-185.380  21.303  1.00  0.00    -0.248 N 
HETATM   13  N10 UNL     1      32.472-184.325  22.098  1.00  0.00    -0.218 N 
ENDROOT
BRANCH  12  14
HETATM   14  C11 UNL     1      33.548-185.630  20.243  1.00  0.00     0.270 C 
BRANCH  14  15
HETATM   15  N8  UNL     1      32.955-185.913  19.000  1.00  0.00    -0.374 N 
ATOM     16  H8  UNL     1      32.992-186.857  18.616  1.00  0.00     0.157 HD
BRANCH  15  17
HETATM   17  C12 UNL     1      32.303-184.875  18.279  1.00  0.00     0.163 C 
BRANCH  17  18
HETATM   18  C13 UNL     1      33.313-183.718  18.137  1.00  0.00     0.221 C 
BRANCH  18  19
HETATM   19  O1  UNL     1      32.908-182.872  17.092  1.00  0.00    -0.396 OA
ATOM     20  H1  UNL     1      33.510-182.139  17.028  1.00  0.00     0.209 HD
ENDBRANCH  18  19
ENDBRANCH  17  18
BRANCH  17  21
HETATM   21  C14 UNL     1      31.981-185.262  16.849  1.00  0.00     0.221 C 
BRANCH  21  22
HETATM   22  O2  UNL     1      30.659-184.857  16.607  1.00  0.00    -0.396 OA
ATOM     23  H2  UNL     1      30.259-185.530  16.069  1.00  0.00     0.209 HD
ENDBRANCH  21  22
ENDBRANCH  17  21
BRANCH  17  24
HETATM   24  N9  UNL     1      31.134-184.309  18.857  1.00  0.00    -0.272 N 
ATOM     25  H9  UNL     1      30.260-184.833  18.898  1.00  0.00     0.190 HD
BRANCH  24  26
HETATM   26  O3  UNL     1      31.217-183.080  19.338  1.00  0.00    -0.292 OA
ATOM     27  H3  UNL     1      30.732-182.881  20.130  1.00  0.00     0.244 HD
ENDBRANCH  24  26
ENDBRANCH  17  24
ENDBRANCH  15  17
ENDBRANCH  14  15
ENDBRANCH  12  14
BRANCH  11  28
HETATM   28  N6  UNL     1      31.221-187.351  21.124  1.00  0.00    -0.383 N 
ATOM     29  H62 UNL     1      30.822-188.173  21.577  1.00  0.00     0.157 HD
ATOM     30  H61 UNL     1      31.348-187.562  20.134  1.00  0.00     0.157 HD
ENDBRANCH  11  28
BRANCH  13  31
HETATM   31  C15 UNL     1      33.350-183.221  22.077  1.00  0.00     0.214 C 
HETATM   32  N11 UNL     1      33.260-182.224  21.271  1.00  0.00    -0.272 N 
HETATM   33  N12 UNL     1      34.254-181.295  21.479  1.00  0.00    -0.119 NA
ATOM     34  H11 UNL     1      32.536-182.132  20.558  1.00  0.00     0.185 HD
HETATM   35  C16 UNL     1      35.237-181.929  22.324  1.00  0.00     0.259 C 
HETATM   36  N13 UNL     1      34.470-182.988  22.909  1.00  0.00    -0.345 N 
ATOM     37  H13 UNL     1      34.692-183.485  23.772  1.00  0.00     0.164 HD
ENDBRANCH  13  31
BRANCH   1  38
HETATM   38  S1  UNL     1      29.355-182.809  25.913  1.00  0.00    -0.035 SA
BRANCH  38  39
HETATM   39  C4  UNL     1      29.929-183.179  27.548  1.00  0.00     0.168 A 
HETATM   40  N1  UNL     1      29.110-183.263  28.632  1.00  0.00    -0.270 N 
HETATM   41  N2  UNL     1      29.795-183.551  29.722  1.00  0.00    -0.292 N 
HETATM   42  C3  UNL     1      31.077-183.655  29.338  1.00  0.00     0.199 A 
ATOM     43  H2  UNL     1      29.426-183.670  30.665  1.00  0.00     0.188 HD
HETATM   44  N3  UNL     1      31.173-183.431  28.017  1.00  0.00    -0.330 N 
ATOM     45  H3  UNL     1      32.032-183.448  27.465  1.00  0.00     0.168 HD
BRANCH  40  46
HETATM   46  C2  UNL     1      27.665-183.049  28.521  1.00  0.00     0.147 C 
HETATM   47  C1  UNL     1      27.071-182.709  29.875  1.00  0.00     0.028 C 
ENDBRANCH  40  46
ENDBRANCH  38  39
ENDBRANCH   1  38
TORSDOF 14
ENDMDL
MODEL 3
REMARK VINA RESULT: -7.870638981      0.986      1.673
REMARK  14 active torsions:
REMARK  status: ('A' for Active; 'I' for Inactive)
REMARK    1  A    between atoms: C2_2  and  N1_3 
REMARK    2  A    between atoms: C4_9  and  S1_10 
REMARK    3  A    between atoms: S1_10  and  C5_11 
REMARK    4  A    between atoms: C10_21  and  N6_22 
REMARK    5  A    between atoms: N7_25  and  C11_26 
REMARK    6  A    between atoms: C11_26  and  N8_27 
REMARK    7  A    between atoms: N8_27  and  C12_29 
REMARK    8  A    between atoms: C12_29  and  C13_30 
REMARK    9  A    between atoms: C12_29  and  C14_33 
REMARK   10  A    between atoms: C12_29  and  N9_36 
REMARK   11  A    between atoms: C13_30  and  O1_31 
REMARK   12  A    between atoms: C14_33  and  O2_34 
REMARK   13  A    between atoms: N9_36  and  O3_38 
REMARK   14  A    between atoms: N10_40  and  C15_41 
ROOT
HETATM    1  C5  UNL     1      29.605-182.721  27.068  1.00  0.00     0.081 A 
HETATM    2  C6  UNL     1      30.876-182.862  26.498  1.00  0.00     0.070 A 
HETATM    3  C7  UNL     1      30.978-183.630  25.359  1.00  0.00     0.080 A 
HETATM    4  C8  UNL     1      29.927-184.252  24.760  1.00  0.00     0.082 A 
HETATM    5  C9  UNL     1      28.692-184.089  25.349  1.00  0.00     0.116 A 
HETATM    6  N4  UNL     1      27.670-184.656  24.820  1.00  0.00    -0.385 N 
ATOM      7  H41 UNL     1      26.756-184.535  25.257  1.00  0.00     0.157 HD
ATOM      8  H42 UNL     1      27.765-185.221  23.977  1.00  0.00     0.157 HD
HETATM    9  N5  UNL     1      28.565-183.330  26.482  1.00  0.00    -0.336 N 
ATOM     10  H5  UNL     1      27.640-183.225  26.898  1.00  0.00     0.168 HD
HETATM   11  C10 UNL     1      30.424-184.918  23.654  1.00  0.00     0.134 A 
HETATM   12  N7  UNL     1      31.750-184.699  23.589  1.00  0.00    -0.248 N 
HETATM   13  N10 UNL     1      32.078-183.927  24.613  1.00  0.00    -0.218 N 
ENDROOT
BRANCH  12  14
HETATM   14  C11 UNL     1      32.652-185.238  22.550  1.00  0.00     0.270 C 
BRANCH  14  15
HETATM   15  N8  UNL     1      32.272-184.850  21.253  1.00  0.00    -0.374 N 
ATOM     16  H8  UNL     1      31.619-185.422  20.718  1.00  0.00     0.157 HD
BRANCH  15  17
HETATM   17  C12 UNL     1      32.804-183.657  20.692  1.00  0.00     0.163 C 
BRANCH  17  18
HETATM   18  C13 UNL     1      34.323-183.867  20.534  1.00  0.00     0.221 C 
BRANCH  18  19
HETATM   19  O1  UNL     1      34.993-183.236  21.596  1.00  0.00    -0.396 OA
ATOM     20  H1  UNL     1      35.362-182.415  21.292  1.00  0.00     0.209 HD
ENDBRANCH  18  19
ENDBRANCH  17  18
BRANCH  17  21
HETATM   21  C14 UNL     1      32.317-183.402  19.279  1.00  0.00     0.221 C 
BRANCH  21  22
HETATM   22  O2  UNL     1      30.916-183.331  19.339  1.00  0.00    -0.396 OA
ATOM     23  H2  UNL     1      30.679-182.425  19.175  1.00  0.00     0.209 HD
ENDBRANCH  21  22
ENDBRANCH  17  21
BRANCH  17  24
HETATM   24  N9  UNL     1      32.647-182.455  21.436  1.00  0.00    -0.272 N 
ATOM     25  H9  UNL     1      33.452-181.877  21.677  1.00  0.00     0.190 HD
BRANCH  24  26
HETATM   26  O3  UNL     1      31.424-182.113  21.804  1.00  0.00    -0.292 OA
ATOM     27  H3  UNL     1      31.260-181.197  21.996  1.00  0.00     0.244 HD
ENDBRANCH  24  26
ENDBRANCH  17  24
ENDBRANCH  15  17
ENDBRANCH  14  15
ENDBRANCH  12  14
BRANCH  11  28
HETATM   28  N6  UNL     1      29.667-185.607  22.872  1.00  0.00    -0.383 N 
ATOM     29  H62 UNL     1      28.759-186.034  23.056  1.00  0.00     0.157 HD
ATOM     30  H61 UNL     1      29.927-185.812  21.907  1.00  0.00     0.157 HD
ENDBRANCH  11  28
BRANCH  13  31
HETATM   31  C15 UNL     1      33.379-183.466  24.903  1.00  0.00     0.214 C 
HETATM   32  N11 UNL     1      33.991-182.534  24.264  1.00  0.00    -0.272 N 
HETATM   33  N12 UNL     1      35.248-182.295  24.768  1.00  0.00    -0.119 NA
ATOM     34  H11 UNL     1      33.590-182.029  23.473  1.00  0.00     0.185 HD
HETATM   35  C16 UNL     1      35.558-183.403  25.641  1.00  0.00     0.259 C 
HETATM   36  N13 UNL     1      34.251-183.915  25.924  1.00  0.00    -0.345 N 
ATOM     37  H13 UNL     1      33.994-184.501  26.719  1.00  0.00     0.164 HD
ENDBRANCH  13  31
BRANCH   1  38
HETATM   38  S1  UNL     1      29.546-181.726  28.526  1.00  0.00    -0.035 SA
BRANCH  38  39
HETATM   39  C4  UNL     1      28.330-182.220  29.715  1.00  0.00     0.168 A 
HETATM   40  N1  UNL     1      28.629-182.579  30.994  1.00  0.00    -0.270 N 
HETATM   41  N2  UNL     1      27.539-182.901  31.663  1.00  0.00    -0.292 N 
HETATM   42  C3  UNL     1      26.519-182.749  30.805  1.00  0.00     0.199 A 
ATOM     43  H2  UNL     1      27.484-183.205  32.635  1.00  0.00     0.188 HD
HETATM   44  N3  UNL     1      26.985-182.335  29.616  1.00  0.00    -0.330 N 
ATOM     45  H3  UNL     1      26.425-182.141  28.785  1.00  0.00     0.168 HD
BRANCH  40  46
HETATM   46  C2  UNL     1      30.009-182.581  31.488  1.00  0.00     0.147 C 
HETATM   47  C1  UNL     1      30.075-182.004  32.888  1.00  0.00     0.028 C 
ENDBRANCH  40  46
ENDBRANCH  38  39
ENDBRANCH   1  38
TORSDOF 14
ENDMDL
MODEL 4
REMARK VINA RESULT: -7.633651173      0.888      1.614
REMARK  14 active torsions:
REMARK  status: ('A' for Active; 'I' for Inactive)
REMARK    1  A    between atoms: C2_2  and  N1_3 
REMARK    2  A    between atoms: C4_9  and  S1_10 
REMARK    3  A    between atoms: S1_10  and  C5_11 
REMARK    4  A    between atoms: C10_21  and  N6_22 
REMARK    5  A    between atoms: N7_25  and  C11_26 
REMARK    6  A    between atoms: C11_26  and  N8_27 
REMARK    7  A    between atoms: N8_27  and  C12_29 
REMARK    8  A    between atoms: C12_29  and  C13_30 
REMARK    9  A    between atoms: C12_29  and  C14_33 
REMARK   10  A    between atoms: C12_29  and  N9_36 
REMARK   11  A    between atoms: C13_30  and  O1_31 
REMARK   12  A    between atoms: C14_33  and  O2_34 
REMARK   13  A    between atoms: N9_36  and  O3_38 
REMARK   14  A    between atoms: N10_40  and  C15_41 
ROOT
HETATM    1  C5  UNL     1      30.051-182.790  26.927  1.00  0.00     0.081 A 
HETATM    2  C6  UNL     1      31.294-182.788  26.281  1.00  0.00     0.070 A 
HETATM    3  C7  UNL     1      31.391-183.473  25.090  1.00  0.00     0.080 A 
HETATM    4  C8  UNL     1      30.360-184.143  24.508  1.00  0.00     0.082 A 
HETATM    5  C9  UNL     1      29.153-184.121  25.172  1.00  0.00     0.116 A 
HETATM    6  N4  UNL     1      28.150-184.739  24.663  1.00  0.00    -0.385 N 
ATOM      7  H41 UNL     1      27.257-184.723  25.155  1.00  0.00     0.157 HD
ATOM      8  H42 UNL     1      28.241-185.241  23.779  1.00  0.00     0.157 HD
HETATM    9  N5  UNL     1      29.032-183.447  26.358  1.00  0.00    -0.336 N 
ATOM     10  H5  UNL     1      28.127-183.446  26.829  1.00  0.00     0.168 HD
HETATM   11  C10 UNL     1      30.843-184.695  23.336  1.00  0.00     0.134 A 
HETATM   12  N7  UNL     1      32.141-184.362  23.215  1.00  0.00    -0.248 N 
HETATM   13  N10 UNL     1      32.466-183.629  24.268  1.00  0.00    -0.218 N 
ENDROOT
BRANCH  12  14
HETATM   14  C11 UNL     1      33.021-184.758  22.096  1.00  0.00     0.270 C 
BRANCH  14  15
HETATM   15  N8  UNL     1      33.222-183.716  21.174  1.00  0.00    -0.374 N 
ATOM     16  H8  UNL     1      33.832-182.933  21.410  1.00  0.00     0.157 HD
BRANCH  15  17
HETATM   17  C12 UNL     1      32.572-183.759  19.910  1.00  0.00     0.163 C 
BRANCH  17  18
HETATM   18  C13 UNL     1      33.453-182.971  18.920  1.00  0.00     0.221 C 
BRANCH  18  19
HETATM   19  O1  UNL     1      32.650-182.082  18.188  1.00  0.00    -0.396 OA
ATOM     20  H1  UNL     1      33.046-181.925  17.338  1.00  0.00     0.209 HD
ENDBRANCH  18  19
ENDBRANCH  17  18
BRANCH  17  21
HETATM   21  C14 UNL     1      32.513-185.155  19.324  1.00  0.00     0.221 C 
BRANCH  21  22
HETATM   22  O2  UNL     1      32.674-185.020  17.936  1.00  0.00    -0.396 OA
ATOM     23  H2  UNL     1      33.068-185.828  17.625  1.00  0.00     0.209 HD
ENDBRANCH  21  22
ENDBRANCH  17  21
BRANCH  17  24
HETATM   24  N9  UNL     1      31.272-183.188  19.821  1.00  0.00    -0.272 N 
ATOM     25  H9  UNL     1      31.071-182.273  20.223  1.00  0.00     0.190 HD
BRANCH  24  26
HETATM   26  O3  UNL     1      30.335-183.884  19.201  1.00  0.00    -0.292 OA
ATOM     27  H3  UNL     1      30.129-183.648  18.304  1.00  0.00     0.244 HD
ENDBRANCH  24  26
ENDBRANCH  17  24
ENDBRANCH  15  17
ENDBRANCH  14  15
ENDBRANCH  12  14
BRANCH  11  28
HETATM   28  N6  UNL     1      30.100-185.397  22.551  1.00  0.00    -0.383 N 
ATOM     29  H62 UNL     1      30.303-186.279  22.080  1.00  0.00     0.157 HD
ATOM     30  H61 UNL     1      29.152-185.113  22.304  1.00  0.00     0.157 HD
ENDBRANCH  11  28
BRANCH  13  31
HETATM   31  C15 UNL     1      33.740-183.080  24.519  1.00  0.00     0.214 C 
HETATM   32  N11 UNL     1      34.221-182.040  23.937  1.00  0.00    -0.272 N 
HETATM   33  N12 UNL     1      35.487-181.734  24.380  1.00  0.00    -0.119 NA
ATOM     34  H11 UNL     1      33.722-181.504  23.227  1.00  0.00     0.185 HD
HETATM   35  C16 UNL     1      35.953-182.884  25.118  1.00  0.00     0.259 C 
HETATM   36  N13 UNL     1      34.719-183.539  25.432  1.00  0.00    -0.345 N 
ATOM     37  H13 UNL     1      34.571-184.216  26.181  1.00  0.00     0.164 HD
ENDBRANCH  13  31
BRANCH   1  38
HETATM   38  S1  UNL     1      29.998-181.895  28.448  1.00  0.00    -0.035 SA
BRANCH  38  39
HETATM   39  C4  UNL     1      28.651-182.323  29.516  1.00  0.00     0.168 A 
HETATM   40  N1  UNL     1      28.804-182.637  30.832  1.00  0.00    -0.270 N 
HETATM   41  N2  UNL     1      27.642-182.915  31.390  1.00  0.00    -0.292 N 
HETATM   42  C3  UNL     1      26.723-182.779  30.422  1.00  0.00     0.199 A 
ATOM     43  H2  UNL     1      27.476-183.180  32.361  1.00  0.00     0.188 HD
HETATM   44  N3  UNL     1      27.323-182.420  29.276  1.00  0.00    -0.330 N 
ATOM     45  H3  UNL     1      26.860-182.249  28.383  1.00  0.00     0.168 HD
BRANCH  40  46
HETATM   46  C2  UNL     1      30.122-182.642  31.472  1.00  0.00     0.147 C 
HETATM   47  C1  UNL     1      30.050-182.002  32.845  1.00  0.00     0.028 C 
ENDBRANCH  40  46
ENDBRANCH  38  39
ENDBRANCH   1  38
TORSDOF 14
ENDMDL
MODEL 5
REMARK VINA RESULT: -7.575114041      1.663      2.364
REMARK  14 active torsions:
REMARK  status: ('A' for Active; 'I' for Inactive)
REMARK    1  A    between atoms: C2_2  and  N1_3 
REMARK    2  A    between atoms: C4_9  and  S1_10 
REMARK    3  A    between atoms: S1_10  and  C5_11 
REMARK    4  A    between atoms: C10_21  and  N6_22 
REMARK    5  A    between atoms: N7_25  and  C11_26 
REMARK    6  A    between atoms: C11_26  and  N8_27 
REMARK    7  A    between atoms: N8_27  and  C12_29 
REMARK    8  A    between atoms: C12_29  and  C13_30 
REMARK    9  A    between atoms: C12_29  and  C14_33 
REMARK   10  A    between atoms: C12_29  and  N9_36 
REMARK   11  A    between atoms: C13_30  and  O1_31 
REMARK   12  A    between atoms: C14_33  and  O2_34 
REMARK   13  A    between atoms: N9_36  and  O3_38 
REMARK   14  A    between atoms: N10_40  and  C15_41 
ROOT
HETATM    1  C5  UNL     1      30.580-183.177  28.006  1.00  0.00     0.081 A 
HETATM    2  C6  UNL     1      31.846-183.378  27.444  1.00  0.00     0.070 A 
HETATM    3  C7  UNL     1      31.951-183.300  26.073  1.00  0.00     0.080 A 
HETATM    4  C8  UNL     1      30.906-183.040  25.240  1.00  0.00     0.082 A 
HETATM    5  C9  UNL     1      29.676-182.847  25.831  1.00  0.00     0.116 A 
HETATM    6  N4  UNL     1      28.660-182.598  25.087  1.00  0.00    -0.385 N 
ATOM      7  H41 UNL     1      27.750-182.455  25.524  1.00  0.00     0.157 HD
ATOM      8  H42 UNL     1      28.757-182.544  24.073  1.00  0.00     0.157 HD
HETATM    9  N5  UNL     1      29.547-182.920  27.192  1.00  0.00    -0.336 N 
ATOM     10  H5  UNL     1      28.626-182.772  27.604  1.00  0.00     0.168 HD
HETATM   11  C10 UNL     1      31.403-183.042  23.950  1.00  0.00     0.134 A 
HETATM   12  N7  UNL     1      32.723-183.298  24.006  1.00  0.00    -0.248 N 
HETATM   13  N10 UNL     1      33.047-183.452  25.279  1.00  0.00    -0.218 N 
ENDROOT
BRANCH  12  14
HETATM   14  C11 UNL     1      33.623-183.386  22.837  1.00  0.00     0.270 C 
BRANCH  14  15
HETATM   15  N8  UNL     1      33.335-184.491  22.017  1.00  0.00    -0.374 N 
ATOM     16  H8  UNL     1      33.369-185.436  22.399  1.00  0.00     0.157 HD
BRANCH  15  17
HETATM   17  C12 UNL     1      32.996-184.285  20.651  1.00  0.00     0.163 C 
BRANCH  17  18
HETATM   18  C13 UNL     1      34.267-184.561  19.822  1.00  0.00     0.221 C 
BRANCH  18  19
HETATM   19  O1  UNL     1      34.575-185.929  19.882  1.00  0.00    -0.396 OA
ATOM     20  H1  UNL     1      34.257-186.359  19.096  1.00  0.00     0.209 HD
ENDBRANCH  18  19
ENDBRANCH  17  18
BRANCH  17  21
HETATM   21  C14 UNL     1      31.991-185.295  20.134  1.00  0.00     0.221 C 
BRANCH  21  22
HETATM   22  O2  UNL     1      30.907-185.281  21.025  1.00  0.00    -0.396 OA
ATOM     23  H2  UNL     1      31.157-184.725  21.755  1.00  0.00     0.209 HD
ENDBRANCH  21  22
ENDBRANCH  17  21
BRANCH  17  24
HETATM   24  N9  UNL     1      32.553-182.988  20.273  1.00  0.00    -0.272 N 
ATOM     25  H9  UNL     1      33.158-182.174  20.378  1.00  0.00     0.190 HD
BRANCH  24  26
HETATM   26  O3  UNL     1      31.331-182.873  19.782  1.00  0.00    -0.292 OA
ATOM     27  H3  UNL     1      30.605-182.881  20.395  1.00  0.00     0.244 HD
ENDBRANCH  24  26
ENDBRANCH  17  24
ENDBRANCH  15  17
ENDBRANCH  14  15
ENDBRANCH  12  14
BRANCH  11  28
HETATM   28  N6  UNL     1      30.652-182.823  22.925  1.00  0.00    -0.383 N 
ATOM     29  H62 UNL     1      30.256-181.947  22.585  1.00  0.00     0.157 HD
ATOM     30  H61 UNL     1      30.355-183.573  22.301  1.00  0.00     0.157 HD
ENDBRANCH  11  28
BRANCH  13  31
HETATM   31  C15 UNL     1      34.341-183.733  25.764  1.00  0.00     0.214 C 
HETATM   32  N11 UNL     1      34.609-184.549  26.720  1.00  0.00    -0.272 N 
HETATM   33  N12 UNL     1      35.958-184.624  26.979  1.00  0.00    -0.119 NA
ATOM     34  H11 UNL     1      33.902-185.080  27.230  1.00  0.00     0.185 HD
HETATM   35  C16 UNL     1      36.570-183.512  26.291  1.00  0.00     0.259 C 
HETATM   36  N13 UNL     1      35.572-183.198  25.314  1.00  0.00    -0.345 N 
ATOM     37  H13 UNL     1      35.721-182.680  24.447  1.00  0.00     0.164 HD
ENDBRANCH  13  31
BRANCH   1  38
HETATM   38  S1  UNL     1      30.517-183.293  29.767  1.00  0.00    -0.035 SA
BRANCH  38  39
HETATM   39  C4  UNL     1      28.929-182.962  30.478  1.00  0.00     0.168 A 
HETATM   40  N1  UNL     1      28.747-182.597  31.778  1.00  0.00    -0.270 N 
HETATM   41  N2  UNL     1      27.468-182.413  32.043  1.00  0.00    -0.292 N 
HETATM   42  C3  UNL     1      26.812-182.661  30.899  1.00  0.00     0.199 A 
ATOM     43  H2  UNL     1      27.060-182.138  32.936  1.00  0.00     0.188 HD
HETATM   44  N3  UNL     1      27.689-182.996  29.938  1.00  0.00    -0.330 N 
ATOM     45  H3  UNL     1      27.460-183.235  28.973  1.00  0.00     0.168 HD
BRANCH  40  46
HETATM   46  C2  UNL     1      29.876-182.450  32.700  1.00  0.00     0.147 C 
HETATM   47  C1  UNL     1      29.383-182.222  34.115  1.00  0.00     0.028 C 
ENDBRANCH  40  46
ENDBRANCH  38  39
ENDBRANCH   1  38
TORSDOF 14
ENDMDL
