MODEL 1
REMARK VINA RESULT: -8.696467205      0.000      0.000
REMARK  13 active torsions:
REMARK  status: ('A' for Active; 'I' for Inactive)
REMARK    1  A    between atoms: O1_2  and  C2_3 
REMARK    2  A    between atoms: C2_3  and  O2_4 
REMARK    3  A    between atoms: C2_3  and  C3_6 
REMARK    4  A    between atoms: C4_9  and  C5_10 
REMARK    5  A    between atoms: C6_13  and  O3_14 
REMARK    6  A    between atoms: C7_16  and  N3_17 
REMARK    7  A    between atoms: N3_17  and  C8_19 
REMARK    8  A    between atoms: N7_26  and  N8_27 
REMARK    9  A    between atoms: N8_27  and  N9_29 
REMARK   10  A    between atoms: C9_32  and  N10_33 
REMARK       I    between atoms: N10_33  and  C10_35 
REMARK   11  A    between atoms: C12_38  and  O5_39 
REMARK   12  A    between atoms: C13_43  and  C14_44 
REMARK   13  A    between atoms: C14_44  and  C15_46 
ROOT
HETATM    1  C5  UNL     1      30.238-183.063  26.894  1.00  0.00     0.114 A 
HETATM    2  N2  UNL     1      31.120-182.187  26.349  1.00  0.00    -0.330 N 
ATOM      3  H2  UNL     1      31.545-181.482  26.952  1.00  0.00     0.168 HD
HETATM    4  C6  UNL     1      31.457-182.211  25.049  1.00  0.00     0.171 A 
HETATM    5  C7  UNL     1      30.916-183.142  24.186  1.00  0.00     0.129 A 
HETATM    6  C9  UNL     1      30.028-184.028  24.719  1.00  0.00     0.102 A 
HETATM    7  C12 UNL     1      29.669-184.007  26.091  1.00  0.00     0.125 A 
ENDROOT
BRANCH   1   8
HETATM    8  C4  UNL     1      29.949-182.929  28.336  1.00  0.00     0.136 A 
HETATM    9  N1  UNL     1      30.744-182.949  29.367  1.00  0.00    -0.338 N 
HETATM   10  C3  UNL     1      30.045-182.790  30.562  1.00  0.00     0.097 A 
ATOM     11  H1  UNL     1      31.755-183.067  29.308  1.00  0.00     0.167 HD
HETATM   12  C13 UNL     1      28.738-182.667  30.188  1.00  0.00     0.119 A 
HETATM   13  N11 UNL     1      28.702-182.753  28.848  1.00  0.00    -0.335 N 
ATOM     14  H11 UNL     1      27.851-182.693  28.288  1.00  0.00     0.168 HD
BRANCH  10  15
HETATM   15  C2  UNL     1      30.692-182.757  31.860  1.00  0.00     0.309 C 
BRANCH  15  16
HETATM   16  O1  UNL     1      30.157-183.459  32.885  1.00  0.00    -0.360 OA
HETATM   17  C1  UNL     1      30.181-182.765  34.112  1.00  0.00     0.205 C 
ENDBRANCH  15  16
BRANCH  15  18
HETATM   18  O2  UNL     1      30.566-181.362  32.317  1.00  0.00    -0.366 OA
ATOM     19  H2  UNL     1      31.464-181.053  32.306  1.00  0.00     0.213 HD
ENDBRANCH  15  18
ENDBRANCH  10  15
BRANCH  12  20
HETATM   20  C14 UNL     1      27.541-182.491  30.984  1.00  0.00     0.276 C 
HETATM   21  O6  UNL     1      27.650-182.244  32.227  1.00  0.00    -0.278 OA
BRANCH  20  22
HETATM   22  C15 UNL     1      26.193-182.571  30.472  1.00  0.00     0.253 C 
HETATM   23  O7  UNL     1      25.867-182.642  29.281  1.00  0.00    -0.642 OA
HETATM   24  O8  UNL     1      25.152-182.567  31.449  1.00  0.00    -0.642 OA
ENDBRANCH  20  22
ENDBRANCH  12  20
ENDBRANCH   1   8
BRANCH   7  25
HETATM   25  O5  UNL     1      28.776-184.926  26.546  1.00  0.00    -0.356 OA
ATOM     26  H5  UNL     1      27.897-184.699  26.824  1.00  0.00     0.218 HD
ENDBRANCH   7  25
BRANCH   4  27
HETATM   27  O3  UNL     1      32.355-181.297  24.564  1.00  0.00    -0.344 OA
ATOM     28  H3  UNL     1      32.048-180.572  24.032  1.00  0.00     0.219 HD
ENDBRANCH   4  27
BRANCH   6  29
HETATM   29  N10 UNL     1      29.441-185.005  23.892  1.00  0.00    -0.323 N 
HETATM   30  C10 UNL     1      30.113-186.081  23.303  1.00  0.00     0.218 C 
HETATM   31  C11 UNL     1      29.379-187.048  22.448  1.00  0.00     0.117 C 
HETATM   32  O4  UNL     1      31.344-186.258  23.480  1.00  0.00    -0.274 OA
ATOM     33  H10 UNL     1      28.441-184.921  23.706  1.00  0.00     0.169 HD
ENDBRANCH   6  29
BRANCH   5  34
HETATM   34  N3  UNL     1      31.258-183.163  22.851  1.00  0.00    -0.181 N 
ATOM     35  H3  UNL     1      30.463-183.145  22.212  1.00  0.00     0.184 HD
BRANCH  34  36
HETATM   36  C8  UNL     1      32.384-183.201  22.280  1.00  0.00     0.737 A 
HETATM   37  N4  UNL     1      33.570-183.324  22.890  1.00  0.00    -0.113 N 
HETATM   38  N5  UNL     1      34.532-183.327  21.994  1.00  0.00    -0.212 N 
ATOM     39  H4  UNL     1      33.706-183.404  23.898  1.00  0.00     0.207 HD
HETATM   40  N6  UNL     1      33.959-183.205  20.815  1.00  0.00    -0.190 N 
ATOM     41  H5  UNL     1      35.532-183.408  22.177  1.00  0.00     0.210 HD
HETATM   42  N7  UNL     1      32.642-183.125  20.967  1.00  0.00     0.011 N 
ATOM     43  H6  UNL     1      34.451-183.176  19.921  1.00  0.00     0.212 HD
BRANCH  42  44
HETATM   44  N8  UNL     1      31.746-182.985  19.899  1.00  0.00    -0.212 N 
ATOM     45  H8  UNL     1      31.654-182.064  19.471  1.00  0.00     0.210 HD
BRANCH  44  46
HETATM   46  N9  UNL     1      30.970-184.026  19.384  1.00  0.00    -0.329 N 
ATOM     47  H92 UNL     1      30.624-184.716  20.051  1.00  0.00     0.178 HD
ATOM     48  H91 UNL     1      30.735-184.131  18.397  1.00  0.00     0.178 HD
ENDBRANCH  44  46
ENDBRANCH  42  44
ENDBRANCH  34  36
ENDBRANCH   5  34
TORSDOF 13
ENDMDL
MODEL 2
REMARK VINA RESULT: -8.287226786      1.749      2.886
REMARK  13 active torsions:
REMARK  status: ('A' for Active; 'I' for Inactive)
REMARK    1  A    between atoms: O1_2  and  C2_3 
REMARK    2  A    between atoms: C2_3  and  O2_4 
REMARK    3  A    between atoms: C2_3  and  C3_6 
REMARK    4  A    between atoms: C4_9  and  C5_10 
REMARK    5  A    between atoms: C6_13  and  O3_14 
REMARK    6  A    between atoms: C7_16  and  N3_17 
REMARK    7  A    between atoms: N3_17  and  C8_19 
REMARK    8  A    between atoms: N7_26  and  N8_27 
REMARK    9  A    between atoms: N8_27  and  N9_29 
REMARK   10  A    between atoms: C9_32  and  N10_33 
REMARK       I    between atoms: N10_33  and  C10_35 
REMARK   11  A    between atoms: C12_38  and  O5_39 
REMARK   12  A    between atoms: C13_43  and  C14_44 
REMARK   13  A    between atoms: C14_44  and  C15_46 
ROOT
HETATM    1  C5  UNL     1      30.641-183.114  27.253  1.00  0.00     0.114 A 
HETATM    2  N2  UNL     1      29.705-183.042  26.272  1.00  0.00    -0.330 N 
ATOM      3  H2  UNL     1      28.731-182.890  26.536  1.00  0.00     0.168 HD
HETATM    4  C6  UNL     1      30.009-183.163  24.969  1.00  0.00     0.171 A 
HETATM    5  C7  UNL     1      31.308-183.369  24.554  1.00  0.00     0.129 A 
HETATM    6  C9  UNL     1      32.259-183.443  25.528  1.00  0.00     0.102 A 
HETATM    7  C12 UNL     1      31.944-183.316  26.904  1.00  0.00     0.125 A 
ENDROOT
BRANCH   1   8
HETATM    8  C4  UNL     1      30.176-182.969  28.647  1.00  0.00     0.136 A 
HETATM    9  N1  UNL     1      30.828-183.037  29.772  1.00  0.00    -0.338 N 
HETATM   10  C3  UNL     1      29.991-182.843  30.868  1.00  0.00     0.097 A 
ATOM     11  H1  UNL     1      31.830-183.213  29.842  1.00  0.00     0.167 HD
HETATM   12  C13 UNL     1      28.752-182.645  30.331  1.00  0.00     0.119 A 
HETATM   13  N11 UNL     1      28.885-182.723  28.996  1.00  0.00    -0.335 N 
ATOM     14  H11 UNL     1      28.118-182.613  28.332  1.00  0.00     0.168 HD
BRANCH  10  15
HETATM   15  C2  UNL     1      30.466-182.852  32.239  1.00  0.00     0.309 C 
BRANCH  15  16
HETATM   16  O1  UNL     1      29.696-183.408  33.204  1.00  0.00    -0.360 OA
HETATM   17  C1  UNL     1      29.712-182.688  34.416  1.00  0.00     0.205 C 
ENDBRANCH  15  16
BRANCH  15  18
HETATM   18  O2  UNL     1      30.517-181.434  32.638  1.00  0.00    -0.366 OA
ATOM     19  H2  UNL     1      29.918-181.400  33.374  1.00  0.00     0.213 HD
ENDBRANCH  15  18
ENDBRANCH  10  15
BRANCH  12  20
HETATM   20  C14 UNL     1      27.474-182.404  30.968  1.00  0.00     0.276 C 
HETATM   21  O6  UNL     1      27.444-182.034  32.184  1.00  0.00    -0.278 OA
BRANCH  20  22
HETATM   22  C15 UNL     1      26.191-182.549  30.320  1.00  0.00     0.253 C 
HETATM   23  O7  UNL     1      25.991-182.609  29.101  1.00  0.00    -0.642 OA
HETATM   24  O8  UNL     1      25.059-182.627  31.187  1.00  0.00    -0.642 OA
ENDBRANCH  20  22
ENDBRANCH  12  20
ENDBRANCH   1   8
BRANCH   7  25
HETATM   25  O5  UNL     1      32.949-183.401  27.815  1.00  0.00    -0.356 OA
ATOM     26  H5  UNL     1      33.284-184.228  28.140  1.00  0.00     0.218 HD
ENDBRANCH   7  25
BRANCH   4  27
HETATM   27  O3  UNL     1      29.015-183.081  24.030  1.00  0.00    -0.344 OA
ATOM     28  H3  UNL     1      28.313-182.451  24.141  1.00  0.00     0.219 HD
ENDBRANCH   4  27
BRANCH   6  29
HETATM   29  N10 UNL     1      33.606-183.650  25.170  1.00  0.00    -0.323 N 
HETATM   30  C10 UNL     1      34.433-182.712  24.544  1.00  0.00     0.218 C 
HETATM   31  C11 UNL     1      35.841-183.051  24.218  1.00  0.00     0.117 C 
HETATM   32  O4  UNL     1      34.012-181.566  24.244  1.00  0.00    -0.274 OA
ATOM     33  H10 UNL     1      34.011-184.561  25.385  1.00  0.00     0.169 HD
ENDBRANCH   6  29
BRANCH   5  34
HETATM   34  N3  UNL     1      31.620-183.498  23.217  1.00  0.00    -0.181 N 
ATOM     35  H3  UNL     1      31.634-182.618  22.701  1.00  0.00     0.184 HD
BRANCH  34  36
HETATM   36  C8  UNL     1      31.891-184.516  22.520  1.00  0.00     0.737 A 
HETATM   37  N4  UNL     1      33.086-184.812  21.993  1.00  0.00    -0.113 N 
HETATM   38  N5  UNL     1      33.010-185.943  21.326  1.00  0.00    -0.212 N 
ATOM     39  H4  UNL     1      33.929-184.246  22.094  1.00  0.00     0.207 HD
HETATM   40  N6  UNL     1      31.767-186.365  21.429  1.00  0.00    -0.190 N 
ATOM     41  H5  UNL     1      33.768-186.404  20.825  1.00  0.00     0.210 HD
HETATM   42  N7  UNL     1      31.063-185.505  22.155  1.00  0.00     0.011 N 
ATOM     43  H6  UNL     1      31.401-187.223  21.013  1.00  0.00     0.212 HD
BRANCH  42  44
HETATM   44  N8  UNL     1      29.702-185.667  22.446  1.00  0.00    -0.212 N 
ATOM     45  H8  UNL     1      29.025-185.338  21.758  1.00  0.00     0.210 HD
BRANCH  44  46
HETATM   46  N9  UNL     1      29.213-186.250  23.617  1.00  0.00    -0.329 N 
ATOM     47  H92 UNL     1      29.761-187.014  24.014  1.00  0.00     0.178 HD
ATOM     48  H91 UNL     1      28.355-185.960  24.086  1.00  0.00     0.178 HD
ENDBRANCH  44  46
ENDBRANCH  42  44
ENDBRANCH  34  36
ENDBRANCH   5  34
TORSDOF 13
ENDMDL
MODEL 3
REMARK VINA RESULT: -8.171531133      5.536     11.231
REMARK  13 active torsions:
REMARK  status: ('A' for Active; 'I' for Inactive)
REMARK    1  A    between atoms: O1_2  and  C2_3 
REMARK    2  A    between atoms: C2_3  and  O2_4 
REMARK    3  A    between atoms: C2_3  and  C3_6 
REMARK    4  A    between atoms: C4_9  and  C5_10 
REMARK    5  A    between atoms: C6_13  and  O3_14 
REMARK    6  A    between atoms: C7_16  and  N3_17 
REMARK    7  A    between atoms: N3_17  and  C8_19 
REMARK    8  A    between atoms: N7_26  and  N8_27 
REMARK    9  A    between atoms: N8_27  and  N9_29 
REMARK   10  A    between atoms: C9_32  and  N10_33 
REMARK       I    between atoms: N10_33  and  C10_35 
REMARK   11  A    between atoms: C12_38  and  O5_39 
REMARK   12  A    between atoms: C13_43  and  C14_44 
REMARK   13  A    between atoms: C14_44  and  C15_46 
ROOT
HETATM    1  C5  UNL     1      31.877-184.534  19.485  1.00  0.00     0.114 A 
HETATM    2  N2  UNL     1      31.804-183.372  20.184  1.00  0.00    -0.330 N 
ATOM      3  H2  UNL     1      31.922-182.492  19.682  1.00  0.00     0.168 HD
HETATM    4  C6  UNL     1      31.582-183.335  21.508  1.00  0.00     0.171 A 
HETATM    5  C7  UNL     1      31.413-184.494  22.238  1.00  0.00     0.129 A 
HETATM    6  C9  UNL     1      31.484-185.668  21.550  1.00  0.00     0.102 A 
HETATM    7  C12 UNL     1      31.719-185.713  20.152  1.00  0.00     0.125 A 
ENDROOT
BRANCH   1   8
HETATM    8  C4  UNL     1      32.130-184.439  18.033  1.00  0.00     0.136 A 
HETATM    9  N1  UNL     1      32.838-183.588  17.348  1.00  0.00    -0.338 N 
HETATM   10  C3  UNL     1      32.801-183.866  15.983  1.00  0.00     0.097 A 
ATOM     11  H1  UNL     1      33.356-182.813  17.760  1.00  0.00     0.167 HD
HETATM   12  C13 UNL     1      32.005-184.970  15.872  1.00  0.00     0.119 A 
HETATM   13  N11 UNL     1      31.613-185.298  17.115  1.00  0.00    -0.335 N 
ATOM     14  H11 UNL     1      31.008-186.089  17.339  1.00  0.00     0.168 HD
BRANCH  10  15
HETATM   15  C2  UNL     1      33.519-183.082  14.996  1.00  0.00     0.309 C 
BRANCH  15  16
HETATM   16  O1  UNL     1      34.335-182.083  15.406  1.00  0.00    -0.360 OA
HETATM   17  C1  UNL     1      33.795-180.798  15.195  1.00  0.00     0.205 C 
ENDBRANCH  15  16
BRANCH  15  18
HETATM   18  O2  UNL     1      32.476-182.365  14.242  1.00  0.00    -0.366 OA
ATOM     19  H2  UNL     1      31.867-183.057  14.012  1.00  0.00     0.213 HD
ENDBRANCH  15  18
ENDBRANCH  10  15
BRANCH  12  20
HETATM   20  C14 UNL     1      31.585-185.717  14.705  1.00  0.00     0.276 C 
HETATM   21  O6  UNL     1      31.081-185.097  13.717  1.00  0.00    -0.278 OA
BRANCH  20  22
HETATM   22  C15 UNL     1      31.695-187.151  14.563  1.00  0.00     0.253 C 
HETATM   23  O7  UNL     1      32.234-187.753  13.627  1.00  0.00    -0.642 OA
HETATM   24  O8  UNL     1      31.119-187.928  15.613  1.00  0.00    -0.642 OA
ENDBRANCH  20  22
ENDBRANCH  12  20
ENDBRANCH   1   8
BRANCH   7  25
HETATM   25  O5  UNL     1      31.775-186.924  19.538  1.00  0.00    -0.356 OA
ATOM     26  H5  UNL     1      31.519-187.733  19.966  1.00  0.00     0.218 HD
ENDBRANCH   7  25
BRANCH   4  27
HETATM   27  O3  UNL     1      31.519-182.128  22.152  1.00  0.00    -0.344 OA
ATOM     28  H3  UNL     1      32.322-181.690  22.410  1.00  0.00     0.219 HD
ENDBRANCH   4  27
BRANCH   6  29
HETATM   29  N10 UNL     1      31.319-186.887  22.237  1.00  0.00    -0.323 N 
HETATM   30  C10 UNL     1      30.109-187.568  22.402  1.00  0.00     0.218 C 
HETATM   31  C11 UNL     1      30.065-188.851  23.150  1.00  0.00     0.117 C 
HETATM   32  O4  UNL     1      29.036-187.118  21.928  1.00  0.00    -0.274 OA
ATOM     33  H10 UNL     1      32.152-187.308  22.648  1.00  0.00     0.169 HD
ENDBRANCH   6  29
BRANCH   5  34
HETATM   34  N3  UNL     1      31.190-184.456  23.599  1.00  0.00    -0.181 N 
ATOM     35  H3  UNL     1      32.010-184.670  24.166  1.00  0.00     0.184 HD
BRANCH  34  36
HETATM   36  C8  UNL     1      30.147-184.203  24.264  1.00  0.00     0.737 A 
HETATM   37  N4  UNL     1      29.035-184.949  24.297  1.00  0.00    -0.113 N 
HETATM   38  N5  UNL     1      28.148-184.390  25.090  1.00  0.00    -0.212 N 
ATOM     39  H4  UNL     1      28.897-185.819  23.783  1.00  0.00     0.207 HD
HETATM   40  N6  UNL     1      28.695-183.289  25.562  1.00  0.00    -0.190 N 
ATOM     41  H5  UNL     1      27.214-184.742  25.300  1.00  0.00     0.210 HD
HETATM   42  N7  UNL     1      29.920-183.154  25.068  1.00  0.00     0.011 N 
ATOM     43  H6  UNL     1      28.246-182.639  26.208  1.00  0.00     0.212 HD
BRANCH  42  44
HETATM   44  N8  UNL     1      30.766-182.080  25.375  1.00  0.00    -0.212 N 
ATOM     45  H8  UNL     1      31.700-182.076  24.966  1.00  0.00     0.210 HD
BRANCH  44  46
HETATM   46  N9  UNL     1      30.411-181.014  26.204  1.00  0.00    -0.329 N 
ATOM     47  H92 UNL     1      29.525-180.548  26.002  1.00  0.00     0.178 HD
ATOM     48  H91 UNL     1      30.977-180.682  26.985  1.00  0.00     0.178 HD
ENDBRANCH  44  46
ENDBRANCH  42  44
ENDBRANCH  34  36
ENDBRANCH   5  34
TORSDOF 13
ENDMDL
MODEL 4
REMARK VINA RESULT: -8.116704913      2.687      5.330
REMARK  13 active torsions:
REMARK  status: ('A' for Active; 'I' for Inactive)
REMARK    1  A    between atoms: O1_2  and  C2_3 
REMARK    2  A    between atoms: C2_3  and  O2_4 
REMARK    3  A    between atoms: C2_3  and  C3_6 
REMARK    4  A    between atoms: C4_9  and  C5_10 
REMARK    5  A    between atoms: C6_13  and  O3_14 
REMARK    6  A    between atoms: C7_16  and  N3_17 
REMARK    7  A    between atoms: N3_17  and  C8_19 
REMARK    8  A    between atoms: N7_26  and  N8_27 
REMARK    9  A    between atoms: N8_27  and  N9_29 
REMARK   10  A    between atoms: C9_32  and  N10_33 
REMARK       I    between atoms: N10_33  and  C10_35 
REMARK   11  A    between atoms: C12_38  and  O5_39 
REMARK   12  A    between atoms: C13_43  and  C14_44 
REMARK   13  A    between atoms: C14_44  and  C15_46 
ROOT
HETATM    1  C5  UNL     1      31.990-183.000  23.787  1.00  0.00     0.114 A 
HETATM    2  N2  UNL     1      31.354-183.124  22.595  1.00  0.00    -0.330 N 
ATOM      3  H2  UNL     1      30.354-183.324  22.592  1.00  0.00     0.168 HD
HETATM    4  C6  UNL     1      31.988-182.993  21.417  1.00  0.00     0.171 A 
HETATM    5  C7  UNL     1      33.340-182.721  21.358  1.00  0.00     0.129 A 
HETATM    6  C9  UNL     1      33.992-182.594  22.548  1.00  0.00     0.102 A 
HETATM    7  C12 UNL     1      33.328-182.731  23.794  1.00  0.00     0.125 A 
ENDROOT
BRANCH   1   8
HETATM    8  C4  UNL     1      31.181-183.170  25.010  1.00  0.00     0.136 A 
HETATM    9  N1  UNL     1      29.895-183.091  25.196  1.00  0.00    -0.338 N 
HETATM   10  C3  UNL     1      29.549-183.319  26.526  1.00  0.00     0.097 A 
ATOM     11  H1  UNL     1      29.222-182.886  24.457  1.00  0.00     0.167 HD
HETATM   12  C13 UNL     1      30.735-183.550  27.161  1.00  0.00     0.119 A 
HETATM   13  N11 UNL     1      31.703-183.457  26.233  1.00  0.00    -0.335 N 
ATOM     14  H11 UNL     1      32.697-183.584  26.421  1.00  0.00     0.168 HD
BRANCH  10  15
HETATM   15  C2  UNL     1      28.178-183.307  27.002  1.00  0.00     0.309 C 
BRANCH  15  16
HETATM   16  O1  UNL     1      27.882-183.890  28.186  1.00  0.00    -0.360 OA
HETATM   17  C1  UNL     1      27.349-182.993  29.134  1.00  0.00     0.205 C 
ENDBRANCH  15  16
BRANCH  15  18
HETATM   18  O2  UNL     1      27.429-184.130  26.036  1.00  0.00    -0.366 OA
ATOM     19  H2  UNL     1      26.539-183.811  26.132  1.00  0.00     0.213 HD
ENDBRANCH  15  18
ENDBRANCH  10  15
BRANCH  12  20
HETATM   20  C14 UNL     1      31.022-183.835  28.551  1.00  0.00     0.276 C 
HETATM   21  O6  UNL     1      31.418-184.998  28.880  1.00  0.00    -0.278 OA
BRANCH  20  22
HETATM   22  C15 UNL     1      30.895-182.882  29.630  1.00  0.00     0.253 C 
HETATM   23  O7  UNL     1      31.088-183.108  30.831  1.00  0.00    -0.642 OA
HETATM   24  O8  UNL     1      30.508-181.560  29.253  1.00  0.00    -0.642 OA
ENDBRANCH  20  22
ENDBRANCH  12  20
ENDBRANCH   1   8
BRANCH   7  25
HETATM   25  O5  UNL     1      34.049-182.589  24.937  1.00  0.00    -0.356 OA
ATOM     26  H5  UNL     1      33.794-182.003  25.640  1.00  0.00     0.218 HD
ENDBRANCH   7  25
BRANCH   4  27
HETATM   27  O3  UNL     1      31.286-183.130  20.249  1.00  0.00    -0.344 OA
ATOM     28  H3  UNL     1      31.372-183.927  19.739  1.00  0.00     0.219 HD
ENDBRANCH   4  27
BRANCH   6  29
HETATM   29  N10 UNL     1      35.372-182.314  22.557  1.00  0.00    -0.323 N 
HETATM   30  C10 UNL     1      35.942-181.042  22.664  1.00  0.00     0.218 C 
HETATM   31  C11 UNL     1      37.418-180.877  22.662  1.00  0.00     0.117 C 
HETATM   32  O4  UNL     1      35.229-180.012  22.762  1.00  0.00    -0.274 OA
ATOM     33  H10 UNL     1      36.010-183.107  22.480  1.00  0.00     0.169 HD
ENDBRANCH   6  29
BRANCH   5  34
HETATM   34  N3  UNL     1      33.991-182.591  20.150  1.00  0.00    -0.181 N 
ATOM     35  H3  UNL     1      34.804-183.198  20.043  1.00  0.00     0.184 HD
BRANCH  34  36
HETATM   36  C8  UNL     1      33.757-181.852  19.153  1.00  0.00     0.737 A 
HETATM   37  N4  UNL     1      32.909-182.127  18.153  1.00  0.00    -0.113 N 
HETATM   38  N5  UNL     1      32.913-181.140  17.284  1.00  0.00    -0.212 N 
ATOM     39  H4  UNL     1      32.345-182.973  18.078  1.00  0.00     0.207 HD
HETATM   40  N6  UNL     1      33.763-180.239  17.730  1.00  0.00    -0.190 N 
ATOM     41  H5  UNL     1      32.363-181.084  16.427  1.00  0.00     0.210 HD
HETATM   42  N7  UNL     1      34.293-180.655  18.874  1.00  0.00     0.011 N 
ATOM     43  H6  UNL     1      33.981-179.356  17.267  1.00  0.00     0.212 HD
BRANCH  42  44
HETATM   44  N8  UNL     1      35.239-179.923  19.603  1.00  0.00    -0.212 N 
ATOM     45  H8  UNL     1      36.150-180.351  19.769  1.00  0.00     0.210 HD
BRANCH  44  46
HETATM   46  N9  UNL     1      35.016-178.643  20.115  1.00  0.00    -0.329 N 
ATOM     47  H92 UNL     1      34.045-178.336  20.180  1.00  0.00     0.178 HD
ATOM     48  H91 UNL     1      35.757-178.011  20.421  1.00  0.00     0.178 HD
ENDBRANCH  44  46
ENDBRANCH  42  44
ENDBRANCH  34  36
ENDBRANCH   5  34
TORSDOF 13
ENDMDL
MODEL 5
REMARK VINA RESULT: -8.098314981      3.025      5.707
REMARK  13 active torsions:
REMARK  status: ('A' for Active; 'I' for Inactive)
REMARK    1  A    between atoms: O1_2  and  C2_3 
REMARK    2  A    between atoms: C2_3  and  O2_4 
REMARK    3  A    between atoms: C2_3  and  C3_6 
REMARK    4  A    between atoms: C4_9  and  C5_10 
REMARK    5  A    between atoms: C6_13  and  O3_14 
REMARK    6  A    between atoms: C7_16  and  N3_17 
REMARK    7  A    between atoms: N3_17  and  C8_19 
REMARK    8  A    between atoms: N7_26  and  N8_27 
REMARK    9  A    between atoms: N8_27  and  N9_29 
REMARK   10  A    between atoms: C9_32  and  N10_33 
REMARK       I    between atoms: N10_33  and  C10_35 
REMARK   11  A    between atoms: C12_38  and  O5_39 
REMARK   12  A    between atoms: C13_43  and  C14_44 
REMARK   13  A    between atoms: C14_44  and  C15_46 
ROOT
HETATM    1  C5  UNL     1      31.329-184.093  22.428  1.00  0.00     0.114 A 
HETATM    2  N2  UNL     1      31.200-185.404  22.100  1.00  0.00    -0.330 N 
ATOM      3  H2  UNL     1      30.790-186.041  22.783  1.00  0.00     0.168 HD
HETATM    4  C6  UNL     1      31.591-185.897  20.913  1.00  0.00     0.171 A 
HETATM    5  C7  UNL     1      32.151-185.084  19.950  1.00  0.00     0.129 A 
HETATM    6  C9  UNL     1      32.287-183.764  20.264  1.00  0.00     0.102 A 
HETATM    7  C12 UNL     1      31.876-183.239  21.516  1.00  0.00     0.125 A 
ENDROOT
BRANCH   1   8
HETATM    8  C4  UNL     1      30.864-183.678  23.766  1.00  0.00     0.136 A 
HETATM    9  N1  UNL     1      31.288-182.737  24.559  1.00  0.00    -0.338 N 
HETATM   10  C3  UNL     1      30.559-182.692  25.746  1.00  0.00     0.097 A 
ATOM     11  H1  UNL     1      32.060-182.108  24.339  1.00  0.00     0.167 HD
HETATM   12  C13 UNL     1      29.636-183.692  25.627  1.00  0.00     0.119 A 
HETATM   13  N11 UNL     1      29.836-184.271  24.431  1.00  0.00    -0.335 N 
ATOM     14  H11 UNL     1      29.288-185.052  24.069  1.00  0.00     0.168 HD
BRANCH  10  15
HETATM   15  C2  UNL     1      30.813-181.725  26.796  1.00  0.00     0.309 C 
BRANCH  15  16
HETATM   16  O1  UNL     1      29.865-181.502  27.736  1.00  0.00    -0.360 OA
HETATM   17  C1  UNL     1      30.300-181.785  29.047  1.00  0.00     0.205 C 
ENDBRANCH  15  16
BRANCH  15  18
HETATM   18  O2  UNL     1      30.904-180.425  26.108  1.00  0.00    -0.366 OA
ATOM     19  H2  UNL     1      31.630-180.554  25.508  1.00  0.00     0.213 HD
ENDBRANCH  15  18
ENDBRANCH  10  15
BRANCH  12  20
HETATM   20  C14 UNL     1      28.608-184.142  26.542  1.00  0.00     0.276 C 
HETATM   21  O6  UNL     1      27.392-184.120  26.172  1.00  0.00    -0.278 OA
BRANCH  20  22
HETATM   22  C15 UNL     1      28.853-184.631  27.879  1.00  0.00     0.253 C 
HETATM   23  O7  UNL     1      28.111-184.486  28.857  1.00  0.00    -0.642 OA
HETATM   24  O8  UNL     1      30.075-185.345  28.069  1.00  0.00    -0.642 OA
ENDBRANCH  20  22
ENDBRANCH  12  20
ENDBRANCH   1   8
BRANCH   7  25
HETATM   25  O5  UNL     1      32.045-181.911  21.753  1.00  0.00    -0.356 OA
ATOM     26  H5  UNL     1      31.936-181.248  21.082  1.00  0.00     0.218 HD
ENDBRANCH   7  25
BRANCH   4  27
HETATM   27  O3  UNL     1      31.432-187.231  20.646  1.00  0.00    -0.344 OA
ATOM     28  H3  UNL     1      30.562-187.580  20.490  1.00  0.00     0.219 HD
ENDBRANCH   4  27
BRANCH   6  29
HETATM   29  N10 UNL     1      32.851-182.880  19.324  1.00  0.00    -0.323 N 
HETATM   30  C10 UNL     1      34.208-182.557  19.225  1.00  0.00     0.218 C 
HETATM   31  C11 UNL     1      34.680-181.607  18.186  1.00  0.00     0.117 C 
HETATM   32  O4  UNL     1      35.057-183.055  20.006  1.00  0.00    -0.274 OA
ATOM     33  H10 UNL     1      32.216-182.439  18.659  1.00  0.00     0.169 HD
ENDBRANCH   6  29
BRANCH   5  34
HETATM   34  N3  UNL     1      32.557-185.590  18.733  1.00  0.00    -0.181 N 
ATOM     35  H3  UNL     1      33.480-186.025  18.744  1.00  0.00     0.184 HD
BRANCH  34  36
HETATM   36  C8  UNL     1      31.985-185.610  17.607  1.00  0.00     0.737 A 
HETATM   37  N4  UNL     1      31.293-184.602  17.060  1.00  0.00    -0.113 N 
HETATM   38  N5  UNL     1      30.834-184.967  15.883  1.00  0.00    -0.212 N 
ATOM     39  H4  UNL     1      31.144-183.690  17.491  1.00  0.00     0.207 HD
HETATM   40  N6  UNL     1      31.233-186.205  15.682  1.00  0.00    -0.190 N 
ATOM     41  H5  UNL     1      30.274-184.399  15.247  1.00  0.00     0.210 HD
HETATM   42  N7  UNL     1      31.940-186.620  16.726  1.00  0.00     0.011 N 
ATOM     43  H6  UNL     1      31.031-186.761  14.850  1.00  0.00     0.212 HD
BRANCH  42  44
HETATM   44  N8  UNL     1      32.505-187.899  16.823  1.00  0.00    -0.212 N 
ATOM     45  H8  UNL     1      33.398-187.991  17.306  1.00  0.00     0.210 HD
BRANCH  44  46
HETATM   46  N9  UNL     1      31.922-189.055  16.299  1.00  0.00    -0.329 N 
ATOM     47  H92 UNL     1      30.948-188.986  16.002  1.00  0.00     0.178 HD
ATOM     48  H91 UNL     1      32.408-189.947  16.200  1.00  0.00     0.178 HD
ENDBRANCH  44  46
ENDBRANCH  42  44
ENDBRANCH  34  36
ENDBRANCH   5  34
TORSDOF 13
ENDMDL
