MODEL 1
REMARK VINA RESULT: -7.182415104      0.000      0.000
REMARK  15 active torsions:
REMARK  status: ('A' for Active; 'I' for Inactive)
REMARK    1  A    between atoms: C2_2  and  O1_4 
REMARK    2  A    between atoms: C2_2  and  N1_6 
REMARK    3  A    between atoms: N1_6  and  C4_8 
REMARK    4  A    between atoms: C5_10  and  C6_11 
REMARK    5  A    between atoms: C8_15  and  C9_16 
REMARK    6  A    between atoms: C9_16  and  O3_17 
REMARK    7  A    between atoms: C9_16  and  O4_19 
REMARK    8  A    between atoms: C10_22  and  C11_23 
REMARK    9  A    between atoms: C11_23  and  N3_24 
REMARK   10  A    between atoms: C11_23  and  C12_28 
REMARK   11  A    between atoms: C12_28  and  N4_29 
REMARK   12  A    between atoms: C12_28  and  O6_33 
REMARK   13  A    between atoms: C13_35  and  N5_36 
REMARK   14  A    between atoms: C14_39  and  C15_40 
REMARK       I    between atoms: C15_40  and  N6_42 
REMARK   15  A    between atoms: N6_42  and  S1_44 
ROOT
HETATM    1  C4  UNL     1      33.675-183.447  25.139  1.00  0.00     0.164 A 
HETATM    2  O2  UNL     1      32.914-183.486  26.200  1.00  0.00    -0.288 OA
HETATM    3  C5  UNL     1      31.583-183.370  26.200  1.00  0.00     0.140 A 
HETATM    4  C10 UNL     1      30.979-183.208  25.000  1.00  0.00     0.042 A 
HETATM    5  C13 UNL     1      31.736-183.138  23.816  1.00  0.00     0.057 A 
HETATM    6  C14 UNL     1      33.139-183.271  23.888  1.00  0.00     0.110 A 
ENDROOT
BRANCH   4   7
HETATM    7  C11 UNL     1      29.532-183.196  24.788  1.00  0.00     0.277 C 
BRANCH   7   8
HETATM    8  N3  UNL     1      28.709-182.242  25.402  1.00  0.00    -0.067 N 
ATOM      9  H33 UNL     1      29.207-181.873  26.212  1.00  0.00     0.275 HD
ATOM     10  H32 UNL     1      28.664-181.426  24.791  1.00  0.00     0.275 HD
ATOM     11  H31 UNL     1      27.758-182.467  25.695  1.00  0.00     0.275 HD
ENDBRANCH   7   8
BRANCH   7  12
HETATM   12  C12 UNL     1      28.820-184.534  25.020  1.00  0.00     0.351 C 
BRANCH  12  13
HETATM   13  N4  UNL     1      27.369-184.217  25.148  1.00  0.00    -0.051 N 
ATOM     14  H43 UNL     1      26.968-184.508  26.040  1.00  0.00     0.277 HD
ATOM     15  H42 UNL     1      27.179-183.220  25.245  1.00  0.00     0.277 HD
ATOM     16  H41 UNL     1      26.913-184.640  24.341  1.00  0.00     0.277 HD
ENDBRANCH  12  13
BRANCH  12  17
HETATM   17  O6  UNL     1      29.024-185.641  24.357  1.00  0.00    -0.368 OA
ATOM     18  H6  UNL     1      29.065-185.729  23.412  1.00  0.00     0.212 HD
ENDBRANCH  12  17
ENDBRANCH   7  12
ENDBRANCH   4   7
BRANCH   3  19
HETATM   19  C6  UNL     1      30.969-183.408  27.512  1.00  0.00     0.183 A 
HETATM   20  N2  UNL     1      31.268-184.064  28.591  1.00  0.00    -0.342 N 
HETATM   21  C7  UNL     1      30.412-183.831  29.624  1.00  0.00     0.128 A 
ATOM     22  H2  UNL     1      32.068-184.694  28.659  1.00  0.00     0.167 HD
HETATM   23  C8  UNL     1      29.519-182.935  29.077  1.00  0.00     0.125 A 
HETATM   24  O5  UNL     1      29.867-182.699  27.826  1.00  0.00    -0.289 OA
BRANCH  23  25
HETATM   25  C9  UNL     1      28.367-182.365  29.825  1.00  0.00     0.314 C 
BRANCH  25  26
HETATM   26  O3  UNL     1      27.140-182.771  29.328  1.00  0.00    -0.365 OA
ATOM     27  H3  UNL     1      26.854-182.261  28.579  1.00  0.00     0.213 HD
ENDBRANCH  25  26
BRANCH  25  28
HETATM   28  O4  UNL     1      28.461-182.708  31.169  1.00  0.00    -0.365 OA
ATOM     29  H4  UNL     1      28.548-181.924  31.698  1.00  0.00     0.213 HD
ENDBRANCH  25  28
ENDBRANCH  23  25
ENDBRANCH   3  19
BRANCH   5  30
HETATM   30  N5  UNL     1      31.261-182.638  22.732  1.00  0.00    -0.398 N 
ATOM     31  H52 UNL     1      30.964-183.301  22.016  1.00  0.00     0.156 HD
ATOM     32  H51 UNL     1      31.411-181.663  22.475  1.00  0.00     0.156 HD
ENDBRANCH   5  30
BRANCH   6  33
HETATM   33  C15 UNL     1      33.923-183.267  22.676  1.00  0.00     0.273 C 
HETATM   34  O7  UNL     1      33.869-184.278  21.869  1.00  0.00    -0.266 OA
HETATM   35  N6  UNL     1      34.800-182.271  22.183  1.00  0.00    -0.231 N 
ATOM     36  H6  UNL     1      34.931-181.414  22.721  1.00  0.00     0.184 HD
BRANCH  35  37
HETATM   37  S1  UNL     1      35.669-182.468  20.669  1.00  0.00     0.211 S 
HETATM   38  O8  UNL     1      36.485-183.724  20.669  1.00  0.00    -0.578 OA
HETATM   39  O9  UNL     1      34.654-182.436  19.561  1.00  0.00    -0.578 OA
HETATM   40  O10 UNL     1      36.692-181.130  20.532  1.00  0.00    -0.578 OA
ENDBRANCH  35  37
ENDBRANCH   6  33
BRANCH   1  41
HETATM   41  N1  UNL     1      35.080-183.589  25.321  1.00  0.00    -0.339 N 
ATOM     42  H1  UNL     1      35.724-183.432  24.548  1.00  0.00     0.164 HD
BRANCH  41  43
HETATM   43  C2  UNL     1      35.585-183.972  26.664  1.00  0.00     0.125 C 
HETATM   44  C1  UNL     1      37.100-184.196  26.601  1.00  0.00     0.070 C 
HETATM   45  C3  UNL     1      34.949-185.265  27.104  1.00  0.00     0.070 C 
BRANCH  43  46
HETATM   46  O1  UNL     1      35.401-182.921  27.540  1.00  0.00    -0.372 OA
ATOM     47  H1  UNL     1      35.297-182.149  26.996  1.00  0.00     0.212 HD
ENDBRANCH  43  46
ENDBRANCH  41  43
ENDBRANCH   1  41
TORSDOF 15
ENDMDL
MODEL 2
REMARK VINA RESULT: -7.133992440      1.093      1.395
REMARK  15 active torsions:
REMARK  status: ('A' for Active; 'I' for Inactive)
REMARK    1  A    between atoms: C2_2  and  O1_4 
REMARK    2  A    between atoms: C2_2  and  N1_6 
REMARK    3  A    between atoms: N1_6  and  C4_8 
REMARK    4  A    between atoms: C5_10  and  C6_11 
REMARK    5  A    between atoms: C8_15  and  C9_16 
REMARK    6  A    between atoms: C9_16  and  O3_17 
REMARK    7  A    between atoms: C9_16  and  O4_19 
REMARK    8  A    between atoms: C10_22  and  C11_23 
REMARK    9  A    between atoms: C11_23  and  N3_24 
REMARK   10  A    between atoms: C11_23  and  C12_28 
REMARK   11  A    between atoms: C12_28  and  N4_29 
REMARK   12  A    between atoms: C12_28  and  O6_33 
REMARK   13  A    between atoms: C13_35  and  N5_36 
REMARK   14  A    between atoms: C14_39  and  C15_40 
REMARK       I    between atoms: C15_40  and  N6_42 
REMARK   15  A    between atoms: N6_42  and  S1_44 
ROOT
HETATM    1  C4  UNL     1      33.724-183.619  24.742  1.00  0.00     0.164 A 
HETATM    2  O2  UNL     1      33.069-183.579  25.872  1.00  0.00    -0.288 OA
HETATM    3  C5  UNL     1      31.752-183.397  25.994  1.00  0.00     0.140 A 
HETATM    4  C10 UNL     1      31.040-183.252  24.852  1.00  0.00     0.042 A 
HETATM    5  C13 UNL     1      31.680-183.266  23.599  1.00  0.00     0.057 A 
HETATM    6  C14 UNL     1      33.076-183.466  23.541  1.00  0.00     0.110 A 
ENDROOT
BRANCH   4   7
HETATM    7  C11 UNL     1      29.582-183.176  24.780  1.00  0.00     0.277 C 
BRANCH   7   8
HETATM    8  N3  UNL     1      28.873-182.113  25.357  1.00  0.00    -0.067 N 
ATOM      9  H33 UNL     1      29.401-181.256  25.189  1.00  0.00     0.275 HD
ATOM     10  H32 UNL     1      28.033-181.957  24.799  1.00  0.00     0.275 HD
ATOM     11  H31 UNL     1      28.599-182.125  26.339  1.00  0.00     0.275 HD
ENDBRANCH   7   8
BRANCH   7  12
HETATM   12  C12 UNL     1      28.832-184.436  25.231  1.00  0.00     0.351 C 
BRANCH  12  13
HETATM   13  N4  UNL     1      27.787-183.977  26.191  1.00  0.00    -0.051 N 
ATOM     14  H43 UNL     1      28.074-183.173  26.749  1.00  0.00     0.277 HD
ATOM     15  H42 UNL     1      26.987-183.537  25.738  1.00  0.00     0.277 HD
ATOM     16  H41 UNL     1      27.539-184.792  26.751  1.00  0.00     0.277 HD
ENDBRANCH  12  13
BRANCH  12  17
HETATM   17  O6  UNL     1      28.401-185.395  24.457  1.00  0.00    -0.368 OA
ATOM     18  H6  UNL     1      27.505-185.521  24.167  1.00  0.00     0.212 HD
ENDBRANCH  12  17
ENDBRANCH   7  12
ENDBRANCH   4   7
BRANCH   3  19
HETATM   19  C6  UNL     1      31.268-183.353  27.360  1.00  0.00     0.183 A 
HETATM   20  N2  UNL     1      31.764-183.805  28.471  1.00  0.00    -0.342 N 
HETATM   21  C7  UNL     1      30.974-183.570  29.555  1.00  0.00     0.128 A 
ATOM     22  H2  UNL     1      32.660-184.289  28.527  1.00  0.00     0.167 HD
HETATM   23  C8  UNL     1      29.900-182.904  29.004  1.00  0.00     0.125 A 
HETATM   24  O5  UNL     1      30.095-182.787  27.704  1.00  0.00    -0.289 OA
BRANCH  23  25
HETATM   25  C9  UNL     1      28.739-182.423  29.799  1.00  0.00     0.314 C 
BRANCH  25  26
HETATM   26  O3  UNL     1      27.519-182.794  29.258  1.00  0.00    -0.365 OA
ATOM     27  H3  UNL     1      27.063-183.445  29.779  1.00  0.00     0.213 HD
ENDBRANCH  25  26
BRANCH  25  28
HETATM   28  O4  UNL     1      28.832-182.894  31.103  1.00  0.00    -0.365 OA
ATOM     29  H4  UNL     1      27.982-182.849  31.524  1.00  0.00     0.213 HD
ENDBRANCH  25  28
ENDBRANCH  23  25
ENDBRANCH   3  19
BRANCH   5  30
HETATM   30  N5  UNL     1      31.125-182.786  22.545  1.00  0.00    -0.398 N 
ATOM     31  H52 UNL     1      30.607-181.914  22.659  1.00  0.00     0.156 HD
ATOM     32  H51 UNL     1      30.970-183.350  21.710  1.00  0.00     0.156 HD
ENDBRANCH   5  30
BRANCH   6  33
HETATM   33  C15 UNL     1      33.736-183.548  22.260  1.00  0.00     0.273 C 
HETATM   34  O7  UNL     1      33.661-184.636  21.564  1.00  0.00    -0.266 OA
HETATM   35  N6  UNL     1      34.504-182.567  21.586  1.00  0.00    -0.231 N 
ATOM     36  H6  UNL     1      34.638-181.656  22.024  1.00  0.00     0.184 HD
BRANCH  35  37
HETATM   37  S1  UNL     1      35.230-182.876  20.018  1.00  0.00     0.211 S 
HETATM   38  O8  UNL     1      34.202-183.309  19.018  1.00  0.00    -0.578 OA
HETATM   39  O9  UNL     1      35.952-181.624  19.602  1.00  0.00    -0.578 OA
HETATM   40  O10 UNL     1      36.351-184.118  20.251  1.00  0.00    -0.578 OA
ENDBRANCH  35  37
ENDBRANCH   6  33
BRANCH   1  41
HETATM   41  N1  UNL     1      35.131-183.824  24.794  1.00  0.00    -0.339 N 
ATOM     42  H1  UNL     1      35.523-184.764  24.760  1.00  0.00     0.164 HD
BRANCH  41  43
HETATM   43  C2  UNL     1      36.016-182.637  24.900  1.00  0.00     0.125 C 
HETATM   44  C1  UNL     1      37.175-182.767  23.904  1.00  0.00     0.070 C 
HETATM   45  C3  UNL     1      36.608-182.556  26.283  1.00  0.00     0.070 C 
BRANCH  43  46
HETATM   46  O1  UNL     1      35.320-181.509  24.514  1.00  0.00    -0.372 OA
ATOM     47  H1  UNL     1      35.303-180.944  25.277  1.00  0.00     0.212 HD
ENDBRANCH  43  46
ENDBRANCH  41  43
ENDBRANCH   1  41
TORSDOF 15
ENDMDL
MODEL 3
REMARK VINA RESULT: -7.123366445      5.479      9.510
REMARK  15 active torsions:
REMARK  status: ('A' for Active; 'I' for Inactive)
REMARK    1  A    between atoms: C2_2  and  O1_4 
REMARK    2  A    between atoms: C2_2  and  N1_6 
REMARK    3  A    between atoms: N1_6  and  C4_8 
REMARK    4  A    between atoms: C5_10  and  C6_11 
REMARK    5  A    between atoms: C8_15  and  C9_16 
REMARK    6  A    between atoms: C9_16  and  O3_17 
REMARK    7  A    between atoms: C9_16  and  O4_19 
REMARK    8  A    between atoms: C10_22  and  C11_23 
REMARK    9  A    between atoms: C11_23  and  N3_24 
REMARK   10  A    between atoms: C11_23  and  C12_28 
REMARK   11  A    between atoms: C12_28  and  N4_29 
REMARK   12  A    between atoms: C12_28  and  O6_33 
REMARK   13  A    between atoms: C13_35  and  N5_36 
REMARK   14  A    between atoms: C14_39  and  C15_40 
REMARK       I    between atoms: C15_40  and  N6_42 
REMARK   15  A    between atoms: N6_42  and  S1_44 
ROOT
HETATM    1  C4  UNL     1      31.493-184.600  20.164  1.00  0.00     0.164 A 
HETATM    2  O2  UNL     1      31.261-185.064  18.965  1.00  0.00    -0.288 OA
HETATM    3  C5  UNL     1      31.834-184.623  17.842  1.00  0.00     0.140 A 
HETATM    4  C10 UNL     1      32.735-183.620  17.962  1.00  0.00     0.042 A 
HETATM    5  C13 UNL     1      33.023-183.059  19.220  1.00  0.00     0.057 A 
HETATM    6  C14 UNL     1      32.383-183.575  20.367  1.00  0.00     0.110 A 
ENDROOT
BRANCH   4   7
HETATM    7  C11 UNL     1      33.556-183.099  16.871  1.00  0.00     0.277 C 
BRANCH   7   8
HETATM    8  N3  UNL     1      34.952-183.018  16.977  1.00  0.00    -0.067 N 
ATOM      9  H33 UNL     1      35.273-182.297  16.331  1.00  0.00     0.275 HD
ATOM     10  H32 UNL     1      35.174-182.604  17.883  1.00  0.00     0.275 HD
ATOM     11  H31 UNL     1      35.545-183.837  16.853  1.00  0.00     0.275 HD
ENDBRANCH   7   8
BRANCH   7  12
HETATM   12  C12 UNL     1      33.127-181.736  16.315  1.00  0.00     0.351 C 
BRANCH  12  13
HETATM   13  N4  UNL     1      32.449-182.010  15.016  1.00  0.00    -0.051 N 
ATOM     14  H43 UNL     1      32.866-181.514  14.228  1.00  0.00     0.277 HD
ATOM     15  H42 UNL     1      32.609-182.955  14.667  1.00  0.00     0.277 HD
ATOM     16  H41 UNL     1      31.463-181.792  15.157  1.00  0.00     0.277 HD
ENDBRANCH  12  13
BRANCH  12  17
HETATM   17  O6  UNL     1      32.537-180.782  16.984  1.00  0.00    -0.368 OA
ATOM     18  H6  UNL     1      31.908-180.160  16.638  1.00  0.00     0.212 HD
ENDBRANCH  12  17
ENDBRANCH   7  12
ENDBRANCH   4   7
BRANCH   3  19
HETATM   19  C6  UNL     1      31.379-185.275  16.630  1.00  0.00     0.183 A 
HETATM   20  N2  UNL     1      30.686-184.843  15.621  1.00  0.00    -0.342 N 
HETATM   21  C7  UNL     1      30.450-185.796  14.677  1.00  0.00     0.128 A 
ATOM     22  H2  UNL     1      30.352-183.883  15.542  1.00  0.00     0.167 HD
HETATM   23  C8  UNL     1      31.081-186.903  15.203  1.00  0.00     0.125 A 
HETATM   24  O5  UNL     1      31.623-186.572  16.360  1.00  0.00    -0.289 OA
BRANCH  23  25
HETATM   25  C9  UNL     1      31.109-188.228  14.529  1.00  0.00     0.314 C 
BRANCH  25  26
HETATM   26  O3  UNL     1      32.376-188.785  14.476  1.00  0.00    -0.365 OA
ATOM     27  H3  UNL     1      32.716-188.854  13.592  1.00  0.00     0.213 HD
ENDBRANCH  25  26
BRANCH  25  28
HETATM   28  O4  UNL     1      30.243-189.103  15.174  1.00  0.00    -0.365 OA
ATOM     29  H4  UNL     1      30.023-189.825  14.596  1.00  0.00     0.213 HD
ENDBRANCH  25  28
ENDBRANCH  23  25
ENDBRANCH   3  19
BRANCH   5  30
HETATM   30  N5  UNL     1      33.575-181.905  19.341  1.00  0.00    -0.398 N 
ATOM     31  H52 UNL     1      32.985-181.095  19.150  1.00  0.00     0.156 HD
ATOM     32  H51 UNL     1      34.588-181.789  19.359  1.00  0.00     0.156 HD
ENDBRANCH   5  30
BRANCH   6  33
HETATM   33  C15 UNL     1      32.717-183.053  21.671  1.00  0.00     0.273 C 
HETATM   34  O7  UNL     1      31.871-182.304  22.302  1.00  0.00    -0.266 OA
HETATM   35  N6  UNL     1      33.896-183.237  22.432  1.00  0.00    -0.231 N 
ATOM     36  H6  UNL     1      34.647-183.814  22.052  1.00  0.00     0.184 HD
BRANCH  35  37
HETATM   37  S1  UNL     1      34.104-182.502  24.013  1.00  0.00     0.211 S 
HETATM   38  O8  UNL     1      32.878-182.673  24.858  1.00  0.00    -0.578 OA
HETATM   39  O9  UNL     1      35.327-183.114  24.637  1.00  0.00    -0.578 OA
HETATM   40  O10 UNL     1      34.377-180.857  23.739  1.00  0.00    -0.578 OA
ENDBRANCH  35  37
ENDBRANCH   6  33
BRANCH   1  41
HETATM   41  N1  UNL     1      30.794-185.190  21.254  1.00  0.00    -0.339 N 
ATOM     42  H1  UNL     1      30.023-184.699  21.705  1.00  0.00     0.164 HD
BRANCH  41  43
HETATM   43  C2  UNL     1      31.212-186.536  21.719  1.00  0.00     0.125 C 
HETATM   44  C1  UNL     1      30.024-187.246  22.379  1.00  0.00     0.070 C 
HETATM   45  C3  UNL     1      32.301-186.409  22.752  1.00  0.00     0.070 C 
BRANCH  43  46
HETATM   46  O1  UNL     1      31.550-187.313  20.629  1.00  0.00    -0.372 OA
ATOM     47  H1  UNL     1      32.014-186.734  20.035  1.00  0.00     0.212 HD
ENDBRANCH  43  46
ENDBRANCH  41  43
ENDBRANCH   1  41
TORSDOF 15
ENDMDL
MODEL 4
REMARK VINA RESULT: -6.957422787      0.890      1.301
REMARK  15 active torsions:
REMARK  status: ('A' for Active; 'I' for Inactive)
REMARK    1  A    between atoms: C2_2  and  O1_4 
REMARK    2  A    between atoms: C2_2  and  N1_6 
REMARK    3  A    between atoms: N1_6  and  C4_8 
REMARK    4  A    between atoms: C5_10  and  C6_11 
REMARK    5  A    between atoms: C8_15  and  C9_16 
REMARK    6  A    between atoms: C9_16  and  O3_17 
REMARK    7  A    between atoms: C9_16  and  O4_19 
REMARK    8  A    between atoms: C10_22  and  C11_23 
REMARK    9  A    between atoms: C11_23  and  N3_24 
REMARK   10  A    between atoms: C11_23  and  C12_28 
REMARK   11  A    between atoms: C12_28  and  N4_29 
REMARK   12  A    between atoms: C12_28  and  O6_33 
REMARK   13  A    between atoms: C13_35  and  N5_36 
REMARK   14  A    between atoms: C14_39  and  C15_40 
REMARK       I    between atoms: C15_40  and  N6_42 
REMARK   15  A    between atoms: N6_42  and  S1_44 
ROOT
HETATM    1  C4  UNL     1      33.773-183.358  24.920  1.00  0.00     0.164 A 
HETATM    2  O2  UNL     1      33.068-183.407  26.019  1.00  0.00    -0.288 OA
HETATM    3  C5  UNL     1      31.737-183.317  26.088  1.00  0.00     0.140 A 
HETATM    4  C10 UNL     1      31.068-183.172  24.920  1.00  0.00     0.042 A 
HETATM    5  C13 UNL     1      31.762-183.093  23.698  1.00  0.00     0.057 A 
HETATM    6  C14 UNL     1      33.169-183.199  23.698  1.00  0.00     0.110 A 
ENDROOT
BRANCH   4   7
HETATM    7  C11 UNL     1      29.613-183.188  24.783  1.00  0.00     0.277 C 
BRANCH   7   8
HETATM    8  N3  UNL     1      28.813-182.174  25.328  1.00  0.00    -0.067 N 
ATOM      9  H33 UNL     1      29.368-181.677  26.025  1.00  0.00     0.275 HD
ATOM     10  H32 UNL     1      28.684-181.458  24.612  1.00  0.00     0.275 HD
ATOM     11  H31 UNL     1      27.901-182.375  25.738  1.00  0.00     0.275 HD
ENDBRANCH   7   8
BRANCH   7  12
HETATM   12  C12 UNL     1      28.925-184.494  25.202  1.00  0.00     0.351 C 
BRANCH  12  13
HETATM   13  N4  UNL     1      27.832-184.107  26.139  1.00  0.00    -0.051 N 
ATOM     14  H43 UNL     1      27.829-184.648  27.004  1.00  0.00     0.277 HD
ATOM     15  H42 UNL     1      27.969-183.191  26.565  1.00  0.00     0.277 HD
ATOM     16  H41 UNL     1      26.964-184.183  25.610  1.00  0.00     0.277 HD
ENDBRANCH  12  13
BRANCH  12  17
HETATM   17  O6  UNL     1      28.569-185.467  24.407  1.00  0.00    -0.368 OA
ATOM     18  H6  UNL     1      27.957-186.163  24.612  1.00  0.00     0.212 HD
ENDBRANCH  12  17
ENDBRANCH   7  12
ENDBRANCH   4   7
BRANCH   3  19
HETATM   19  C6  UNL     1      31.193-183.359  27.430  1.00  0.00     0.183 A 
HETATM   20  N2  UNL     1      31.628-183.903  28.525  1.00  0.00    -0.342 N 
HETATM   21  C7  UNL     1      30.793-183.728  29.588  1.00  0.00     0.128 A 
ATOM     22  H2  UNL     1      32.509-184.412  28.585  1.00  0.00     0.167 HD
HETATM   23  C8  UNL     1      29.761-182.997  29.041  1.00  0.00     0.125 A 
HETATM   24  O5  UNL     1      30.018-182.790  27.762  1.00  0.00    -0.289 OA
BRANCH  23  25
HETATM   25  C9  UNL     1      28.575-182.546  29.817  1.00  0.00     0.314 C 
BRANCH  25  26
HETATM   26  O3  UNL     1      27.375-182.981  29.279  1.00  0.00    -0.365 OA
ATOM     27  H3  UNL     1      26.637-182.856  29.864  1.00  0.00     0.213 HD
ENDBRANCH  25  26
BRANCH  25  28
HETATM   28  O4  UNL     1      28.680-182.980  31.133  1.00  0.00    -0.365 OA
ATOM     29  H4  UNL     1      28.880-182.245  31.701  1.00  0.00     0.213 HD
ENDBRANCH  25  28
ENDBRANCH  23  25
ENDBRANCH   3  19
BRANCH   5  30
HETATM   30  N5  UNL     1      31.222-182.608  22.639  1.00  0.00    -0.398 N 
ATOM     31  H52 UNL     1      30.602-181.808  22.768  1.00  0.00     0.156 HD
ATOM     32  H51 UNL     1      31.185-183.129  21.763  1.00  0.00     0.156 HD
ENDBRANCH   5  30
BRANCH   6  33
HETATM   33  C15 UNL     1      33.889-183.186  22.446  1.00  0.00     0.273 C 
HETATM   34  O7  UNL     1      34.825-182.313  22.250  1.00  0.00    -0.266 OA
HETATM   35  N6  UNL     1      33.736-184.028  21.319  1.00  0.00    -0.231 N 
ATOM     36  H6  UNL     1      33.032-184.766  21.343  1.00  0.00     0.184 HD
BRANCH  35  37
HETATM   37  S1  UNL     1      34.724-183.837  19.879  1.00  0.00     0.211 S 
HETATM   38  O8  UNL     1      34.516-182.493  19.251  1.00  0.00    -0.578 OA
HETATM   39  O9  UNL     1      36.152-184.076  20.280  1.00  0.00    -0.578 OA
HETATM   40  O10 UNL     1      34.233-185.045  18.805  1.00  0.00    -0.578 OA
ENDBRANCH  35  37
ENDBRANCH   6  33
BRANCH   1  41
HETATM   41  N1  UNL     1      35.187-183.473  25.030  1.00  0.00    -0.339 N 
ATOM     42  H1  UNL     1      35.782-183.384  24.207  1.00  0.00     0.164 HD
BRANCH  41  43
HETATM   43  C2  UNL     1      35.776-183.725  26.369  1.00  0.00     0.125 C 
HETATM   44  C1  UNL     1      37.255-184.100  26.221  1.00  0.00     0.070 C 
HETATM   45  C3  UNL     1      35.074-184.882  27.031  1.00  0.00     0.070 C 
BRANCH  43  46
HETATM   46  O1  UNL     1      35.761-182.556  27.104  1.00  0.00    -0.372 OA
ATOM     47  H1  UNL     1      36.639-182.462  27.454  1.00  0.00     0.212 HD
ENDBRANCH  43  46
ENDBRANCH  41  43
ENDBRANCH   1  41
TORSDOF 15
ENDMDL
MODEL 5
REMARK VINA RESULT: -6.897178412      5.528      9.476
REMARK  15 active torsions:
REMARK  status: ('A' for Active; 'I' for Inactive)
REMARK    1  A    between atoms: C2_2  and  O1_4 
REMARK    2  A    between atoms: C2_2  and  N1_6 
REMARK    3  A    between atoms: N1_6  and  C4_8 
REMARK    4  A    between atoms: C5_10  and  C6_11 
REMARK    5  A    between atoms: C8_15  and  C9_16 
REMARK    6  A    between atoms: C9_16  and  O3_17 
REMARK    7  A    between atoms: C9_16  and  O4_19 
REMARK    8  A    between atoms: C10_22  and  C11_23 
REMARK    9  A    between atoms: C11_23  and  N3_24 
REMARK   10  A    between atoms: C11_23  and  C12_28 
REMARK   11  A    between atoms: C12_28  and  N4_29 
REMARK   12  A    between atoms: C12_28  and  O6_33 
REMARK   13  A    between atoms: C13_35  and  N5_36 
REMARK   14  A    between atoms: C14_39  and  C15_40 
REMARK       I    between atoms: C15_40  and  N6_42 
REMARK   15  A    between atoms: N6_42  and  S1_44 
ROOT
HETATM    1  C4  UNL     1      32.348-185.401  20.567  1.00  0.00     0.164 A 
HETATM    2  O2  UNL     1      32.216-186.093  19.467  1.00  0.00    -0.288 OA
HETATM    3  C5  UNL     1      32.401-185.620  18.231  1.00  0.00     0.140 A 
HETATM    4  C10 UNL     1      32.763-184.321  18.116  1.00  0.00     0.042 A 
HETATM    5  C13 UNL     1      32.907-183.510  19.256  1.00  0.00     0.057 A 
HETATM    6  C14 UNL     1      32.699-184.075  20.533  1.00  0.00     0.110 A 
ENDROOT
BRANCH   4   7
HETATM    7  C11 UNL     1      33.135-183.666  16.863  1.00  0.00     0.277 C 
BRANCH   7   8
HETATM    8  N3  UNL     1      32.209-183.482  15.827  1.00  0.00    -0.067 N 
ATOM      9  H33 UNL     1      31.490-184.200  15.919  1.00  0.00     0.275 HD
ATOM     10  H32 UNL     1      31.684-182.630  16.023  1.00  0.00     0.275 HD
ATOM     11  H31 UNL     1      32.499-183.453  14.850  1.00  0.00     0.275 HD
ENDBRANCH   7   8
BRANCH   7  12
HETATM   12  C12 UNL     1      34.387-184.224  16.173  1.00  0.00     0.351 C 
BRANCH  12  13
HETATM   13  N4  UNL     1      33.930-184.778  14.867  1.00  0.00    -0.051 N 
ATOM     14  H43 UNL     1      34.300-185.708  14.669  1.00  0.00     0.277 HD
ATOM     15  H42 UNL     1      32.942-185.033  14.857  1.00  0.00     0.277 HD
ATOM     16  H41 UNL     1      34.176-184.085  14.161  1.00  0.00     0.277 HD
ENDBRANCH  12  13
BRANCH  12  17
HETATM   17  O6  UNL     1      35.544-183.626  16.075  1.00  0.00    -0.368 OA
ATOM     18  H6  UNL     1      35.992-183.155  16.767  1.00  0.00     0.212 HD
ENDBRANCH  12  17
ENDBRANCH   7  12
ENDBRANCH   4   7
BRANCH   3  19
HETATM   19  C6  UNL     1      32.155-186.577  17.171  1.00  0.00     0.183 A 
HETATM   20  N2  UNL     1      32.630-187.764  16.946  1.00  0.00    -0.342 N 
HETATM   21  C7  UNL     1      32.149-188.335  15.807  1.00  0.00     0.128 A 
ATOM     22  H2  UNL     1      33.300-188.224  17.563  1.00  0.00     0.167 HD
HETATM   23  C8  UNL     1      31.297-187.367  15.323  1.00  0.00     0.125 A 
HETATM   24  O5  UNL     1      31.316-186.334  16.145  1.00  0.00    -0.289 OA
BRANCH  23  25
HETATM   25  C9  UNL     1      30.513-187.519  14.068  1.00  0.00     0.314 C 
BRANCH  25  26
HETATM   26  O3  UNL     1      29.332-188.221  14.247  1.00  0.00    -0.365 OA
ATOM     27  H3  UNL     1      28.982-188.574  13.437  1.00  0.00     0.213 HD
ENDBRANCH  25  26
BRANCH  25  28
HETATM   28  O4  UNL     1      30.233-186.267  13.533  1.00  0.00    -0.365 OA
ATOM     29  H4  UNL     1      30.565-186.214  12.644  1.00  0.00     0.213 HD
ENDBRANCH  25  28
ENDBRANCH  23  25
ENDBRANCH   3  19
BRANCH   5  30
HETATM   30  N5  UNL     1      32.892-182.227  19.186  1.00  0.00    -0.398 N 
ATOM     31  H52 UNL     1      33.671-181.788  18.696  1.00  0.00     0.156 HD
ATOM     32  H51 UNL     1      32.304-181.659  19.796  1.00  0.00     0.156 HD
ENDBRANCH   5  30
BRANCH   6  33
HETATM   33  C15 UNL     1      32.907-183.271  21.715  1.00  0.00     0.273 C 
HETATM   34  O7  UNL     1      32.080-182.317  21.998  1.00  0.00    -0.266 OA
HETATM   35  N6  UNL     1      33.932-183.361  22.687  1.00  0.00    -0.231 N 
ATOM     36  H6  UNL     1      34.650-184.078  22.586  1.00  0.00     0.184 HD
BRANCH  35  37
HETATM   37  S1  UNL     1      34.002-182.271  24.062  1.00  0.00     0.211 S 
HETATM   38  O8  UNL     1      32.653-182.102  24.692  1.00  0.00    -0.578 OA
HETATM   39  O9  UNL     1      35.024-182.819  25.018  1.00  0.00    -0.578 OA
HETATM   40  O10 UNL     1      34.535-180.784  23.462  1.00  0.00    -0.578 OA
ENDBRANCH  35  37
ENDBRANCH   6  33
BRANCH   1  41
HETATM   41  N1  UNL     1      32.115-186.065  21.804  1.00  0.00    -0.339 N 
ATOM     42  H1  UNL     1      32.888-186.461  22.338  1.00  0.00     0.164 HD
BRANCH  41  43
HETATM   43  C2  UNL     1      30.719-186.169  22.300  1.00  0.00     0.125 C 
HETATM   44  C1  UNL     1      30.535-185.258  23.519  1.00  0.00     0.070 C 
HETATM   45  C3  UNL     1      30.431-187.582  22.737  1.00  0.00     0.070 C 
BRANCH  43  46
HETATM   46  O1  UNL     1      29.854-185.684  21.339  1.00  0.00    -0.372 OA
ATOM     47  H1  UNL     1      30.349-185.678  20.528  1.00  0.00     0.212 HD
ENDBRANCH  43  46
ENDBRANCH  41  43
ENDBRANCH   1  41
TORSDOF 15
ENDMDL
