MODEL 1
REMARK VINA RESULT: -7.296472848      0.000      0.000
REMARK  7 active torsions:
REMARK  status: ('A' for Active; 'I' for Inactive)
REMARK    1  A    between atoms: C5_5  and  N1_6 
REMARK    2  A    between atoms: N2_9  and  C8_10 
REMARK    3  A    between atoms: C8_10  and  C9_11 
REMARK    4  A    between atoms: C9_11  and  C10_12 
REMARK    5  A    between atoms: C10_12  and  N3_13 
REMARK    6  A    between atoms: C11_14  and  O1_15 
REMARK    7  A    between atoms: C14_19  and  O2_20 
ROOT
HETATM    1  N3  UNL     1      -7.075  -4.470   1.283  1.00  0.00    -0.307 N 
HETATM    2  C11 UNL     1      -6.191  -5.264   1.908  1.00  0.00     0.152 A 
HETATM    3  C12 UNL     1      -6.772  -5.785   3.068  1.00  0.00     0.018 A 
HETATM    4  C13 UNL     1      -8.009  -5.300   3.137  1.00  0.00     0.018 A 
HETATM    5  C14 UNL     1      -8.202  -4.468   2.010  1.00  0.00     0.152 A 
HETATM    6  C15 UNL     1      -8.843  -5.715   4.288  1.00  0.00     0.086 C 
HETATM    7  C16 UNL     1      -9.716  -6.900   3.966  1.00  0.00     0.020 C 
HETATM    8  C17 UNL     1      -9.004  -8.223   4.172  1.00  0.00     0.002 C 
HETATM    9  C18 UNL     1      -7.890  -8.408   3.177  1.00  0.00     0.002 C 
HETATM   10  C19 UNL     1      -6.542  -8.097   3.732  1.00  0.00     0.020 C 
HETATM   11  C20 UNL     1      -6.336  -6.685   4.152  1.00  0.00     0.086 C 
HETATM   12  S1  UNL     1      -7.571  -6.274   5.450  1.00  0.00    -0.150 SA
ENDROOT
BRANCH   1  13
HETATM   13  C10 UNL     1      -6.907  -3.728   0.056  1.00  0.00     0.135 C 
BRANCH  13  14
HETATM   14  C9  UNL     1      -7.305  -4.513  -1.168  1.00  0.00     0.040 C 
BRANCH  14  15
HETATM   15  C8  UNL     1      -7.210  -3.601  -2.363  1.00  0.00     0.123 C 
BRANCH  15  16
HETATM   16  N2  UNL     1      -8.371  -3.516  -3.166  1.00  0.00    -0.390 N 
HETATM   17  C7  UNL     1      -8.184  -3.942  -4.524  1.00  0.00     0.141 C 
HETATM   18  C6  UNL     1      -8.571  -5.380  -4.757  1.00  0.00     0.143 C 
HETATM   19  N1  UNL     1      -9.900  -5.563  -4.260  1.00  0.00    -0.369 N 
HETATM   20  C22 UNL     1     -10.217  -5.126  -2.940  1.00  0.00     0.167 C 
HETATM   21  C21 UNL     1      -9.624  -3.783  -2.600  1.00  0.00     0.078 C 
BRANCH  19  22
HETATM   22  C5  UNL     1     -10.889  -6.183  -5.108  1.00  0.00     0.072 A 
HETATM   23  C4  UNL     1     -11.949  -5.606  -5.746  1.00  0.00     0.038 A 
HETATM   24  C3  UNL     1     -12.734  -6.410  -6.486  1.00  0.00     0.017 A 
HETATM   25  C2  UNL     1     -12.403  -7.734  -6.535  1.00  0.00    -0.019 A 
HETATM   26  C1  UNL     1     -13.121  -8.827  -7.291  1.00  0.00     0.056 C 
HETATM   27  S2  UNL     1     -11.012  -7.819  -5.553  1.00  0.00    -0.078 SA
ENDBRANCH  19  22
ENDBRANCH  15  16
ENDBRANCH  14  15
ENDBRANCH  13  14
ENDBRANCH   1  13
BRANCH   2  28
HETATM   28  O1  UNL     1      -4.917  -5.475   1.399  1.00  0.00    -0.345 OA
ATOM     29  H1  UNL     1      -4.211  -5.800   1.945  1.00  0.00     0.219 HD
ENDBRANCH   2  28
BRANCH   5  30
HETATM   30  O2  UNL     1      -9.351  -3.758   1.687  1.00  0.00    -0.345 OA
ATOM     31  H2  UNL     1     -10.178  -3.827   2.149  1.00  0.00     0.219 HD
ENDBRANCH   5  30
TORSDOF 7
ENDMDL
MODEL 2
REMARK VINA RESULT: -7.180135631      1.145      2.396
REMARK  7 active torsions:
REMARK  status: ('A' for Active; 'I' for Inactive)
REMARK    1  A    between atoms: C5_5  and  N1_6 
REMARK    2  A    between atoms: N2_9  and  C8_10 
REMARK    3  A    between atoms: C8_10  and  C9_11 
REMARK    4  A    between atoms: C9_11  and  C10_12 
REMARK    5  A    between atoms: C10_12  and  N3_13 
REMARK    6  A    between atoms: C11_14  and  O1_15 
REMARK    7  A    between atoms: C14_19  and  O2_20 
ROOT
HETATM    1  N3  UNL     1      -7.096  -4.591   0.783  1.00  0.00    -0.307 N 
HETATM    2  C11 UNL     1      -8.265  -4.222   1.332  1.00  0.00     0.152 A 
HETATM    3  C12 UNL     1      -8.555  -5.059   2.414  1.00  0.00     0.018 A 
HETATM    4  C13 UNL     1      -7.555  -5.931   2.512  1.00  0.00     0.018 A 
HETATM    5  C14 UNL     1      -6.633  -5.637   1.482  1.00  0.00     0.152 A 
HETATM    6  C15 UNL     1      -7.626  -6.933   3.600  1.00  0.00     0.086 C 
HETATM    7  C16 UNL     1      -6.881  -6.494   4.834  1.00  0.00     0.020 C 
HETATM    8  C17 UNL     1      -7.726  -5.630   5.750  1.00  0.00     0.002 C 
HETATM    9  C18 UNL     1      -8.042  -4.301   5.117  1.00  0.00     0.002 C 
HETATM   10  C19 UNL     1      -9.407  -4.238   4.521  1.00  0.00     0.020 C 
HETATM   11  C20 UNL     1      -9.653  -5.174   3.392  1.00  0.00     0.086 C 
HETATM   12  S1  UNL     1      -9.396  -6.893   3.989  1.00  0.00    -0.150 SA
ENDROOT
BRANCH   1  13
HETATM   13  C10 UNL     1      -6.412  -4.011  -0.348  1.00  0.00     0.135 C 
BRANCH  13  14
HETATM   14  C9  UNL     1      -6.953  -4.483  -1.673  1.00  0.00     0.040 C 
BRANCH  14  15
HETATM   15  C8  UNL     1      -7.287  -3.272  -2.504  1.00  0.00     0.123 C 
BRANCH  15  16
HETATM   16  N2  UNL     1      -8.455  -3.372  -3.295  1.00  0.00    -0.390 N 
HETATM   17  C7  UNL     1      -8.238  -3.918  -4.605  1.00  0.00     0.141 C 
HETATM   18  C6  UNL     1      -8.499  -5.400  -4.684  1.00  0.00     0.143 C 
HETATM   19  N1  UNL     1      -9.804  -5.645  -4.152  1.00  0.00    -0.369 N 
HETATM   20  C22 UNL     1     -10.152  -5.104  -2.879  1.00  0.00     0.167 C 
HETATM   21  C21 UNL     1      -9.677  -3.686  -2.687  1.00  0.00     0.078 C 
BRANCH  19  22
HETATM   22  C5  UNL     1     -10.740  -6.433  -4.917  1.00  0.00     0.072 A 
HETATM   23  C4  UNL     1     -10.714  -7.773  -5.180  1.00  0.00     0.038 A 
HETATM   24  C3  UNL     1     -11.715  -8.274  -5.926  1.00  0.00     0.017 A 
HETATM   25  C2  UNL     1     -12.671  -7.398  -6.358  1.00  0.00    -0.019 A 
HETATM   26  C1  UNL     1     -13.883  -7.714  -7.201  1.00  0.00     0.056 C 
HETATM   27  S2  UNL     1     -12.149  -5.909  -5.711  1.00  0.00    -0.078 SA
ENDBRANCH  19  22
ENDBRANCH  15  16
ENDBRANCH  14  15
ENDBRANCH  13  14
ENDBRANCH   1  13
BRANCH   2  28
HETATM   28  O1  UNL     1      -8.999  -3.157   0.831  1.00  0.00    -0.345 OA
ATOM     29  H1  UNL     1      -9.949  -3.153   0.854  1.00  0.00     0.219 HD
ENDBRANCH   2  28
BRANCH   5  30
HETATM   30  O2  UNL     1      -5.443  -6.303   1.215  1.00  0.00    -0.345 OA
ATOM     31  H2  UNL     1      -5.325  -7.244   1.269  1.00  0.00     0.219 HD
ENDBRANCH   5  30
TORSDOF 7
ENDMDL
MODEL 3
REMARK VINA RESULT: -6.974707825      3.171      4.323
REMARK  7 active torsions:
REMARK  status: ('A' for Active; 'I' for Inactive)
REMARK    1  A    between atoms: C5_5  and  N1_6 
REMARK    2  A    between atoms: N2_9  and  C8_10 
REMARK    3  A    between atoms: C8_10  and  C9_11 
REMARK    4  A    between atoms: C9_11  and  C10_12 
REMARK    5  A    between atoms: C10_12  and  N3_13 
REMARK    6  A    between atoms: C11_14  and  O1_15 
REMARK    7  A    between atoms: C14_19  and  O2_20 
ROOT
HETATM    1  N3  UNL     1      -8.202  -2.778   0.136  1.00  0.00    -0.307 N 
HETATM    2  C11 UNL     1      -8.996  -3.421   1.008  1.00  0.00     0.152 A 
HETATM    3  C12 UNL     1     -10.117  -2.633   1.285  1.00  0.00     0.018 A 
HETATM    4  C13 UNL     1      -9.993  -1.514   0.575  1.00  0.00     0.018 A 
HETATM    5  C14 UNL     1      -8.784  -1.604  -0.151  1.00  0.00     0.152 A 
HETATM    6  C15 UNL     1     -11.072  -0.508   0.692  1.00  0.00     0.086 C 
HETATM    7  C16 UNL     1     -12.109  -0.649  -0.392  1.00  0.00     0.020 C 
HETATM    8  C17 UNL     1     -13.188  -1.655  -0.040  1.00  0.00     0.002 C 
HETATM    9  C18 UNL     1     -12.637  -3.055   0.015  1.00  0.00     0.002 C 
HETATM   10  C19 UNL     1     -12.358  -3.528   1.401  1.00  0.00     0.020 C 
HETATM   11  C20 UNL     1     -11.314  -2.766   2.137  1.00  0.00     0.086 C 
HETATM   12  S1  UNL     1     -11.843  -1.010   2.253  1.00  0.00    -0.150 SA
ENDROOT
BRANCH   1  13
HETATM   13  C10 UNL     1      -6.946  -3.214  -0.427  1.00  0.00     0.135 C 
BRANCH  13  14
HETATM   14  C9  UNL     1      -7.115  -4.167  -1.582  1.00  0.00     0.040 C 
BRANCH  14  15
HETATM   15  C8  UNL     1      -7.148  -3.363  -2.855  1.00  0.00     0.123 C 
BRANCH  15  16
HETATM   16  N2  UNL     1      -8.344  -3.449  -3.606  1.00  0.00    -0.390 N 
HETATM   17  C7  UNL     1      -8.188  -4.052  -4.900  1.00  0.00     0.141 C 
HETATM   18  C6  UNL     1      -8.505  -5.525  -4.913  1.00  0.00     0.143 C 
HETATM   19  N1  UNL     1      -9.801  -5.701  -4.333  1.00  0.00    -0.369 N 
HETATM   20  C22 UNL     1     -10.088  -5.100  -3.072  1.00  0.00     0.167 C 
HETATM   21  C21 UNL     1      -9.556  -3.695  -2.950  1.00  0.00     0.078 C 
BRANCH  19  22
HETATM   22  C5  UNL     1     -10.788  -6.482  -5.038  1.00  0.00     0.072 A 
HETATM   23  C4  UNL     1     -10.801  -7.826  -5.279  1.00  0.00     0.038 A 
HETATM   24  C3  UNL     1     -11.846  -8.318  -5.967  1.00  0.00     0.017 A 
HETATM   25  C2  UNL     1     -12.805  -7.431  -6.367  1.00  0.00    -0.019 A 
HETATM   26  C1  UNL     1     -14.063  -7.735  -7.145  1.00  0.00     0.056 C 
HETATM   27  S2  UNL     1     -12.224  -5.942  -5.772  1.00  0.00    -0.078 SA
ENDBRANCH  19  22
ENDBRANCH  15  16
ENDBRANCH  14  15
ENDBRANCH  13  14
ENDBRANCH   1  13
BRANCH   2  28
HETATM   28  O1  UNL     1      -8.667  -4.675   1.501  1.00  0.00    -0.345 OA
ATOM     29  H1  UNL     1      -9.159  -5.077   2.207  1.00  0.00     0.219 HD
ENDBRANCH   2  28
BRANCH   5  30
HETATM   30  O2  UNL     1      -8.262  -0.654  -1.020  1.00  0.00    -0.345 OA
ATOM     31  H2  UNL     1      -8.768   0.033  -1.438  1.00  0.00     0.219 HD
ENDBRANCH   5  30
TORSDOF 7
ENDMDL
MODEL 4
REMARK VINA RESULT: -6.728797376      3.565      4.555
REMARK  7 active torsions:
REMARK  status: ('A' for Active; 'I' for Inactive)
REMARK    1  A    between atoms: C5_5  and  N1_6 
REMARK    2  A    between atoms: N2_9  and  C8_10 
REMARK    3  A    between atoms: C8_10  and  C9_11 
REMARK    4  A    between atoms: C9_11  and  C10_12 
REMARK    5  A    between atoms: C10_12  and  N3_13 
REMARK    6  A    between atoms: C11_14  and  O1_15 
REMARK    7  A    between atoms: C14_19  and  O2_20 
ROOT
HETATM    1  N3  UNL     1      -9.068  -0.716  -0.661  1.00  0.00    -0.307 N 
HETATM    2  C11 UNL     1      -8.930  -1.313   0.534  1.00  0.00     0.152 A 
HETATM    3  C12 UNL     1     -10.190  -1.488   1.115  1.00  0.00     0.018 A 
HETATM    4  C13 UNL     1     -11.085  -0.994   0.264  1.00  0.00     0.018 A 
HETATM    5  C14 UNL     1     -10.378  -0.506  -0.858  1.00  0.00     0.152 A 
HETATM    6  C15 UNL     1     -12.511  -1.068   0.653  1.00  0.00     0.086 C 
HETATM    7  C16 UNL     1     -13.195  -2.290   0.096  1.00  0.00     0.020 C 
HETATM    8  C17 UNL     1     -13.025  -3.509   0.982  1.00  0.00     0.002 C 
HETATM    9  C18 UNL     1     -11.592  -3.971   1.013  1.00  0.00     0.002 C 
HETATM   10  C19 UNL     1     -10.853  -3.527   2.229  1.00  0.00     0.020 C 
HETATM   11  C20 UNL     1     -10.697  -2.055   2.379  1.00  0.00     0.086 C 
HETATM   12  S1  UNL     1     -12.368  -1.293   2.445  1.00  0.00    -0.150 SA
ENDROOT
BRANCH   1  13
HETATM   13  C10 UNL     1      -8.041  -0.345  -1.604  1.00  0.00     0.135 C 
BRANCH  13  14
HETATM   14  C9  UNL     1      -7.924  -1.306  -2.760  1.00  0.00     0.040 C 
BRANCH  14  15
HETATM   15  C8  UNL     1      -7.172  -2.521  -2.287  1.00  0.00     0.123 C 
BRANCH  15  16
HETATM   16  N2  UNL     1      -7.354  -3.695  -3.054  1.00  0.00    -0.390 N 
HETATM   17  C7  UNL     1      -8.115  -4.720  -2.398  1.00  0.00     0.141 C 
HETATM   18  C6  UNL     1      -9.579  -4.698  -2.755  1.00  0.00     0.143 C 
HETATM   19  N1  UNL     1      -9.683  -4.710  -4.181  1.00  0.00    -0.369 N 
HETATM   20  C22 UNL     1      -8.928  -3.770  -4.944  1.00  0.00     0.167 C 
HETATM   21  C21 UNL     1      -7.517  -3.595  -4.442  1.00  0.00     0.078 C 
BRANCH  19  22
HETATM   22  C5  UNL     1     -10.549  -5.674  -4.816  1.00  0.00     0.072 A 
HETATM   23  C4  UNL     1     -10.447  -7.036  -4.825  1.00  0.00     0.038 A 
HETATM   24  C3  UNL     1     -11.392  -7.719  -5.497  1.00  0.00     0.017 A 
HETATM   25  C2  UNL     1     -12.371  -6.990  -6.112  1.00  0.00    -0.019 A 
HETATM   26  C1  UNL     1     -13.532  -7.521  -6.919  1.00  0.00     0.056 C 
HETATM   27  S2  UNL     1     -11.948  -5.382  -5.736  1.00  0.00    -0.078 SA
ENDBRANCH  19  22
ENDBRANCH  15  16
ENDBRANCH  14  15
ENDBRANCH  13  14
ENDBRANCH   1  13
BRANCH   2  28
HETATM   28  O1  UNL     1      -7.683  -1.665   1.030  1.00  0.00    -0.345 OA
ATOM     29  H1  UNL     1      -7.553  -2.463   1.529  1.00  0.00     0.219 HD
ENDBRANCH   2  28
BRANCH   5  30
HETATM   30  O2  UNL     1     -10.921   0.095  -1.987  1.00  0.00    -0.345 OA
ATOM     31  H2  UNL     1     -11.285   0.973  -2.011  1.00  0.00     0.219 HD
ENDBRANCH   5  30
TORSDOF 7
ENDMDL
MODEL 5
REMARK VINA RESULT: -6.482526216      3.339      4.911
REMARK  7 active torsions:
REMARK  status: ('A' for Active; 'I' for Inactive)
REMARK    1  A    between atoms: C5_5  and  N1_6 
REMARK    2  A    between atoms: N2_9  and  C8_10 
REMARK    3  A    between atoms: C8_10  and  C9_11 
REMARK    4  A    between atoms: C9_11  and  C10_12 
REMARK    5  A    between atoms: C10_12  and  N3_13 
REMARK    6  A    between atoms: C11_14  and  O1_15 
REMARK    7  A    between atoms: C14_19  and  O2_20 
ROOT
HETATM    1  N3  UNL     1      -5.951  -3.186   0.188  1.00  0.00    -0.307 N 
HETATM    2  C11 UNL     1      -5.448  -1.942   0.123  1.00  0.00     0.152 A 
HETATM    3  C12 UNL     1      -4.161  -1.932   0.672  1.00  0.00     0.018 A 
HETATM    4  C13 UNL     1      -3.894  -3.174   1.065  1.00  0.00     0.018 A 
HETATM    5  C14 UNL     1      -5.024  -3.968   0.761  1.00  0.00     0.152 A 
HETATM    6  C15 UNL     1      -2.572  -3.427   1.680  1.00  0.00     0.086 C 
HETATM    7  C16 UNL     1      -1.557  -3.915   0.679  1.00  0.00     0.020 C 
HETATM    8  C17 UNL     1      -0.859  -2.780  -0.044  1.00  0.00     0.002 C 
HETATM    9  C18 UNL     1      -1.809  -2.031  -0.940  1.00  0.00     0.002 C 
HETATM   10  C19 UNL     1      -2.308  -0.760  -0.343  1.00  0.00     0.020 C 
HETATM   11  C20 UNL     1      -3.120  -0.912   0.894  1.00  0.00     0.086 C 
HETATM   12  S1  UNL     1      -2.094  -1.749   2.169  1.00  0.00    -0.150 SA
ENDROOT
BRANCH   1  13
HETATM   13  C10 UNL     1      -7.240  -3.658  -0.259  1.00  0.00     0.135 C 
BRANCH  13  14
HETATM   14  C9  UNL     1      -7.186  -4.343  -1.601  1.00  0.00     0.040 C 
BRANCH  14  15
HETATM   15  C8  UNL     1      -7.363  -3.297  -2.670  1.00  0.00     0.123 C 
BRANCH  15  16
HETATM   16  N2  UNL     1      -8.533  -3.413  -3.456  1.00  0.00    -0.390 N 
HETATM   17  C7  UNL     1      -8.317  -3.967  -4.763  1.00  0.00     0.141 C 
HETATM   18  C6  UNL     1      -8.565  -5.452  -4.829  1.00  0.00     0.143 C 
HETATM   19  N1  UNL     1      -9.866  -5.704  -4.291  1.00  0.00    -0.369 N 
HETATM   20  C22 UNL     1     -10.214  -5.156  -3.021  1.00  0.00     0.167 C 
HETATM   21  C21 UNL     1      -9.750  -3.733  -2.841  1.00  0.00     0.078 C 
BRANCH  19  22
HETATM   22  C5  UNL     1     -10.798  -6.506  -5.047  1.00  0.00     0.072 A 
HETATM   23  C4  UNL     1     -10.723  -7.832  -5.362  1.00  0.00     0.038 A 
HETATM   24  C3  UNL     1     -11.732  -8.351  -6.086  1.00  0.00     0.017 A 
HETATM   25  C2  UNL     1     -12.744  -7.506  -6.442  1.00  0.00    -0.019 A 
HETATM   26  C1  UNL     1     -13.977  -7.846  -7.246  1.00  0.00     0.056 C 
HETATM   27  S2  UNL     1     -12.263  -6.019  -5.760  1.00  0.00    -0.078 SA
ENDBRANCH  19  22
ENDBRANCH  15  16
ENDBRANCH  14  15
ENDBRANCH  13  14
ENDBRANCH   1  13
BRANCH   2  28
HETATM   28  O1  UNL     1      -6.172  -0.893  -0.425  1.00  0.00    -0.345 OA
ATOM     29  H1  UNL     1      -5.790  -0.306  -1.067  1.00  0.00     0.219 HD
ENDBRANCH   2  28
BRANCH   5  30
HETATM   30  O2  UNL     1      -5.177  -5.327   1.003  1.00  0.00    -0.345 OA
ATOM     31  H2  UNL     1      -4.462  -5.951   1.053  1.00  0.00     0.219 HD
ENDBRANCH   5  30
TORSDOF 7
ENDMDL
