MODEL 1
REMARK VINA RESULT: -7.802333385      0.000      0.000
REMARK  7 active torsions:
REMARK  status: ('A' for Active; 'I' for Inactive)
REMARK    1  A    between atoms: N1_1  and  C1_5 
REMARK    2  A    between atoms: C1_5  and  C2_6 
REMARK    3  A    between atoms: C4_10  and  C5_11 
REMARK    4  A    between atoms: C6_14  and  N4_15 
REMARK    5  A    between atoms: N4_15  and  C7_17 
REMARK    6  A    between atoms: C10_20  and  N5_21 
REMARK    7  A    between atoms: C12_25  and  C13_26 
ROOT
HETATM    1  C5  UNL     1      -6.940  -5.507   2.000  1.00  0.00     0.090 A 
HETATM    2  N3  UNL     1      -7.649  -4.828   1.054  1.00  0.00    -0.189 N 
ATOM      3  H3  UNL     1      -8.655  -4.982   0.992  1.00  0.00     0.184 HD
HETATM    4  C6  UNL     1      -7.067  -3.948   0.186  1.00  0.00     0.683 A 
HETATM    5  N6  UNL     1      -5.749  -3.716   0.233  1.00  0.00    -0.200 N 
ATOM      6  H6  UNL     1      -5.314  -3.060  -0.415  1.00  0.00     0.183 HD
HETATM    7  C19 UNL     1      -5.010  -4.360   1.146  1.00  0.00     0.132 A 
HETATM    8  C20 UNL     1      -5.611  -5.262   2.036  1.00  0.00     0.078 A 
HETATM    9 CL1  UNL     1      -4.593  -6.047   3.205  1.00  0.00    -0.080 Cl
ENDROOT
BRANCH   4  10
HETATM   10  N4  UNL     1      -7.837  -3.380  -0.677  1.00  0.00    -0.191 N 
ATOM     11  H4  UNL     1      -8.011  -2.379  -0.587  1.00  0.00     0.184 HD
BRANCH  10  12
HETATM   12  C7  UNL     1      -8.448  -4.072  -1.737  1.00  0.00     0.056 A 
HETATM   13  C8  UNL     1      -7.724  -4.758  -2.701  1.00  0.00     0.033 A 
HETATM   14  C9  UNL     1      -8.420  -5.380  -3.730  1.00  0.00     0.038 A 
HETATM   15  C10 UNL     1      -9.785  -5.335  -3.815  1.00  0.00     0.103 A 
HETATM   16  C11 UNL     1     -10.498  -4.638  -2.833  1.00  0.00     0.045 A 
HETATM   17  C12 UNL     1      -9.851  -4.013  -1.805  1.00  0.00    -0.024 A 
BRANCH  15  18
HETATM   18  N5  UNL     1     -10.487  -5.974  -4.864  1.00  0.00    -0.116 N 
HETATM   19  O1  UNL     1     -10.091  -7.031  -5.399  1.00  0.00    -0.532 OA
HETATM   20  O2  UNL     1     -11.669  -5.466  -5.370  1.00  0.00    -0.532 OA
ENDBRANCH  15  18
BRANCH  17  21
HETATM   21  C13 UNL     1     -10.555  -3.289  -0.709  1.00  0.00     0.021 C 
HETATM   22  C14 UNL     1     -10.937  -1.868  -1.117  1.00  0.00     0.009 C 
HETATM   23  C15 UNL     1     -12.415  -1.656  -1.204  1.00  0.00     0.001 C 
HETATM   24  C16 UNL     1     -12.990  -1.925   0.194  1.00  0.00     0.000 C 
HETATM   25  C17 UNL     1     -12.695  -3.339   0.566  1.00  0.00     0.001 C 
HETATM   26  C18 UNL     1     -11.837  -4.069  -0.411  1.00  0.00     0.009 C 
ENDBRANCH  17  21
ENDBRANCH  10  12
ENDBRANCH   4  10
BRANCH   1  27
HETATM   27  C4  UNL     1      -7.699  -6.414   2.874  1.00  0.00     0.051 A 
HETATM   28  C3  UNL     1      -7.629  -7.735   3.156  1.00  0.00     0.110 A 
HETATM   29  N2  UNL     1      -8.468  -8.237   4.018  1.00  0.00    -0.361 N 
HETATM   30  C2  UNL     1      -9.360  -7.468   4.596  1.00  0.00     0.077 A 
ATOM     31  H2  UNL     1      -8.432  -9.231   4.243  1.00  0.00     0.165 HD
HETATM   32  S1  UNL     1      -9.025  -5.952   3.910  1.00  0.00    -0.071 SA
BRANCH  30  33
HETATM   33  C1  UNL     1     -10.416  -7.798   5.603  1.00  0.00     0.294 C 
BRANCH  33  34
HETATM   34  N1  UNL     1     -11.160  -6.560   5.894  1.00  0.00    -0.074 N 
ATOM     35  H13 UNL     1     -11.155  -5.903   5.114  1.00  0.00     0.274 HD
ATOM     36  H12 UNL     1     -12.168  -6.706   5.940  1.00  0.00     0.274 HD
ATOM     37  H11 UNL     1     -10.776  -6.162   6.751  1.00  0.00     0.274 HD
ENDBRANCH  33  34
ENDBRANCH  30  33
ENDBRANCH   1  27
TORSDOF 7
ENDMDL
MODEL 2
REMARK VINA RESULT: -7.642944839      0.952      1.214
REMARK  7 active torsions:
REMARK  status: ('A' for Active; 'I' for Inactive)
REMARK    1  A    between atoms: N1_1  and  C1_5 
REMARK    2  A    between atoms: C1_5  and  C2_6 
REMARK    3  A    between atoms: C4_10  and  C5_11 
REMARK    4  A    between atoms: C6_14  and  N4_15 
REMARK    5  A    between atoms: N4_15  and  C7_17 
REMARK    6  A    between atoms: C10_20  and  N5_21 
REMARK    7  A    between atoms: C12_25  and  C13_26 
ROOT
HETATM    1  C5  UNL     1      -7.679  -5.423   2.451  1.00  0.00     0.090 A 
HETATM    2  N3  UNL     1      -8.138  -4.691   1.396  1.00  0.00    -0.189 N 
ATOM      3  H3  UNL     1      -9.129  -4.452   1.360  1.00  0.00     0.184 HD
HETATM    4  C6  UNL     1      -7.324  -4.265   0.384  1.00  0.00     0.683 A 
HETATM    5  N6  UNL     1      -6.017  -4.558   0.392  1.00  0.00    -0.200 N 
ATOM      6  H6  UNL     1      -5.410  -4.239  -0.363  1.00  0.00     0.183 HD
HETATM    7  C19 UNL     1      -5.520  -5.275   1.408  1.00  0.00     0.132 A 
HETATM    8  C20 UNL     1      -6.358  -5.710   2.445  1.00  0.00     0.078 A 
HETATM    9 CL1  UNL     1      -5.640  -6.621   3.739  1.00  0.00    -0.080 Cl
ENDROOT
BRANCH   4  10
HETATM   10  N4  UNL     1      -7.876  -3.596  -0.569  1.00  0.00    -0.191 N 
ATOM     11  H4  UNL     1      -7.863  -2.577  -0.517  1.00  0.00     0.184 HD
BRANCH  10  12
HETATM   12  C7  UNL     1      -8.494  -4.201  -1.677  1.00  0.00     0.056 A 
HETATM   13  C8  UNL     1      -7.784  -4.896  -2.644  1.00  0.00     0.033 A 
HETATM   14  C9  UNL     1      -8.482  -5.427  -3.721  1.00  0.00     0.038 A 
HETATM   15  C10 UNL     1      -9.837  -5.284  -3.851  1.00  0.00     0.103 A 
HETATM   16  C11 UNL     1     -10.536  -4.579  -2.864  1.00  0.00     0.045 A 
HETATM   17  C12 UNL     1      -9.886  -4.042  -1.789  1.00  0.00    -0.024 A 
BRANCH  15  18
HETATM   18  N5  UNL     1     -10.542  -5.830  -4.948  1.00  0.00    -0.116 N 
HETATM   19  O1  UNL     1     -11.594  -5.327  -5.396  1.00  0.00    -0.532 OA
HETATM   20  O2  UNL     1     -10.110  -6.969  -5.603  1.00  0.00    -0.532 OA
ENDBRANCH  15  18
BRANCH  17  21
HETATM   21  C13 UNL     1     -10.578  -3.315  -0.688  1.00  0.00     0.021 C 
HETATM   22  C14 UNL     1     -10.938  -1.886  -1.085  1.00  0.00     0.009 C 
HETATM   23  C15 UNL     1     -12.413  -1.650  -1.171  1.00  0.00     0.001 C 
HETATM   24  C16 UNL     1     -12.992  -1.920   0.225  1.00  0.00     0.000 C 
HETATM   25  C17 UNL     1     -12.719  -3.341   0.586  1.00  0.00     0.001 C 
HETATM   26  C18 UNL     1     -11.873  -4.077  -0.396  1.00  0.00     0.009 C 
ENDBRANCH  17  21
ENDBRANCH  10  12
ENDBRANCH   4  10
BRANCH   1  27
HETATM   27  C4  UNL     1      -8.666  -5.805   3.472  1.00  0.00     0.051 A 
HETATM   28  C3  UNL     1      -9.331  -6.947   3.765  1.00  0.00     0.110 A 
HETATM   29  N2  UNL     1     -10.148  -6.952   4.780  1.00  0.00    -0.361 N 
HETATM   30  C2  UNL     1     -10.316  -5.867   5.499  1.00  0.00     0.077 A 
ATOM     31  H2  UNL     1     -10.659  -7.803   5.017  1.00  0.00     0.165 HD
HETATM   32  S1  UNL     1      -9.283  -4.763   4.727  1.00  0.00    -0.071 SA
BRANCH  30  33
HETATM   33  C1  UNL     1     -11.182  -5.622   6.693  1.00  0.00     0.294 C 
BRANCH  33  34
HETATM   34  N1  UNL     1     -12.301  -4.764   6.267  1.00  0.00    -0.074 N 
ATOM     35  H13 UNL     1     -12.050  -3.776   6.227  1.00  0.00     0.274 HD
ATOM     36  H12 UNL     1     -12.537  -4.882   5.281  1.00  0.00     0.274 HD
ATOM     37  H11 UNL     1     -13.088  -4.949   6.889  1.00  0.00     0.274 HD
ENDBRANCH  33  34
ENDBRANCH  30  33
ENDBRANCH   1  27
TORSDOF 7
ENDMDL
MODEL 3
REMARK VINA RESULT: -7.549961074      4.072      6.668
REMARK  7 active torsions:
REMARK  status: ('A' for Active; 'I' for Inactive)
REMARK    1  A    between atoms: N1_1  and  C1_5 
REMARK    2  A    between atoms: C1_5  and  C2_6 
REMARK    3  A    between atoms: C4_10  and  C5_11 
REMARK    4  A    between atoms: C6_14  and  N4_15 
REMARK    5  A    between atoms: N4_15  and  C7_17 
REMARK    6  A    between atoms: C10_20  and  N5_21 
REMARK    7  A    between atoms: C12_25  and  C13_26 
ROOT
HETATM    1  C5  UNL     1      -6.617  -0.345  -1.747  1.00  0.00     0.090 A 
HETATM    2  N3  UNL     1      -7.437  -1.413  -1.530  1.00  0.00    -0.189 N 
ATOM      3  H3  UNL     1      -8.379  -1.394  -1.920  1.00  0.00     0.184 HD
HETATM    4  C6  UNL     1      -7.046  -2.509  -0.813  1.00  0.00     0.683 A 
HETATM    5  N6  UNL     1      -5.817  -2.574  -0.284  1.00  0.00    -0.200 N 
ATOM      6  H6  UNL     1      -5.526  -3.392   0.251  1.00  0.00     0.183 HD
HETATM    7  C19 UNL     1      -4.976  -1.549  -0.471  1.00  0.00     0.132 A 
HETATM    8  C20 UNL     1      -5.380  -0.426  -1.208  1.00  0.00     0.078 A 
HETATM    9 CL1  UNL     1      -4.230   0.859  -1.424  1.00  0.00    -0.080 Cl
ENDROOT
BRANCH   4  10
HETATM   10  N4  UNL     1      -7.914  -3.448  -0.659  1.00  0.00    -0.191 N 
ATOM     11  H4  UNL     1      -8.166  -3.725   0.290  1.00  0.00     0.184 HD
BRANCH  10  12
HETATM   12  C7  UNL     1      -8.532  -4.110  -1.734  1.00  0.00     0.056 A 
HETATM   13  C8  UNL     1      -7.814  -4.788  -2.708  1.00  0.00     0.033 A 
HETATM   14  C9  UNL     1      -8.514  -5.380  -3.752  1.00  0.00     0.038 A 
HETATM   15  C10 UNL     1      -9.878  -5.312  -3.842  1.00  0.00     0.103 A 
HETATM   16  C11 UNL     1     -10.584  -4.624  -2.849  1.00  0.00     0.045 A 
HETATM   17  C12 UNL     1      -9.932  -4.028  -1.806  1.00  0.00    -0.024 A 
BRANCH  15  18
HETATM   18  N5  UNL     1     -10.585  -5.921  -4.905  1.00  0.00    -0.116 N 
HETATM   19  O1  UNL     1     -10.197  -6.968  -5.465  1.00  0.00    -0.532 OA
HETATM   20  O2  UNL     1     -11.763  -5.391  -5.400  1.00  0.00    -0.532 OA
ENDBRANCH  15  18
BRANCH  17  21
HETATM   21  C13 UNL     1     -10.630  -3.314  -0.700  1.00  0.00     0.021 C 
HETATM   22  C14 UNL     1     -10.999  -1.884  -1.086  1.00  0.00     0.009 C 
HETATM   23  C15 UNL     1     -12.475  -1.657  -1.171  1.00  0.00     0.001 C 
HETATM   24  C16 UNL     1     -13.054  -1.942   0.223  1.00  0.00     0.000 C 
HETATM   25  C17 UNL     1     -12.771  -3.364   0.573  1.00  0.00     0.001 C 
HETATM   26  C18 UNL     1     -11.920  -4.087  -0.414  1.00  0.00     0.009 C 
ENDBRANCH  17  21
ENDBRANCH  10  12
ENDBRANCH   4  10
BRANCH   1  27
HETATM   27  C4  UNL     1      -7.167   0.760  -2.546  1.00  0.00     0.051 A 
HETATM   28  C3  UNL     1      -7.593   0.882  -3.825  1.00  0.00     0.110 A 
HETATM   29  N2  UNL     1      -8.053   2.036  -4.223  1.00  0.00    -0.361 N 
HETATM   30  C2  UNL     1      -8.098   3.051  -3.394  1.00  0.00     0.077 A 
ATOM     31  H2  UNL     1      -8.378   2.148  -5.183  1.00  0.00     0.165 HD
HETATM   32  S1  UNL     1      -7.465   2.379  -1.970  1.00  0.00    -0.071 SA
BRANCH  30  33
HETATM   33  C1  UNL     1      -8.574   4.453  -3.605  1.00  0.00     0.294 C 
BRANCH  33  34
HETATM   34  N1  UNL     1      -8.084   4.899  -4.920  1.00  0.00    -0.074 N 
ATOM     35  H13 UNL     1      -7.081   4.753  -5.040  1.00  0.00     0.274 HD
ATOM     36  H12 UNL     1      -8.399   4.302  -5.685  1.00  0.00     0.274 HD
ATOM     37  H11 UNL     1      -8.359   5.875  -5.039  1.00  0.00     0.274 HD
ENDBRANCH  33  34
ENDBRANCH  30  33
ENDBRANCH   1  27
TORSDOF 7
ENDMDL
MODEL 4
REMARK VINA RESULT: -7.536784198      0.880      1.204
REMARK  7 active torsions:
REMARK  status: ('A' for Active; 'I' for Inactive)
REMARK    1  A    between atoms: N1_1  and  C1_5 
REMARK    2  A    between atoms: C1_5  and  C2_6 
REMARK    3  A    between atoms: C4_10  and  C5_11 
REMARK    4  A    between atoms: C6_14  and  N4_15 
REMARK    5  A    between atoms: N4_15  and  C7_17 
REMARK    6  A    between atoms: C10_20  and  N5_21 
REMARK    7  A    between atoms: C12_25  and  C13_26 
ROOT
HETATM    1  C5  UNL     1      -6.937  -5.379   2.068  1.00  0.00     0.090 A 
HETATM    2  N3  UNL     1      -7.677  -4.727   1.126  1.00  0.00    -0.189 N 
ATOM      3  H3  UNL     1      -8.690  -4.842   1.134  1.00  0.00     0.184 HD
HETATM    4  C6  UNL     1      -7.116  -3.924   0.173  1.00  0.00     0.683 A 
HETATM    5  N6  UNL     1      -5.790  -3.746   0.128  1.00  0.00    -0.200 N 
ATOM      6  H6  UNL     1      -5.371  -3.147  -0.583  1.00  0.00     0.183 HD
HETATM    7  C19 UNL     1      -5.021  -4.367   1.032  1.00  0.00     0.132 A 
HETATM    8  C20 UNL     1      -5.600  -5.189   2.009  1.00  0.00     0.078 A 
HETATM    9 CL1  UNL     1      -4.542  -5.948   3.161  1.00  0.00    -0.080 Cl
ENDROOT
BRANCH   4  10
HETATM   10  N4  UNL     1      -7.915  -3.375  -0.674  1.00  0.00    -0.191 N 
ATOM     11  H4  UNL     1      -8.125  -2.382  -0.570  1.00  0.00     0.184 HD
BRANCH  10  12
HETATM   12  C7  UNL     1      -8.513  -4.076  -1.736  1.00  0.00     0.056 A 
HETATM   13  C8  UNL     1      -7.775  -4.759  -2.692  1.00  0.00     0.033 A 
HETATM   14  C9  UNL     1      -8.457  -5.391  -3.724  1.00  0.00     0.038 A 
HETATM   15  C10 UNL     1      -9.823  -5.359  -3.820  1.00  0.00     0.103 A 
HETATM   16  C11 UNL     1     -10.549  -4.665  -2.845  1.00  0.00     0.045 A 
HETATM   17  C12 UNL     1      -9.915  -4.030  -1.814  1.00  0.00    -0.024 A 
BRANCH  15  18
HETATM   18  N5  UNL     1     -10.511  -6.008  -4.871  1.00  0.00    -0.116 N 
HETATM   19  O1  UNL     1     -10.091  -7.053  -5.411  1.00  0.00    -0.532 OA
HETATM   20  O2  UNL     1     -11.704  -5.525  -5.374  1.00  0.00    -0.532 OA
ENDBRANCH  15  18
BRANCH  17  21
HETATM   21  C13 UNL     1     -10.634  -3.308  -0.727  1.00  0.00     0.021 C 
HETATM   22  C14 UNL     1     -10.998  -1.882  -1.131  1.00  0.00     0.009 C 
HETATM   23  C15 UNL     1     -12.473  -1.658  -1.244  1.00  0.00     0.001 C 
HETATM   24  C16 UNL     1     -13.076  -1.933   0.141  1.00  0.00     0.000 C 
HETATM   25  C17 UNL     1     -12.798  -3.351   0.508  1.00  0.00     0.001 C 
HETATM   26  C18 UNL     1     -11.927  -4.081  -0.458  1.00  0.00     0.009 C 
ENDBRANCH  17  21
ENDBRANCH  10  12
ENDBRANCH   4  10
BRANCH   1  27
HETATM   27  C4  UNL     1      -7.675  -6.202   3.038  1.00  0.00     0.051 A 
HETATM   28  C3  UNL     1      -8.676  -5.959   3.916  1.00  0.00     0.110 A 
HETATM   29  N2  UNL     1      -9.127  -6.946   4.639  1.00  0.00    -0.361 N 
HETATM   30  C2  UNL     1      -8.616  -8.147   4.510  1.00  0.00     0.077 A 
ATOM     31  H2  UNL     1      -9.880  -6.783   5.307  1.00  0.00     0.165 HD
HETATM   32  S1  UNL     1      -7.433  -7.907   3.317  1.00  0.00    -0.071 SA
BRANCH  30  33
HETATM   33  C1  UNL     1      -8.954  -9.424   5.212  1.00  0.00     0.294 C 
BRANCH  33  34
HETATM   34  N1  UNL     1      -8.954 -10.500   4.207  1.00  0.00    -0.074 N 
ATOM     35  H13 UNL     1      -9.576 -10.310   3.421  1.00  0.00     0.274 HD
ATOM     36  H12 UNL     1      -8.082 -10.549   3.679  1.00  0.00     0.274 HD
ATOM     37  H11 UNL     1      -9.176 -11.373   4.687  1.00  0.00     0.274 HD
ENDBRANCH  33  34
ENDBRANCH  30  33
ENDBRANCH   1  27
TORSDOF 7
ENDMDL
MODEL 5
REMARK VINA RESULT: -7.074177055      2.970      3.890
REMARK  7 active torsions:
REMARK  status: ('A' for Active; 'I' for Inactive)
REMARK    1  A    between atoms: N1_1  and  C1_5 
REMARK    2  A    between atoms: C1_5  and  C2_6 
REMARK    3  A    between atoms: C4_10  and  C5_11 
REMARK    4  A    between atoms: C6_14  and  N4_15 
REMARK    5  A    between atoms: N4_15  and  C7_17 
REMARK    6  A    between atoms: C10_20  and  N5_21 
REMARK    7  A    between atoms: C12_25  and  C13_26 
ROOT
HETATM    1  C5  UNL     1      -7.132  -5.254   2.594  1.00  0.00     0.090 A 
HETATM    2  N3  UNL     1      -7.357  -5.049   1.265  1.00  0.00    -0.189 N 
ATOM      3  H3  UNL     1      -8.316  -5.082   0.920  1.00  0.00     0.184 HD
HETATM    4  C6  UNL     1      -6.350  -4.800   0.376  1.00  0.00     0.683 A 
HETATM    5  N6  UNL     1      -5.076  -4.748   0.787  1.00  0.00    -0.200 N 
ATOM      6  H6  UNL     1      -4.324  -4.562   0.123  1.00  0.00     0.183 HD
HETATM    7  C19 UNL     1      -4.805  -4.943   2.084  1.00  0.00     0.132 A 
HETATM    8  C20 UNL     1      -5.842  -5.198   2.994  1.00  0.00     0.078 A 
HETATM    9 CL1  UNL     1      -5.417  -5.425   4.664  1.00  0.00    -0.080 Cl
ENDROOT
BRANCH   4  10
HETATM   10  N4  UNL     1      -6.683  -4.640  -0.858  1.00  0.00    -0.191 N 
ATOM     11  H4  UNL     1      -6.712  -5.461  -1.463  1.00  0.00     0.184 HD
BRANCH  10  12
HETATM   12  C7  UNL     1      -7.011  -3.390  -1.412  1.00  0.00     0.056 A 
HETATM   13  C8  UNL     1      -6.359  -2.219  -1.055  1.00  0.00     0.033 A 
HETATM   14  C9  UNL     1      -6.780  -1.028  -1.632  1.00  0.00     0.038 A 
HETATM   15  C10 UNL     1      -7.809  -0.981  -2.534  1.00  0.00     0.103 A 
HETATM   16  C11 UNL     1      -8.453  -2.174  -2.882  1.00  0.00     0.045 A 
HETATM   17  C12 UNL     1      -8.069  -3.366  -2.336  1.00  0.00    -0.024 A 
BRANCH  15  18
HETATM   18  N5  UNL     1      -8.230   0.235  -3.121  1.00  0.00    -0.116 N 
HETATM   19  O1  UNL     1      -7.444   1.019  -3.694  1.00  0.00    -0.532 OA
HETATM   20  O2  UNL     1      -9.552   0.640  -3.099  1.00  0.00    -0.532 OA
ENDBRANCH  15  18
BRANCH  17  21
HETATM   21  C13 UNL     1      -8.690  -4.673  -2.694  1.00  0.00     0.021 C 
HETATM   22  C14 UNL     1     -10.208  -4.643  -2.544  1.00  0.00     0.009 C 
HETATM   23  C15 UNL     1     -10.934  -4.783  -3.844  1.00  0.00     0.001 C 
HETATM   24  C16 UNL     1     -10.536  -6.143  -4.436  1.00  0.00     0.000 C 
HETATM   25  C17 UNL     1      -9.063  -6.149  -4.666  1.00  0.00     0.001 C 
HETATM   26  C18 UNL     1      -8.353  -4.938  -4.163  1.00  0.00     0.009 C 
ENDBRANCH  17  21
ENDBRANCH  10  12
ENDBRANCH   4  10
BRANCH   1  27
HETATM   27  C4  UNL     1      -8.313  -5.501   3.436  1.00  0.00     0.051 A 
HETATM   28  C3  UNL     1      -9.164  -6.542   3.590  1.00  0.00     0.110 A 
HETATM   29  N2  UNL     1     -10.126  -6.438   4.463  1.00  0.00    -0.361 N 
HETATM   30  C2  UNL     1     -10.259  -5.344   5.174  1.00  0.00     0.077 A 
ATOM     31  H2  UNL     1     -10.779  -7.211   4.593  1.00  0.00     0.165 HD
HETATM   32  S1  UNL     1      -8.976  -4.389   4.605  1.00  0.00    -0.071 SA
BRANCH  30  33
HETATM   33  C1  UNL     1     -11.264  -4.986   6.222  1.00  0.00     0.294 C 
BRANCH  33  34
HETATM   34  N1  UNL     1     -12.375  -4.284   5.557  1.00  0.00    -0.074 N 
ATOM     35  H13 UNL     1     -12.577  -4.653   4.628  1.00  0.00     0.274 HD
ATOM     36  H12 UNL     1     -13.281  -4.486   5.981  1.00  0.00     0.274 HD
ATOM     37  H11 UNL     1     -12.152  -3.288   5.550  1.00  0.00     0.274 HD
ENDBRANCH  33  34
ENDBRANCH  30  33
ENDBRANCH   1  27
TORSDOF 7
ENDMDL
