MODEL 1
REMARK VINA RESULT: -6.690072518      0.000      0.000
REMARK  14 active torsions:
REMARK  status: ('A' for Active; 'I' for Inactive)
REMARK    1  A    between atoms: N1_7  and  C5_8 
REMARK    2  A    between atoms: C5_8  and  C6_9 
REMARK    3  A    between atoms: C6_9  and  O2_10 
REMARK    4  A    between atoms: O2_10  and  C7_11 
REMARK    5  A    between atoms: C7_11  and  O3_12 
REMARK    6  A    between atoms: C7_11  and  C8_14 
REMARK    7  A    between atoms: C10_16  and  N2_17 
REMARK    8  A    between atoms: N2_17  and  C11_19 
REMARK    9  A    between atoms: C11_19  and  O4_20 
REMARK   10  A    between atoms: C11_19  and  N3_22 
REMARK   11  A    between atoms: N3_22  and  C12_24 
REMARK   12  A    between atoms: C12_24  and  O5_25 
REMARK   13  A    between atoms: C12_24  and  O6_27 
REMARK   14  A    between atoms: O6_27  and  C13_28 
ROOT
HETATM    1  C8  UNL     1      -7.860  -1.709  -2.430  1.00  0.00     0.046 A 
HETATM    2  C9  UNL     1      -8.334  -2.777  -3.147  1.00  0.00     0.047 A 
HETATM    3  C10 UNL     1      -7.924  -4.038  -2.884  1.00  0.00     0.036 A 
HETATM    4  C16 UNL     1      -6.983  -4.267  -1.844  1.00  0.00     0.031 A 
HETATM    5  C17 UNL     1      -6.478  -3.229  -1.098  1.00  0.00     0.027 A 
HETATM    6  C18 UNL     1      -6.916  -1.963  -1.394  1.00  0.00     0.049 A 
HETATM    7 CL1  UNL     1      -6.291  -0.603  -0.482  1.00  0.00    -0.083 Cl
ENDROOT
BRANCH   3   8
HETATM    8  N2  UNL     1      -8.247  -5.270  -3.533  1.00  0.00    -0.322 N 
ATOM      9  H2  UNL     1      -7.531  -5.946  -3.799  1.00  0.00     0.169 HD
BRANCH   8  10
HETATM   10  C11 UNL     1      -9.627  -5.495  -3.786  1.00  0.00     0.225 C 
BRANCH  10  11
HETATM   11  O4  UNL     1     -10.349  -5.399  -2.685  1.00  0.00    -0.332 OA
ATOM     12  H4  UNL     1     -10.368  -4.510  -2.352  1.00  0.00     0.221 HD
ENDBRANCH  10  11
BRANCH  10  13
HETATM   13  N3  UNL     1     -10.277  -5.795  -4.950  1.00  0.00    -0.282 N 
ATOM     14  H3  UNL     1      -9.760  -6.462  -5.522  1.00  0.00     0.173 HD
BRANCH  13  15
HETATM   15  C12 UNL     1     -11.471  -5.410  -5.544  1.00  0.00     0.268 C 
BRANCH  15  16
HETATM   16  O5  UNL     1     -11.991  -4.253  -5.164  1.00  0.00    -0.327 OA
ATOM     17  H5  UNL     1     -12.911  -4.247  -4.925  1.00  0.00     0.221 HD
ENDBRANCH  15  16
BRANCH  15  18
HETATM   18  O6  UNL     1     -12.259  -6.028  -6.485  1.00  0.00    -0.275 OA
BRANCH  18  19
HETATM   19  C13 UNL     1     -12.735  -7.380  -6.193  1.00  0.00     0.206 C 
HETATM   20  C14 UNL     1     -14.085  -7.556  -6.803  1.00  0.00     0.084 C 
HETATM   21  C15 UNL     1     -11.768  -8.362  -6.873  1.00  0.00     0.084 C 
HETATM   22  F1  UNL     1     -12.716  -7.593  -4.851  1.00  0.00    -0.212 F 
ENDBRANCH  18  19
ENDBRANCH  15  18
ENDBRANCH  13  15
ENDBRANCH  10  13
ENDBRANCH   8  10
ENDBRANCH   3   8
BRANCH   1  23
HETATM   23  C7  UNL     1      -8.181  -0.327  -2.562  1.00  0.00     0.190 C 
BRANCH  23  24
HETATM   24  O2  UNL     1      -9.239   0.391  -2.035  1.00  0.00    -0.328 OA
BRANCH  24  25
HETATM   25  C6  UNL     1      -9.998  -0.113  -0.980  1.00  0.00     0.198 C 
BRANCH  25  26
HETATM   26  C5  UNL     1     -11.453  -0.245  -1.184  1.00  0.00     0.159 C 
BRANCH  26  27
HETATM   27  N1  UNL     1     -11.918  -1.459  -0.390  1.00  0.00    -0.310 N 
HETATM   28  C2  UNL     1     -12.278  -1.424   0.866  1.00  0.00     0.018 A 
HETATM   29  C1  UNL     1     -12.309  -0.171   1.740  1.00  0.00     0.069 C 
HETATM   30  C3  UNL     1     -12.687  -2.603   1.439  1.00  0.00     0.080 A 
HETATM   31  S1  UNL     1     -12.533  -3.711   0.152  1.00  0.00    -0.039 SA
HETATM   32  C4  UNL     1     -11.967  -2.632  -1.035  1.00  0.00     0.290 A 
HETATM   33  O1  UNL     1     -11.655  -2.868  -2.269  1.00  0.00    -0.260 OA
ENDBRANCH  26  27
ENDBRANCH  25  26
ENDBRANCH  24  25
ENDBRANCH  23  24
BRANCH  23  34
HETATM   34  O3  UNL     1      -7.350   0.410  -3.270  1.00  0.00    -0.340 OA
ATOM     35  H3  UNL     1      -7.335   0.181  -4.192  1.00  0.00     0.220 HD
ENDBRANCH  23  34
ENDBRANCH   1  23
TORSDOF 14
ENDMDL
MODEL 2
REMARK VINA RESULT: -6.565332308      1.381      1.655
REMARK  14 active torsions:
REMARK  status: ('A' for Active; 'I' for Inactive)
REMARK    1  A    between atoms: N1_7  and  C5_8 
REMARK    2  A    between atoms: C5_8  and  C6_9 
REMARK    3  A    between atoms: C6_9  and  O2_10 
REMARK    4  A    between atoms: O2_10  and  C7_11 
REMARK    5  A    between atoms: C7_11  and  O3_12 
REMARK    6  A    between atoms: C7_11  and  C8_14 
REMARK    7  A    between atoms: C10_16  and  N2_17 
REMARK    8  A    between atoms: N2_17  and  C11_19 
REMARK    9  A    between atoms: C11_19  and  O4_20 
REMARK   10  A    between atoms: C11_19  and  N3_22 
REMARK   11  A    between atoms: N3_22  and  C12_24 
REMARK   12  A    between atoms: C12_24  and  O5_25 
REMARK   13  A    between atoms: C12_24  and  O6_27 
REMARK   14  A    between atoms: O6_27  and  C13_28 
ROOT
HETATM    1  C8  UNL     1      -8.193  -2.194  -2.496  1.00  0.00     0.046 A 
HETATM    2  C9  UNL     1      -8.551  -3.320  -3.189  1.00  0.00     0.047 A 
HETATM    3  C10 UNL     1      -8.084  -4.540  -2.837  1.00  0.00     0.036 A 
HETATM    4  C16 UNL     1      -7.204  -4.661  -1.729  1.00  0.00     0.031 A 
HETATM    5  C17 UNL     1      -6.816  -3.561  -1.003  1.00  0.00     0.027 A 
HETATM    6  C18 UNL     1      -7.308  -2.340  -1.389  1.00  0.00     0.049 A 
HETATM    7 CL1  UNL     1      -6.830  -0.903  -0.506  1.00  0.00    -0.083 Cl
ENDROOT
BRANCH   3   8
HETATM    8  N2  UNL     1      -8.287  -5.818  -3.446  1.00  0.00    -0.322 N 
ATOM      9  H2  UNL     1      -7.793  -6.652  -3.129  1.00  0.00     0.169 HD
BRANCH   8  10
HETATM   10  C11 UNL     1      -9.220  -5.855  -4.517  1.00  0.00     0.225 C 
BRANCH  10  11
HETATM   11  O4  UNL     1      -8.623  -6.036  -5.680  1.00  0.00    -0.332 OA
ATOM     12  H4  UNL     1      -9.171  -6.520  -6.287  1.00  0.00     0.221 HD
ENDBRANCH  10  11
BRANCH  10  13
HETATM   13  N3  UNL     1     -10.580  -5.723  -4.513  1.00  0.00    -0.282 N 
ATOM     14  H3  UNL     1     -10.989  -5.960  -3.609  1.00  0.00     0.173 HD
BRANCH  13  15
HETATM   15  C12 UNL     1     -11.540  -5.344  -5.440  1.00  0.00     0.268 C 
BRANCH  15  16
HETATM   16  O5  UNL     1     -11.982  -4.096  -5.381  1.00  0.00    -0.327 OA
ATOM     17  H5  UNL     1     -12.576  -3.813  -6.066  1.00  0.00     0.221 HD
ENDBRANCH  15  16
BRANCH  15  18
HETATM   18  O6  UNL     1     -12.157  -6.045  -6.448  1.00  0.00    -0.275 OA
BRANCH  18  19
HETATM   19  C13 UNL     1     -12.624  -7.399  -6.150  1.00  0.00     0.206 C 
HETATM   20  C14 UNL     1     -13.912  -7.632  -6.865  1.00  0.00     0.084 C 
HETATM   21  C15 UNL     1     -11.579  -8.377  -6.710  1.00  0.00     0.084 C 
HETATM   22  F1  UNL     1     -12.714  -7.566  -4.804  1.00  0.00    -0.212 F 
ENDBRANCH  18  19
ENDBRANCH  15  18
ENDBRANCH  13  15
ENDBRANCH  10  13
ENDBRANCH   8  10
ENDBRANCH   3   8
BRANCH   1  23
HETATM   23  C7  UNL     1      -8.587  -0.842  -2.716  1.00  0.00     0.190 C 
BRANCH  23  24
HETATM   24  O2  UNL     1      -9.668  -0.141  -2.212  1.00  0.00    -0.328 OA
BRANCH  24  25
HETATM   25  C6  UNL     1     -10.683  -0.789  -1.508  1.00  0.00     0.198 C 
BRANCH  25  26
HETATM   26  C5  UNL     1     -10.546  -0.887  -0.043  1.00  0.00     0.159 C 
BRANCH  26  27
HETATM   27  N1  UNL     1     -11.710  -1.725   0.470  1.00  0.00    -0.310 N 
HETATM   28  C2  UNL     1     -11.754  -3.031   0.426  1.00  0.00     0.018 A 
HETATM   29  C1  UNL     1     -10.651  -3.932  -0.127  1.00  0.00     0.069 C 
HETATM   30  C3  UNL     1     -12.869  -3.643   0.943  1.00  0.00     0.080 A 
HETATM   31  S1  UNL     1     -13.808  -2.319   1.465  1.00  0.00    -0.039 SA
HETATM   32  C4  UNL     1     -12.747  -1.070   1.009  1.00  0.00     0.290 A 
HETATM   33  O1  UNL     1     -12.888   0.210   1.143  1.00  0.00    -0.260 OA
ENDBRANCH  26  27
ENDBRANCH  25  26
ENDBRANCH  24  25
ENDBRANCH  23  24
BRANCH  23  34
HETATM   34  O3  UNL     1      -7.813  -0.118  -3.497  1.00  0.00    -0.340 OA
ATOM     35  H3  UNL     1      -6.896  -0.148  -3.250  1.00  0.00     0.220 HD
ENDBRANCH  23  34
ENDBRANCH   1  23
TORSDOF 14
ENDMDL
MODEL 3
REMARK VINA RESULT: -6.526279514      2.240      3.372
REMARK  14 active torsions:
REMARK  status: ('A' for Active; 'I' for Inactive)
REMARK    1  A    between atoms: N1_7  and  C5_8 
REMARK    2  A    between atoms: C5_8  and  C6_9 
REMARK    3  A    between atoms: C6_9  and  O2_10 
REMARK    4  A    between atoms: O2_10  and  C7_11 
REMARK    5  A    between atoms: C7_11  and  O3_12 
REMARK    6  A    between atoms: C7_11  and  C8_14 
REMARK    7  A    between atoms: C10_16  and  N2_17 
REMARK    8  A    between atoms: N2_17  and  C11_19 
REMARK    9  A    between atoms: C11_19  and  O4_20 
REMARK   10  A    between atoms: C11_19  and  N3_22 
REMARK   11  A    between atoms: N3_22  and  C12_24 
REMARK   12  A    between atoms: C12_24  and  O5_25 
REMARK   13  A    between atoms: C12_24  and  O6_27 
REMARK   14  A    between atoms: O6_27  and  C13_28 
ROOT
HETATM    1  C8  UNL     1      -9.582  -3.701  -0.654  1.00  0.00     0.046 A 
HETATM    2  C9  UNL     1      -9.689  -3.811  -2.016  1.00  0.00     0.047 A 
HETATM    3  C10 UNL     1      -8.655  -4.249  -2.769  1.00  0.00     0.036 A 
HETATM    4  C16 UNL     1      -7.431  -4.603  -2.142  1.00  0.00     0.031 A 
HETATM    5  C17 UNL     1      -7.274  -4.509  -0.780  1.00  0.00     0.027 A 
HETATM    6  C18 UNL     1      -8.344  -4.059  -0.048  1.00  0.00     0.049 A 
HETATM    7 CL1  UNL     1      -8.190  -3.906   1.692  1.00  0.00    -0.083 Cl
ENDROOT
BRANCH   3   8
HETATM    8  N2  UNL     1      -8.539  -4.389  -4.187  1.00  0.00    -0.322 N 
ATOM      9  H2  UNL     1      -7.908  -3.807  -4.739  1.00  0.00     0.169 HD
BRANCH   8  10
HETATM   10  C11 UNL     1      -9.356  -5.388  -4.782  1.00  0.00     0.225 C 
BRANCH  10  11
HETATM   11  O4  UNL     1      -8.636  -6.326  -5.367  1.00  0.00    -0.332 OA
ATOM     12  H4  UNL     1      -8.453  -6.115  -6.275  1.00  0.00     0.221 HD
ENDBRANCH  10  11
BRANCH  10  13
HETATM   13  N3  UNL     1     -10.718  -5.500  -4.840  1.00  0.00    -0.282 N 
ATOM     14  H3  UNL     1     -11.114  -5.852  -3.969  1.00  0.00     0.173 HD
BRANCH  13  15
HETATM   15  C12 UNL     1     -11.690  -5.251  -5.797  1.00  0.00     0.268 C 
BRANCH  15  16
HETATM   16  O5  UNL     1     -12.139  -4.008  -5.896  1.00  0.00    -0.327 OA
ATOM     17  H5  UNL     1     -11.491  -3.315  -5.947  1.00  0.00     0.221 HD
ENDBRANCH  15  16
BRANCH  15  18
HETATM   18  O6  UNL     1     -12.315  -6.081  -6.697  1.00  0.00    -0.275 OA
BRANCH  18  19
HETATM   19  C13 UNL     1     -12.708  -7.412  -6.236  1.00  0.00     0.206 C 
HETATM   20  C14 UNL     1     -14.027  -7.760  -6.840  1.00  0.00     0.084 C 
HETATM   21  C15 UNL     1     -11.661  -8.406  -6.763  1.00  0.00     0.084 C 
HETATM   22  F1  UNL     1     -12.709  -7.446  -4.878  1.00  0.00    -0.212 F 
ENDBRANCH  18  19
ENDBRANCH  15  18
ENDBRANCH  13  15
ENDBRANCH  10  13
ENDBRANCH   8  10
ENDBRANCH   3   8
BRANCH   1  23
HETATM   23  C7  UNL     1     -10.558  -3.269   0.291  1.00  0.00     0.190 C 
BRANCH  23  24
HETATM   24  O2  UNL     1     -10.932  -1.988   0.654  1.00  0.00    -0.328 OA
BRANCH  24  25
HETATM   25  C6  UNL     1     -10.030  -1.119   1.267  1.00  0.00     0.198 C 
BRANCH  25  26
HETATM   26  C5  UNL     1      -9.737   0.156   0.585  1.00  0.00     0.159 C 
BRANCH  26  27
HETATM   27  N1  UNL     1      -8.843  -0.159  -0.609  1.00  0.00    -0.310 N 
HETATM   28  C2  UNL     1      -7.583  -0.493  -0.518  1.00  0.00     0.018 A 
HETATM   29  C1  UNL     1      -6.801  -0.637   0.786  1.00  0.00     0.069 C 
HETATM   30  C3  UNL     1      -6.914  -0.761  -1.687  1.00  0.00     0.080 A 
HETATM   31  S1  UNL     1      -8.123  -0.518  -2.866  1.00  0.00    -0.039 SA
HETATM   32  C4  UNL     1      -9.400  -0.097  -1.825  1.00  0.00     0.290 A 
HETATM   33  O1  UNL     1     -10.623   0.210  -2.119  1.00  0.00    -0.260 OA
ENDBRANCH  26  27
ENDBRANCH  25  26
ENDBRANCH  24  25
ENDBRANCH  23  24
BRANCH  23  34
HETATM   34  O3  UNL     1     -11.238  -4.209   0.913  1.00  0.00    -0.340 OA
ATOM     35  H3  UNL     1     -12.068  -3.905   1.261  1.00  0.00     0.220 HD
ENDBRANCH  23  34
ENDBRANCH   1  23
TORSDOF 14
ENDMDL
MODEL 4
REMARK VINA RESULT: -6.512950173      1.687      2.062
REMARK  14 active torsions:
REMARK  status: ('A' for Active; 'I' for Inactive)
REMARK    1  A    between atoms: N1_7  and  C5_8 
REMARK    2  A    between atoms: C5_8  and  C6_9 
REMARK    3  A    between atoms: C6_9  and  O2_10 
REMARK    4  A    between atoms: O2_10  and  C7_11 
REMARK    5  A    between atoms: C7_11  and  O3_12 
REMARK    6  A    between atoms: C7_11  and  C8_14 
REMARK    7  A    between atoms: C10_16  and  N2_17 
REMARK    8  A    between atoms: N2_17  and  C11_19 
REMARK    9  A    between atoms: C11_19  and  O4_20 
REMARK   10  A    between atoms: C11_19  and  N3_22 
REMARK   11  A    between atoms: N3_22  and  C12_24 
REMARK   12  A    between atoms: C12_24  and  O5_25 
REMARK   13  A    between atoms: C12_24  and  O6_27 
REMARK   14  A    between atoms: O6_27  and  C13_28 
ROOT
HETATM    1  C8  UNL     1      -8.292  -2.252  -2.485  1.00  0.00     0.046 A 
HETATM    2  C9  UNL     1      -8.772  -3.372  -3.111  1.00  0.00     0.047 A 
HETATM    3  C10 UNL     1      -8.232  -4.590  -2.884  1.00  0.00     0.036 A 
HETATM    4  C16 UNL     1      -7.143  -4.718  -1.980  1.00  0.00     0.031 A 
HETATM    5  C17 UNL     1      -6.626  -3.624  -1.328  1.00  0.00     0.027 A 
HETATM    6  C18 UNL     1      -7.199  -2.404  -1.584  1.00  0.00     0.049 A 
HETATM    7 CL1  UNL     1      -6.565  -0.975  -0.790  1.00  0.00    -0.083 Cl
ENDROOT
BRANCH   3   8
HETATM    8  N2  UNL     1      -8.542  -5.861  -3.461  1.00  0.00    -0.322 N 
ATOM      9  H2  UNL     1      -8.152  -6.731  -3.097  1.00  0.00     0.169 HD
BRANCH   8  10
HETATM   10  C11 UNL     1      -9.427  -5.839  -4.573  1.00  0.00     0.225 C 
BRANCH  10  11
HETATM   11  O4  UNL     1      -8.816  -6.174  -5.693  1.00  0.00    -0.332 OA
ATOM     12  H4  UNL     1      -8.827  -5.466  -6.326  1.00  0.00     0.221 HD
ENDBRANCH  10  11
BRANCH  10  13
HETATM   13  N3  UNL     1     -10.756  -5.523  -4.641  1.00  0.00    -0.282 N 
ATOM     14  H3  UNL     1     -11.190  -5.477  -3.720  1.00  0.00     0.173 HD
BRANCH  13  15
HETATM   15  C12 UNL     1     -11.656  -5.250  -5.661  1.00  0.00     0.268 C 
BRANCH  15  16
HETATM   16  O5  UNL     1     -12.075  -3.999  -5.780  1.00  0.00    -0.327 OA
ATOM     17  H5  UNL     1     -12.704  -3.688  -5.138  1.00  0.00     0.221 HD
ENDBRANCH  15  16
BRANCH  15  18
HETATM   18  O6  UNL     1     -12.230  -6.062  -6.609  1.00  0.00    -0.275 OA
BRANCH  18  19
HETATM   19  C13 UNL     1     -12.627  -7.409  -6.201  1.00  0.00     0.206 C 
HETATM   20  C14 UNL     1     -13.915  -7.754  -6.870  1.00  0.00     0.084 C 
HETATM   21  C15 UNL     1     -11.547  -8.378  -6.709  1.00  0.00     0.084 C 
HETATM   22  F1  UNL     1     -12.686  -7.480  -4.845  1.00  0.00    -0.212 F 
ENDBRANCH  18  19
ENDBRANCH  15  18
ENDBRANCH  13  15
ENDBRANCH  10  13
ENDBRANCH   8  10
ENDBRANCH   3   8
BRANCH   1  23
HETATM   23  C7  UNL     1      -8.736  -0.902  -2.595  1.00  0.00     0.190 C 
BRANCH  23  24
HETATM   24  O2  UNL     1      -9.708  -0.228  -1.879  1.00  0.00    -0.328 OA
BRANCH  24  25
HETATM   25  C6  UNL     1     -10.917  -0.841  -1.550  1.00  0.00     0.198 C 
BRANCH  25  26
HETATM   26  C5  UNL     1     -11.294  -0.888  -0.125  1.00  0.00     0.159 C 
BRANCH  26  27
HETATM   27  N1  UNL     1     -10.344  -1.858   0.568  1.00  0.00    -0.310 N 
HETATM   28  C2  UNL     1     -10.388  -3.157   0.432  1.00  0.00     0.018 A 
HETATM   29  C1  UNL     1     -11.379  -3.918  -0.446  1.00  0.00     0.069 C 
HETATM   30  C3  UNL     1      -9.451  -3.895   1.112  1.00  0.00     0.080 A 
HETATM   31  S1  UNL     1      -8.551  -2.693   1.920  1.00  0.00    -0.039 SA
HETATM   32  C4  UNL     1      -9.398  -1.331   1.357  1.00  0.00     0.290 A 
HETATM   33  O1  UNL     1      -9.193  -0.078   1.615  1.00  0.00    -0.260 OA
ENDBRANCH  26  27
ENDBRANCH  25  26
ENDBRANCH  24  25
ENDBRANCH  23  24
BRANCH  23  34
HETATM   34  O3  UNL     1      -8.133  -0.151  -3.493  1.00  0.00    -0.340 OA
ATOM     35  H3  UNL     1      -8.732   0.379  -4.005  1.00  0.00     0.220 HD
ENDBRANCH  23  34
ENDBRANCH   1  23
TORSDOF 14
ENDMDL
MODEL 5
REMARK VINA RESULT: -6.464233251      2.997      4.114
REMARK  14 active torsions:
REMARK  status: ('A' for Active; 'I' for Inactive)
REMARK    1  A    between atoms: N1_7  and  C5_8 
REMARK    2  A    between atoms: C5_8  and  C6_9 
REMARK    3  A    between atoms: C6_9  and  O2_10 
REMARK    4  A    between atoms: O2_10  and  C7_11 
REMARK    5  A    between atoms: C7_11  and  O3_12 
REMARK    6  A    between atoms: C7_11  and  C8_14 
REMARK    7  A    between atoms: C10_16  and  N2_17 
REMARK    8  A    between atoms: N2_17  and  C11_19 
REMARK    9  A    between atoms: C11_19  and  O4_20 
REMARK   10  A    between atoms: C11_19  and  N3_22 
REMARK   11  A    between atoms: N3_22  and  C12_24 
REMARK   12  A    between atoms: C12_24  and  O5_25 
REMARK   13  A    between atoms: C12_24  and  O6_27 
REMARK   14  A    between atoms: O6_27  and  C13_28 
ROOT
HETATM    1  C8  UNL     1     -10.184  -3.116  -1.227  1.00  0.00     0.046 A 
HETATM    2  C9  UNL     1      -9.881  -4.301  -1.845  1.00  0.00     0.047 A 
HETATM    3  C10 UNL     1      -8.898  -4.380  -2.770  1.00  0.00     0.036 A 
HETATM    4  C16 UNL     1      -8.162  -3.215  -3.113  1.00  0.00     0.031 A 
HETATM    5  C17 UNL     1      -8.429  -2.003  -2.523  1.00  0.00     0.027 A 
HETATM    6  C18 UNL     1      -9.434  -1.961  -1.589  1.00  0.00     0.049 A 
HETATM    7 CL1  UNL     1      -9.824  -0.435  -0.817  1.00  0.00    -0.083 Cl
ENDROOT
BRANCH   3   8
HETATM    8  N2  UNL     1      -8.460  -5.489  -3.560  1.00  0.00    -0.322 N 
ATOM      9  H2  UNL     1      -7.583  -5.975  -3.371  1.00  0.00     0.169 HD
BRANCH   8  10
HETATM   10  C11 UNL     1      -9.319  -5.871  -4.625  1.00  0.00     0.225 C 
BRANCH  10  11
HETATM   11  O4  UNL     1      -8.641  -6.224  -5.701  1.00  0.00    -0.332 OA
ATOM     12  H4  UNL     1      -8.830  -5.658  -6.440  1.00  0.00     0.221 HD
ENDBRANCH  10  11
BRANCH  10  13
HETATM   13  N3  UNL     1     -10.684  -5.909  -4.692  1.00  0.00    -0.282 N 
ATOM     14  H3  UNL     1     -11.099  -6.361  -3.877  1.00  0.00     0.173 HD
BRANCH  13  15
HETATM   15  C12 UNL     1     -11.642  -5.482  -5.600  1.00  0.00     0.268 C 
BRANCH  15  16
HETATM   16  O5  UNL     1     -12.016  -4.213  -5.534  1.00  0.00    -0.327 OA
ATOM     17  H5  UNL     1     -11.371  -3.557  -5.771  1.00  0.00     0.221 HD
ENDBRANCH  15  16
BRANCH  15  18
HETATM   18  O6  UNL     1     -12.317  -6.151  -6.593  1.00  0.00    -0.275 OA
BRANCH  18  19
HETATM   19  C13 UNL     1     -12.788  -7.505  -6.303  1.00  0.00     0.206 C 
HETATM   20  C14 UNL     1     -14.090  -7.720  -7.000  1.00  0.00     0.084 C 
HETATM   21  C15 UNL     1     -11.760  -8.483  -6.893  1.00  0.00     0.084 C 
HETATM   22  F1  UNL     1     -12.857  -7.688  -4.958  1.00  0.00    -0.212 F 
ENDBRANCH  18  19
ENDBRANCH  15  18
ENDBRANCH  13  15
ENDBRANCH  10  13
ENDBRANCH   8  10
ENDBRANCH   3   8
BRANCH   1  23
HETATM   23  C7  UNL     1     -11.171  -2.848  -0.235  1.00  0.00     0.190 C 
BRANCH  23  24
HETATM   24  O2  UNL     1     -11.082  -2.914   1.144  1.00  0.00    -0.328 OA
BRANCH  24  25
HETATM   25  C6  UNL     1     -10.517  -4.020   1.778  1.00  0.00     0.198 C 
BRANCH  25  26
HETATM   26  C5  UNL     1      -9.388  -3.780   2.697  1.00  0.00     0.159 C 
BRANCH  26  27
HETATM   27  N1  UNL     1      -8.422  -4.949   2.549  1.00  0.00    -0.310 N 
HETATM   28  C2  UNL     1      -7.429  -4.981   1.699  1.00  0.00     0.018 A 
HETATM   29  C1  UNL     1      -7.063  -3.860   0.728  1.00  0.00     0.069 C 
HETATM   30  C3  UNL     1      -6.637  -6.102   1.696  1.00  0.00     0.080 A 
HETATM   31  S1  UNL     1      -7.353  -7.063   2.911  1.00  0.00    -0.039 SA
HETATM   32  C4  UNL     1      -8.605  -6.002   3.356  1.00  0.00     0.290 A 
HETATM   33  O1  UNL     1      -9.522  -6.156   4.257  1.00  0.00    -0.260 OA
ENDBRANCH  26  27
ENDBRANCH  25  26
ENDBRANCH  24  25
ENDBRANCH  23  24
BRANCH  23  34
HETATM   34  O3  UNL     1     -12.353  -2.455  -0.664  1.00  0.00    -0.340 OA
ATOM     35  H3  UNL     1     -12.356  -2.203  -1.579  1.00  0.00     0.220 HD
ENDBRANCH  23  34
ENDBRANCH   1  23
TORSDOF 14
ENDMDL
