MODEL 1
REMARK VINA RESULT: -6.446520274      0.000      0.000
REMARK  7 active torsions:
REMARK  status: ('A' for Active; 'I' for Inactive)
REMARK    1  A    between atoms: C2_2  and  O1_3 
REMARK    2  A    between atoms: O1_3  and  C3_4 
REMARK    3  A    between atoms: C3_4  and  C4_5 
REMARK    4  A    between atoms: C4_5  and  S1_6 
REMARK    5  A    between atoms: S1_6  and  C5_7 
REMARK    6  A    between atoms: C6_10  and  N2_11 
REMARK    7  A    between atoms: C17_27  and  C18_28 
ROOT
HETATM    1  C5  UNL     1      -8.450  -3.833   1.234  1.00  0.00     0.079 A 
HETATM    2  N1  UNL     1      -9.636  -3.473   1.784  1.00  0.00    -0.336 N 
ATOM      3  H1  UNL     1     -10.163  -2.710   1.360  1.00  0.00     0.168 HD
HETATM    4  C6  UNL     1     -10.136  -4.081   2.860  1.00  0.00     0.121 A 
HETATM    5  C7  UNL     1      -9.467  -5.103   3.457  1.00  0.00     0.099 A 
HETATM    6  C8  UNL     1      -9.941  -5.801   4.613  1.00  0.00     0.104 C 
HETATM    7  N3  UNL     1     -10.353  -6.363   5.567  1.00  0.00    -0.191 NA
HETATM    8  C9  UNL     1      -8.236  -5.485   2.890  1.00  0.00     0.009 A 
HETATM    9  C10 UNL     1      -7.578  -6.552   3.598  1.00  0.00    -0.021 A 
HETATM   10  C11 UNL     1      -6.745  -6.264   4.653  1.00  0.00     0.015 A 
HETATM   11  C12 UNL     1      -6.161  -7.236   5.435  1.00  0.00     0.040 A 
HETATM   12  C13 UNL     1      -6.433  -8.554   5.136  1.00  0.00     0.105 A 
HETATM   13  C14 UNL     1      -7.278  -8.858   4.067  1.00  0.00     0.105 A 
HETATM   14  C15 UNL     1      -7.840  -7.860   3.310  1.00  0.00     0.052 A 
HETATM   15  O2  UNL     1      -7.402 -10.249   3.958  1.00  0.00    -0.323 OA
HETATM   16  C16 UNL     1      -6.487 -10.837   4.864  1.00  0.00     0.352 C 
HETATM   17  O3  UNL     1      -6.041  -9.777   5.681  1.00  0.00    -0.323 OA
HETATM   18  C17 UNL     1      -7.668  -4.899   1.781  1.00  0.00    -0.004 A 
ENDROOT
BRANCH   4  19
HETATM   19  N2  UNL     1     -11.276  -3.720   3.376  1.00  0.00    -0.384 N 
ATOM     20  H22 UNL     1     -11.778  -2.952   2.929  1.00  0.00     0.157 HD
ATOM     21  H21 UNL     1     -11.660  -4.187   4.197  1.00  0.00     0.157 HD
ENDBRANCH   4  19
BRANCH  18  22
HETATM   22  C18 UNL     1      -6.436  -5.245   1.096  1.00  0.00    -0.021 C 
HETATM   23  C19 UNL     1      -5.778  -6.572   1.249  1.00  0.00     0.019 C 
HETATM   24  C20 UNL     1      -6.700  -5.138  -0.420  1.00  0.00     0.019 C 
HETATM   25  C21 UNL     1      -5.299  -4.241   1.343  1.00  0.00     0.019 C 
ENDBRANCH  18  22
BRANCH   1  26
HETATM   26  S1  UNL     1      -7.911  -3.031  -0.235  1.00  0.00    -0.105 SA
BRANCH  26  27
HETATM   27  C4  UNL     1      -9.002  -2.779  -1.572  1.00  0.00     0.148 C 
BRANCH  27  28
HETATM   28  C3  UNL     1      -9.948  -3.898  -1.799  1.00  0.00     0.089 C 
HETATM   29  C22 UNL     1      -9.650  -4.747  -2.798  1.00  0.00     0.119 C 
HETATM   30  C23 UNL     1      -8.434  -4.572  -3.621  1.00  0.00     0.085 C 
HETATM   31  F1  UNL     1     -10.462  -5.773  -3.063  1.00  0.00    -0.209 F 
BRANCH  28  32
HETATM   32  O1  UNL     1     -11.049  -4.036  -1.036  1.00  0.00    -0.352 OA
BRANCH  32  33
HETATM   33  C2  UNL     1     -12.099  -3.174  -0.763  1.00  0.00     0.171 C 
HETATM   34  C1  UNL     1     -13.016  -3.728   0.299  1.00  0.00     0.034 C 
ENDBRANCH  32  33
ENDBRANCH  28  32
ENDBRANCH  27  28
ENDBRANCH  26  27
ENDBRANCH   1  26
TORSDOF 7
ENDMDL
MODEL 2
REMARK VINA RESULT: -6.098611898      1.007      2.110
REMARK  7 active torsions:
REMARK  status: ('A' for Active; 'I' for Inactive)
REMARK    1  A    between atoms: C2_2  and  O1_3 
REMARK    2  A    between atoms: O1_3  and  C3_4 
REMARK    3  A    between atoms: C3_4  and  C4_5 
REMARK    4  A    between atoms: C4_5  and  S1_6 
REMARK    5  A    between atoms: S1_6  and  C5_7 
REMARK    6  A    between atoms: C6_10  and  N2_11 
REMARK    7  A    between atoms: C17_27  and  C18_28 
ROOT
HETATM    1  C5  UNL     1      -8.455  -3.933   1.879  1.00  0.00     0.079 A 
HETATM    2  N1  UNL     1      -9.610  -3.588   2.500  1.00  0.00    -0.336 N 
ATOM      3  H1  UNL     1     -10.095  -2.743   2.201  1.00  0.00     0.168 HD
HETATM    4  C6  UNL     1     -10.133  -4.316   3.488  1.00  0.00     0.121 A 
HETATM    5  C7  UNL     1      -9.519  -5.450   3.917  1.00  0.00     0.099 A 
HETATM    6  C8  UNL     1     -10.020  -6.279   4.971  1.00  0.00     0.104 C 
HETATM    7  N3  UNL     1     -10.454  -6.949   5.843  1.00  0.00    -0.191 NA
HETATM    8  C9  UNL     1      -8.320  -5.817   3.276  1.00  0.00     0.009 A 
HETATM    9  C10 UNL     1      -7.719  -7.012   3.810  1.00  0.00    -0.021 A 
HETATM   10  C11 UNL     1      -6.857  -6.928   4.877  1.00  0.00     0.015 A 
HETATM   11  C12 UNL     1      -6.324  -8.035   5.500  1.00  0.00     0.040 A 
HETATM   12  C13 UNL     1      -6.678  -9.278   5.020  1.00  0.00     0.105 A 
HETATM   13  C14 UNL     1      -7.553  -9.375   3.936  1.00  0.00     0.105 A 
HETATM   14  C15 UNL     1      -8.063  -8.247   3.342  1.00  0.00     0.052 A 
HETATM   15  O2  UNL     1      -7.763 -10.726   3.631  1.00  0.00    -0.323 OA
HETATM   16  C16 UNL     1      -6.873 -11.491   4.424  1.00  0.00     0.352 C 
HETATM   17  O3  UNL     1      -6.354 -10.587   5.375  1.00  0.00    -0.323 OA
HETATM   18  C17 UNL     1      -7.732  -5.111   2.252  1.00  0.00    -0.004 A 
ENDROOT
BRANCH   4  19
HETATM   19  N2  UNL     1     -11.243  -3.968   4.073  1.00  0.00    -0.384 N 
ATOM     20  H22 UNL     1     -11.732  -3.149   3.714  1.00  0.00     0.157 HD
ATOM     21  H21 UNL     1     -11.615  -4.494   4.864  1.00  0.00     0.157 HD
ENDBRANCH   4  19
BRANCH  18  22
HETATM   22  C18 UNL     1      -6.531  -5.424   1.499  1.00  0.00    -0.021 C 
HETATM   23  C19 UNL     1      -6.299  -4.929   0.114  1.00  0.00     0.019 C 
HETATM   24  C20 UNL     1      -5.326  -4.873   2.291  1.00  0.00     0.019 C 
HETATM   25  C21 UNL     1      -6.248  -6.931   1.402  1.00  0.00     0.019 C 
ENDBRANCH  18  22
BRANCH   1  26
HETATM   26  S1  UNL     1      -7.886  -2.960   0.530  1.00  0.00    -0.105 SA
BRANCH  26  27
HETATM   27  C4  UNL     1      -8.944  -2.564  -0.799  1.00  0.00     0.148 C 
BRANCH  27  28
HETATM   28  C3  UNL     1      -9.154  -3.677  -1.756  1.00  0.00     0.089 C 
HETATM   29  C22 UNL     1     -10.340  -4.308  -1.696  1.00  0.00     0.119 C 
HETATM   30  C23 UNL     1     -11.381  -3.903  -0.728  1.00  0.00     0.085 C 
HETATM   31  F1  UNL     1     -10.595  -5.324  -2.524  1.00  0.00    -0.209 F 
BRANCH  28  32
HETATM   32  O1  UNL     1      -8.191  -4.028  -2.629  1.00  0.00    -0.352 OA
BRANCH  32  33
HETATM   33  C2  UNL     1      -7.864  -3.550  -3.887  1.00  0.00     0.171 C 
HETATM   34  C1  UNL     1      -8.613  -4.280  -4.974  1.00  0.00     0.034 C 
ENDBRANCH  32  33
ENDBRANCH  28  32
ENDBRANCH  27  28
ENDBRANCH  26  27
ENDBRANCH   1  26
TORSDOF 7
ENDMDL
MODEL 3
REMARK VINA RESULT: -6.006704182      1.395      1.968
REMARK  7 active torsions:
REMARK  status: ('A' for Active; 'I' for Inactive)
REMARK    1  A    between atoms: C2_2  and  O1_3 
REMARK    2  A    between atoms: O1_3  and  C3_4 
REMARK    3  A    between atoms: C3_4  and  C4_5 
REMARK    4  A    between atoms: C4_5  and  S1_6 
REMARK    5  A    between atoms: S1_6  and  C5_7 
REMARK    6  A    between atoms: C6_10  and  N2_11 
REMARK    7  A    between atoms: C17_27  and  C18_28 
ROOT
HETATM    1  C5  UNL     1      -8.559  -3.872   1.743  1.00  0.00     0.079 A 
HETATM    2  N1  UNL     1      -9.711  -3.541   2.377  1.00  0.00    -0.336 N 
ATOM      3  H1  UNL     1     -10.231  -2.725   2.056  1.00  0.00     0.168 HD
HETATM    4  C6  UNL     1     -10.187  -4.245   3.404  1.00  0.00     0.121 A 
HETATM    5  C7  UNL     1      -9.526  -5.341   3.863  1.00  0.00     0.099 A 
HETATM    6  C8  UNL     1      -9.975  -6.144   4.960  1.00  0.00     0.104 C 
HETATM    7  N3  UNL     1     -10.368  -6.792   5.866  1.00  0.00    -0.191 NA
HETATM    8  C9  UNL     1      -8.330  -5.693   3.209  1.00  0.00     0.009 A 
HETATM    9  C10 UNL     1      -7.677  -6.845   3.775  1.00  0.00    -0.021 A 
HETATM   10  C11 UNL     1      -6.796  -6.690   4.818  1.00  0.00     0.015 A 
HETATM   11  C12 UNL     1      -6.211  -7.754   5.471  1.00  0.00     0.040 A 
HETATM   12  C13 UNL     1      -6.534  -9.026   5.048  1.00  0.00     0.105 A 
HETATM   13  C14 UNL     1      -7.428  -9.195   3.989  1.00  0.00     0.105 A 
HETATM   14  C15 UNL     1      -7.989  -8.109   3.364  1.00  0.00     0.052 A 
HETATM   15  O2  UNL     1      -7.598 -10.563   3.743  1.00  0.00    -0.323 OA
HETATM   16  C16 UNL     1      -6.666 -11.266   4.543  1.00  0.00     0.352 C 
HETATM   17  O3  UNL     1      -6.158 -10.308   5.447  1.00  0.00    -0.323 OA
HETATM   18  C17 UNL     1      -7.788  -5.009   2.145  1.00  0.00    -0.004 A 
ENDROOT
BRANCH   4  19
HETATM   19  N2  UNL     1     -11.295  -3.912   4.001  1.00  0.00    -0.384 N 
ATOM     20  H22 UNL     1     -11.613  -2.947   3.908  1.00  0.00     0.157 HD
ATOM     21  H21 UNL     1     -11.832  -4.588   4.543  1.00  0.00     0.157 HD
ENDBRANCH   4  19
BRANCH  18  22
HETATM   22  C18 UNL     1      -6.594  -5.313   1.377  1.00  0.00    -0.021 C 
HETATM   23  C19 UNL     1      -6.444  -4.937  -0.056  1.00  0.00     0.019 C 
HETATM   24  C20 UNL     1      -5.405  -4.610   2.066  1.00  0.00     0.019 C 
HETATM   25  C21 UNL     1      -6.210  -6.800   1.409  1.00  0.00     0.019 C 
ENDBRANCH  18  22
BRANCH   1  26
HETATM   26  S1  UNL     1      -8.053  -2.935   0.344  1.00  0.00    -0.105 SA
BRANCH  26  27
HETATM   27  C4  UNL     1      -9.173  -2.565  -0.941  1.00  0.00     0.148 C 
BRANCH  27  28
HETATM   28  C3  UNL     1      -8.857  -3.231  -2.227  1.00  0.00     0.089 C 
HETATM   29  C22 UNL     1      -8.303  -2.465  -3.183  1.00  0.00     0.119 C 
HETATM   30  C23 UNL     1      -8.018  -1.032  -2.954  1.00  0.00     0.085 C 
HETATM   31  F1  UNL     1      -7.999  -2.997  -4.369  1.00  0.00    -0.209 F 
BRANCH  28  32
HETATM   32  O1  UNL     1      -9.126  -4.537  -2.412  1.00  0.00    -0.352 OA
BRANCH  32  33
HETATM   33  C2  UNL     1     -10.139  -5.185  -3.100  1.00  0.00     0.171 C 
HETATM   34  C1  UNL     1      -9.613  -5.917  -4.310  1.00  0.00     0.034 C 
ENDBRANCH  32  33
ENDBRANCH  28  32
ENDBRANCH  27  28
ENDBRANCH  26  27
ENDBRANCH   1  26
TORSDOF 7
ENDMDL
MODEL 4
REMARK VINA RESULT: -5.985785776      0.950      1.947
REMARK  7 active torsions:
REMARK  status: ('A' for Active; 'I' for Inactive)
REMARK    1  A    between atoms: C2_2  and  O1_3 
REMARK    2  A    between atoms: O1_3  and  C3_4 
REMARK    3  A    between atoms: C3_4  and  C4_5 
REMARK    4  A    between atoms: C4_5  and  S1_6 
REMARK    5  A    between atoms: S1_6  and  C5_7 
REMARK    6  A    between atoms: C6_10  and  N2_11 
REMARK    7  A    between atoms: C17_27  and  C18_28 
ROOT
HETATM    1  C5  UNL     1      -8.675  -3.684   1.701  1.00  0.00     0.079 A 
HETATM    2  N1  UNL     1      -9.805  -3.355   2.374  1.00  0.00    -0.336 N 
ATOM      3  H1  UNL     1     -10.338  -2.541   2.071  1.00  0.00     0.168 HD
HETATM    4  C6  UNL     1     -10.243  -4.059   3.419  1.00  0.00     0.121 A 
HETATM    5  C7  UNL     1      -9.563  -5.153   3.855  1.00  0.00     0.099 A 
HETATM    6  C8  UNL     1      -9.971  -5.955   4.968  1.00  0.00     0.104 C 
HETATM    7  N3  UNL     1     -10.329  -6.602   5.890  1.00  0.00    -0.191 NA
HETATM    8  C9  UNL     1      -8.390  -5.502   3.160  1.00  0.00     0.009 A 
HETATM    9  C10 UNL     1      -7.714  -6.652   3.704  1.00  0.00    -0.021 A 
HETATM   10  C11 UNL     1      -6.797  -6.494   4.715  1.00  0.00     0.015 A 
HETATM   11  C12 UNL     1      -6.187  -7.555   5.348  1.00  0.00     0.040 A 
HETATM   12  C13 UNL     1      -6.521  -8.828   4.939  1.00  0.00     0.105 A 
HETATM   13  C14 UNL     1      -7.452  -9.001   3.912  1.00  0.00     0.105 A 
HETATM   14  C15 UNL     1      -8.038  -7.917   3.306  1.00  0.00     0.052 A 
HETATM   15  O2  UNL     1      -7.627 -10.370   3.674  1.00  0.00    -0.323 OA
HETATM   16  C16 UNL     1      -6.666 -11.069   4.442  1.00  0.00     0.352 C 
HETATM   17  O3  UNL     1      -6.128 -10.109   5.326  1.00  0.00    -0.323 OA
HETATM   18  C17 UNL     1      -7.888  -4.819   2.076  1.00  0.00    -0.004 A 
ENDROOT
BRANCH   4  19
HETATM   19  N2  UNL     1     -11.330  -3.727   4.054  1.00  0.00    -0.384 N 
ATOM     20  H22 UNL     1     -11.961  -3.065   3.602  1.00  0.00     0.157 HD
ATOM     21  H21 UNL     1     -11.549  -4.114   4.972  1.00  0.00     0.157 HD
ENDBRANCH   4  19
BRANCH  18  22
HETATM   22  C18 UNL     1      -6.721  -5.121   1.267  1.00  0.00    -0.021 C 
HETATM   23  C19 UNL     1      -6.165  -6.496   1.142  1.00  0.00     0.019 C 
HETATM   24  C20 UNL     1      -7.048  -4.724  -0.188  1.00  0.00     0.019 C 
HETATM   25  C21 UNL     1      -5.498  -4.261   1.617  1.00  0.00     0.019 C 
ENDBRANCH  18  22
BRANCH   1  26
HETATM   26  S1  UNL     1      -8.222  -2.748   0.284  1.00  0.00    -0.105 SA
BRANCH  26  27
HETATM   27  C4  UNL     1      -9.434  -1.992  -0.718  1.00  0.00     0.148 C 
BRANCH  27  28
HETATM   28  C3  UNL     1      -9.736  -2.735  -1.965  1.00  0.00     0.089 C 
HETATM   29  C22 UNL     1     -10.773  -3.589  -1.923  1.00  0.00     0.119 C 
HETATM   30  C23 UNL     1     -11.574  -3.769  -0.693  1.00  0.00     0.085 C 
HETATM   31  F1  UNL     1     -11.097  -4.295  -3.008  1.00  0.00    -0.209 F 
BRANCH  28  32
HETATM   32  O1  UNL     1      -8.992  -2.553  -3.073  1.00  0.00    -0.352 OA
BRANCH  32  33
HETATM   33  C2  UNL     1      -7.901  -3.243  -3.577  1.00  0.00     0.171 C 
HETATM   34  C1  UNL     1      -8.257  -4.019  -4.821  1.00  0.00     0.034 C 
ENDBRANCH  32  33
ENDBRANCH  28  32
ENDBRANCH  27  28
ENDBRANCH  26  27
ENDBRANCH   1  26
TORSDOF 7
ENDMDL
MODEL 5
REMARK VINA RESULT: -5.942173608      1.484      2.234
REMARK  7 active torsions:
REMARK  status: ('A' for Active; 'I' for Inactive)
REMARK    1  A    between atoms: C2_2  and  O1_3 
REMARK    2  A    between atoms: O1_3  and  C3_4 
REMARK    3  A    between atoms: C3_4  and  C4_5 
REMARK    4  A    between atoms: C4_5  and  S1_6 
REMARK    5  A    between atoms: S1_6  and  C5_7 
REMARK    6  A    between atoms: C6_10  and  N2_11 
REMARK    7  A    between atoms: C17_27  and  C18_28 
ROOT
HETATM    1  C5  UNL     1      -8.656  -3.722   1.237  1.00  0.00     0.079 A 
HETATM    2  N1  UNL     1      -9.830  -3.395   1.831  1.00  0.00    -0.336 N 
ATOM      3  H1  UNL     1     -10.392  -2.645   1.430  1.00  0.00     0.168 HD
HETATM    4  C6  UNL     1     -10.275  -4.019   2.923  1.00  0.00     0.121 A 
HETATM    5  C7  UNL     1      -9.557  -5.024   3.491  1.00  0.00     0.099 A 
HETATM    6  C8  UNL     1      -9.970  -5.737   4.661  1.00  0.00     0.104 C 
HETATM    7  N3  UNL     1     -10.332  -6.313   5.627  1.00  0.00    -0.191 NA
HETATM    8  C9  UNL     1      -8.338  -5.371   2.878  1.00  0.00     0.009 A 
HETATM    9  C10 UNL     1      -7.626  -6.423   3.558  1.00  0.00    -0.021 A 
HETATM   10  C11 UNL     1      -6.763  -6.115   4.583  1.00  0.00     0.015 A 
HETATM   11  C12 UNL     1      -6.126  -7.074   5.340  1.00  0.00     0.040 A 
HETATM   12  C13 UNL     1      -6.373  -8.398   5.045  1.00  0.00     0.105 A 
HETATM   13  C14 UNL     1      -7.248  -8.721   4.007  1.00  0.00     0.105 A 
HETATM   14  C15 UNL     1      -7.864  -7.737   3.275  1.00  0.00     0.052 A 
HETATM   15  O2  UNL     1      -7.340 -10.115   3.898  1.00  0.00    -0.323 OA
HETATM   16  C16 UNL     1      -6.376 -10.681   4.767  1.00  0.00     0.352 C 
HETATM   17  O3  UNL     1      -5.930  -9.611   5.571  1.00  0.00    -0.323 OA
HETATM   18  C17 UNL     1      -7.827  -4.768   1.752  1.00  0.00    -0.004 A 
ENDROOT
BRANCH   4  19
HETATM   19  N2  UNL     1     -11.405  -3.690   3.481  1.00  0.00    -0.384 N 
ATOM     20  H22 UNL     1     -12.169  -4.365   3.439  1.00  0.00     0.157 HD
ATOM     21  H21 UNL     1     -11.527  -2.791   3.945  1.00  0.00     0.157 HD
ENDBRANCH   4  19
BRANCH  18  22
HETATM   22  C18 UNL     1      -6.611  -5.078   1.021  1.00  0.00    -0.021 C 
HETATM   23  C19 UNL     1      -6.461  -4.813  -0.436  1.00  0.00     0.019 C 
HETATM   24  C20 UNL     1      -5.463  -4.271   1.662  1.00  0.00     0.019 C 
HETATM   25  C21 UNL     1      -6.164  -6.540   1.176  1.00  0.00     0.019 C 
ENDBRANCH  18  22
BRANCH   1  26
HETATM   26  S1  UNL     1      -8.193  -2.902  -0.247  1.00  0.00    -0.105 SA
BRANCH  26  27
HETATM   27  C4  UNL     1      -9.264  -2.863  -1.624  1.00  0.00     0.148 C 
BRANCH  27  28
HETATM   28  C3  UNL     1      -8.576  -2.634  -2.917  1.00  0.00     0.089 C 
HETATM   29  C22 UNL     1      -8.407  -3.707  -3.710  1.00  0.00     0.119 C 
HETATM   30  C23 UNL     1      -8.892  -5.045  -3.309  1.00  0.00     0.085 C 
HETATM   31  F1  UNL     1      -7.790  -3.575  -4.886  1.00  0.00    -0.209 F 
BRANCH  28  32
HETATM   32  O1  UNL     1      -8.143  -1.406  -3.260  1.00  0.00    -0.352 OA
BRANCH  32  33
HETATM   33  C2  UNL     1      -8.510  -0.142  -2.827  1.00  0.00     0.171 C 
HETATM   34  C1  UNL     1      -7.816   0.942  -3.614  1.00  0.00     0.034 C 
ENDBRANCH  32  33
ENDBRANCH  28  32
ENDBRANCH  27  28
ENDBRANCH  26  27
ENDBRANCH   1  26
TORSDOF 7
ENDMDL
