MODEL 1
REMARK VINA RESULT: -9.114075694      0.000      0.000
REMARK  2 active torsions:
REMARK  status: ('A' for Active; 'I' for Inactive)
REMARK    1  A    between atoms: C1_2  and  C2_4 
REMARK    2  A    between atoms: C2_4  and  C3_5 
ROOT
HETATM    1  C3  UNL     1      32.239 -25.696 -27.234  1.00  0.00    -0.006 C 
HETATM    2  C4  UNL     1      31.171 -26.197 -26.284  1.00  0.00     0.010 C 
HETATM    3  C5  UNL     1      31.668 -26.322 -24.863  1.00  0.00     0.072 C 
HETATM    4  C6  UNL     1      32.782 -27.341 -24.747  1.00  0.00     0.200 C 
HETATM    5  C7  UNL     1      33.298 -27.617 -26.157  1.00  0.00     0.072 C 
HETATM    6  C8  UNL     1      33.549 -26.257 -26.784  1.00  0.00     0.010 C 
HETATM    7  O2  UNL     1      33.809 -26.911 -23.912  1.00  0.00    -0.197 OA
HETATM    8  O3  UNL     1      34.317 -28.056 -23.455  1.00  0.00    -0.197 OA
HETATM    9  C9  UNL     1      33.215 -28.837 -23.193  1.00  0.00     0.200 C 
HETATM   10  C10 UNL     1      32.535 -28.527 -21.906  1.00  0.00     0.071 C 
HETATM   11  C11 UNL     1      33.140 -29.144 -20.699  1.00  0.00     0.006 C 
HETATM   12  C12 UNL     1      33.761 -30.475 -20.889  1.00  0.00     0.000 C 
HETATM   13  C13 UNL     1      34.473 -30.655 -22.202  1.00  0.00     0.006 C 
HETATM   14  C14 UNL     1      33.525 -30.317 -23.334  1.00  0.00     0.071 C 
HETATM   15  O4  UNL     1      32.317 -28.532 -24.234  1.00  0.00    -0.313 OA
ENDROOT
BRANCH   1  16
HETATM   16  C2  UNL     1      32.214 -24.191 -27.308  1.00  0.00     0.104 C 
BRANCH  16  17
HETATM   17  C1  UNL     1      30.864 -23.635 -27.409  1.00  0.00     0.231 C 
HETATM   18  N1  UNL     1      30.383 -22.805 -26.333  1.00  0.00    -0.062 NA
HETATM   19  O1  UNL     1      30.056 -23.801 -28.347  1.00  0.00    -0.277 OA
ENDBRANCH  16  17
ENDBRANCH   1  16
TORSDOF 2
ENDMDL
MODEL 2
REMARK VINA RESULT: -8.860221558      1.329      1.395
REMARK  2 active torsions:
REMARK  status: ('A' for Active; 'I' for Inactive)
REMARK    1  A    between atoms: C1_2  and  C2_4 
REMARK    2  A    between atoms: C2_4  and  C3_5 
ROOT
HETATM    1  C3  UNL     1      32.369 -25.616 -27.284  1.00  0.00    -0.006 C 
HETATM    2  C4  UNL     1      31.269 -26.107 -26.366  1.00  0.00     0.010 C 
HETATM    3  C5  UNL     1      31.728 -26.251 -24.934  1.00  0.00     0.072 C 
HETATM    4  C6  UNL     1      32.822 -27.288 -24.798  1.00  0.00     0.200 C 
HETATM    5  C7  UNL     1      33.370 -27.561 -26.196  1.00  0.00     0.072 C 
HETATM    6  C8  UNL     1      33.658 -26.201 -26.806  1.00  0.00     0.010 C 
HETATM    7  O2  UNL     1      33.834 -26.881 -23.933  1.00  0.00    -0.197 OA
HETATM    8  O3  UNL     1      34.313 -28.037 -23.473  1.00  0.00    -0.197 OA
HETATM    9  C9  UNL     1      33.193 -28.803 -23.245  1.00  0.00     0.200 C 
HETATM   10  C10 UNL     1      32.485 -28.493 -21.974  1.00  0.00     0.071 C 
HETATM   11  C11 UNL     1      33.049 -29.128 -20.757  1.00  0.00     0.006 C 
HETATM   12  C12 UNL     1      33.654 -30.466 -20.941  1.00  0.00     0.000 C 
HETATM   13  C13 UNL     1      34.396 -30.648 -22.237  1.00  0.00     0.006 C 
HETATM   14  C14 UNL     1      33.483 -30.287 -23.390  1.00  0.00     0.071 C 
HETATM   15  O4  UNL     1      32.326 -28.476 -24.306  1.00  0.00    -0.313 OA
ENDROOT
BRANCH   1  16
HETATM   16  C2  UNL     1      32.369 -24.110 -27.347  1.00  0.00     0.104 C 
BRANCH  16  17
HETATM   17  C1  UNL     1      33.042 -23.577 -28.532  1.00  0.00     0.231 C 
HETATM   18  N1  UNL     1      32.297 -22.711 -29.412  1.00  0.00    -0.062 NA
HETATM   19  O1  UNL     1      34.222 -23.791 -28.881  1.00  0.00    -0.277 OA
ENDBRANCH  16  17
ENDBRANCH   1  16
TORSDOF 2
ENDMDL
MODEL 3
REMARK VINA RESULT: -7.888529743      2.536      7.261
REMARK  2 active torsions:
REMARK  status: ('A' for Active; 'I' for Inactive)
REMARK    1  A    between atoms: C1_2  and  C2_4 
REMARK    2  A    between atoms: C2_4  and  C3_5 
ROOT
HETATM    1  C3  UNL     1      32.997 -27.658 -25.462  1.00  0.00    -0.006 C 
HETATM    2  C4  UNL     1      33.574 -26.940 -26.664  1.00  0.00     0.010 C 
HETATM    3  C5  UNL     1      33.364 -25.445 -26.606  1.00  0.00     0.072 C 
HETATM    4  C6  UNL     1      31.893 -25.086 -26.623  1.00  0.00     0.200 C 
HETATM    5  C7  UNL     1      31.108 -26.354 -26.299  1.00  0.00     0.072 C 
HETATM    6  C8  UNL     1      31.753 -26.939 -25.055  1.00  0.00     0.010 C 
HETATM    7  O2  UNL     1      31.588 -24.064 -25.728  1.00  0.00    -0.197 OA
HETATM    8  O3  UNL     1      30.519 -23.493 -26.286  1.00  0.00    -0.197 OA
HETATM    9  C9  UNL     1      30.818 -23.450 -27.628  1.00  0.00     0.200 C 
HETATM   10  C10 UNL     1      31.723 -22.337 -28.021  1.00  0.00     0.071 C 
HETATM   11  C11 UNL     1      31.066 -21.021 -28.223  1.00  0.00     0.006 C 
HETATM   12  C12 UNL     1      29.686 -21.056 -28.758  1.00  0.00     0.000 C 
HETATM   13  C13 UNL     1      28.842 -22.191 -28.246  1.00  0.00     0.006 C 
HETATM   14  C14 UNL     1      29.566 -23.500 -28.488  1.00  0.00     0.071 C 
HETATM   15  O4  UNL     1      31.498 -24.659 -27.872  1.00  0.00    -0.313 OA
ENDROOT
BRANCH   1  16
HETATM   16  C2  UNL     1      34.028 -27.761 -24.367  1.00  0.00     0.104 C 
BRANCH  16  17
HETATM   17  C1  UNL     1      33.656 -28.697 -23.305  1.00  0.00     0.231 C 
HETATM   18  N1  UNL     1      33.265 -30.034 -23.676  1.00  0.00    -0.062 NA
HETATM   19  O1  UNL     1      33.639 -28.466 -22.077  1.00  0.00    -0.277 OA
ENDBRANCH  16  17
ENDBRANCH   1  16
TORSDOF 2
ENDMDL
MODEL 4
REMARK VINA RESULT: -7.859756665      1.639      2.285
REMARK  2 active torsions:
REMARK  status: ('A' for Active; 'I' for Inactive)
REMARK    1  A    between atoms: C1_2  and  C2_4 
REMARK    2  A    between atoms: C2_4  and  C3_5 
ROOT
HETATM    1  C3  UNL     1      31.936 -24.852 -26.695  1.00  0.00    -0.006 C 
HETATM    2  C4  UNL     1      33.116 -24.755 -25.750  1.00  0.00     0.010 C 
HETATM    3  C5  UNL     1      33.788 -26.088 -25.518  1.00  0.00     0.072 C 
HETATM    4  C6  UNL     1      32.855 -27.078 -24.854  1.00  0.00     0.200 C 
HETATM    5  C7  UNL     1      31.435 -26.534 -24.994  1.00  0.00     0.072 C 
HETATM    6  C8  UNL     1      31.270 -26.169 -26.459  1.00  0.00     0.010 C 
HETATM    7  O2  UNL     1      32.959 -28.354 -25.401  1.00  0.00    -0.197 OA
HETATM    8  O3  UNL     1      32.603 -29.140 -24.385  1.00  0.00    -0.197 OA
HETATM    9  C9  UNL     1      33.219 -28.582 -23.290  1.00  0.00     0.200 C 
HETATM   10  C10 UNL     1      34.662 -28.919 -23.157  1.00  0.00     0.071 C 
HETATM   11  C11 UNL     1      34.956 -30.233 -22.531  1.00  0.00     0.006 C 
HETATM   12  C12 UNL     1      34.006 -30.685 -21.489  1.00  0.00     0.000 C 
HETATM   13  C13 UNL     1      32.567 -30.341 -21.756  1.00  0.00     0.006 C 
HETATM   14  C14 UNL     1      32.449 -28.852 -22.008  1.00  0.00     0.071 C 
HETATM   15  O4  UNL     1      33.125 -27.194 -23.508  1.00  0.00    -0.313 OA
ENDROOT
BRANCH   1  16
HETATM   16  C2  UNL     1      32.384 -24.644 -28.119  1.00  0.00     0.104 C 
BRANCH  16  17
HETATM   17  C1  UNL     1      33.081 -23.374 -28.330  1.00  0.00     0.231 C 
HETATM   18  N1  UNL     1      34.414 -23.407 -28.879  1.00  0.00    -0.062 NA
HETATM   19  O1  UNL     1      32.642 -22.231 -28.084  1.00  0.00    -0.277 OA
ENDBRANCH  16  17
ENDBRANCH   1  16
TORSDOF 2
ENDMDL
MODEL 5
REMARK VINA RESULT: -7.699796253      2.981      6.904
REMARK  2 active torsions:
REMARK  status: ('A' for Active; 'I' for Inactive)
REMARK    1  A    between atoms: C1_2  and  C2_4 
REMARK    2  A    between atoms: C2_4  and  C3_5 
ROOT
HETATM    1  C3  UNL     1      32.667 -28.588 -23.365  1.00  0.00    -0.006 C 
HETATM    2  C4  UNL     1      33.270 -28.662 -24.751  1.00  0.00     0.010 C 
HETATM    3  C5  UNL     1      33.704 -27.312 -25.271  1.00  0.00     0.072 C 
HETATM    4  C6  UNL     1      32.530 -26.368 -25.422  1.00  0.00     0.200 C 
HETATM    5  C7  UNL     1      31.363 -26.957 -24.634  1.00  0.00     0.072 C 
HETATM    6  C8  UNL     1      31.916 -27.300 -23.262  1.00  0.00     0.010 C 
HETATM    7  O2  UNL     1      32.828 -25.079 -24.987  1.00  0.00    -0.197 OA
HETATM    8  O3  UNL     1      32.009 -24.324 -25.720  1.00  0.00    -0.197 OA
HETATM    9  C9  UNL     1      32.063 -24.881 -26.976  1.00  0.00     0.200 C 
HETATM   10  C10 UNL     1      33.262 -24.497 -27.769  1.00  0.00     0.071 C 
HETATM   11  C11 UNL     1      33.177 -23.185 -28.459  1.00  0.00     0.006 C 
HETATM   12  C12 UNL     1      31.834 -22.786 -28.937  1.00  0.00     0.000 C 
HETATM   13  C13 UNL     1      30.701 -23.175 -28.027  1.00  0.00     0.006 C 
HETATM   14  C14 UNL     1      30.773 -24.662 -27.749  1.00  0.00     0.071 C 
HETATM   15  O4  UNL     1      32.136 -26.267 -26.739  1.00  0.00    -0.313 OA
ENDROOT
BRANCH   1  16
HETATM   16  C2  UNL     1      33.736 -28.754 -22.315  1.00  0.00     0.104 C 
BRANCH  16  17
HETATM   17  C1  UNL     1      33.266 -29.433 -21.107  1.00  0.00     0.231 C 
HETATM   18  N1  UNL     1      33.949 -30.630 -20.683  1.00  0.00    -0.062 NA
HETATM   19  O1  UNL     1      32.313 -29.085 -20.378  1.00  0.00    -0.277 OA
ENDBRANCH  16  17
ENDBRANCH   1  16
TORSDOF 2
ENDMDL
