MODEL 1
REMARK VINA RESULT: -7.999821642      0.000      0.000
REMARK  2 active torsions:
REMARK  status: ('A' for Active; 'I' for Inactive)
REMARK    1  A    between atoms: C2_3  and  C3_4 
REMARK       I    between atoms: C3_4  and  N2_6 
REMARK    2  A    between atoms: C4_8  and  C5_9 
ROOT
HETATM    1  N1  UNL     1      30.485 -26.865 -23.370  1.00  0.00    -0.100 NA
HETATM    2  C1  UNL     1      31.812 -27.341 -23.732  1.00  0.00     0.076 A 
HETATM    3  C2  UNL     1      32.455 -26.779 -24.800  1.00  0.00     0.098 A 
HETATM    4  S1  UNL     1      33.935 -27.626 -24.847  1.00  0.00    -0.087 SA
HETATM    5  C7  UNL     1      33.700 -28.667 -23.517  1.00  0.00    -0.008 A 
HETATM    6  C8  UNL     1      32.453 -28.317 -23.068  1.00  0.00    -0.019 A 
HETATM    7  C9  UNL     1      31.825 -29.009 -21.866  1.00  0.00     0.042 C 
HETATM    8  C10 UNL     1      32.881 -29.145 -20.788  1.00  0.00     0.005 C 
HETATM    9  C11 UNL     1      33.494 -30.505 -20.922  1.00  0.00     0.001 C 
HETATM   10  C12 UNL     1      33.945 -30.828 -22.317  1.00  0.00     0.005 C 
HETATM   11  C13 UNL     1      34.664 -29.707 -22.998  1.00  0.00     0.046 C 
ENDROOT
BRANCH   3  12
HETATM   12  C3  UNL     1      31.995 -25.706 -25.695  1.00  0.00     0.264 C 
HETATM   13  O1  UNL     1      31.405 -24.734 -25.192  1.00  0.00    -0.267 OA
HETATM   14  N2  UNL     1      32.247 -25.838 -27.068  1.00  0.00    -0.334 N 
HETATM   15  C4  UNL     1      32.517 -24.806 -27.775  1.00  0.00     0.098 C 
ATOM     16  H2  UNL     1      32.216 -26.759 -27.504  1.00  0.00     0.168 HD
BRANCH  15  17
HETATM   17  C5  UNL     1      32.562 -23.475 -27.148  1.00  0.00     0.183 A 
HETATM   18  C6  UNL     1      33.624 -22.545 -27.391  1.00  0.00     0.206 A 
HETATM   19  O2  UNL     1      32.417 -22.426 -28.084  1.00  0.00    -0.376 OA
ENDBRANCH  15  17
ENDBRANCH   3  12
TORSDOF 2
ENDMDL
MODEL 2
REMARK VINA RESULT: -7.689077745      1.712      2.390
REMARK  2 active torsions:
REMARK  status: ('A' for Active; 'I' for Inactive)
REMARK    1  A    between atoms: C2_3  and  C3_4 
REMARK       I    between atoms: C3_4  and  N2_6 
REMARK    2  A    between atoms: C4_8  and  C5_9 
ROOT
HETATM    1  N1  UNL     1      34.116 -27.733 -26.037  1.00  0.00    -0.100 NA
HETATM    2  C1  UNL     1      33.116 -27.679 -24.979  1.00  0.00     0.076 A 
HETATM    3  C2  UNL     1      31.983 -26.939 -25.168  1.00  0.00     0.098 A 
HETATM    4  S1  UNL     1      31.129 -27.165 -23.709  1.00  0.00    -0.087 SA
HETATM    5  C7  UNL     1      32.228 -28.188 -22.901  1.00  0.00    -0.008 A 
HETATM    6  C8  UNL     1      33.245 -28.325 -23.809  1.00  0.00    -0.019 A 
HETATM    7  C9  UNL     1      34.470 -29.176 -23.499  1.00  0.00     0.042 C 
HETATM    8  C10 UNL     1      34.005 -30.466 -22.856  1.00  0.00     0.005 C 
HETATM    9  C11 UNL     1      34.076 -30.286 -21.371  1.00  0.00     0.001 C 
HETATM   10  C12 UNL     1      33.400 -29.037 -20.883  1.00  0.00     0.005 C 
HETATM   11  C13 UNL     1      32.073 -28.775 -21.519  1.00  0.00     0.046 C 
ENDROOT
BRANCH   3  12
HETATM   12  C3  UNL     1      31.585 -26.140 -26.338  1.00  0.00     0.264 C 
HETATM   13  O1  UNL     1      30.479 -26.372 -26.857  1.00  0.00    -0.267 OA
HETATM   14  N2  UNL     1      32.474 -25.161 -26.803  1.00  0.00    -0.334 N 
HETATM   15  C4  UNL     1      32.028 -24.061 -27.282  1.00  0.00     0.098 C 
ATOM     16  H2  UNL     1      33.480 -25.326 -26.758  1.00  0.00     0.168 HD
BRANCH  15  17
HETATM   17  C5  UNL     1      30.578 -23.822 -27.347  1.00  0.00     0.183 A 
HETATM   18  C6  UNL     1      30.016 -22.505 -27.412  1.00  0.00     0.206 A 
HETATM   19  O2  UNL     1      30.173 -23.258 -28.578  1.00  0.00    -0.376 OA
ENDBRANCH  15  17
ENDBRANCH   3  12
TORSDOF 2
ENDMDL
MODEL 3
REMARK VINA RESULT: -7.283601556      2.720      6.741
REMARK  2 active torsions:
REMARK  status: ('A' for Active; 'I' for Inactive)
REMARK    1  A    between atoms: C2_3  and  C3_4 
REMARK       I    between atoms: C3_4  and  N2_6 
REMARK    2  A    between atoms: C4_8  and  C5_9 
ROOT
HETATM    1  N1  UNL     1      30.824 -26.286 -23.854  1.00  0.00    -0.100 NA
HETATM    2  C1  UNL     1      31.903 -26.503 -24.807  1.00  0.00     0.076 A 
HETATM    3  C2  UNL     1      32.708 -27.599 -24.666  1.00  0.00     0.098 A 
HETATM    4  S1  UNL     1      33.798 -27.447 -25.969  1.00  0.00    -0.087 SA
HETATM    5  C7  UNL     1      33.207 -26.002 -26.655  1.00  0.00    -0.008 A 
HETATM    6  C8  UNL     1      32.159 -25.677 -25.834  1.00  0.00    -0.019 A 
HETATM    7  C9  UNL     1      31.323 -24.427 -26.079  1.00  0.00     0.042 C 
HETATM    8  C10 UNL     1      31.030 -24.333 -27.562  1.00  0.00     0.005 C 
HETATM    9  C11 UNL     1      32.067 -23.443 -28.175  1.00  0.00     0.001 C 
HETATM   10  C12 UNL     1      33.475 -23.822 -27.815  1.00  0.00     0.005 C 
HETATM   11  C13 UNL     1      33.743 -25.291 -27.875  1.00  0.00     0.046 C 
ENDROOT
BRANCH   3  12
HETATM   12  C3  UNL     1      32.656 -28.659 -23.646  1.00  0.00     0.264 C 
HETATM   13  O1  UNL     1      33.217 -29.740 -23.895  1.00  0.00    -0.267 OA
HETATM   14  N2  UNL     1      31.978 -28.391 -22.449  1.00  0.00    -0.334 N 
HETATM   15  C4  UNL     1      32.406 -28.874 -21.344  1.00  0.00     0.098 C 
ATOM     16  H2  UNL     1      31.140 -27.809 -22.459  1.00  0.00     0.168 HD
BRANCH  15  17
HETATM   17  C5  UNL     1      33.614 -29.715 -21.327  1.00  0.00     0.183 A 
HETATM   18  C6  UNL     1      34.086 -30.360 -20.139  1.00  0.00     0.206 A 
HETATM   19  O2  UNL     1      33.328 -31.075 -21.069  1.00  0.00    -0.376 OA
ENDBRANCH  15  17
ENDBRANCH   3  12
TORSDOF 2
ENDMDL
MODEL 4
REMARK VINA RESULT: -7.150970857      2.512      6.827
REMARK  2 active torsions:
REMARK  status: ('A' for Active; 'I' for Inactive)
REMARK    1  A    between atoms: C2_3  and  C3_4 
REMARK       I    between atoms: C3_4  and  N2_6 
REMARK    2  A    between atoms: C4_8  and  C5_9 
ROOT
HETATM    1  N1  UNL     1      31.166 -25.677 -24.315  1.00  0.00    -0.100 NA
HETATM    2  C1  UNL     1      32.119 -25.842 -25.404  1.00  0.00     0.076 A 
HETATM    3  C2  UNL     1      32.817 -27.013 -25.509  1.00  0.00     0.098 A 
HETATM    4  S1  UNL     1      33.784 -26.762 -26.891  1.00  0.00    -0.087 SA
HETATM    5  C7  UNL     1      33.281 -25.184 -27.297  1.00  0.00    -0.008 A 
HETATM    6  C8  UNL     1      32.358 -24.896 -26.326  1.00  0.00    -0.019 A 
HETATM    7  C9  UNL     1      31.634 -23.556 -26.299  1.00  0.00     0.042 C 
HETATM    8  C10 UNL     1      31.209 -23.214 -27.712  1.00  0.00     0.005 C 
HETATM    9  C11 UNL     1      32.267 -22.336 -28.306  1.00  0.00     0.001 C 
HETATM   10  C12 UNL     1      33.657 -22.887 -28.162  1.00  0.00     0.005 C 
HETATM   11  C13 UNL     1      33.766 -24.348 -28.457  1.00  0.00     0.046 C 
ENDROOT
BRANCH   3  12
HETATM   12  C3  UNL     1      32.757 -28.206 -24.648  1.00  0.00     0.264 C 
HETATM   13  O1  UNL     1      32.911 -29.319 -25.178  1.00  0.00    -0.267 OA
HETATM   14  N2  UNL     1      32.528 -28.020 -23.278  1.00  0.00    -0.334 N 
HETATM   15  C4  UNL     1      33.091 -28.787 -22.421  1.00  0.00     0.098 C 
ATOM     16  H2  UNL     1      31.911 -27.271 -22.962  1.00  0.00     0.168 HD
BRANCH  15  17
HETATM   17  C5  UNL     1      33.980 -29.868 -22.874  1.00  0.00     0.183 A 
HETATM   18  C6  UNL     1      34.643 -30.753 -21.964  1.00  0.00     0.206 A 
HETATM   19  O2  UNL     1      33.463 -31.153 -22.595  1.00  0.00    -0.376 OA
ENDBRANCH  15  17
ENDBRANCH   3  12
TORSDOF 2
ENDMDL
MODEL 5
REMARK VINA RESULT: -6.724340472      2.494      7.074
REMARK  2 active torsions:
REMARK  status: ('A' for Active; 'I' for Inactive)
REMARK    1  A    between atoms: C2_3  and  C3_4 
REMARK       I    between atoms: C3_4  and  N2_6 
REMARK    2  A    between atoms: C4_8  and  C5_9 
ROOT
HETATM    1  N1  UNL     1      34.120 -27.378 -27.131  1.00  0.00    -0.100 NA
HETATM    2  C1  UNL     1      33.213 -26.409 -26.533  1.00  0.00     0.076 A 
HETATM    3  C2  UNL     1      32.536 -26.742 -25.393  1.00  0.00     0.098 A 
HETATM    4  S1  UNL     1      31.621 -25.340 -25.065  1.00  0.00    -0.087 SA
HETATM    5  C7  UNL     1      32.118 -24.373 -26.379  1.00  0.00    -0.008 A 
HETATM    6  C8  UNL     1      32.998 -25.186 -27.044  1.00  0.00    -0.019 A 
HETATM    7  C9  UNL     1      33.701 -24.716 -28.311  1.00  0.00     0.042 C 
HETATM    8  C10 UNL     1      34.176 -23.295 -28.095  1.00  0.00     0.005 C 
HETATM    9  C11 UNL     1      33.130 -22.376 -28.646  1.00  0.00     0.001 C 
HETATM   10  C12 UNL     1      31.744 -22.678 -28.155  1.00  0.00     0.005 C 
HETATM   11  C13 UNL     1      31.667 -22.966 -26.690  1.00  0.00     0.046 C 
ENDROOT
BRANCH   3  12
HETATM   12  C3  UNL     1      32.580 -27.997 -24.626  1.00  0.00     0.264 C 
HETATM   13  O1  UNL     1      32.829 -29.050 -25.238  1.00  0.00    -0.267 OA
HETATM   14  N2  UNL     1      32.338 -27.937 -23.246  1.00  0.00    -0.334 N 
HETATM   15  C4  UNL     1      32.965 -28.715 -22.447  1.00  0.00     0.098 C 
ATOM     16  H2  UNL     1      31.659 -27.270 -22.878  1.00  0.00     0.168 HD
BRANCH  15  17
HETATM   17  C5  UNL     1      33.944 -29.678 -22.976  1.00  0.00     0.183 A 
HETATM   18  C6  UNL     1      34.680 -30.571 -22.131  1.00  0.00     0.206 A 
HETATM   19  O2  UNL     1      33.539 -31.020 -22.800  1.00  0.00    -0.376 OA
ENDBRANCH  15  17
ENDBRANCH   3  12
TORSDOF 2
ENDMDL
