MODEL 1
REMARK VINA RESULT: -7.698333842      0.000      0.000
REMARK  2 active torsions:
REMARK  status: ('A' for Active; 'I' for Inactive)
REMARK    1  A    between atoms: C6_6  and  N1_7 
REMARK    2  A    between atoms: C8_9  and  C9_10 
ROOT
HETATM    1  N1  UNL     1      33.491 -27.728 -24.575  1.00  0.00    -0.282 N 
HETATM    2  C7  UNL     1      33.457 -26.398 -24.606  1.00  0.00     0.139 A 
HETATM    3  C8  UNL     1      33.363 -26.033 -25.914  1.00  0.00     0.050 A 
HETATM    4  N3  UNL     1      33.345 -27.165 -26.642  1.00  0.00    -0.289 N 
ATOM      5  H3  UNL     1      33.282 -27.224 -27.657  1.00  0.00     0.188 HD
HETATM    6  N4  UNL     1      33.422 -28.174 -25.818  1.00  0.00    -0.240 N 
ATOM      7  H4  UNL     1      33.428 -29.156 -26.091  1.00  0.00     0.208 HD
ENDROOT
BRANCH   3   8
HETATM    8  C9  UNL     1      33.290 -24.681 -26.540  1.00  0.00     0.070 C 
HETATM    9  C10 UNL     1      32.110 -24.720 -27.525  1.00  0.00     0.244 C 
HETATM   10  N2  UNL     1      31.187 -23.660 -27.078  1.00  0.00    -0.070 N 
HETATM   11  C11 UNL     1      32.070 -22.742 -26.482  1.00  0.00     0.190 C 
ATOM     12  H22 UNL     1      30.586 -23.273 -27.806  1.00  0.00     0.277 HD
ATOM     13  H21 UNL     1      30.422 -23.975 -26.482  1.00  0.00     0.277 HD
HETATM   14  C12 UNL     1      31.574 -21.800 -25.468  1.00  0.00     0.033 C 
HETATM   15  C15 UNL     1      32.818 -23.716 -25.540  1.00  0.00     0.028 C 
HETATM   16  C13 UNL     1      32.836 -21.578 -24.618  1.00  0.00     0.002 C 
HETATM   17  C14 UNL     1      33.765 -22.759 -24.949  1.00  0.00     0.007 C 
ENDBRANCH   3   8
BRANCH   1  18
HETATM   18  C6  UNL     1      33.586 -28.612 -23.433  1.00  0.00     0.109 C 
HETATM   19  C5  UNL     1      33.402 -30.021 -23.934  1.00  0.00     0.027 C 
HETATM   20  C4  UNL     1      33.936 -30.954 -22.855  1.00  0.00     0.002 C 
HETATM   21  C3  UNL     1      33.869 -30.287 -21.507  1.00  0.00     0.004 C 
HETATM   22  C2  UNL     1      32.590 -29.466 -21.382  1.00  0.00    -0.017 C 
HETATM   23  C1  UNL     1      32.566 -28.876 -19.970  1.00  0.00     0.010 C 
HETATM   24  C16 UNL     1      32.554 -28.338 -22.392  1.00  0.00     0.031 C 
ENDBRANCH   1  18
TORSDOF 2
ENDMDL
MODEL 2
REMARK VINA RESULT: -7.556007797      0.783      1.431
REMARK  2 active torsions:
REMARK  status: ('A' for Active; 'I' for Inactive)
REMARK    1  A    between atoms: C6_6  and  N1_7 
REMARK    2  A    between atoms: C8_9  and  C9_10 
ROOT
HETATM    1  N1  UNL     1      33.259 -27.688 -24.914  1.00  0.00    -0.282 N 
HETATM    2  C7  UNL     1      33.262 -26.359 -24.871  1.00  0.00     0.139 A 
HETATM    3  C8  UNL     1      33.373 -25.920 -26.156  1.00  0.00     0.050 A 
HETATM    4  N3  UNL     1      33.436 -27.009 -26.943  1.00  0.00    -0.289 N 
ATOM      5  H3  UNL     1      33.524 -27.011 -27.959  1.00  0.00     0.188 HD
HETATM    6  N4  UNL     1      33.365 -28.063 -26.178  1.00  0.00    -0.240 N 
ATOM      7  H4  UNL     1      33.389 -29.029 -26.504  1.00  0.00     0.208 HD
ENDROOT
BRANCH   3   8
HETATM    8  C9  UNL     1      33.426 -24.534 -26.704  1.00  0.00     0.070 C 
HETATM    9  C10 UNL     1      32.372 -24.467 -27.822  1.00  0.00     0.244 C 
HETATM   10  N2  UNL     1      31.443 -23.393 -27.424  1.00  0.00    -0.070 N 
HETATM   11  C11 UNL     1      32.282 -22.548 -26.676  1.00  0.00     0.190 C 
ATOM     12  H22 UNL     1      30.948 -22.941 -28.194  1.00  0.00     0.277 HD
ATOM     13  H21 UNL     1      30.600 -23.705 -26.941  1.00  0.00     0.277 HD
HETATM   14  C12 UNL     1      31.705 -21.642 -25.673  1.00  0.00     0.033 C 
HETATM   15  C15 UNL     1      32.875 -23.604 -25.712  1.00  0.00     0.028 C 
HETATM   16  C13 UNL     1      32.864 -21.522 -24.670  1.00  0.00     0.002 C 
HETATM   17  C14 UNL     1      33.780 -22.724 -24.959  1.00  0.00     0.007 C 
ENDBRANCH   3   8
BRANCH   1  18
HETATM   18  C6  UNL     1      33.162 -28.636 -23.825  1.00  0.00     0.109 C 
HETATM   19  C5  UNL     1      32.269 -28.030 -22.774  1.00  0.00     0.027 C 
HETATM   20  C4  UNL     1      31.810 -29.164 -21.866  1.00  0.00     0.002 C 
HETATM   21  C3  UNL     1      32.808 -30.291 -21.893  1.00  0.00     0.004 C 
HETATM   22  C2  UNL     1      34.230 -29.743 -21.938  1.00  0.00    -0.017 C 
HETATM   23  C1  UNL     1      35.180 -30.943 -21.898  1.00  0.00     0.010 C 
HETATM   24  C16 UNL     1      34.481 -28.953 -23.205  1.00  0.00     0.031 C 
ENDBRANCH   1  18
TORSDOF 2
ENDMDL
MODEL 3
REMARK VINA RESULT: -7.496307740      1.643      2.296
REMARK  2 active torsions:
REMARK  status: ('A' for Active; 'I' for Inactive)
REMARK    1  A    between atoms: C6_6  and  N1_7 
REMARK    2  A    between atoms: C8_9  and  C9_10 
ROOT
HETATM    1  N1  UNL     1      33.027 -27.497 -25.319  1.00  0.00    -0.282 N 
HETATM    2  C7  UNL     1      32.290 -26.427 -25.605  1.00  0.00     0.139 A 
HETATM    3  C8  UNL     1      32.737 -25.942 -26.797  1.00  0.00     0.050 A 
HETATM    4  N3  UNL     1      33.742 -26.742 -27.198  1.00  0.00    -0.289 N 
ATOM      5  H3  UNL     1      34.284 -26.640 -28.055  1.00  0.00     0.188 HD
HETATM    6  N4  UNL     1      33.901 -27.671 -26.296  1.00  0.00    -0.240 N 
ATOM      7  H4  UNL     1      34.594 -28.419 -26.338  1.00  0.00     0.208 HD
ENDROOT
BRANCH   3   8
HETATM    8  C9  UNL     1      32.284 -24.767 -27.596  1.00  0.00     0.070 C 
HETATM    9  C10 UNL     1      31.215 -24.053 -26.752  1.00  0.00     0.244 C 
HETATM   10  N2  UNL     1      31.721 -22.682 -26.552  1.00  0.00    -0.070 N 
HETATM   11  C11 UNL     1      32.494 -22.488 -27.711  1.00  0.00     0.190 C 
ATOM     12  H22 UNL     1      31.005 -21.975 -26.385  1.00  0.00     0.277 HD
ATOM     13  H21 UNL     1      32.214 -22.526 -25.672  1.00  0.00     0.277 HD
HETATM   14  C12 UNL     1      33.578 -21.496 -27.712  1.00  0.00     0.033 C 
HETATM   15  C15 UNL     1      33.359 -23.769 -27.632  1.00  0.00     0.028 C 
HETATM   16  C13 UNL     1      34.542 -22.102 -28.745  1.00  0.00     0.002 C 
HETATM   17  C14 UNL     1      34.136 -23.581 -28.865  1.00  0.00     0.007 C 
ENDBRANCH   3   8
BRANCH   1  18
HETATM   18  C6  UNL     1      32.958 -28.372 -24.169  1.00  0.00     0.109 C 
HETATM   19  C5  UNL     1      32.093 -27.697 -23.136  1.00  0.00     0.027 C 
HETATM   20  C4  UNL     1      31.657 -28.769 -22.146  1.00  0.00     0.002 C 
HETATM   21  C3  UNL     1      32.653 -29.898 -22.126  1.00  0.00     0.004 C 
HETATM   22  C2  UNL     1      34.074 -29.358 -22.242  1.00  0.00    -0.017 C 
HETATM   23  C1  UNL     1      35.023 -30.555 -22.150  1.00  0.00     0.010 C 
HETATM   24  C16 UNL     1      34.293 -28.651 -23.564  1.00  0.00     0.031 C 
ENDBRANCH   1  18
TORSDOF 2
ENDMDL
MODEL 4
REMARK VINA RESULT: -7.399433646      1.197      1.759
REMARK  2 active torsions:
REMARK  status: ('A' for Active; 'I' for Inactive)
REMARK    1  A    between atoms: C6_6  and  N1_7 
REMARK    2  A    between atoms: C8_9  and  C9_10 
ROOT
HETATM    1  N1  UNL     1      33.089 -27.851 -24.628  1.00  0.00    -0.282 N 
HETATM    2  C7  UNL     1      32.761 -26.568 -24.754  1.00  0.00     0.139 A 
HETATM    3  C8  UNL     1      32.582 -26.332 -26.083  1.00  0.00     0.050 A 
HETATM    4  N3  UNL     1      32.811 -27.492 -26.726  1.00  0.00    -0.289 N 
ATOM      5  H3  UNL     1      32.758 -27.639 -27.734  1.00  0.00     0.188 HD
HETATM    6  N4  UNL     1      33.114 -28.394 -25.834  1.00  0.00    -0.240 N 
ATOM      7  H4  UNL     1      33.337 -29.369 -26.035  1.00  0.00     0.208 HD
ENDROOT
BRANCH   3   8
HETATM    8  C9  UNL     1      32.208 -25.080 -26.803  1.00  0.00     0.070 C 
HETATM    9  C10 UNL     1      31.556 -24.157 -25.760  1.00  0.00     0.244 C 
HETATM   10  N2  UNL     1      32.376 -22.931 -25.751  1.00  0.00    -0.070 N 
HETATM   11  C11 UNL     1      32.864 -22.901 -27.069  1.00  0.00     0.190 C 
ATOM     12  H22 UNL     1      31.890 -22.086 -25.449  1.00  0.00     0.277 HD
ATOM     13  H21 UNL     1      33.091 -22.893 -25.023  1.00  0.00     0.277 HD
HETATM   14  C12 UNL     1      34.102 -22.169 -27.377  1.00  0.00     0.033 C 
HETATM   15  C15 UNL     1      33.429 -24.340 -27.142  1.00  0.00     0.028 C 
HETATM   16  C13 UNL     1      34.631 -22.962 -28.583  1.00  0.00     0.002 C 
HETATM   17  C14 UNL     1      33.902 -24.316 -28.534  1.00  0.00     0.007 C 
ENDBRANCH   3   8
BRANCH   1  18
HETATM   18  C6  UNL     1      33.384 -28.605 -23.428  1.00  0.00     0.109 C 
HETATM   19  C5  UNL     1      33.462 -30.059 -23.813  1.00  0.00     0.027 C 
HETATM   20  C4  UNL     1      34.195 -30.781 -22.690  1.00  0.00     0.002 C 
HETATM   21  C3  UNL     1      34.035 -30.031 -21.394  1.00  0.00     0.004 C 
HETATM   22  C2  UNL     1      32.626 -29.461 -21.278  1.00  0.00    -0.017 C 
HETATM   23  C1  UNL     1      32.525 -28.772 -19.915  1.00  0.00     0.010 C 
HETATM   24  C16 UNL     1      32.346 -28.447 -22.368  1.00  0.00     0.031 C 
ENDBRANCH   1  18
TORSDOF 2
ENDMDL
MODEL 5
REMARK VINA RESULT: -7.029446299      1.801      2.084
REMARK  2 active torsions:
REMARK  status: ('A' for Active; 'I' for Inactive)
REMARK    1  A    between atoms: C6_6  and  N1_7 
REMARK    2  A    between atoms: C8_9  and  C9_10 
ROOT
HETATM    1  N1  UNL     1      32.464 -27.581 -24.072  1.00  0.00    -0.282 N 
HETATM    2  C7  UNL     1      32.837 -27.346 -25.327  1.00  0.00     0.139 A 
HETATM    3  C8  UNL     1      31.947 -26.456 -25.847  1.00  0.00     0.050 A 
HETATM    4  N3  UNL     1      31.053 -26.179 -24.880  1.00  0.00    -0.289 N 
ATOM      5  H3  UNL     1      30.259 -25.545 -24.962  1.00  0.00     0.188 HD
HETATM    6  N4  UNL     1      31.381 -26.864 -23.820  1.00  0.00    -0.240 N 
ATOM      7  H4  UNL     1      30.879 -26.850 -22.932  1.00  0.00     0.208 HD
ENDROOT
BRANCH   3   8
HETATM    8  C9  UNL     1      31.873 -25.840 -27.203  1.00  0.00     0.070 C 
HETATM    9  C10 UNL     1      30.508 -25.138 -27.289  1.00  0.00     0.244 C 
HETATM   10  N2  UNL     1      30.810 -23.720 -27.562  1.00  0.00    -0.070 N 
HETATM   11  C11 UNL     1      32.024 -23.814 -28.264  1.00  0.00     0.190 C 
ATOM     12  H22 UNL     1      30.071 -23.204 -28.041  1.00  0.00     0.277 HD
ATOM     13  H21 UNL     1      30.829 -23.115 -26.740  1.00  0.00     0.277 HD
HETATM   14  C12 UNL     1      32.946 -22.669 -28.291  1.00  0.00     0.033 C 
HETATM   15  C15 UNL     1      32.802 -24.706 -27.265  1.00  0.00     0.028 C 
HETATM   16  C13 UNL     1      34.303 -23.375 -28.448  1.00  0.00     0.002 C 
HETATM   17  C14 UNL     1      34.056 -24.833 -28.022  1.00  0.00     0.007 C 
ENDBRANCH   3   8
BRANCH   1  18
HETATM   18  C6  UNL     1      33.071 -28.449 -23.086  1.00  0.00     0.109 C 
HETATM   19  C5  UNL     1      33.430 -29.739 -23.777  1.00  0.00     0.027 C 
HETATM   20  C4  UNL     1      34.444 -30.454 -22.893  1.00  0.00     0.002 C 
HETATM   21  C3  UNL     1      34.282 -30.025 -21.459  1.00  0.00     0.004 C 
HETATM   22  C2  UNL     1      32.806 -29.856 -21.117  1.00  0.00    -0.017 C 
HETATM   23  C1  UNL     1      32.723 -29.484 -19.635  1.00  0.00     0.010 C 
HETATM   24  C16 UNL     1      32.167 -28.758 -21.941  1.00  0.00     0.031 C 
ENDBRANCH   1  18
TORSDOF 2
ENDMDL
