MODEL 1
REMARK VINA RESULT: -5.947947917      0.000      0.000
REMARK  4 active torsions:
REMARK  status: ('A' for Active; 'I' for Inactive)
REMARK    1  A    between atoms: C2_2  and  C3_3 
REMARK    2  A    between atoms: C2_2  and  C10_19 
REMARK       I    between atoms: N3_9  and  C5_11 
REMARK    3  A    between atoms: C5_11  and  O2_13 
REMARK    4  A    between atoms: O2_13  and  C6_14 
ROOT
HETATM    1  C3  UNL     1      33.285 -28.275 -23.622  1.00  0.00     0.074 A 
HETATM    2  N1  UNL     1      34.071 -27.708 -24.522  1.00  0.00    -0.296 N 
ATOM      3  H1  UNL     1      35.027 -28.041 -24.647  1.00  0.00     0.187 HD
HETATM    4  N2  UNL     1      33.631 -26.743 -25.233  1.00  0.00    -0.279 N 
ATOM      5  H2  UNL     1      34.227 -26.297 -25.930  1.00  0.00     0.189 HD
HETATM    6  C4  UNL     1      32.377 -26.331 -25.045  1.00  0.00     0.169 A 
HETATM    7  N3  UNL     1      31.745 -25.362 -25.670  1.00  0.00    -0.281 N 
ATOM      8  H3  UNL     1      30.778 -25.134 -25.439  1.00  0.00     0.173 HD
HETATM    9  C5  UNL     1      32.437 -24.649 -26.667  1.00  0.00     0.367 C 
HETATM   10  O1  UNL     1      31.985 -24.758 -27.858  1.00  0.00    -0.238 OA
HETATM   11  S1  UNL     1      31.847 -27.381 -23.805  1.00  0.00    -0.037 SA
ENDROOT
BRANCH   9  12
HETATM   12  O2  UNL     1      33.538 -23.859 -26.467  1.00  0.00    -0.294 OA
BRANCH  12  13
HETATM   13  C6  UNL     1      33.371 -22.549 -25.945  1.00  0.00     0.061 C 
HETATM   14  C7  UNL     1      33.726 -22.454 -24.499  1.00  0.00     0.046 C 
HETATM   15  C8  UNL     1      34.325 -21.639 -26.723  1.00  0.00     0.046 C 
HETATM   16  C9  UNL     1      31.950 -22.050 -26.126  1.00  0.00     0.046 C 
ENDBRANCH  12  13
ENDBRANCH   9  12
BRANCH   1  17
HETATM   17  C2  UNL     1      33.641 -29.415 -22.705  1.00  0.00     0.044 C 
HETATM   18  C1  UNL     1      33.493 -30.673 -23.532  1.00  0.00     0.017 C 
BRANCH  17  19
HETATM   19  C10 UNL     1      32.711 -29.506 -21.546  1.00  0.00    -0.004 A 
HETATM   20  C11 UNL     1      32.774 -28.558 -20.408  1.00  0.00     0.006 A 
HETATM   21  C12 UNL     1      33.377 -29.910 -20.218  1.00  0.00     0.006 A 
ENDBRANCH  17  19
ENDBRANCH   1  17
TORSDOF 4
ENDMDL
MODEL 2
REMARK VINA RESULT: -5.930923421      0.050      1.009
REMARK  4 active torsions:
REMARK  status: ('A' for Active; 'I' for Inactive)
REMARK    1  A    between atoms: C2_2  and  C3_3 
REMARK    2  A    between atoms: C2_2  and  C10_19 
REMARK       I    between atoms: N3_9  and  C5_11 
REMARK    3  A    between atoms: C5_11  and  O2_13 
REMARK    4  A    between atoms: O2_13  and  C6_14 
ROOT
HETATM    1  C3  UNL     1      33.295 -28.281 -23.617  1.00  0.00     0.074 A 
HETATM    2  N1  UNL     1      34.089 -27.717 -24.511  1.00  0.00    -0.296 N 
ATOM      3  H1  UNL     1      35.044 -28.055 -24.632  1.00  0.00     0.187 HD
HETATM    4  N2  UNL     1      33.658 -26.750 -25.224  1.00  0.00    -0.279 N 
ATOM      5  H2  UNL     1      34.261 -26.305 -25.917  1.00  0.00     0.189 HD
HETATM    6  C4  UNL     1      32.405 -26.331 -25.044  1.00  0.00     0.169 A 
HETATM    7  N3  UNL     1      31.782 -25.358 -25.671  1.00  0.00    -0.281 N 
ATOM      8  H3  UNL     1      30.815 -25.125 -25.445  1.00  0.00     0.173 HD
HETATM    9  C5  UNL     1      32.484 -24.648 -26.663  1.00  0.00     0.367 C 
HETATM   10  O1  UNL     1      32.038 -24.753 -27.857  1.00  0.00    -0.238 OA
HETATM   11  S1  UNL     1      31.862 -27.379 -23.808  1.00  0.00    -0.037 SA
ENDROOT
BRANCH   9  12
HETATM   12  O2  UNL     1      33.588 -23.864 -26.455  1.00  0.00    -0.294 OA
BRANCH  12  13
HETATM   13  C6  UNL     1      33.418 -22.520 -26.030  1.00  0.00     0.061 C 
HETATM   14  C7  UNL     1      32.021 -22.030 -26.209  1.00  0.00     0.046 C 
HETATM   15  C8  UNL     1      33.738 -22.487 -24.532  1.00  0.00     0.046 C 
HETATM   16  C9  UNL     1      34.357 -21.577 -26.759  1.00  0.00     0.046 C 
ENDBRANCH  12  13
ENDBRANCH   9  12
BRANCH   1  17
HETATM   17  C2  UNL     1      33.638 -29.423 -22.699  1.00  0.00     0.044 C 
HETATM   18  C1  UNL     1      33.497 -30.680 -23.531  1.00  0.00     0.017 C 
BRANCH  17  19
HETATM   19  C10 UNL     1      32.696 -29.516 -21.550  1.00  0.00    -0.004 A 
HETATM   20  C11 UNL     1      32.748 -28.569 -20.410  1.00  0.00     0.006 A 
HETATM   21  C12 UNL     1      33.349 -29.921 -20.215  1.00  0.00     0.006 A 
ENDBRANCH  17  19
ENDBRANCH   1  17
TORSDOF 4
ENDMDL
MODEL 3
REMARK VINA RESULT: -5.288644430      2.511      6.962
REMARK  4 active torsions:
REMARK  status: ('A' for Active; 'I' for Inactive)
REMARK    1  A    between atoms: C2_2  and  C3_3 
REMARK    2  A    between atoms: C2_2  and  C10_19 
REMARK       I    between atoms: N3_9  and  C5_11 
REMARK    3  A    between atoms: C5_11  and  O2_13 
REMARK    4  A    between atoms: O2_13  and  C6_14 
ROOT
HETATM    1  C3  UNL     1      32.249 -24.181 -25.950  1.00  0.00     0.074 A 
HETATM    2  N1  UNL     1      31.860 -24.879 -24.896  1.00  0.00    -0.296 N 
ATOM      3  H1  UNL     1      31.175 -24.489 -24.249  1.00  0.00     0.187 HD
HETATM    4  N2  UNL     1      32.344 -26.043 -24.690  1.00  0.00    -0.279 N 
ATOM      5  H2  UNL     1      32.053 -26.591 -23.881  1.00  0.00     0.189 HD
HETATM    6  C4  UNL     1      33.237 -26.525 -25.554  1.00  0.00     0.169 A 
HETATM    7  N3  UNL     1      33.847 -27.690 -25.518  1.00  0.00    -0.281 N 
ATOM      8  H3  UNL     1      34.518 -27.952 -26.239  1.00  0.00     0.173 HD
HETATM    9  C5  UNL     1      33.548 -28.565 -24.457  1.00  0.00     0.367 C 
HETATM   10  O1  UNL     1      32.981 -29.667 -24.774  1.00  0.00    -0.238 OA
HETATM   11  S1  UNL     1      33.362 -25.245 -26.679  1.00  0.00    -0.037 SA
ENDROOT
BRANCH   9  12
HETATM   12  O2  UNL     1      33.813 -28.337 -23.133  1.00  0.00    -0.294 OA
BRANCH  12  13
HETATM   13  C6  UNL     1      33.178 -29.139 -22.147  1.00  0.00     0.061 C 
HETATM   14  C7  UNL     1      33.629 -28.815 -20.762  1.00  0.00     0.046 C 
HETATM   15  C8  UNL     1      31.679 -28.841 -22.234  1.00  0.00     0.046 C 
HETATM   16  C9  UNL     1      33.406 -30.618 -22.394  1.00  0.00     0.046 C 
ENDBRANCH  12  13
ENDBRANCH   9  12
BRANCH   1  17
HETATM   17  C2  UNL     1      31.784 -22.804 -26.340  1.00  0.00     0.044 C 
HETATM   18  C1  UNL     1      31.608 -22.043 -25.043  1.00  0.00     0.017 C 
BRANCH  17  19
HETATM   19  C10 UNL     1      30.472 -22.839 -27.042  1.00  0.00    -0.004 A 
HETATM   20  C11 UNL     1      30.146 -23.875 -28.052  1.00  0.00     0.006 A 
HETATM   21  C12 UNL     1      30.541 -22.524 -28.548  1.00  0.00     0.006 A 
ENDBRANCH  17  19
ENDBRANCH   1  17
TORSDOF 4
ENDMDL
MODEL 4
REMARK VINA RESULT: -5.259091964      2.255      6.655
REMARK  4 active torsions:
REMARK  status: ('A' for Active; 'I' for Inactive)
REMARK    1  A    between atoms: C2_2  and  C3_3 
REMARK    2  A    between atoms: C2_2  and  C10_19 
REMARK       I    between atoms: N3_9  and  C5_11 
REMARK    3  A    between atoms: C5_11  and  O2_13 
REMARK    4  A    between atoms: O2_13  and  C6_14 
ROOT
HETATM    1  C3  UNL     1      32.328 -23.515 -25.403  1.00  0.00     0.074 A 
HETATM    2  N1  UNL     1      31.538 -24.450 -24.902  1.00  0.00    -0.296 N 
ATOM      3  H1  UNL     1      30.628 -24.197 -24.516  1.00  0.00     0.187 HD
HETATM    4  N2  UNL     1      31.917 -25.669 -24.902  1.00  0.00    -0.279 N 
ATOM      5  H2  UNL     1      31.318 -26.400 -24.518  1.00  0.00     0.189 HD
HETATM    6  C4  UNL     1      33.111 -25.967 -25.413  1.00  0.00     0.169 A 
HETATM    7  N3  UNL     1      33.677 -27.150 -25.504  1.00  0.00    -0.281 N 
ATOM      8  H3  UNL     1      34.603 -27.258 -25.917  1.00  0.00     0.173 HD
HETATM    9  C5  UNL     1      32.970 -28.266 -25.017  1.00  0.00     0.367 C 
HETATM   10  O1  UNL     1      32.630 -29.143 -25.883  1.00  0.00    -0.238 OA
HETATM   11  S1  UNL     1      33.678 -24.428 -25.897  1.00  0.00    -0.037 SA
ENDROOT
BRANCH   9  12
HETATM   12  O2  UNL     1      32.623 -28.484 -23.710  1.00  0.00    -0.294 OA
BRANCH  12  13
HETATM   13  C6  UNL     1      33.523 -29.175 -22.856  1.00  0.00     0.061 C 
HETATM   14  C7  UNL     1      33.403 -30.658 -22.970  1.00  0.00     0.046 C 
HETATM   15  C8  UNL     1      34.937 -28.784 -23.296  1.00  0.00     0.046 C 
HETATM   16  C9  UNL     1      33.329 -28.787 -21.403  1.00  0.00     0.046 C 
ENDBRANCH  12  13
ENDBRANCH   9  12
BRANCH   1  17
HETATM   17  C2  UNL     1      32.040 -22.039 -25.481  1.00  0.00     0.044 C 
HETATM   18  C1  UNL     1      31.944 -21.713 -26.956  1.00  0.00     0.017 C 
BRANCH  17  19
HETATM   19  C10 UNL     1      33.141 -21.227 -24.894  1.00  0.00    -0.004 A 
HETATM   20  C11 UNL     1      33.785 -21.585 -23.608  1.00  0.00     0.006 A 
HETATM   21  C12 UNL     1      32.772 -20.489 -23.593  1.00  0.00     0.006 A 
ENDBRANCH  17  19
ENDBRANCH   1  17
TORSDOF 4
ENDMDL
MODEL 5
REMARK VINA RESULT: -5.218717956      2.520      6.811
REMARK  4 active torsions:
REMARK  status: ('A' for Active; 'I' for Inactive)
REMARK    1  A    between atoms: C2_2  and  C3_3 
REMARK    2  A    between atoms: C2_2  and  C10_19 
REMARK       I    between atoms: N3_9  and  C5_11 
REMARK    3  A    between atoms: C5_11  and  O2_13 
REMARK    4  A    between atoms: O2_13  and  C6_14 
ROOT
HETATM    1  C3  UNL     1      31.946 -24.866 -26.033  1.00  0.00     0.074 A 
HETATM    2  N1  UNL     1      31.230 -25.744 -25.351  1.00  0.00    -0.296 N 
ATOM      3  H1  UNL     1      30.246 -25.559 -25.154  1.00  0.00     0.187 HD
HETATM    4  N2  UNL     1      31.772 -26.824 -24.939  1.00  0.00    -0.279 N 
ATOM      5  H2  UNL     1      31.231 -27.510 -24.411  1.00  0.00     0.189 HD
HETATM    6  C4  UNL     1      33.059 -27.038 -25.213  1.00  0.00     0.169 A 
HETATM    7  N3  UNL     1      33.793 -28.077 -24.880  1.00  0.00    -0.281 N 
ATOM      8  H3  UNL     1      34.776 -28.130 -25.145  1.00  0.00     0.173 HD
HETATM    9  C5  UNL     1      33.186 -29.114 -24.148  1.00  0.00     0.367 C 
HETATM   10  O1  UNL     1      33.105 -30.248 -24.732  1.00  0.00    -0.238 OA
HETATM   11  S1  UNL     1      33.469 -25.626 -26.086  1.00  0.00    -0.037 SA
ENDROOT
BRANCH   9  12
HETATM   12  O2  UNL     1      32.682 -29.008 -22.878  1.00  0.00    -0.294 OA
BRANCH  12  13
HETATM   13  C6  UNL     1      33.375 -29.621 -21.800  1.00  0.00     0.061 C 
HETATM   14  C7  UNL     1      34.793 -29.943 -22.135  1.00  0.00     0.046 C 
HETATM   15  C8  UNL     1      33.383 -28.611 -20.649  1.00  0.00     0.046 C 
HETATM   16  C9  UNL     1      32.688 -30.892 -21.341  1.00  0.00     0.046 C 
ENDBRANCH  12  13
ENDBRANCH   9  12
BRANCH   1  17
HETATM   17  C2  UNL     1      31.468 -23.551 -26.588  1.00  0.00     0.044 C 
HETATM   18  C1  UNL     1      31.893 -23.535 -28.040  1.00  0.00     0.017 C 
BRANCH  17  19
HETATM   19  C10 UNL     1      32.106 -22.394 -25.902  1.00  0.00    -0.004 A 
HETATM   20  C11 UNL     1      32.322 -22.368 -24.435  1.00  0.00     0.006 A 
HETATM   21  C12 UNL     1      31.167 -21.596 -24.979  1.00  0.00     0.006 A 
ENDBRANCH  17  19
ENDBRANCH   1  17
TORSDOF 4
ENDMDL
