MODEL 1
REMARK VINA RESULT: -8.336985162      0.000      0.000
REMARK  13 active torsions:
REMARK  status: ('A' for Active; 'I' for Inactive)
REMARK    1  A    between atoms: N1_2  and  C2_3 
REMARK    2  A    between atoms: N1_2  and  C14_42 
REMARK    3  A    between atoms: C2_3  and  C3_4 
REMARK    4  A    between atoms: C4_8  and  C5_9 
REMARK    5  A    between atoms: C5_9  and  O2_10 
REMARK    6  A    between atoms: C5_9  and  N3_12 
REMARK    7  A    between atoms: N3_12  and  C6_14 
REMARK    8  A    between atoms: C9_19  and  N5_20 
REMARK    9  A    between atoms: C10_25  and  C11_26 
REMARK   10  A    between atoms: C11_26  and  N7_27 
REMARK   11  A    between atoms: C11_26  and  N8_31 
REMARK   12  A    between atoms: C15_45  and  N14_46 
REMARK   13  A    between atoms: C16_51  and  N16_52 
ROOT
HETATM    1  N8  UNL     1      19.457   8.363 -30.922  1.00  0.00    -0.295 N 
ATOM      2  H8  UNL     1      19.486   7.439 -30.490  1.00  0.00     0.174 HD
HETATM    3  C12 UNL     1      20.666   9.047 -31.133  1.00  0.00     0.179 C 
HETATM    4  N9  UNL     1      21.687   9.601 -31.305  1.00  0.00    -0.172 NA
ENDROOT
BRANCH   1   5
HETATM    5  C11 UNL     1      18.179   8.913 -31.291  1.00  0.00     0.344 C 
BRANCH   5   6
HETATM    6  C10 UNL     1      17.344   9.099 -30.094  1.00  0.00     0.107 A 
HETATM    7  N6  UNL     1      17.871   9.187 -28.861  1.00  0.00    -0.190 N 
HETATM    8  C9  UNL     1      17.089   9.360 -27.773  1.00  0.00     0.676 A 
ATOM      9  H6  UNL     1      18.882   9.122 -28.745  1.00  0.00     0.184 HD
HETATM   10  N4  UNL     1      15.754   9.446 -27.938  1.00  0.00    -0.190 N 
HETATM   11  C8  UNL     1      15.169   9.366 -29.147  1.00  0.00     0.083 A 
ATOM     12  H4  UNL     1      15.165   9.576 -27.116  1.00  0.00     0.184 HD
HETATM   13  C7  UNL     1      13.804   9.450 -29.347  1.00  0.00     0.082 A 
HETATM   14  C13 UNL     1      15.963   9.188 -30.264  1.00  0.00     0.102 A 
HETATM   15  C6  UNL     1      13.222   9.366 -30.591  1.00  0.00     0.120 A 
HETATM   16  N11 UNL     1      14.081   9.191 -31.635  1.00  0.00    -0.285 N 
HETATM   17  N10 UNL     1      15.388   9.107 -31.478  1.00  0.00    -0.295 N 
ATOM     18  H11 UNL     1      13.696   9.123 -32.577  1.00  0.00     0.188 HD
ATOM     19  H10 UNL     1      15.979   8.977 -32.299  1.00  0.00     0.187 HD
BRANCH   8  20
HETATM   20  N5  UNL     1      17.666   9.435 -26.625  1.00  0.00    -0.234 N 
ATOM     21  H52 UNL     1      17.073   9.498 -25.797  1.00  0.00     0.174 HD
ATOM     22  H51 UNL     1      18.679   9.434 -26.505  1.00  0.00     0.174 HD
ENDBRANCH   8  20
BRANCH  15  23
HETATM   23  N3  UNL     1      11.834   9.446 -30.828  1.00  0.00    -0.342 N 
ATOM     24  H3  UNL     1      11.423  10.348 -31.066  1.00  0.00     0.164 HD
BRANCH  23  25
HETATM   25  C5  UNL     1      10.981   8.287 -30.743  1.00  0.00     0.298 C 
BRANCH  25  26
HETATM   26  C4  UNL     1      10.062   8.225 -31.907  1.00  0.00     0.197 A 
HETATM   27  O1  UNL     1      10.262   7.526 -32.985  1.00  0.00    -0.218 OA
HETATM   28  N2  UNL     1       9.271   7.705 -33.779  1.00  0.00    -0.245 N 
HETATM   29  C3  UNL     1       8.368   8.544 -33.241  1.00  0.00     0.122 A 
ATOM     30  H2  UNL     1       9.180   7.269 -34.697  1.00  0.00     0.196 HD
HETATM   31  N12 UNL     1       8.893   8.864 -32.044  1.00  0.00    -0.322 N 
ATOM     32  H12 UNL     1       8.472   9.489 -31.357  1.00  0.00     0.169 HD
BRANCH  29  33
HETATM   33  C2  UNL     1       7.078   9.010 -33.839  1.00  0.00     0.219 C 
BRANCH  33  34
HETATM   34  N1  UNL     1       6.066   7.986 -33.789  1.00  0.00    -0.214 N 
HETATM   35  C1  UNL     1       6.370   6.570 -33.857  1.00  0.00     0.169 C 
BRANCH  34  36
HETATM   36  C14 UNL     1       4.696   8.348 -33.666  1.00  0.00     0.709 A 
HETATM   37  N13 UNL     1       4.427   9.681 -33.701  1.00  0.00    -0.022 N 
HETATM   38  C15 UNL     1       3.161  10.139 -33.594  1.00  0.00     0.705 A 
ATOM     39  H13 UNL     1       5.194  10.345 -33.810  1.00  0.00     0.203 HD
HETATM   40  N15 UNL     1       2.163   9.248 -33.450  1.00  0.00    -0.022 N 
HETATM   41  C16 UNL     1       2.448   7.927 -33.417  1.00  0.00     0.705 A 
ATOM     42  H15 UNL     1       1.197   9.568 -33.367  1.00  0.00     0.203 HD
HETATM   43  N17 UNL     1       3.715   7.469 -33.524  1.00  0.00    -0.022 N 
ATOM     44  H17 UNL     1       3.911   6.468 -33.497  1.00  0.00     0.203 HD
BRANCH  38  45
HETATM   45  N14 UNL     1       2.904  11.410 -33.627  1.00  0.00    -0.234 N 
ATOM     46 2H14 UNL     1       3.641  12.090 -33.435  1.00  0.00     0.174 HD
ATOM     47 1H14 UNL     1       1.968  11.753 -33.844  1.00  0.00     0.174 HD
ENDBRANCH  38  45
BRANCH  41  48
HETATM   48  N16 UNL     1       1.446   7.129 -33.277  1.00  0.00    -0.234 N 
ATOM     49 2H16 UNL     1       0.485   7.473 -33.240  1.00  0.00     0.174 HD
ATOM     50 1H16 UNL     1       1.664   6.136 -33.205  1.00  0.00     0.174 HD
ENDBRANCH  41  48
ENDBRANCH  34  36
ENDBRANCH  33  34
ENDBRANCH  29  33
ENDBRANCH  25  26
BRANCH  25  51
HETATM   51  O2  UNL     1      11.848   7.171 -30.738  1.00  0.00    -0.369 OA
ATOM     52  H2  UNL     1      12.734   7.439 -30.525  1.00  0.00     0.212 HD
ENDBRANCH  25  51
ENDBRANCH  23  25
ENDBRANCH  15  23
ENDBRANCH   5   6
BRANCH   5  53
HETATM   53  N7  UNL     1      18.382  10.181 -31.973  1.00  0.00    -0.052 N 
ATOM     54  H73 UNL     1      17.537  10.752 -31.972  1.00  0.00     0.277 HD
ATOM     55  H72 UNL     1      18.988  10.806 -31.441  1.00  0.00     0.277 HD
ATOM     56  H71 UNL     1      18.732  10.027 -32.919  1.00  0.00     0.277 HD
ENDBRANCH   5  53
ENDBRANCH   1   5
TORSDOF 13
ENDMDL
MODEL 2
REMARK VINA RESULT: -8.315418456      0.136      1.346
REMARK  13 active torsions:
REMARK  status: ('A' for Active; 'I' for Inactive)
REMARK    1  A    between atoms: N1_2  and  C2_3 
REMARK    2  A    between atoms: N1_2  and  C14_42 
REMARK    3  A    between atoms: C2_3  and  C3_4 
REMARK    4  A    between atoms: C4_8  and  C5_9 
REMARK    5  A    between atoms: C5_9  and  O2_10 
REMARK    6  A    between atoms: C5_9  and  N3_12 
REMARK    7  A    between atoms: N3_12  and  C6_14 
REMARK    8  A    between atoms: C9_19  and  N5_20 
REMARK    9  A    between atoms: C10_25  and  C11_26 
REMARK   10  A    between atoms: C11_26  and  N7_27 
REMARK   11  A    between atoms: C11_26  and  N8_31 
REMARK   12  A    between atoms: C15_45  and  N14_46 
REMARK   13  A    between atoms: C16_51  and  N16_52 
ROOT
HETATM    1  N8  UNL     1      19.361   8.314 -31.048  1.00  0.00    -0.295 N 
ATOM      2  H8  UNL     1      19.382   7.368 -30.669  1.00  0.00     0.174 HD
HETATM    3  C12 UNL     1      20.577   8.991 -31.242  1.00  0.00     0.179 C 
HETATM    4  N9  UNL     1      21.603   9.538 -31.401  1.00  0.00    -0.172 NA
ENDROOT
BRANCH   1   5
HETATM    5  C11 UNL     1      18.086   8.904 -31.365  1.00  0.00     0.344 C 
BRANCH   5   6
HETATM    6  C10 UNL     1      17.298   9.091 -30.136  1.00  0.00     0.107 A 
HETATM    7  N6  UNL     1      17.872   9.178 -28.924  1.00  0.00    -0.190 N 
HETATM    8  C9  UNL     1      17.134   9.354 -27.806  1.00  0.00     0.676 A 
ATOM      9  H6  UNL     1      18.887   9.111 -28.847  1.00  0.00     0.184 HD
HETATM   10  N4  UNL     1      15.793   9.442 -27.920  1.00  0.00    -0.190 N 
HETATM   11  C8  UNL     1      15.162   9.364 -29.105  1.00  0.00     0.083 A 
ATOM     12  H4  UNL     1      15.237   9.574 -27.076  1.00  0.00     0.184 HD
HETATM   13  C7  UNL     1      13.790   9.451 -29.253  1.00  0.00     0.082 A 
HETATM   14  C13 UNL     1      15.911   9.184 -30.252  1.00  0.00     0.102 A 
HETATM   15  C6  UNL     1      13.160   9.367 -30.473  1.00  0.00     0.120 A 
HETATM   16  N11 UNL     1      13.978   9.191 -31.549  1.00  0.00    -0.285 N 
HETATM   17  N10 UNL     1      15.290   9.104 -31.443  1.00  0.00    -0.295 N 
ATOM     18  H11 UNL     1      13.557   9.123 -32.475  1.00  0.00     0.188 HD
ATOM     19  H10 UNL     1      15.849   8.972 -32.287  1.00  0.00     0.187 HD
BRANCH   8  20
HETATM   20  N5  UNL     1      17.755   9.428 -26.682  1.00  0.00    -0.234 N 
ATOM     21  H52 UNL     1      17.874  10.350 -26.263  1.00  0.00     0.174 HD
ATOM     22  H51 UNL     1      18.129   8.614 -26.194  1.00  0.00     0.174 HD
ENDBRANCH   8  20
BRANCH  15  23
HETATM   23  N3  UNL     1      11.765   9.451 -30.657  1.00  0.00    -0.342 N 
ATOM     24  H3  UNL     1      11.341  10.360 -30.839  1.00  0.00     0.164 HD
BRANCH  23  25
HETATM   25  C5  UNL     1      10.920   8.285 -30.594  1.00  0.00     0.298 C 
BRANCH  25  26
HETATM   26  C4  UNL     1      10.055   8.197 -31.797  1.00  0.00     0.197 A 
HETATM   27  O1  UNL     1      10.265   7.419 -32.818  1.00  0.00    -0.218 OA
HETATM   28  N2  UNL     1       9.325   7.600 -33.671  1.00  0.00    -0.245 N 
HETATM   29  C3  UNL     1       8.447   8.521 -33.233  1.00  0.00     0.122 A 
ATOM     30  H2  UNL     1       9.253   7.110 -34.563  1.00  0.00     0.196 HD
HETATM   31  N12 UNL     1       8.934   8.890 -32.033  1.00  0.00    -0.322 N 
ATOM     32  H12 UNL     1       8.517   9.581 -31.409  1.00  0.00     0.169 HD
BRANCH  29  33
HETATM   33  C2  UNL     1       7.217   9.018 -33.925  1.00  0.00     0.219 C 
BRANCH  33  34
HETATM   34  N1  UNL     1       6.139   8.067 -33.843  1.00  0.00    -0.214 N 
HETATM   35  C1  UNL     1       6.342   6.632 -33.908  1.00  0.00     0.169 C 
BRANCH  34  36
HETATM   36  C14 UNL     1       4.800   8.522 -33.690  1.00  0.00     0.709 A 
HETATM   37  N13 UNL     1       3.857   7.556 -33.534  1.00  0.00    -0.022 N 
HETATM   38  C15 UNL     1       2.553   7.873 -33.380  1.00  0.00     0.705 A 
ATOM     39  H13 UNL     1       4.138   6.576 -33.534  1.00  0.00     0.203 HD
HETATM   40  N15 UNL     1       2.201   9.173 -33.383  1.00  0.00    -0.022 N 
HETATM   41  C16 UNL     1       3.152  10.121 -33.539  1.00  0.00     0.705 A 
ATOM     42  H15 UNL     1       1.223   9.440 -33.268  1.00  0.00     0.203 HD
HETATM   43  N17 UNL     1       4.457   9.802 -33.694  1.00  0.00    -0.022 N 
ATOM     44  H17 UNL     1       5.161  10.532 -33.811  1.00  0.00     0.203 HD
BRANCH  38  45
HETATM   45  N14 UNL     1       1.652   6.952 -33.231  1.00  0.00    -0.234 N 
ATOM     46 2H14 UNL     1       0.747   7.038 -33.693  1.00  0.00     0.174 HD
ATOM     47 1H14 UNL     1       1.831   6.129 -32.655  1.00  0.00     0.174 HD
ENDBRANCH  38  45
BRANCH  41  48
HETATM   48  N16 UNL     1       2.747  11.344 -33.533  1.00  0.00    -0.234 N 
ATOM     49 2H16 UNL     1       2.346  11.774 -32.699  1.00  0.00     0.174 HD
ATOM     50 1H16 UNL     1       2.848  11.859 -34.408  1.00  0.00     0.174 HD
ENDBRANCH  41  48
ENDBRANCH  34  36
ENDBRANCH  33  34
ENDBRANCH  29  33
ENDBRANCH  25  26
BRANCH  25  51
HETATM   51  O2  UNL     1      11.796   7.177 -30.534  1.00  0.00    -0.369 OA
ATOM     52  H2  UNL     1      11.305   6.365 -30.551  1.00  0.00     0.212 HD
ENDBRANCH  25  51
ENDBRANCH  23  25
ENDBRANCH  15  23
ENDBRANCH   5   6
BRANCH   5  53
HETATM   53  N7  UNL     1      18.299  10.178 -32.033  1.00  0.00    -0.052 N 
ATOM     54  H73 UNL     1      19.234  10.546 -31.860  1.00  0.00     0.277 HD
ATOM     55  H72 UNL     1      18.363  10.068 -33.046  1.00  0.00     0.277 HD
ATOM     56  H71 UNL     1      17.574  10.845 -31.769  1.00  0.00     0.277 HD
ENDBRANCH   5  53
ENDBRANCH   1   5
TORSDOF 13
ENDMDL
MODEL 3
REMARK VINA RESULT: -8.275088016      2.244      3.721
REMARK  13 active torsions:
REMARK  status: ('A' for Active; 'I' for Inactive)
REMARK    1  A    between atoms: N1_2  and  C2_3 
REMARK    2  A    between atoms: N1_2  and  C14_42 
REMARK    3  A    between atoms: C2_3  and  C3_4 
REMARK    4  A    between atoms: C4_8  and  C5_9 
REMARK    5  A    between atoms: C5_9  and  O2_10 
REMARK    6  A    between atoms: C5_9  and  N3_12 
REMARK    7  A    between atoms: N3_12  and  C6_14 
REMARK    8  A    between atoms: C9_19  and  N5_20 
REMARK    9  A    between atoms: C10_25  and  C11_26 
REMARK   10  A    between atoms: C11_26  and  N7_27 
REMARK   11  A    between atoms: C11_26  and  N8_31 
REMARK   12  A    between atoms: C15_45  and  N14_46 
REMARK   13  A    between atoms: C16_51  and  N16_52 
ROOT
HETATM    1  N8  UNL     1      19.646   8.412 -30.963  1.00  0.00    -0.295 N 
ATOM      2  H8  UNL     1      19.631   7.478 -30.555  1.00  0.00     0.174 HD
HETATM    3  C12 UNL     1      20.884   9.053 -31.140  1.00  0.00     0.179 C 
HETATM    4  N9  UNL     1      21.928   9.569 -31.283  1.00  0.00    -0.172 NA
ENDROOT
BRANCH   1   5
HETATM    5  C11 UNL     1      18.396   9.022 -31.337  1.00  0.00     0.344 C 
BRANCH   5   6
HETATM    6  C10 UNL     1      17.530   9.163 -30.156  1.00  0.00     0.107 A 
HETATM    7  N6  UNL     1      18.026   9.235 -28.910  1.00  0.00    -0.190 N 
HETATM    8  C9  UNL     1      17.216   9.368 -27.836  1.00  0.00     0.676 A 
ATOM      9  H6  UNL     1      19.036   9.190 -28.771  1.00  0.00     0.184 HD
HETATM   10  N4  UNL     1      15.883   9.428 -28.031  1.00  0.00    -0.190 N 
HETATM   11  C8  UNL     1      15.328   9.361 -29.254  1.00  0.00     0.083 A 
ATOM     12  H4  UNL     1      15.273   9.527 -27.220  1.00  0.00     0.184 HD
HETATM   13  C7  UNL     1      13.966   9.419 -29.485  1.00  0.00     0.082 A 
HETATM   14  C13 UNL     1      16.151   9.225 -30.356  1.00  0.00     0.102 A 
HETATM   15  C6  UNL     1      13.415   9.349 -30.744  1.00  0.00     0.120 A 
HETATM   16  N11 UNL     1      14.301   9.216 -31.770  1.00  0.00    -0.285 N 
HETATM   17  N10 UNL     1      15.606   9.158 -31.585  1.00  0.00    -0.295 N 
ATOM     18  H11 UNL     1      13.940   9.160 -32.722  1.00  0.00     0.188 HD
ATOM     19  H10 UNL     1      16.219   9.058 -32.395  1.00  0.00     0.187 HD
BRANCH   8  20
HETATM   20  N5  UNL     1      17.764   9.430 -26.674  1.00  0.00    -0.234 N 
ATOM     21  H52 UNL     1      18.289  10.274 -26.439  1.00  0.00     0.174 HD
ATOM     22  H51 UNL     1      17.700   8.683 -25.983  1.00  0.00     0.174 HD
ENDBRANCH   8  20
BRANCH  15  23
HETATM   23  N3  UNL     1      12.031   9.404 -31.011  1.00  0.00    -0.342 N 
ATOM     24  H3  UNL     1      11.651  10.219 -31.492  1.00  0.00     0.164 HD
BRANCH  23  25
HETATM   25  C5  UNL     1      11.141   8.339 -30.624  1.00  0.00     0.298 C 
BRANCH  25  26
HETATM   26  C4  UNL     1      10.070   8.156 -31.635  1.00  0.00     0.197 A 
HETATM   27  O1  UNL     1       9.939   7.122 -32.413  1.00  0.00    -0.218 OA
HETATM   28  N2  UNL     1       8.910   7.297 -33.158  1.00  0.00    -0.245 N 
HETATM   29  C3  UNL     1       8.316   8.474 -32.891  1.00  0.00     0.122 A 
ATOM     30  H2  UNL     1       8.585   6.631 -33.860  1.00  0.00     0.196 HD
HETATM   31  N12 UNL     1       9.074   9.007 -31.914  1.00  0.00    -0.322 N 
ATOM     32  H12 UNL     1       8.915   9.908 -31.463  1.00  0.00     0.169 HD
BRANCH  29  33
HETATM   33  C2  UNL     1       7.095   9.053 -33.533  1.00  0.00     0.219 C 
BRANCH  33  34
HETATM   34  N1  UNL     1       7.191   9.037 -34.971  1.00  0.00    -0.214 N 
HETATM   35  C1  UNL     1       6.398   8.158 -35.807  1.00  0.00     0.169 C 
BRANCH  34  36
HETATM   36  C14 UNL     1       8.095   9.914 -35.631  1.00  0.00     0.709 A 
HETATM   37  N13 UNL     1       8.936   9.336 -36.529  1.00  0.00    -0.022 N 
HETATM   38  C15 UNL     1       9.837  10.072 -37.215  1.00  0.00     0.705 A 
ATOM     39  H13 UNL     1       8.886   8.330 -36.688  1.00  0.00     0.203 HD
HETATM   40  N15 UNL     1       9.889  11.399 -36.992  1.00  0.00    -0.022 N 
HETATM   41  C16 UNL     1       9.046  11.957 -36.094  1.00  0.00     0.705 A 
ATOM     42  H15 UNL     1      10.561  11.979 -37.496  1.00  0.00     0.203 HD
HETATM   43  N17 UNL     1       8.145  11.220 -35.409  1.00  0.00    -0.022 N 
ATOM     44  H17 UNL     1       7.517  11.659 -34.735  1.00  0.00     0.203 HD
BRANCH  38  45
HETATM   45  N14 UNL     1      10.640   9.521 -38.072  1.00  0.00    -0.234 N 
ATOM     46 2H14 UNL     1      11.650   9.615 -37.966  1.00  0.00     0.174 HD
ATOM     47 1H14 UNL     1      10.279   8.986 -38.863  1.00  0.00     0.174 HD
ENDBRANCH  38  45
BRANCH  41  48
HETATM   48  N16 UNL     1       9.150  13.231 -35.929  1.00  0.00    -0.234 N 
ATOM     49 2H16 UNL     1       9.104  13.882 -36.714  1.00  0.00     0.174 HD
ATOM     50 1H16 UNL     1       9.280  13.554 -34.971  1.00  0.00     0.174 HD
ENDBRANCH  41  48
ENDBRANCH  34  36
ENDBRANCH  33  34
ENDBRANCH  29  33
ENDBRANCH  25  26
BRANCH  25  51
HETATM   51  O2  UNL     1      11.943   7.178 -30.539  1.00  0.00    -0.369 OA
ATOM     52  H2  UNL     1      12.489   7.208 -29.763  1.00  0.00     0.212 HD
ENDBRANCH  25  51
ENDBRANCH  23  25
ENDBRANCH  15  23
ENDBRANCH   5   6
BRANCH   5  53
HETATM   53  N7  UNL     1      18.656  10.321 -31.937  1.00  0.00    -0.052 N 
ATOM     54  H73 UNL     1      17.804  10.750 -32.297  1.00  0.00     0.277 HD
ATOM     55  H72 UNL     1      18.895  11.022 -31.234  1.00  0.00     0.277 HD
ATOM     56  H71 UNL     1      19.375  10.245 -32.656  1.00  0.00     0.277 HD
ENDBRANCH   5  53
ENDBRANCH   1   5
TORSDOF 13
ENDMDL
MODEL 4
REMARK VINA RESULT: -8.253088021      2.212      3.547
REMARK  13 active torsions:
REMARK  status: ('A' for Active; 'I' for Inactive)
REMARK    1  A    between atoms: N1_2  and  C2_3 
REMARK    2  A    between atoms: N1_2  and  C14_42 
REMARK    3  A    between atoms: C2_3  and  C3_4 
REMARK    4  A    between atoms: C4_8  and  C5_9 
REMARK    5  A    between atoms: C5_9  and  O2_10 
REMARK    6  A    between atoms: C5_9  and  N3_12 
REMARK    7  A    between atoms: N3_12  and  C6_14 
REMARK    8  A    between atoms: C9_19  and  N5_20 
REMARK    9  A    between atoms: C10_25  and  C11_26 
REMARK   10  A    between atoms: C11_26  and  N7_27 
REMARK   11  A    between atoms: C11_26  and  N8_31 
REMARK   12  A    between atoms: C15_45  and  N14_46 
REMARK   13  A    between atoms: C16_51  and  N16_52 
ROOT
HETATM    1  N8  UNL     1      19.643   8.483 -31.124  1.00  0.00    -0.295 N 
ATOM      2  H8  UNL     1      19.568   7.514 -30.816  1.00  0.00     0.174 HD
HETATM    3  C12 UNL     1      20.918   9.067 -31.212  1.00  0.00     0.179 C 
HETATM    4  N9  UNL     1      21.992   9.535 -31.284  1.00  0.00    -0.172 NA
ENDROOT
BRANCH   1   5
HETATM    5  C11 UNL     1      18.438   9.199 -31.453  1.00  0.00     0.344 C 
BRANCH   5   6
HETATM    6  C10 UNL     1      17.560   9.278 -30.274  1.00  0.00     0.107 A 
HETATM    7  N6  UNL     1      18.046   9.323 -29.022  1.00  0.00    -0.190 N 
HETATM    8  C9  UNL     1      17.226   9.398 -27.951  1.00  0.00     0.676 A 
ATOM      9  H6  UNL     1      19.056   9.301 -28.878  1.00  0.00     0.184 HD
HETATM   10  N4  UNL     1      15.893   9.428 -28.154  1.00  0.00    -0.190 N 
HETATM   11  C8  UNL     1      15.348   9.386 -29.383  1.00  0.00     0.083 A 
ATOM     12  H4  UNL     1      15.275   9.484 -27.345  1.00  0.00     0.184 HD
HETATM   13  C7  UNL     1      13.987   9.414 -29.622  1.00  0.00     0.082 A 
HETATM   14  C13 UNL     1      16.182   9.309 -30.483  1.00  0.00     0.102 A 
HETATM   15  C6  UNL     1      13.446   9.370 -30.886  1.00  0.00     0.120 A 
HETATM   16  N11 UNL     1      14.342   9.295 -31.910  1.00  0.00    -0.285 N 
HETATM   17  N10 UNL     1      15.647   9.267 -31.717  1.00  0.00    -0.295 N 
ATOM     18  H11 UNL     1      13.989   9.260 -32.866  1.00  0.00     0.188 HD
ATOM     19  H10 UNL     1      16.267   9.211 -32.525  1.00  0.00     0.187 HD
BRANCH   8  20
HETATM   20  N5  UNL     1      17.764   9.438 -26.783  1.00  0.00    -0.234 N 
ATOM     21  H52 UNL     1      17.147   9.400 -25.972  1.00  0.00     0.174 HD
ATOM     22  H51 UNL     1      18.771   9.504 -26.633  1.00  0.00     0.174 HD
ENDBRANCH   8  20
BRANCH  15  23
HETATM   23  N3  UNL     1      12.063   9.395 -31.162  1.00  0.00    -0.342 N 
ATOM     24  H3  UNL     1      11.676  10.180 -31.685  1.00  0.00     0.164 HD
BRANCH  23  25
HETATM   25  C5  UNL     1      11.183   8.341 -30.726  1.00  0.00     0.298 C 
BRANCH  25  26
HETATM   26  C4  UNL     1      10.074   8.149 -31.693  1.00  0.00     0.197 A 
HETATM   27  O1  UNL     1       9.888   7.087 -32.421  1.00  0.00    -0.218 OA
HETATM   28  N2  UNL     1       8.840   7.260 -33.140  1.00  0.00    -0.245 N 
HETATM   29  C3  UNL     1       8.289   8.465 -32.905  1.00  0.00     0.122 A 
ATOM     30  H2  UNL     1       8.473   6.575 -33.801  1.00  0.00     0.196 HD
HETATM   31  N12 UNL     1       9.094   9.016 -31.977  1.00  0.00    -0.322 N 
ATOM     32  H12 UNL     1       8.977   9.940 -31.561  1.00  0.00     0.169 HD
BRANCH  29  33
HETATM   33  C2  UNL     1       7.065   9.052 -33.533  1.00  0.00     0.219 C 
BRANCH  33  34
HETATM   34  N1  UNL     1       7.111   8.967 -34.971  1.00  0.00    -0.214 N 
HETATM   35  C1  UNL     1       6.187   8.160 -35.745  1.00  0.00     0.169 C 
BRANCH  34  36
HETATM   36  C14 UNL     1       8.093   9.697 -35.694  1.00  0.00     0.709 A 
HETATM   37  N13 UNL     1       8.170  11.027 -35.419  1.00  0.00    -0.022 N 
HETATM   38  C15 UNL     1       9.067  11.818 -36.046  1.00  0.00     0.705 A 
ATOM     39  H13 UNL     1       7.539  11.433 -34.727  1.00  0.00     0.203 HD
HETATM   40  N15 UNL     1       9.890  11.265 -36.956  1.00  0.00    -0.022 N 
HETATM   41  C16 UNL     1       9.800   9.941 -37.218  1.00  0.00     0.705 A 
ATOM     42  H15 UNL     1      10.577  11.840 -37.444  1.00  0.00     0.203 HD
HETATM   43  N17 UNL     1       8.902   9.150 -36.590  1.00  0.00    -0.022 N 
ATOM     44  H17 UNL     1       8.848   8.153 -36.801  1.00  0.00     0.203 HD
BRANCH  38  45
HETATM   45  N14 UNL     1       9.140  13.086 -35.784  1.00  0.00    -0.234 N 
ATOM     46 2H14 UNL     1       8.557  13.495 -35.053  1.00  0.00     0.174 HD
ATOM     47 1H14 UNL     1       9.777  13.695 -36.298  1.00  0.00     0.174 HD
ENDBRANCH  38  45
BRANCH  41  48
HETATM   48  N16 UNL     1      10.617   9.476 -38.100  1.00  0.00    -0.234 N 
ATOM     49 2H16 UNL     1      10.627   9.823 -39.059  1.00  0.00     0.174 HD
ATOM     50 1H16 UNL     1      11.253   8.744 -37.785  1.00  0.00     0.174 HD
ENDBRANCH  41  48
ENDBRANCH  34  36
ENDBRANCH  33  34
ENDBRANCH  29  33
ENDBRANCH  25  26
BRANCH  25  51
HETATM   51  O2  UNL     1      11.982   7.178 -30.652  1.00  0.00    -0.369 OA
ATOM     52  H2  UNL     1      12.773   7.286 -31.165  1.00  0.00     0.212 HD
ENDBRANCH  25  51
ENDBRANCH  23  25
ENDBRANCH  15  23
ENDBRANCH   5   6
BRANCH   5  53
HETATM   53  N7  UNL     1      18.784  10.532 -31.921  1.00  0.00    -0.052 N 
ATOM     54  H73 UNL     1      18.027  11.198 -31.763  1.00  0.00     0.277 HD
ATOM     55  H72 UNL     1      19.494  10.968 -31.332  1.00  0.00     0.277 HD
ATOM     56  H71 UNL     1      19.066  10.506 -32.900  1.00  0.00     0.277 HD
ENDBRANCH   5  53
ENDBRANCH   1   5
TORSDOF 13
ENDMDL
MODEL 5
REMARK VINA RESULT: -8.224137527      2.984      4.947
REMARK  13 active torsions:
REMARK  status: ('A' for Active; 'I' for Inactive)
REMARK    1  A    between atoms: N1_2  and  C2_3 
REMARK    2  A    between atoms: N1_2  and  C14_42 
REMARK    3  A    between atoms: C2_3  and  C3_4 
REMARK    4  A    between atoms: C4_8  and  C5_9 
REMARK    5  A    between atoms: C5_9  and  O2_10 
REMARK    6  A    between atoms: C5_9  and  N3_12 
REMARK    7  A    between atoms: N3_12  and  C6_14 
REMARK    8  A    between atoms: C9_19  and  N5_20 
REMARK    9  A    between atoms: C10_25  and  C11_26 
REMARK   10  A    between atoms: C11_26  and  N7_27 
REMARK   11  A    between atoms: C11_26  and  N8_31 
REMARK   12  A    between atoms: C15_45  and  N14_46 
REMARK   13  A    between atoms: C16_51  and  N16_52 
ROOT
HETATM    1  N8  UNL     1      19.386   8.338 -30.925  1.00  0.00    -0.295 N 
ATOM      2  H8  UNL     1      19.395   7.418 -30.485  1.00  0.00     0.174 HD
HETATM    3  C12 UNL     1      20.608   9.003 -31.124  1.00  0.00     0.179 C 
HETATM    4  N9  UNL     1      21.639   9.539 -31.286  1.00  0.00    -0.172 NA
ENDROOT
BRANCH   1   5
HETATM    5  C11 UNL     1      18.122   8.905 -31.318  1.00  0.00     0.344 C 
BRANCH   5   6
HETATM    6  C10 UNL     1      17.262   9.088 -30.137  1.00  0.00     0.107 A 
HETATM    7  N6  UNL     1      17.763   9.179 -28.894  1.00  0.00    -0.190 N 
HETATM    8  C9  UNL     1      16.959   9.349 -27.822  1.00  0.00     0.676 A 
ATOM      9  H6  UNL     1      18.772   9.118 -28.757  1.00  0.00     0.184 HD
HETATM   10  N4  UNL     1      15.627   9.429 -28.015  1.00  0.00    -0.190 N 
HETATM   11  C8  UNL     1      15.067   9.346 -29.234  1.00  0.00     0.083 A 
ATOM     12  H4  UNL     1      15.021   9.557 -27.205  1.00  0.00     0.184 HD
HETATM   13  C7  UNL     1      13.706   9.423 -29.462  1.00  0.00     0.082 A 
HETATM   14  C13 UNL     1      15.884   9.171 -30.336  1.00  0.00     0.102 A 
HETATM   15  C6  UNL     1      13.149   9.336 -30.718  1.00  0.00     0.120 A 
HETATM   16  N11 UNL     1      14.030   9.164 -31.744  1.00  0.00    -0.285 N 
HETATM   17  N10 UNL     1      15.334   9.086 -31.561  1.00  0.00    -0.295 N 
ATOM     18  H11 UNL     1      13.665   9.094 -32.693  1.00  0.00     0.188 HD
ATOM     19  H10 UNL     1      15.942   8.958 -32.370  1.00  0.00     0.187 HD
BRANCH   8  20
HETATM   20  N5  UNL     1      17.512   9.428 -26.663  1.00  0.00    -0.234 N 
ATOM     21  H52 UNL     1      18.014   8.609 -26.318  1.00  0.00     0.174 HD
ATOM     22  H51 UNL     1      17.473  10.262 -26.078  1.00  0.00     0.174 HD
ENDBRANCH   8  20
BRANCH  15  23
HETATM   23  N3  UNL     1      11.766   9.410 -30.983  1.00  0.00    -0.342 N 
ATOM     24  H3  UNL     1      11.378  10.275 -31.358  1.00  0.00     0.164 HD
BRANCH  23  25
HETATM   25  C5  UNL     1      10.886   8.295 -30.739  1.00  0.00     0.298 C 
BRANCH  25  26
HETATM   26  C4  UNL     1       9.994   8.065 -31.903  1.00  0.00     0.197 A 
HETATM   27  O1  UNL     1       9.131   7.097 -32.008  1.00  0.00    -0.218 OA
HETATM   28  N2  UNL     1       8.535   7.201 -33.138  1.00  0.00    -0.245 N 
HETATM   29  C3  UNL     1       8.993   8.262 -33.829  1.00  0.00     0.122 A 
ATOM     30  H2  UNL     1       7.809   6.565 -33.469  1.00  0.00     0.196 HD
HETATM   31  N12 UNL     1       9.925   8.799 -33.021  1.00  0.00    -0.322 N 
ATOM     32  H12 UNL     1      10.485   9.627 -33.226  1.00  0.00     0.169 HD
BRANCH  29  33
HETATM   33  C2  UNL     1       8.562   8.730 -35.183  1.00  0.00     0.219 C 
BRANCH  33  34
HETATM   34  N1  UNL     1       9.597   9.486 -35.841  1.00  0.00    -0.214 N 
HETATM   35  C1  UNL     1       9.637  10.935 -35.844  1.00  0.00     0.169 C 
BRANCH  34  36
HETATM   36  C14 UNL     1      10.643   8.809 -36.526  1.00  0.00     0.709 A 
HETATM   37  N13 UNL     1      10.499   8.699 -37.873  1.00  0.00    -0.022 N 
HETATM   38  C15 UNL     1      11.432   8.076 -38.626  1.00  0.00     0.705 A 
ATOM     39  H13 UNL     1       9.673   9.094 -38.323  1.00  0.00     0.203 HD
HETATM   40  N15 UNL     1      12.514   7.561 -38.014  1.00  0.00    -0.022 N 
HETATM   41  C16 UNL     1      12.642   7.679 -36.673  1.00  0.00     0.705 A 
ATOM     42  H15 UNL     1      13.234   7.085 -38.559  1.00  0.00     0.203 HD
HETATM   43  N17 UNL     1      11.708   8.302 -35.921  1.00  0.00    -0.022 N 
ATOM     44  H17 UNL     1      11.821   8.381 -34.910  1.00  0.00     0.203 HD
BRANCH  38  45
HETATM   45  N14 UNL     1      11.294   7.971 -39.911  1.00  0.00    -0.234 N 
ATOM     46 2H14 UNL     1      10.614   8.550 -40.405  1.00  0.00     0.174 HD
ATOM     47 1H14 UNL     1      11.859   7.314 -40.450  1.00  0.00     0.174 HD
ENDBRANCH  38  45
BRANCH  41  48
HETATM   48  N16 UNL     1      13.702   7.163 -36.153  1.00  0.00    -0.234 N 
ATOM     49 2H16 UNL     1      14.541   6.984 -36.706  1.00  0.00     0.174 HD
ATOM     50 1H16 UNL     1      13.657   6.945 -35.158  1.00  0.00     0.174 HD
ENDBRANCH  41  48
ENDBRANCH  34  36
ENDBRANCH  33  34
ENDBRANCH  29  33
ENDBRANCH  25  26
BRANCH  25  51
HETATM   51  O2  UNL     1      11.728   7.178 -30.533  1.00  0.00    -0.369 OA
ATOM     52  H2  UNL     1      12.635   7.415 -30.679  1.00  0.00     0.212 HD
ENDBRANCH  25  51
ENDBRANCH  23  25
ENDBRANCH  15  23
ENDBRANCH   5   6
BRANCH   5  53
HETATM   53  N7  UNL     1      18.352  10.178 -31.983  1.00  0.00    -0.052 N 
ATOM     54  H73 UNL     1      17.718  10.315 -32.769  1.00  0.00     0.277 HD
ATOM     55  H72 UNL     1      18.054  10.965 -31.407  1.00  0.00     0.277 HD
ATOM     56  H71 UNL     1      19.329  10.262 -32.265  1.00  0.00     0.277 HD
ENDBRANCH   5  53
ENDBRANCH   1   5
TORSDOF 13
ENDMDL
