MODEL 1
REMARK VINA RESULT: -8.516748820      0.000      0.000
REMARK  17 active torsions:
REMARK  status: ('A' for Active; 'I' for Inactive)
REMARK    1  A    between atoms: C1_4  and  O1_6 
REMARK    2  A    between atoms: O1_6  and  N3_7 
REMARK    3  A    between atoms: C2_9  and  N4_10 
REMARK    4  A    between atoms: C2_9  and  C9_32 
REMARK    5  A    between atoms: N4_10  and  C3_12 
REMARK    6  A    between atoms: C3_12  and  C4_13 
REMARK    7  A    between atoms: C3_12  and  C5_20 
REMARK    8  A    between atoms: C4_13  and  O2_14 
REMARK    9  A    between atoms: N5_16  and  O3_18 
REMARK   10  A    between atoms: C5_20  and  O4_21 
REMARK   11  A    between atoms: C5_20  and  C6_23 
REMARK   12  A    between atoms: C6_23  and  O5_24 
REMARK   13  A    between atoms: C6_23  and  C7_26 
REMARK   14  A    between atoms: C7_26  and  O6_27 
REMARK   15  A    between atoms: C7_26  and  C8_29 
REMARK   16  A    between atoms: C8_29  and  O7_30 
REMARK   17  A    between atoms: C12_39  and  C13_40 
ROOT
HETATM    1  N3  UNL     1       9.189   7.040 -30.984  1.00  0.00    -0.239 N 
ATOM      2  H3  UNL     1       8.243   6.940 -31.352  1.00  0.00     0.196 HD
HETATM    3  C2  UNL     1       9.846   8.136 -31.148  1.00  0.00     0.157 C 
ENDROOT
BRANCH   3   4
HETATM    4  N4  UNL     1       9.205   9.187 -31.855  1.00  0.00    -0.358 N 
ATOM      5  H4  UNL     1       8.805   9.966 -31.332  1.00  0.00     0.162 HD
BRANCH   4   6
HETATM    6  C3  UNL     1       9.103   9.181 -33.324  1.00  0.00     0.191 C 
BRANCH   6   7
HETATM    7  C4  UNL     1      10.038  10.119 -33.946  1.00  0.00     0.161 C 
HETATM    8  N5  UNL     1      10.428  11.182 -33.349  1.00  0.00    -0.249 N 
ATOM      9  H5  UNL     1      10.074  11.375 -32.413  1.00  0.00     0.196 HD
BRANCH   7  10
HETATM   10  O2  UNL     1      10.524   9.864 -35.219  1.00  0.00    -0.346 OA
ATOM     11  H2  UNL     1      10.816  10.583 -35.766  1.00  0.00     0.219 HD
ENDBRANCH   7  10
BRANCH   8  12
HETATM   12  O3  UNL     1      11.292  12.059 -33.914  1.00  0.00    -0.288 OA
ATOM     13  H3  UNL     1      11.040  12.942 -34.156  1.00  0.00     0.244 HD
ENDBRANCH   8  12
ENDBRANCH   6   7
BRANCH   6  14
HETATM   14  C5  UNL     1       7.681   9.471 -33.661  1.00  0.00     0.180 C 
BRANCH  14  15
HETATM   15  O4  UNL     1       7.579  10.508 -34.552  1.00  0.00    -0.390 OA
ATOM     16  H4  UNL     1       6.929  10.327 -35.222  1.00  0.00     0.210 HD
ENDBRANCH  14  15
BRANCH  14  17
HETATM   17  C6  UNL     1       6.845   8.262 -33.989  1.00  0.00     0.180 C 
BRANCH  17  18
HETATM   18  O5  UNL     1       7.513   7.142 -33.460  1.00  0.00    -0.390 OA
ATOM     19  H5  UNL     1       7.005   6.840 -32.717  1.00  0.00     0.210 HD
ENDBRANCH  17  18
BRANCH  17  20
HETATM   20  C7  UNL     1       5.535   8.420 -33.203  1.00  0.00     0.173 C 
BRANCH  20  21
HETATM   21  O6  UNL     1       5.815   9.241 -32.118  1.00  0.00    -0.391 OA
ATOM     22  H6  UNL     1       5.145   9.073 -31.467  1.00  0.00     0.210 HD
ENDBRANCH  20  21
BRANCH  20  23
HETATM   23  C8  UNL     1       4.475   9.014 -34.104  1.00  0.00     0.198 C 
BRANCH  23  24
HETATM   24  O7  UNL     1       3.935  10.118 -33.419  1.00  0.00    -0.398 OA
ATOM     25  H7  UNL     1       3.864  10.823 -34.053  1.00  0.00     0.209 HD
ENDBRANCH  23  24
ENDBRANCH  20  23
ENDBRANCH  17  20
ENDBRANCH  14  17
ENDBRANCH   6  14
ENDBRANCH   4   6
ENDBRANCH   3   4
BRANCH   3  26
HETATM   26  C9  UNL     1      11.222   8.311 -30.623  1.00  0.00     0.123 A 
HETATM   27  N6  UNL     1      12.364   7.957 -31.167  1.00  0.00    -0.331 N 
HETATM   28  C10 UNL     1      13.486   8.192 -30.554  1.00  0.00     0.140 A 
ATOM     29  H6  UNL     1      12.371   7.495 -32.076  1.00  0.00     0.168 HD
HETATM   30  N7  UNL     1      14.747   7.882 -30.994  1.00  0.00    -0.348 N 
HETATM   31  C14 UNL     1      13.425   8.814 -29.335  1.00  0.00     0.121 A 
HETATM   32  C11 UNL     1      15.845   8.159 -30.301  1.00  0.00     0.126 A 
ATOM     33  H7  UNL     1      14.846   7.417 -31.895  1.00  0.00     0.167 HD
HETATM   34  C12 UNL     1      15.772   8.786 -29.075  1.00  0.00     0.126 A 
HETATM   35  N8  UNL     1      14.550   9.105 -28.611  1.00  0.00    -0.341 N 
ATOM     36  H8  UNL     1      14.460   9.569 -27.708  1.00  0.00     0.167 HD
HETATM   37  S1  UNL     1      11.736   9.023 -29.148  1.00  0.00    -0.047 SA
BRANCH  34  38
HETATM   38  C13 UNL     1      16.969   9.088 -28.318  1.00  0.00     0.228 C 
HETATM   39  O8  UNL     1      17.130   8.637 -27.150  1.00  0.00    -0.643 OA
HETATM   40  O9  UNL     1      17.943   9.886 -28.898  1.00  0.00    -0.643 OA
ENDBRANCH  34  38
ENDBRANCH   3  26
BRANCH   1  41
HETATM   41  O1  UNL     1       9.788   6.015 -30.304  1.00  0.00    -0.203 OA
BRANCH  41  42
HETATM   42  C1  UNL     1       8.998   4.984 -29.824  1.00  0.00     0.249 C 
HETATM   43  N1  UNL     1       9.575   3.887 -29.489  1.00  0.00    -0.366 N 
ATOM     44  H12 UNL     1       8.993   3.128 -29.135  1.00  0.00     0.159 HD
ATOM     45  H11 UNL     1      10.587   3.814 -29.589  1.00  0.00     0.159 HD
HETATM   46  N2  UNL     1       7.589   5.086 -29.684  1.00  0.00    -0.055 NA
ENDBRANCH  41  42
ENDBRANCH   1  41
TORSDOF 17
ENDMDL
MODEL 2
REMARK VINA RESULT: -8.058065527      1.613      4.262
REMARK  17 active torsions:
REMARK  status: ('A' for Active; 'I' for Inactive)
REMARK    1  A    between atoms: C1_4  and  O1_6 
REMARK    2  A    between atoms: O1_6  and  N3_7 
REMARK    3  A    between atoms: C2_9  and  N4_10 
REMARK    4  A    between atoms: C2_9  and  C9_32 
REMARK    5  A    between atoms: N4_10  and  C3_12 
REMARK    6  A    between atoms: C3_12  and  C4_13 
REMARK    7  A    between atoms: C3_12  and  C5_20 
REMARK    8  A    between atoms: C4_13  and  O2_14 
REMARK    9  A    between atoms: N5_16  and  O3_18 
REMARK   10  A    between atoms: C5_20  and  O4_21 
REMARK   11  A    between atoms: C5_20  and  C6_23 
REMARK   12  A    between atoms: C6_23  and  O5_24 
REMARK   13  A    between atoms: C6_23  and  C7_26 
REMARK   14  A    between atoms: C7_26  and  O6_27 
REMARK   15  A    between atoms: C7_26  and  C8_29 
REMARK   16  A    between atoms: C8_29  and  O7_30 
REMARK   17  A    between atoms: C12_39  and  C13_40 
ROOT
HETATM    1  N3  UNL     1      10.778   9.718 -33.828  1.00  0.00    -0.239 N 
ATOM      2  H3  UNL     1       9.980   9.580 -34.447  1.00  0.00     0.196 HD
HETATM    3  C2  UNL     1      11.239   8.746 -33.120  1.00  0.00     0.157 C 
ENDROOT
BRANCH   3   4
HETATM    4  N4  UNL     1      10.594   7.486 -33.237  1.00  0.00    -0.358 N 
ATOM      5  H4  UNL     1      11.006   6.772 -33.838  1.00  0.00     0.162 HD
BRANCH   4   6
HETATM    6  C3  UNL     1       9.348   7.184 -32.514  1.00  0.00     0.191 C 
BRANCH   6   7
HETATM    7  C4  UNL     1       9.549   6.192 -31.458  1.00  0.00     0.161 C 
HETATM    8  N5  UNL     1       9.560   6.514 -30.220  1.00  0.00    -0.249 N 
ATOM      9  H5  UNL     1       9.425   7.493 -29.967  1.00  0.00     0.196 HD
BRANCH   7  10
HETATM   10  O2  UNL     1       9.733   4.859 -31.792  1.00  0.00    -0.346 OA
ATOM     11  H2  UNL     1       8.994   4.263 -31.782  1.00  0.00     0.219 HD
ENDBRANCH   7  10
BRANCH   8  12
HETATM   12  O3  UNL     1       9.745   5.607 -29.231  1.00  0.00    -0.288 OA
ATOM     13  H3  UNL     1       9.294   5.659 -28.397  1.00  0.00     0.244 HD
ENDBRANCH   8  12
ENDBRANCH   6   7
BRANCH   6  14
HETATM   14  C5  UNL     1       8.349   6.753 -33.532  1.00  0.00     0.180 C 
BRANCH  14  15
HETATM   15  O4  UNL     1       7.409   5.917 -32.989  1.00  0.00    -0.390 OA
ATOM     16  H4  UNL     1       6.645   5.843 -33.549  1.00  0.00     0.210 HD
ENDBRANCH  14  15
BRANCH  14  17
HETATM   17  C6  UNL     1       7.799   7.860 -34.393  1.00  0.00     0.180 C 
BRANCH  17  18
HETATM   18  O5  UNL     1       6.671   7.346 -35.057  1.00  0.00    -0.390 OA
ATOM     19  H5  UNL     1       5.936   7.902 -34.829  1.00  0.00     0.210 HD
ENDBRANCH  17  18
BRANCH  17  20
HETATM   20  C7  UNL     1       7.301   8.946 -33.428  1.00  0.00     0.173 C 
BRANCH  20  21
HETATM   21  O6  UNL     1       7.632  10.169 -33.995  1.00  0.00    -0.391 OA
ATOM     22  H6  UNL     1       7.196  10.207 -34.838  1.00  0.00     0.210 HD
ENDBRANCH  20  21
BRANCH  20  23
HETATM   23  C8  UNL     1       5.809   8.797 -33.229  1.00  0.00     0.198 C 
BRANCH  23  24
HETATM   24  O7  UNL     1       5.573   8.919 -31.847  1.00  0.00    -0.398 OA
ATOM     25  H7  UNL     1       4.918   8.267 -31.625  1.00  0.00     0.209 HD
ENDBRANCH  23  24
ENDBRANCH  20  23
ENDBRANCH  17  20
ENDBRANCH  14  17
ENDBRANCH   6  14
ENDBRANCH   4   6
ENDBRANCH   3   4
BRANCH   3  26
HETATM   26  C9  UNL     1      12.398   8.918 -32.211  1.00  0.00     0.123 A 
HETATM   27  N6  UNL     1      13.672   9.029 -32.511  1.00  0.00    -0.331 N 
HETATM   28  C10 UNL     1      14.559   9.174 -31.572  1.00  0.00     0.140 A 
ATOM     29  H6  UNL     1      13.967   9.002 -33.487  1.00  0.00     0.168 HD
HETATM   30  N7  UNL     1      15.915   9.302 -31.731  1.00  0.00    -0.348 N 
HETATM   31  C14 UNL     1      14.113   9.204 -30.277  1.00  0.00     0.121 A 
HETATM   32  C11 UNL     1      16.754   9.446 -30.713  1.00  0.00     0.126 A 
ATOM     33  H7  UNL     1      16.297   9.284 -32.676  1.00  0.00     0.167 HD
HETATM   34  C12 UNL     1      16.294   9.475 -29.412  1.00  0.00     0.126 A 
HETATM   35  N8  UNL     1      14.969   9.353 -29.219  1.00  0.00    -0.341 N 
ATOM     36  H8  UNL     1      14.595   9.370 -28.270  1.00  0.00     0.167 HD
HETATM   37  S1  UNL     1      12.426   9.020 -30.499  1.00  0.00    -0.047 SA
BRANCH  34  38
HETATM   38  C13 UNL     1      17.208   9.632 -28.300  1.00  0.00     0.228 C 
HETATM   39  O8  UNL     1      18.452   9.494 -28.458  1.00  0.00    -0.643 OA
HETATM   40  O9  UNL     1      16.692   9.940 -27.050  1.00  0.00    -0.643 OA
ENDBRANCH  34  38
ENDBRANCH   3  26
BRANCH   1  41
HETATM   41  O1  UNL     1      11.385  10.941 -33.731  1.00  0.00    -0.203 OA
BRANCH  41  42
HETATM   42  C1  UNL     1      10.655  12.074 -34.049  1.00  0.00     0.249 C 
HETATM   43  N1  UNL     1       9.636  12.359 -33.324  1.00  0.00    -0.366 N 
ATOM     44  H12 UNL     1       9.098  13.194 -33.558  1.00  0.00     0.159 HD
ATOM     45  H11 UNL     1       9.401  11.746 -32.544  1.00  0.00     0.159 HD
HETATM   46  N2  UNL     1      10.982  12.928 -35.135  1.00  0.00    -0.055 NA
ENDBRANCH  41  42
ENDBRANCH   1  41
TORSDOF 17
ENDMDL
MODEL 3
REMARK VINA RESULT: -8.011876151      1.017      1.354
REMARK  17 active torsions:
REMARK  status: ('A' for Active; 'I' for Inactive)
REMARK    1  A    between atoms: C1_4  and  O1_6 
REMARK    2  A    between atoms: O1_6  and  N3_7 
REMARK    3  A    between atoms: C2_9  and  N4_10 
REMARK    4  A    between atoms: C2_9  and  C9_32 
REMARK    5  A    between atoms: N4_10  and  C3_12 
REMARK    6  A    between atoms: C3_12  and  C4_13 
REMARK    7  A    between atoms: C3_12  and  C5_20 
REMARK    8  A    between atoms: C4_13  and  O2_14 
REMARK    9  A    between atoms: N5_16  and  O3_18 
REMARK   10  A    between atoms: C5_20  and  O4_21 
REMARK   11  A    between atoms: C5_20  and  C6_23 
REMARK   12  A    between atoms: C6_23  and  O5_24 
REMARK   13  A    between atoms: C6_23  and  C7_26 
REMARK   14  A    between atoms: C7_26  and  O6_27 
REMARK   15  A    between atoms: C7_26  and  C8_29 
REMARK   16  A    between atoms: C8_29  and  O7_30 
REMARK   17  A    between atoms: C12_39  and  C13_40 
ROOT
HETATM    1  N3  UNL     1       9.081   7.316 -31.255  1.00  0.00    -0.239 N 
ATOM      2  H3  UNL     1       8.086   7.242 -31.467  1.00  0.00     0.196 HD
HETATM    3  C2  UNL     1       9.748   8.370 -31.580  1.00  0.00     0.157 C 
ENDROOT
BRANCH   3   4
HETATM    4  N4  UNL     1       9.045   9.412 -32.241  1.00  0.00    -0.358 N 
ATOM      5  H4  UNL     1       8.666  10.182 -31.689  1.00  0.00     0.162 HD
BRANCH   4   6
HETATM    6  C3  UNL     1       8.849   9.411 -33.699  1.00  0.00     0.191 C 
BRANCH   6   7
HETATM    7  C4  UNL     1       9.655  10.434 -34.366  1.00  0.00     0.161 C 
HETATM    8  N5  UNL     1       9.916  11.557 -33.811  1.00  0.00    -0.249 N 
ATOM      9  H5  UNL     1       9.549  11.739 -32.878  1.00  0.00     0.196 HD
BRANCH   7  10
HETATM   10  O2  UNL     1      10.158  10.195 -35.636  1.00  0.00    -0.346 OA
ATOM     11  H2  UNL     1      10.723   9.447 -35.787  1.00  0.00     0.219 HD
ENDBRANCH   7  10
BRANCH   8  12
HETATM   12  O3  UNL     1      10.660  12.514 -34.417  1.00  0.00    -0.288 OA
ATOM     13  H3  UNL     1      10.382  12.950 -35.214  1.00  0.00     0.244 HD
ENDBRANCH   8  12
ENDBRANCH   6   7
BRANCH   6  14
HETATM   14  C5  UNL     1       7.388   9.575 -33.941  1.00  0.00     0.180 C 
BRANCH  14  15
HETATM   15  O4  UNL     1       7.138  10.602 -34.814  1.00  0.00    -0.390 OA
ATOM     16  H4  UNL     1       7.739  11.326 -34.681  1.00  0.00     0.210 HD
ENDBRANCH  14  15
BRANCH  14  17
HETATM   17  C6  UNL     1       6.642   8.298 -34.226  1.00  0.00     0.180 C 
BRANCH  17  18
HETATM   18  O5  UNL     1       7.489   7.235 -33.863  1.00  0.00    -0.390 OA
ATOM     19  H5  UNL     1       8.381   7.527 -34.012  1.00  0.00     0.210 HD
ENDBRANCH  17  18
BRANCH  17  20
HETATM   20  C7  UNL     1       5.447   8.275 -33.262  1.00  0.00     0.173 C 
BRANCH  20  21
HETATM   21  O6  UNL     1       5.787   9.080 -32.183  1.00  0.00    -0.391 OA
ATOM     22  H6  UNL     1       6.467   8.622 -31.703  1.00  0.00     0.210 HD
ENDBRANCH  20  21
BRANCH  20  23
HETATM   23  C8  UNL     1       4.213   8.778 -33.978  1.00  0.00     0.198 C 
BRANCH  23  24
HETATM   24  O7  UNL     1       4.082  10.140 -33.648  1.00  0.00    -0.398 OA
ATOM     25  H7  UNL     1       4.934  10.428 -33.341  1.00  0.00     0.209 HD
ENDBRANCH  23  24
ENDBRANCH  20  23
ENDBRANCH  17  20
ENDBRANCH  14  17
ENDBRANCH   6  14
ENDBRANCH   4   6
ENDBRANCH   3   4
BRANCH   3  26
HETATM   26  C9  UNL     1      11.194   8.505 -31.284  1.00  0.00     0.123 A 
HETATM   27  N6  UNL     1      11.819   8.362 -30.137  1.00  0.00    -0.331 N 
HETATM   28  C10 UNL     1      13.106   8.522 -30.065  1.00  0.00     0.140 A 
ATOM     29  H6  UNL     1      11.290   8.124 -29.299  1.00  0.00     0.168 HD
HETATM   30  N7  UNL     1      13.891   8.407 -28.947  1.00  0.00    -0.348 N 
HETATM   31  C14 UNL     1      13.772   8.842 -31.219  1.00  0.00     0.121 A 
HETATM   32  C11 UNL     1      15.205   8.587 -28.960  1.00  0.00     0.126 A 
ATOM     33  H7  UNL     1      13.442   8.171 -28.062  1.00  0.00     0.167 HD
HETATM   34  C12 UNL     1      15.866   8.909 -30.128  1.00  0.00     0.126 A 
HETATM   35  N8  UNL     1      15.128   9.031 -31.246  1.00  0.00    -0.341 N 
ATOM     36  H8  UNL     1      15.585   9.268 -32.127  1.00  0.00     0.167 HD
HETATM   37  S1  UNL     1      12.485   8.892 -32.346  1.00  0.00    -0.047 SA
BRANCH  34  38
HETATM   38  C13 UNL     1      17.300   9.107 -30.145  1.00  0.00     0.228 C 
HETATM   39  O8  UNL     1      18.007   8.650 -31.085  1.00  0.00    -0.643 OA
HETATM   40  O9  UNL     1      17.889   9.812 -29.106  1.00  0.00    -0.643 OA
ENDBRANCH  34  38
ENDBRANCH   3  26
BRANCH   1  41
HETATM   41  O1  UNL     1       9.739   6.299 -30.617  1.00  0.00    -0.203 OA
BRANCH  41  42
HETATM   42  C1  UNL     1       9.032   5.157 -30.282  1.00  0.00     0.249 C 
HETATM   43  N1  UNL     1       9.541   4.020 -30.587  1.00  0.00    -0.366 N 
ATOM     44  H12 UNL     1       9.021   3.178 -30.340  1.00  0.00     0.159 HD
ATOM     45  H11 UNL     1      10.442   3.998 -31.064  1.00  0.00     0.159 HD
HETATM   46  N2  UNL     1       7.777   5.188 -29.618  1.00  0.00    -0.055 NA
ENDBRANCH  41  42
ENDBRANCH   1  41
TORSDOF 17
ENDMDL
MODEL 4
REMARK VINA RESULT: -7.896420798      1.817      3.562
REMARK  17 active torsions:
REMARK  status: ('A' for Active; 'I' for Inactive)
REMARK    1  A    between atoms: C1_4  and  O1_6 
REMARK    2  A    between atoms: O1_6  and  N3_7 
REMARK    3  A    between atoms: C2_9  and  N4_10 
REMARK    4  A    between atoms: C2_9  and  C9_32 
REMARK    5  A    between atoms: N4_10  and  C3_12 
REMARK    6  A    between atoms: C3_12  and  C4_13 
REMARK    7  A    between atoms: C3_12  and  C5_20 
REMARK    8  A    between atoms: C4_13  and  O2_14 
REMARK    9  A    between atoms: N5_16  and  O3_18 
REMARK   10  A    between atoms: C5_20  and  O4_21 
REMARK   11  A    between atoms: C5_20  and  C6_23 
REMARK   12  A    between atoms: C6_23  and  O5_24 
REMARK   13  A    between atoms: C6_23  and  C7_26 
REMARK   14  A    between atoms: C7_26  and  O6_27 
REMARK   15  A    between atoms: C7_26  and  C8_29 
REMARK   16  A    between atoms: C8_29  and  O7_30 
REMARK   17  A    between atoms: C12_39  and  C13_40 
ROOT
HETATM    1  N3  UNL     1       9.227   6.916 -30.962  1.00  0.00    -0.239 N 
ATOM      2  H3  UNL     1       8.308   6.786 -31.386  1.00  0.00     0.196 HD
HETATM    3  C2  UNL     1       9.888   8.007 -31.144  1.00  0.00     0.157 C 
ENDROOT
BRANCH   3   4
HETATM    4  N4  UNL     1       9.289   9.011 -31.951  1.00  0.00    -0.358 N 
ATOM      5  H4  UNL     1       8.352   9.340 -31.719  1.00  0.00     0.162 HD
BRANCH   4   6
HETATM    6  C3  UNL     1       9.985   9.588 -33.112  1.00  0.00     0.191 C 
BRANCH   6   7
HETATM    7  C4  UNL     1       9.113  10.455 -33.904  1.00  0.00     0.161 C 
HETATM    8  N5  UNL     1       9.581  11.375 -34.661  1.00  0.00    -0.249 N 
ATOM      9  H5  UNL     1      10.591  11.502 -34.711  1.00  0.00     0.196 HD
BRANCH   7  10
HETATM   10  O2  UNL     1       7.738  10.290 -33.843  1.00  0.00    -0.346 OA
ATOM     11  H2  UNL     1       7.362   9.696 -33.204  1.00  0.00     0.219 HD
ENDBRANCH   7  10
BRANCH   8  12
HETATM   12  O3  UNL     1       8.786  12.186 -35.399  1.00  0.00    -0.288 OA
ATOM     13  H3  UNL     1       8.809  13.133 -35.323  1.00  0.00     0.244 HD
ENDBRANCH   8  12
ENDBRANCH   6   7
BRANCH   6  14
HETATM   14  C5  UNL     1      10.536   8.448 -33.898  1.00  0.00     0.180 C 
BRANCH  14  15
HETATM   15  O4  UNL     1       9.606   7.944 -34.770  1.00  0.00    -0.390 OA
ATOM     16  H4  UNL     1       8.990   7.371 -34.327  1.00  0.00     0.210 HD
ENDBRANCH  14  15
BRANCH  14  17
HETATM   17  C6  UNL     1      11.903   8.682 -34.487  1.00  0.00     0.180 C 
BRANCH  17  18
HETATM   18  O5  UNL     1      12.829   8.025 -33.657  1.00  0.00    -0.390 OA
ATOM     19  H5  UNL     1      13.691   8.183 -34.022  1.00  0.00     0.210 HD
ENDBRANCH  17  18
BRANCH  17  20
HETATM   20  C7  UNL     1      11.915   7.959 -35.841  1.00  0.00     0.173 C 
BRANCH  20  21
HETATM   21  O6  UNL     1      11.312   8.811 -36.757  1.00  0.00    -0.391 OA
ATOM     22  H6  UNL     1      11.679   9.675 -36.610  1.00  0.00     0.210 HD
ENDBRANCH  20  21
BRANCH  20  23
HETATM   23  C8  UNL     1      13.342   7.631 -36.225  1.00  0.00     0.198 C 
BRANCH  23  24
HETATM   24  O7  UNL     1      13.640   6.386 -35.643  1.00  0.00    -0.398 OA
ATOM     25  H7  UNL     1      13.840   6.553 -34.730  1.00  0.00     0.209 HD
ENDBRANCH  23  24
ENDBRANCH  20  23
ENDBRANCH  17  20
ENDBRANCH  14  17
ENDBRANCH   6  14
ENDBRANCH   4   6
ENDBRANCH   3   4
BRANCH   3  26
HETATM   26  C9  UNL     1      11.225   8.223 -30.541  1.00  0.00     0.123 A 
HETATM   27  N6  UNL     1      12.384   7.722 -30.901  1.00  0.00    -0.331 N 
HETATM   28  C10 UNL     1      13.465   8.025 -30.246  1.00  0.00     0.140 A 
ATOM     29  H6  UNL     1      12.437   7.090 -31.700  1.00  0.00     0.168 HD
HETATM   30  N7  UNL     1      14.737   7.583 -30.503  1.00  0.00    -0.348 N 
HETATM   31  C14 UNL     1      13.343   8.877 -29.180  1.00  0.00     0.121 A 
HETATM   32  C11 UNL     1      15.790   7.944 -29.781  1.00  0.00     0.126 A 
ATOM     33  H7  UNL     1      14.880   6.945 -31.286  1.00  0.00     0.167 HD
HETATM   34  C12 UNL     1      15.656   8.802 -28.709  1.00  0.00     0.126 A 
HETATM   35  N8  UNL     1      14.422   9.257 -28.427  1.00  0.00    -0.341 N 
ATOM     36  H8  UNL     1      14.287   9.893 -27.642  1.00  0.00     0.167 HD
HETATM   37  S1  UNL     1      11.660   9.189 -29.191  1.00  0.00    -0.047 SA
BRANCH  34  38
HETATM   38  C13 UNL     1      16.804   9.196 -27.920  1.00  0.00     0.228 C 
HETATM   39  O8  UNL     1      17.978   8.947 -28.311  1.00  0.00    -0.643 OA
HETATM   40  O9  UNL     1      16.593   9.858 -26.719  1.00  0.00    -0.643 OA
ENDBRANCH  34  38
ENDBRANCH   3  26
BRANCH   1  41
HETATM   41  O1  UNL     1       9.786   5.936 -30.188  1.00  0.00    -0.203 OA
BRANCH  41  42
HETATM   42  C1  UNL     1       8.980   4.904 -29.737  1.00  0.00     0.249 C 
HETATM   43  N1  UNL     1       9.539   3.790 -29.431  1.00  0.00    -0.366 N 
ATOM     44  H12 UNL     1       8.946   3.030 -29.099  1.00  0.00     0.159 HD
ATOM     45  H11 UNL     1      10.550   3.705 -29.532  1.00  0.00     0.159 HD
HETATM   46  N2  UNL     1       7.572   5.023 -29.597  1.00  0.00    -0.055 NA
ENDBRANCH  41  42
ENDBRANCH   1  41
TORSDOF 17
ENDMDL
MODEL 5
REMARK VINA RESULT: -7.887525595      2.700      4.160
REMARK  17 active torsions:
REMARK  status: ('A' for Active; 'I' for Inactive)
REMARK    1  A    between atoms: C1_4  and  O1_6 
REMARK    2  A    between atoms: O1_6  and  N3_7 
REMARK    3  A    between atoms: C2_9  and  N4_10 
REMARK    4  A    between atoms: C2_9  and  C9_32 
REMARK    5  A    between atoms: N4_10  and  C3_12 
REMARK    6  A    between atoms: C3_12  and  C4_13 
REMARK    7  A    between atoms: C3_12  and  C5_20 
REMARK    8  A    between atoms: C4_13  and  O2_14 
REMARK    9  A    between atoms: N5_16  and  O3_18 
REMARK   10  A    between atoms: C5_20  and  O4_21 
REMARK   11  A    between atoms: C5_20  and  C6_23 
REMARK   12  A    between atoms: C6_23  and  O5_24 
REMARK   13  A    between atoms: C6_23  and  C7_26 
REMARK   14  A    between atoms: C7_26  and  O6_27 
REMARK   15  A    between atoms: C7_26  and  C8_29 
REMARK   16  A    between atoms: C8_29  and  O7_30 
REMARK   17  A    between atoms: C12_39  and  C13_40 
ROOT
HETATM    1  N3  UNL     1      12.097   8.577 -34.475  1.00  0.00    -0.239 N 
ATOM      2  H3  UNL     1      11.244   8.518 -35.031  1.00  0.00     0.196 HD
HETATM    3  C2  UNL     1      12.059   8.971 -33.249  1.00  0.00     0.157 C 
ENDROOT
BRANCH   3   4
HETATM    4  N4  UNL     1      10.791   9.314 -32.709  1.00  0.00    -0.358 N 
ATOM      5  H4  UNL     1      10.747   9.803 -31.815  1.00  0.00     0.162 HD
BRANCH   4   6
HETATM    6  C3  UNL     1       9.537   8.982 -33.407  1.00  0.00     0.191 C 
BRANCH   6   7
HETATM    7  C4  UNL     1       8.835  10.176 -33.878  1.00  0.00     0.161 C 
HETATM    8  N5  UNL     1       8.247  10.211 -35.014  1.00  0.00    -0.249 N 
ATOM      9  H5  UNL     1       8.272   9.380 -35.604  1.00  0.00     0.196 HD
BRANCH   7  10
HETATM   10  O2  UNL     1       8.796  11.311 -33.083  1.00  0.00    -0.346 OA
ATOM     11  H2  UNL     1       8.741  12.169 -33.487  1.00  0.00     0.219 HD
ENDBRANCH   7  10
BRANCH   8  12
HETATM   12  O3  UNL     1       7.594  11.309 -35.464  1.00  0.00    -0.288 OA
ATOM     13  H3  UNL     1       6.755  11.585 -35.112  1.00  0.00     0.244 HD
ENDBRANCH   8  12
ENDBRANCH   6   7
BRANCH   6  14
HETATM   14  C5  UNL     1       8.722   8.163 -32.466  1.00  0.00     0.180 C 
BRANCH  14  15
HETATM   15  O4  UNL     1       7.446   8.652 -32.353  1.00  0.00    -0.390 OA
ATOM     16  H4  UNL     1       7.169   8.694 -31.445  1.00  0.00     0.210 HD
ENDBRANCH  14  15
BRANCH  14  17
HETATM   17  C6  UNL     1       8.819   6.674 -32.670  1.00  0.00     0.180 C 
BRANCH  17  18
HETATM   18  O5  UNL     1       9.721   6.460 -33.729  1.00  0.00    -0.390 OA
ATOM     19  H5  UNL     1      10.565   6.794 -33.447  1.00  0.00     0.210 HD
ENDBRANCH  17  18
BRANCH  17  20
HETATM   20  C7  UNL     1       9.470   6.109 -31.399  1.00  0.00     0.173 C 
BRANCH  20  21
HETATM   21  O6  UNL     1       9.608   7.170 -30.514  1.00  0.00    -0.391 OA
ATOM     22  H6  UNL     1      10.524   7.201 -30.264  1.00  0.00     0.210 HD
ENDBRANCH  20  21
BRANCH  20  23
HETATM   23  C8  UNL     1       8.600   5.008 -30.834  1.00  0.00     0.198 C 
BRANCH  23  24
HETATM   24  O7  UNL     1       7.906   5.563 -29.743  1.00  0.00    -0.398 OA
ATOM     25  H7  UNL     1       8.155   5.059 -28.977  1.00  0.00     0.209 HD
ENDBRANCH  23  24
ENDBRANCH  20  23
ENDBRANCH  17  20
ENDBRANCH  14  17
ENDBRANCH   6  14
ENDBRANCH   4   6
ENDBRANCH   3   4
BRANCH   3  26
HETATM   26  C9  UNL     1      13.282   9.067 -32.417  1.00  0.00     0.123 A 
HETATM   27  N6  UNL     1      14.503   8.668 -32.696  1.00  0.00    -0.331 N 
HETATM   28  C10 UNL     1      15.462   8.835 -31.835  1.00  0.00     0.140 A 
ATOM     29  H6  UNL     1      14.698   8.224 -33.593  1.00  0.00     0.168 HD
HETATM   30  N7  UNL     1      16.776   8.472 -31.983  1.00  0.00    -0.348 N 
HETATM   31  C14 UNL     1      15.148   9.435 -30.644  1.00  0.00     0.121 A 
HETATM   32  C11 UNL     1      17.696   8.680 -31.050  1.00  0.00     0.126 A 
ATOM     33  H7  UNL     1      17.059   8.020 -32.852  1.00  0.00     0.167 HD
HETATM   34  C12 UNL     1      17.370   9.285 -29.854  1.00  0.00     0.126 A 
HETATM   35  N8  UNL     1      16.089   9.655 -29.673  1.00  0.00    -0.341 N 
ATOM     36  H8  UNL     1      15.813  10.105 -28.800  1.00  0.00     0.167 HD
HETATM   37  S1  UNL     1      13.473   9.723 -30.843  1.00  0.00    -0.047 SA
BRANCH  34  38
HETATM   38  C13 UNL     1      18.371   9.513 -28.834  1.00  0.00     0.228 C 
HETATM   39  O8  UNL     1      18.040   9.746 -27.638  1.00  0.00    -0.643 OA
HETATM   40  O9  UNL     1      19.711   9.470 -29.191  1.00  0.00    -0.643 OA
ENDBRANCH  34  38
ENDBRANCH   3  26
BRANCH   1  41
HETATM   41  O1  UNL     1      13.309   8.241 -35.015  1.00  0.00    -0.203 OA
BRANCH  41  42
HETATM   42  C1  UNL     1      13.345   7.315 -36.044  1.00  0.00     0.249 C 
HETATM   43  N1  UNL     1      13.953   6.204 -35.835  1.00  0.00    -0.366 N 
ATOM     44  H12 UNL     1      13.979   5.522 -36.592  1.00  0.00     0.159 HD
ATOM     45  H11 UNL     1      14.385   6.045 -34.925  1.00  0.00     0.159 HD
HETATM   46  N2  UNL     1      12.743   7.537 -37.310  1.00  0.00    -0.055 NA
ENDBRANCH  41  42
ENDBRANCH   1  41
TORSDOF 17
ENDMDL
