MODEL 1
REMARK VINA RESULT: -8.677874370      0.000      0.000
REMARK  12 active torsions:
REMARK  status: ('A' for Active; 'I' for Inactive)
REMARK    1  A    between atoms: C1_4  and  C2_5 
REMARK    2  A    between atoms: C1_4  and  N13_45 
REMARK    3  A    between atoms: C2_5  and  S1_6 
REMARK    4  A    between atoms: S1_6  and  C3_7 
REMARK    5  A    between atoms: C3_7  and  C4_8 
REMARK    6  A    between atoms: N3_12  and  C6_14 
REMARK    7  A    between atoms: N7_26  and  C11_27 
REMARK    8  A    between atoms: C11_27  and  C12_28 
REMARK    9  A    between atoms: C12_28  and  N8_29 
REMARK   10  A    between atoms: C12_28  and  C13_33 
REMARK   11  A    between atoms: N9_36  and  N10_37 
REMARK   12  A    between atoms: N13_45  and  N14_47 
ROOT
HETATM    1  C6  UNL     1      12.831   9.041 -29.801  1.00  0.00     0.708 A 
HETATM    2  N4  UNL     1      13.125   9.572 -30.973  1.00  0.00    -0.173 N 
ATOM      3  H4  UNL     1      14.007  10.076 -31.064  1.00  0.00     0.186 HD
HETATM    4  C7  UNL     1      12.310   9.484 -32.081  1.00  0.00     0.145 A 
HETATM    5  N5  UNL     1      12.580   9.987 -33.148  1.00  0.00    -0.383 N 
ATOM      6  H51 UNL     1      11.978   9.922 -33.968  1.00  0.00     0.157 HD
ATOM      7  H52 UNL     1      13.462  10.492 -33.236  1.00  0.00     0.157 HD
HETATM    8  C8  UNL     1      11.101   8.791 -31.961  1.00  0.00     0.127 A 
HETATM    9  C9  UNL     1      10.822   8.252 -30.739  1.00  0.00     0.176 A 
HETATM   10  N6  UNL     1       9.611   7.644 -30.872  1.00  0.00    -0.334 N 
ATOM     11  H6  UNL     1       9.106   7.140 -30.143  1.00  0.00     0.168 HD
HETATM   12  C10 UNL     1       9.207   7.826 -32.120  1.00  0.00     0.185 A 
HETATM   13  N7  UNL     1      10.135   8.555 -32.845  1.00  0.00    -0.334 N 
HETATM   14  N9  UNL     1      11.655   8.363 -29.669  1.00  0.00    -0.074 N 
ENDROOT
BRANCH   1  15
HETATM   15  N3  UNL     1      13.678   9.150 -28.636  1.00  0.00    -0.174 N 
HETATM   16  C5  UNL     1      14.965   9.246 -28.788  1.00  0.00     0.125 A 
HETATM   17  N2  UNL     1      15.487   9.239 -30.029  1.00  0.00    -0.331 N 
HETATM   18  C14 UNL     1      15.801   9.386 -27.722  1.00  0.00     0.094 A 
HETATM   19  C4  UNL     1      16.813   9.368 -30.244  1.00  0.00     0.093 A 
ATOM     20  H2  UNL     1      14.864   9.134 -30.829  1.00  0.00     0.168 HD
HETATM   21  N12 UNL     1      17.622   9.505 -29.181  1.00  0.00    -0.334 N 
HETATM   22  C15 UNL     1      17.186   9.521 -27.924  1.00  0.00     0.121 A 
ATOM     23  H12 UNL     1      18.623   9.603 -29.345  1.00  0.00     0.168 HD
HETATM   24  N11 UNL     1      18.040   9.662 -26.793  1.00  0.00    -0.083 NA
ATOM     25  H3  UNL     1      13.269   9.151 -27.701  1.00  0.00     0.186 HD
BRANCH  19  26
HETATM   26  C3  UNL     1      17.360   9.322 -31.640  1.00  0.00     0.150 C 
BRANCH  26  27
HETATM   27  S1  UNL     1      19.024   9.916 -31.774  1.00  0.00    -0.154 SA
BRANCH  27  28
HETATM   28  C2  UNL     1      20.315   8.802 -31.286  1.00  0.00     0.151 C 
BRANCH  28  29
HETATM   29  C1  UNL     1      21.665   9.371 -31.281  1.00  0.00     0.098 C 
HETATM   30  N1  UNL     1      22.094  10.337 -30.552  1.00  0.00    -0.387 N 
ATOM     31  H12 UNL     1      21.411  10.750 -29.917  1.00  0.00     0.157 HD
ATOM     32  H11 UNL     1      23.034  10.733 -30.549  1.00  0.00     0.157 HD
BRANCH  29  33
HETATM   33  N13 UNL     1      22.627   8.789 -32.177  1.00  0.00    -0.295 N 
ATOM     34  H13 UNL     1      23.593   9.113 -32.137  1.00  0.00     0.187 HD
BRANCH  33  35
HETATM   35  N14 UNL     1      22.289   7.798 -33.097  1.00  0.00    -0.344 N 
ATOM     36 2H14 UNL     1      21.671   7.049 -32.782  1.00  0.00     0.176 HD
ATOM     37 1H14 UNL     1      22.634   7.801 -34.057  1.00  0.00     0.176 HD
ENDBRANCH  33  35
ENDBRANCH  29  33
ENDBRANCH  28  29
ENDBRANCH  27  28
ENDBRANCH  26  27
ENDBRANCH  19  26
ENDBRANCH   1  15
BRANCH  14  38
HETATM   38  N10 UNL     1      11.346   7.815 -28.493  1.00  0.00    -0.322 N 
ATOM     39 2H10 UNL     1      10.825   8.336 -27.788  1.00  0.00     0.178 HD
ATOM     40 1H10 UNL     1      11.632   6.855 -28.299  1.00  0.00     0.178 HD
ENDBRANCH  14  38
BRANCH  13  41
HETATM   41  C11 UNL     1       9.957   8.926 -34.232  1.00  0.00     0.174 C 
BRANCH  41  42
HETATM   42  C12 UNL     1       9.087  10.151 -34.347  1.00  0.00     0.301 C 
BRANCH  42  43
HETATM   43  N8  UNL     1       8.690  10.718 -33.094  1.00  0.00    -0.064 N 
ATOM     44  H83 UNL     1       7.909  11.361 -33.226  1.00  0.00     0.275 HD
ATOM     45  H82 UNL     1       8.239  10.011 -32.512  1.00  0.00     0.275 HD
ATOM     46  H81 UNL     1       9.442  11.175 -32.579  1.00  0.00     0.275 HD
ENDBRANCH  42  43
BRANCH  42  47
HETATM   47  C13 UNL     1       9.946  11.182 -35.062  1.00  0.00     0.206 C 
HETATM   48  O1  UNL     1       9.938  11.279 -36.313  1.00  0.00    -0.646 OA
HETATM   49  O2  UNL     1      10.728  12.001 -34.299  1.00  0.00    -0.646 OA
ENDBRANCH  42  47
ENDBRANCH  41  42
ENDBRANCH  13  41
TORSDOF 12
ENDMDL
MODEL 2
REMARK VINA RESULT: -8.281153118      1.182      1.333
REMARK  12 active torsions:
REMARK  status: ('A' for Active; 'I' for Inactive)
REMARK    1  A    between atoms: C1_4  and  C2_5 
REMARK    2  A    between atoms: C1_4  and  N13_45 
REMARK    3  A    between atoms: C2_5  and  S1_6 
REMARK    4  A    between atoms: S1_6  and  C3_7 
REMARK    5  A    between atoms: C3_7  and  C4_8 
REMARK    6  A    between atoms: N3_12  and  C6_14 
REMARK    7  A    between atoms: N7_26  and  C11_27 
REMARK    8  A    between atoms: C11_27  and  C12_28 
REMARK    9  A    between atoms: C12_28  and  N8_29 
REMARK   10  A    between atoms: C12_28  and  C13_33 
REMARK   11  A    between atoms: N9_36  and  N10_37 
REMARK   12  A    between atoms: N13_45  and  N14_47 
ROOT
HETATM    1  C6  UNL     1      12.988   8.817 -29.905  1.00  0.00     0.708 A 
HETATM    2  N4  UNL     1      13.418   9.043 -31.133  1.00  0.00    -0.173 N 
ATOM      3  H4  UNL     1      14.387   9.337 -31.257  1.00  0.00     0.186 HD
HETATM    4  C7  UNL     1      12.634   8.904 -32.258  1.00  0.00     0.145 A 
HETATM    5  N5  UNL     1      13.031   9.128 -33.378  1.00  0.00    -0.383 N 
ATOM      6  H51 UNL     1      12.451   9.026 -34.211  1.00  0.00     0.157 HD
ATOM      7  H52 UNL     1      14.000   9.424 -33.499  1.00  0.00     0.157 HD
HETATM    8  C8  UNL     1      11.305   8.498 -32.093  1.00  0.00     0.127 A 
HETATM    9  C9  UNL     1      10.887   8.271 -30.815  1.00  0.00     0.176 A 
HETATM   10  N6  UNL     1       9.581   7.898 -30.914  1.00  0.00    -0.334 N 
ATOM     11  H6  UNL     1       8.963   7.654 -30.140  1.00  0.00     0.168 HD
HETATM   12  C10 UNL     1       9.259   7.911 -32.198  1.00  0.00     0.185 A 
HETATM   13  N7  UNL     1      10.336   8.290 -32.981  1.00  0.00    -0.334 N 
HETATM   14  N9  UNL     1      11.696   8.421 -29.730  1.00  0.00    -0.074 N 
ENDROOT
BRANCH   1  15
HETATM   15  N3  UNL     1      13.807   8.980 -28.727  1.00  0.00    -0.174 N 
HETATM   16  C5  UNL     1      15.090   9.142 -28.857  1.00  0.00     0.125 A 
HETATM   17  N2  UNL     1      15.635   9.150 -30.088  1.00  0.00    -0.331 N 
HETATM   18  C14 UNL     1      15.898   9.335 -27.777  1.00  0.00     0.094 A 
HETATM   19  C4  UNL     1      16.956   9.345 -30.280  1.00  0.00     0.093 A 
ATOM     20  H2  UNL     1      15.032   9.006 -30.898  1.00  0.00     0.168 HD
HETATM   21  N12 UNL     1      17.736   9.535 -29.204  1.00  0.00    -0.334 N 
HETATM   22  C15 UNL     1      17.277   9.540 -27.955  1.00  0.00     0.121 A 
ATOM     23  H12 UNL     1      18.734   9.682 -29.351  1.00  0.00     0.168 HD
HETATM   24  N11 UNL     1      18.101   9.736 -26.811  1.00  0.00    -0.083 NA
ATOM     25  H3  UNL     1      13.381   8.970 -27.800  1.00  0.00     0.186 HD
BRANCH  19  26
HETATM   26  C3  UNL     1      17.530   9.315 -31.666  1.00  0.00     0.150 C 
BRANCH  26  27
HETATM   27  S1  UNL     1      19.193   9.917 -31.761  1.00  0.00    -0.154 SA
BRANCH  27  28
HETATM   28  C2  UNL     1      20.484   8.787 -31.313  1.00  0.00     0.151 C 
BRANCH  28  29
HETATM   29  C1  UNL     1      21.840   9.342 -31.337  1.00  0.00     0.098 C 
HETATM   30  N1  UNL     1      22.276  10.347 -30.668  1.00  0.00    -0.387 N 
ATOM     31  H12 UNL     1      21.595  10.806 -30.062  1.00  0.00     0.157 HD
ATOM     32  H11 UNL     1      23.220  10.733 -30.685  1.00  0.00     0.157 HD
BRANCH  29  33
HETATM   33  N13 UNL     1      22.800   8.695 -32.191  1.00  0.00    -0.295 N 
ATOM     34  H13 UNL     1      23.786   8.934 -32.089  1.00  0.00     0.187 HD
BRANCH  33  35
HETATM   35  N14 UNL     1      22.432   7.756 -33.152  1.00  0.00    -0.344 N 
ATOM     36 2H14 UNL     1      22.374   6.778 -32.863  1.00  0.00     0.176 HD
ATOM     37 1H14 UNL     1      22.223   8.012 -34.117  1.00  0.00     0.176 HD
ENDBRANCH  33  35
ENDBRANCH  29  33
ENDBRANCH  28  29
ENDBRANCH  27  28
ENDBRANCH  26  27
ENDBRANCH  19  26
ENDBRANCH   1  15
BRANCH  14  38
HETATM   38  N10 UNL     1      11.247   8.182 -28.497  1.00  0.00    -0.322 N 
ATOM     39 2H10 UNL     1      11.708   8.583 -27.680  1.00  0.00     0.178 HD
ATOM     40 1H10 UNL     1      10.426   7.591 -28.370  1.00  0.00     0.178 HD
ENDBRANCH  14  38
BRANCH  13  41
HETATM   41  C11 UNL     1      10.277   8.414 -34.422  1.00  0.00     0.174 C 
BRANCH  41  42
HETATM   42  C12 UNL     1       9.261   9.450 -34.825  1.00  0.00     0.301 C 
BRANCH  42  43
HETATM   43  N8  UNL     1       9.812  10.606 -35.463  1.00  0.00    -0.064 N 
ATOM     44  H83 UNL     1       9.431  11.457 -35.048  1.00  0.00     0.275 HD
ATOM     45  H82 UNL     1      10.796  10.714 -35.213  1.00  0.00     0.275 HD
ATOM     46  H81 UNL     1       9.699  10.625 -36.477  1.00  0.00     0.275 HD
ENDBRANCH  42  43
BRANCH  42  47
HETATM   47  C13 UNL     1       8.365   8.754 -35.837  1.00  0.00     0.206 C 
HETATM   48  O1  UNL     1       8.550   8.892 -37.071  1.00  0.00    -0.646 OA
HETATM   49  O2  UNL     1       7.352   7.972 -35.362  1.00  0.00    -0.646 OA
ENDBRANCH  42  47
ENDBRANCH  41  42
ENDBRANCH  13  41
TORSDOF 12
ENDMDL
MODEL 3
REMARK VINA RESULT: -7.840349479      4.204      9.252
REMARK  12 active torsions:
REMARK  status: ('A' for Active; 'I' for Inactive)
REMARK    1  A    between atoms: C1_4  and  C2_5 
REMARK    2  A    between atoms: C1_4  and  N13_45 
REMARK    3  A    between atoms: C2_5  and  S1_6 
REMARK    4  A    between atoms: S1_6  and  C3_7 
REMARK    5  A    between atoms: C3_7  and  C4_8 
REMARK    6  A    between atoms: N3_12  and  C6_14 
REMARK    7  A    between atoms: N7_26  and  C11_27 
REMARK    8  A    between atoms: C11_27  and  C12_28 
REMARK    9  A    between atoms: C12_28  and  N8_29 
REMARK   10  A    between atoms: C12_28  and  C13_33 
REMARK   11  A    between atoms: N9_36  and  N10_37 
REMARK   12  A    between atoms: N13_45  and  N14_47 
ROOT
HETATM    1  C6  UNL     1      11.628   9.468 -32.445  1.00  0.00     0.708 A 
HETATM    2  N4  UNL     1      11.766   9.606 -31.139  1.00  0.00    -0.173 N 
ATOM      3  H4  UNL     1      11.025  10.083 -30.627  1.00  0.00     0.186 HD
HETATM    4  C7  UNL     1      12.852   9.142 -30.429  1.00  0.00     0.145 A 
HETATM    5  N5  UNL     1      12.977   9.286 -29.235  1.00  0.00    -0.383 N 
ATOM      6  H51 UNL     1      13.780   8.944 -28.709  1.00  0.00     0.157 HD
ATOM      7  H52 UNL     1      12.235   9.765 -28.724  1.00  0.00     0.157 HD
HETATM    8  C8  UNL     1      13.869   8.485 -31.129  1.00  0.00     0.127 A 
HETATM    9  C9  UNL     1      13.702   8.355 -32.477  1.00  0.00     0.176 A 
HETATM   10  N6  UNL     1      14.807   7.697 -32.924  1.00  0.00    -0.334 N 
ATOM     11  H6  UNL     1      15.004   7.437 -33.891  1.00  0.00     0.168 HD
HETATM   12  C10 UNL     1      15.581   7.458 -31.877  1.00  0.00     0.185 A 
HETATM   13  N7  UNL     1      15.013   7.947 -30.712  1.00  0.00    -0.334 N 
HETATM   14  N9  UNL     1      12.613   8.829 -33.140  1.00  0.00    -0.074 N 
ENDROOT
BRANCH   1  15
HETATM   15  N3  UNL     1      10.498   9.971 -33.190  1.00  0.00    -0.174 N 
HETATM   16  C5  UNL     1       9.517   9.169 -33.482  1.00  0.00     0.125 A 
HETATM   17  N2  UNL     1       9.573   7.883 -33.089  1.00  0.00    -0.331 N 
HETATM   18  C14 UNL     1       8.415   9.606 -34.153  1.00  0.00     0.094 A 
HETATM   19  C4  UNL     1       8.569   7.018 -33.338  1.00  0.00     0.093 A 
ATOM     20  H2  UNL     1      10.398   7.553 -32.587  1.00  0.00     0.168 HD
HETATM   21  N12 UNL     1       7.489   7.466 -34.000  1.00  0.00    -0.334 N 
HETATM   22  C15 UNL     1       7.356   8.720 -34.424  1.00  0.00     0.121 A 
ATOM     23  H12 UNL     1       6.731   6.811 -34.187  1.00  0.00     0.168 HD
HETATM   24  N11 UNL     1       6.216   9.200 -35.128  1.00  0.00    -0.083 NA
ATOM     25  H3  UNL     1      10.470  10.947 -33.485  1.00  0.00     0.186 HD
BRANCH  19  26
HETATM   26  C3  UNL     1       8.683   5.584 -32.912  1.00  0.00     0.150 C 
BRANCH  26  27
HETATM   27  S1  UNL     1       7.195   4.928 -32.210  1.00  0.00    -0.154 SA
BRANCH  27  28
HETATM   28  C2  UNL     1       7.327   4.169 -30.614  1.00  0.00     0.151 C 
BRANCH  28  29
HETATM   29  C1  UNL     1       8.611   4.358 -29.933  1.00  0.00     0.098 C 
HETATM   30  N1  UNL     1       9.513   3.468 -29.724  1.00  0.00    -0.387 N 
ATOM     31  H12 UNL     1       9.301   2.532 -30.068  1.00  0.00     0.157 HD
ATOM     32  H11 UNL     1      10.407   3.600 -29.250  1.00  0.00     0.157 HD
BRANCH  29  33
HETATM   33  N13 UNL     1       8.910   5.678 -29.448  1.00  0.00    -0.295 N 
ATOM     34  H13 UNL     1       8.314   6.082 -28.727  1.00  0.00     0.187 HD
BRANCH  33  35
HETATM   35  N14 UNL     1       9.984   6.425 -29.928  1.00  0.00    -0.344 N 
ATOM     36 2H14 UNL     1      10.693   5.938 -30.477  1.00  0.00     0.176 HD
ATOM     37 1H14 UNL     1      10.079   7.425 -29.749  1.00  0.00     0.176 HD
ENDBRANCH  33  35
ENDBRANCH  29  33
ENDBRANCH  28  29
ENDBRANCH  27  28
ENDBRANCH  26  27
ENDBRANCH  19  26
ENDBRANCH   1  15
BRANCH  14  38
HETATM   38  N10 UNL     1      12.486   8.676 -34.459  1.00  0.00    -0.322 N 
ATOM     39 2H10 UNL     1      13.291   8.449 -35.044  1.00  0.00     0.178 HD
ATOM     40 1H10 UNL     1      11.568   8.783 -34.889  1.00  0.00     0.178 HD
ENDBRANCH  14  38
BRANCH  13  41
HETATM   41  C11 UNL     1      15.639   7.850 -29.412  1.00  0.00     0.174 C 
BRANCH  41  42
HETATM   42  C12 UNL     1      16.816   8.787 -29.317  1.00  0.00     0.301 C 
BRANCH  42  43
HETATM   43  N8  UNL     1      16.848   9.804 -30.323  1.00  0.00    -0.064 N 
ATOM     44  H83 UNL     1      17.129   9.408 -31.220  1.00  0.00     0.275 HD
ATOM     45  H82 UNL     1      15.900  10.105 -30.553  1.00  0.00     0.275 HD
ATOM     46  H81 UNL     1      17.430  10.609 -30.093  1.00  0.00     0.275 HD
ENDBRANCH  42  43
BRANCH  42  47
HETATM   47  C13 UNL     1      16.662   9.480 -27.972  1.00  0.00     0.206 C 
HETATM   48  O1  UNL     1      15.532   9.801 -27.532  1.00  0.00    -0.646 OA
HETATM   49  O2  UNL     1      17.795   9.742 -27.256  1.00  0.00    -0.646 OA
ENDBRANCH  42  47
ENDBRANCH  41  42
ENDBRANCH  13  41
TORSDOF 12
ENDMDL
MODEL 4
REMARK VINA RESULT: -7.680394703      1.974      2.674
REMARK  12 active torsions:
REMARK  status: ('A' for Active; 'I' for Inactive)
REMARK    1  A    between atoms: C1_4  and  C2_5 
REMARK    2  A    between atoms: C1_4  and  N13_45 
REMARK    3  A    between atoms: C2_5  and  S1_6 
REMARK    4  A    between atoms: S1_6  and  C3_7 
REMARK    5  A    between atoms: C3_7  and  C4_8 
REMARK    6  A    between atoms: N3_12  and  C6_14 
REMARK    7  A    between atoms: N7_26  and  C11_27 
REMARK    8  A    between atoms: C11_27  and  C12_28 
REMARK    9  A    between atoms: C12_28  and  N8_29 
REMARK   10  A    between atoms: C12_28  and  C13_33 
REMARK   11  A    between atoms: N9_36  and  N10_37 
REMARK   12  A    between atoms: N13_45  and  N14_47 
ROOT
HETATM    1  C6  UNL     1      12.595   8.907 -29.874  1.00  0.00     0.708 A 
HETATM    2  N4  UNL     1      11.909   7.795 -30.070  1.00  0.00    -0.173 N 
ATOM      3  H4  UNL     1      11.951   7.072 -29.352  1.00  0.00     0.186 HD
HETATM    4  C7  UNL     1      11.141   7.556 -31.189  1.00  0.00     0.145 A 
HETATM    5  N5  UNL     1      10.528   6.528 -31.367  1.00  0.00    -0.383 N 
ATOM      6  H51 UNL     1       9.959   6.351 -32.195  1.00  0.00     0.157 HD
ATOM      7  H52 UNL     1      10.572   5.806 -30.648  1.00  0.00     0.157 HD
HETATM    8  C8  UNL     1      11.079   8.546 -32.175  1.00  0.00     0.127 A 
HETATM    9  C9  UNL     1      11.796   9.684 -31.947  1.00  0.00     0.176 A 
HETATM   10  N6  UNL     1      11.583  10.478 -33.032  1.00  0.00    -0.334 N 
ATOM     11  H6  UNL     1      11.974  11.408 -33.185  1.00  0.00     0.168 HD
HETATM   12  C10 UNL     1      10.776   9.825 -33.853  1.00  0.00     0.185 A 
HETATM   13  N7  UNL     1      10.433   8.586 -33.337  1.00  0.00    -0.334 N 
HETATM   14  N9  UNL     1      12.545   9.880 -30.827  1.00  0.00    -0.074 N 
ENDROOT
BRANCH   1  15
HETATM   15  N3  UNL     1      13.415   9.148 -28.710  1.00  0.00    -0.174 N 
HETATM   16  C5  UNL     1      14.708   9.178 -28.834  1.00  0.00     0.125 A 
HETATM   17  N2  UNL     1      15.262   8.981 -30.044  1.00  0.00    -0.331 N 
HETATM   18  C14 UNL     1      15.521   9.436 -27.771  1.00  0.00     0.094 A 
HETATM   19  C4  UNL     1      16.597   9.032 -30.234  1.00  0.00     0.093 A 
ATOM     20  H2  UNL     1      14.656   8.787 -30.841  1.00  0.00     0.168 HD
HETATM   21  N12 UNL     1      17.382   9.289 -29.175  1.00  0.00    -0.334 N 
HETATM   22  C15 UNL     1      16.915   9.495 -27.946  1.00  0.00     0.121 A 
ATOM     23  H12 UNL     1      18.391   9.328 -29.320  1.00  0.00     0.168 HD
HETATM   24  N11 UNL     1      17.743   9.763 -26.820  1.00  0.00    -0.083 NA
ATOM     25  H3  UNL     1      12.982   9.293 -27.797  1.00  0.00     0.186 HD
BRANCH  19  26
HETATM   26  C3  UNL     1      17.178   8.774 -31.592  1.00  0.00     0.150 C 
BRANCH  26  27
HETATM   27  S1  UNL     1      18.759   9.532 -31.847  1.00  0.00    -0.154 SA
BRANCH  27  28
HETATM   28  C2  UNL     1      20.176   8.660 -31.235  1.00  0.00     0.151 C 
BRANCH  28  29
HETATM   29  C1  UNL     1      21.413   9.443 -31.164  1.00  0.00     0.098 C 
HETATM   30  N1  UNL     1      21.647  10.449 -30.401  1.00  0.00    -0.387 N 
ATOM     31  H12 UNL     1      20.882  10.729 -29.787  1.00  0.00     0.157 HD
ATOM     32  H11 UNL     1      22.509  10.994 -30.352  1.00  0.00     0.157 HD
BRANCH  29  33
HETATM   33  N13 UNL     1      22.491   9.049 -32.029  1.00  0.00    -0.295 N 
ATOM     34  H13 UNL     1      23.360   9.582 -32.004  1.00  0.00     0.187 HD
BRANCH  33  35
HETATM   35  N14 UNL     1      22.393   7.966 -32.900  1.00  0.00    -0.344 N 
ATOM     36 2H14 UNL     1      23.187   7.327 -32.955  1.00  0.00     0.176 HD
ATOM     37 1H14 UNL     1      21.566   7.797 -33.473  1.00  0.00     0.176 HD
ENDBRANCH  33  35
ENDBRANCH  29  33
ENDBRANCH  28  29
ENDBRANCH  27  28
ENDBRANCH  26  27
ENDBRANCH  19  26
ENDBRANCH   1  15
BRANCH  14  38
HETATM   38  N10 UNL     1      13.227  11.012 -30.642  1.00  0.00    -0.322 N 
ATOM     39 2H10 UNL     1      12.963  11.674 -29.912  1.00  0.00     0.178 HD
ATOM     40 1H10 UNL     1      14.029  11.215 -31.238  1.00  0.00     0.178 HD
ENDBRANCH  14  38
BRANCH  13  41
HETATM   41  C11 UNL     1       9.580   7.640 -34.023  1.00  0.00     0.174 C 
BRANCH  41  42
HETATM   42  C12 UNL     1       8.156   7.766 -33.547  1.00  0.00     0.301 C 
BRANCH  42  43
HETATM   43  N8  UNL     1       7.315   8.555 -34.395  1.00  0.00    -0.064 N 
ATOM     44  H83 UNL     1       6.351   8.223 -34.347  1.00  0.00     0.275 HD
ATOM     45  H82 UNL     1       7.197   9.491 -34.006  1.00  0.00     0.275 HD
ATOM     46  H81 UNL     1       7.623   8.610 -35.365  1.00  0.00     0.275 HD
ENDBRANCH  42  43
BRANCH  42  47
HETATM   47  C13 UNL     1       7.608   6.348 -33.554  1.00  0.00     0.206 C 
HETATM   48  O1  UNL     1       7.040   5.877 -34.569  1.00  0.00    -0.646 OA
HETATM   49  O2  UNL     1       7.755   5.601 -32.421  1.00  0.00    -0.646 OA
ENDBRANCH  42  47
ENDBRANCH  41  42
ENDBRANCH  13  41
TORSDOF 12
ENDMDL
MODEL 5
REMARK VINA RESULT: -7.637803431      1.694      2.001
REMARK  12 active torsions:
REMARK  status: ('A' for Active; 'I' for Inactive)
REMARK    1  A    between atoms: C1_4  and  C2_5 
REMARK    2  A    between atoms: C1_4  and  N13_45 
REMARK    3  A    between atoms: C2_5  and  S1_6 
REMARK    4  A    between atoms: S1_6  and  C3_7 
REMARK    5  A    between atoms: C3_7  and  C4_8 
REMARK    6  A    between atoms: N3_12  and  C6_14 
REMARK    7  A    between atoms: N7_26  and  C11_27 
REMARK    8  A    between atoms: C11_27  and  C12_28 
REMARK    9  A    between atoms: C12_28  and  N8_29 
REMARK   10  A    between atoms: C12_28  and  C13_33 
REMARK   11  A    between atoms: N9_36  and  N10_37 
REMARK   12  A    between atoms: N13_45  and  N14_47 
ROOT
HETATM    1  C6  UNL     1      13.311   8.747 -30.858  1.00  0.00     0.708 A 
HETATM    2  N4  UNL     1      13.925   8.435 -31.985  1.00  0.00    -0.173 N 
ATOM      3  H4  UNL     1      14.917   8.202 -31.943  1.00  0.00     0.186 HD
HETATM    4  C7  UNL     1      13.303   8.405 -33.214  1.00  0.00     0.145 A 
HETATM    5  N5  UNL     1      13.876   8.132 -34.244  1.00  0.00    -0.383 N 
ATOM      6  H51 UNL     1      13.416   8.110 -35.154  1.00  0.00     0.157 HD
ATOM      7  H52 UNL     1      14.869   7.901 -34.199  1.00  0.00     0.157 HD
HETATM    8  C8  UNL     1      11.941   8.721 -33.276  1.00  0.00     0.127 A 
HETATM    9  C9  UNL     1      11.331   9.039 -32.098  1.00  0.00     0.176 A 
HETATM   10  N6  UNL     1      10.035   9.308 -32.414  1.00  0.00    -0.334 N 
ATOM     11  H6  UNL     1       9.299   9.580 -31.762  1.00  0.00     0.168 HD
HETATM   12  C10 UNL     1       9.902   9.152 -33.721  1.00  0.00     0.185 A 
HETATM   13  N7  UNL     1      11.100   8.776 -34.305  1.00  0.00    -0.334 N 
HETATM   14  N9  UNL     1      11.984   9.058 -30.903  1.00  0.00    -0.074 N 
ENDROOT
BRANCH   1  15
HETATM   15  N3  UNL     1      13.969   8.796 -29.574  1.00  0.00    -0.174 N 
HETATM   16  C5  UNL     1      15.240   9.062 -29.516  1.00  0.00     0.125 A 
HETATM   17  N2  UNL     1      15.922   9.284 -30.655  1.00  0.00    -0.331 N 
HETATM   18  C14 UNL     1      15.897   9.152 -28.326  1.00  0.00     0.094 A 
HETATM   19  C4  UNL     1      17.235   9.595 -30.650  1.00  0.00     0.093 A 
ATOM     20  H2  UNL     1      15.433   9.216 -31.547  1.00  0.00     0.168 HD
HETATM   21  N12 UNL     1      17.866   9.680 -29.467  1.00  0.00    -0.334 N 
HETATM   22  C15 UNL     1      17.265   9.475 -28.298  1.00  0.00     0.121 A 
ATOM     23  H12 UNL     1      18.858   9.916 -29.465  1.00  0.00     0.168 HD
HETATM   24  N11 UNL     1      17.930   9.561 -27.042  1.00  0.00    -0.083 NA
ATOM     25  H3  UNL     1      13.440   8.623 -28.718  1.00  0.00     0.186 HD
BRANCH  19  26
HETATM   26  C3  UNL     1      17.968   9.803 -31.942  1.00  0.00     0.150 C 
BRANCH  26  27
HETATM   27  S1  UNL     1      19.670  10.245 -31.733  1.00  0.00    -0.154 SA
BRANCH  27  28
HETATM   28  C2  UNL     1      20.828   8.916 -31.547  1.00  0.00     0.151 C 
BRANCH  28  29
HETATM   29  C1  UNL     1      22.232   9.319 -31.423  1.00  0.00     0.098 C 
HETATM   30  N1  UNL     1      22.720  10.177 -30.602  1.00  0.00    -0.387 N 
ATOM     31  H12 UNL     1      22.048  10.626 -29.979  1.00  0.00     0.157 HD
ATOM     32  H11 UNL     1      23.697  10.458 -30.516  1.00  0.00     0.157 HD
BRANCH  29  33
HETATM   33  N13 UNL     1      23.178   8.687 -32.303  1.00  0.00    -0.295 N 
ATOM     34  H13 UNL     1      24.140   9.025 -32.313  1.00  0.00     0.187 HD
BRANCH  33  35
HETATM   35  N14 UNL     1      22.829   7.629 -33.140  1.00  0.00    -0.344 N 
ATOM     36 2H14 UNL     1      22.405   6.805 -32.713  1.00  0.00     0.176 HD
ATOM     37 1H14 UNL     1      22.982   7.656 -34.149  1.00  0.00     0.176 HD
ENDBRANCH  33  35
ENDBRANCH  29  33
ENDBRANCH  28  29
ENDBRANCH  27  28
ENDBRANCH  26  27
ENDBRANCH  19  26
ENDBRANCH   1  15
BRANCH  14  38
HETATM   38  N10 UNL     1      11.348   9.369 -29.773  1.00  0.00    -0.322 N 
ATOM     39 2H10 UNL     1      11.861   9.556 -28.912  1.00  0.00     0.178 HD
ATOM     40 1H10 UNL     1      10.329   9.425 -29.773  1.00  0.00     0.178 HD
ENDBRANCH  14  38
BRANCH  13  41
HETATM   41  C11 UNL     1      11.266   8.553 -35.725  1.00  0.00     0.174 C 
BRANCH  41  42
HETATM   42  C12 UNL     1      10.137   9.183 -36.498  1.00  0.00     0.301 C 
BRANCH  42  43
HETATM   43  N8  UNL     1      10.030  10.602 -36.344  1.00  0.00    -0.064 N 
ATOM     44  H83 UNL     1       9.139  10.846 -35.910  1.00  0.00     0.275 HD
ATOM     45  H82 UNL     1      10.672  10.929 -35.621  1.00  0.00     0.275 HD
ATOM     46  H81 UNL     1      10.162  11.133 -37.204  1.00  0.00     0.275 HD
ENDBRANCH  42  43
BRANCH  42  47
HETATM   47  C13 UNL     1      10.454   8.906 -37.959  1.00  0.00     0.206 C 
HETATM   48  O1  UNL     1      11.306   9.588 -38.579  1.00  0.00    -0.646 OA
HETATM   49  O2  UNL     1       9.783   7.890 -38.577  1.00  0.00    -0.646 OA
ENDBRANCH  42  47
ENDBRANCH  41  42
ENDBRANCH  13  41
TORSDOF 12
ENDMDL
