MODEL 1
REMARK VINA RESULT: -9.381135276      0.000      0.000
REMARK  12 active torsions:
REMARK  status: ('A' for Active; 'I' for Inactive)
REMARK    1  A    between atoms: C3_4  and  C4_5 
REMARK    2  A    between atoms: C4_5  and  N1_6 
REMARK    3  A    between atoms: N1_6  and  C5_9 
REMARK    4  A    between atoms: C5_9  and  C6_10 
REMARK    5  A    between atoms: C6_10  and  N2_11 
REMARK    6  A    between atoms: C7_16  and  C8_17 
REMARK    7  A    between atoms: C8_17  and  N5_18 
REMARK    8  A    between atoms: C11_23  and  N7_24 
REMARK    9  A    between atoms: C12_29  and  N9_30 
REMARK   10  A    between atoms: C14_38  and  N12_39 
REMARK       I    between atoms: N12_39  and  C15_41 
REMARK       I    between atoms: C15_41  and  N13_42 
REMARK       I    between atoms: C15_41  and  N14_46 
REMARK   11  A    between atoms: C16_50  and  O2_51 
REMARK   12  A    between atoms: C17_53  and  O3_54 
ROOT
HETATM    1  N2  UNL     1      15.502   8.375 -30.979  1.00  0.00    -0.108 N 
HETATM    2  N3  UNL     1      14.500   8.644 -31.879  1.00  0.00    -0.225 N 
ATOM      3  H3  UNL     1      14.742   8.752 -32.863  1.00  0.00     0.209 HD
HETATM    4  N4  UNL     1      13.264   8.767 -31.528  1.00  0.00    -0.272 N 
ATOM      5  H4  UNL     1      12.543   8.967 -32.222  1.00  0.00     0.190 HD
HETATM    6  C7  UNL     1      12.944   8.625 -30.226  1.00  0.00     0.131 A 
HETATM    7  N11 UNL     1      13.902   8.359 -29.302  1.00  0.00    -0.176 N 
ATOM      8  H11 UNL     1      13.655   8.253 -28.318  1.00  0.00     0.185 HD
HETATM    9  C14 UNL     1      15.196   8.235 -29.703  1.00  0.00     0.700 A 
ENDROOT
BRANCH   6  10
HETATM   10  C8  UNL     1      11.536   8.761 -29.853  1.00  0.00     0.210 C 
BRANCH  10  11
HETATM   11  N5  UNL     1      10.705   8.245 -30.919  1.00  0.00    -0.320 N 
HETATM   12  C9  UNL     1      10.449   8.845 -32.119  1.00  0.00     0.185 A 
HETATM   13  N6  UNL     1       9.623   8.087 -32.856  1.00  0.00    -0.346 N 
HETATM   14  C10 UNL     1       9.325   6.974 -32.151  1.00  0.00     0.123 A 
ATOM     15  H6  UNL     1       9.278   8.313 -33.789  1.00  0.00     0.167 HD
HETATM   16  C11 UNL     1       8.559   5.871 -32.433  1.00  0.00     0.145 A 
HETATM   17  C13 UNL     1      10.018   7.102 -30.940  1.00  0.00     0.155 A 
HETATM   18  N8  UNL     1       8.476   4.887 -31.528  1.00  0.00    -0.175 N 
HETATM   19  C12 UNL     1       9.149   4.990 -30.347  1.00  0.00     0.679 A 
ATOM     20  H8  UNL     1       7.911   4.062 -31.722  1.00  0.00     0.186 HD
HETATM   21  N10 UNL     1       9.892   6.067 -30.070  1.00  0.00    -0.174 N 
ATOM     22  H10 UNL     1      10.380   6.113 -29.175  1.00  0.00     0.186 HD
BRANCH  16  23
HETATM   23  N7  UNL     1       7.909   5.761 -33.550  1.00  0.00    -0.383 N 
ATOM     24  H72 UNL     1       8.085   6.433 -34.298  1.00  0.00     0.157 HD
ATOM     25  H71 UNL     1       7.229   5.016 -33.703  1.00  0.00     0.157 HD
ENDBRANCH  16  23
BRANCH  19  26
HETATM   26  N9  UNL     1       9.095   4.043 -29.486  1.00  0.00    -0.234 N 
ATOM     27  H92 UNL     1       8.230   3.508 -29.401  1.00  0.00     0.174 HD
ATOM     28  H91 UNL     1       9.897   3.842 -28.890  1.00  0.00     0.174 HD
ENDBRANCH  19  26
ENDBRANCH  10  11
ENDBRANCH   6  10
BRANCH   9  29
HETATM   29  N12 UNL     1      16.082   8.010 -28.809  1.00  0.00    -0.172 N 
HETATM   30  C15 UNL     1      16.639   9.076 -27.990  1.00  0.00     0.494 C 
HETATM   31  N13 UNL     1      17.151  10.182 -28.815  1.00  0.00    -0.032 N 
HETATM   32  N14 UNL     1      15.594   9.608 -27.159  1.00  0.00    -0.032 N 
ATOM     33 3H13 UNL     1      17.827   9.850 -29.504  1.00  0.00     0.278 HD
ATOM     34 2H13 UNL     1      16.436  10.535 -29.451  1.00  0.00     0.278 HD
ATOM     35 1H13 UNL     1      17.541  10.930 -28.241  1.00  0.00     0.278 HD
ATOM     36 3H14 UNL     1      14.783   9.912 -27.697  1.00  0.00     0.278 HD
ATOM     37 2H14 UNL     1      15.134   8.888 -26.602  1.00  0.00     0.278 HD
ATOM     38 1H14 UNL     1      15.984  10.356 -26.585  1.00  0.00     0.278 HD
ATOM     39  H12 UNL     1      16.410   7.054 -28.667  1.00  0.00     0.181 HD
ENDBRANCH   9  29
BRANCH   1  40
HETATM   40  C6  UNL     1      16.777   8.232 -31.615  1.00  0.00     0.197 C 
BRANCH  40  41
HETATM   41  C5  UNL     1      17.324   9.442 -32.254  1.00  0.00     0.255 C 
BRANCH  41  42
HETATM   42  N1  UNL     1      18.596   9.962 -31.872  1.00  0.00    -0.068 N 
ATOM     43  H12 UNL     1      18.540  10.777 -31.261  1.00  0.00     0.277 HD
ATOM     44  H11 UNL     1      19.099  10.419 -32.634  1.00  0.00     0.277 HD
BRANCH  42  45
HETATM   45  C4  UNL     1      19.323   8.821 -31.278  1.00  0.00     0.300 C 
BRANCH  45  46
HETATM   46  C3  UNL     1      20.770   9.040 -31.381  1.00  0.00     0.115 A 
HETATM   47  O1  UNL     1      21.681   8.341 -32.014  1.00  0.00    -0.312 OA
HETATM   48  C2  UNL     1      22.876   8.872 -31.884  1.00  0.00     0.085 A 
HETATM   49  C1  UNL     1      24.158   8.338 -32.485  1.00  0.00     0.079 C 
HETATM   50  C17 UNL     1      22.774   9.998 -31.115  1.00  0.00     0.131 A 
HETATM   51  C16 UNL     1      21.453  10.114 -30.790  1.00  0.00     0.133 A 
BRANCH  50  52
HETATM   52  O3  UNL     1      23.755  10.884 -30.710  1.00  0.00    -0.356 OA
ATOM     53  H3  UNL     1      23.672  11.749 -30.324  1.00  0.00     0.218 HD
ENDBRANCH  50  52
BRANCH  51  54
HETATM   54  O2  UNL     1      20.823  11.079 -30.014  1.00  0.00    -0.356 OA
ATOM     55  H2  UNL     1      20.060  11.563 -30.307  1.00  0.00     0.218 HD
ENDBRANCH  51  54
ENDBRANCH  45  46
ENDBRANCH  42  45
ENDBRANCH  41  42
ENDBRANCH  40  41
ENDBRANCH   1  40
TORSDOF 12
ENDMDL
MODEL 2
REMARK VINA RESULT: -8.941822845      0.884      2.097
REMARK  12 active torsions:
REMARK  status: ('A' for Active; 'I' for Inactive)
REMARK    1  A    between atoms: C3_4  and  C4_5 
REMARK    2  A    between atoms: C4_5  and  N1_6 
REMARK    3  A    between atoms: N1_6  and  C5_9 
REMARK    4  A    between atoms: C5_9  and  C6_10 
REMARK    5  A    between atoms: C6_10  and  N2_11 
REMARK    6  A    between atoms: C7_16  and  C8_17 
REMARK    7  A    between atoms: C8_17  and  N5_18 
REMARK    8  A    between atoms: C11_23  and  N7_24 
REMARK    9  A    between atoms: C12_29  and  N9_30 
REMARK   10  A    between atoms: C14_38  and  N12_39 
REMARK       I    between atoms: N12_39  and  C15_41 
REMARK       I    between atoms: C15_41  and  N13_42 
REMARK       I    between atoms: C15_41  and  N14_46 
REMARK   11  A    between atoms: C16_50  and  O2_51 
REMARK   12  A    between atoms: C17_53  and  O3_54 
ROOT
HETATM    1  N2  UNL     1      15.441   8.491 -31.005  1.00  0.00    -0.108 N 
HETATM    2  N3  UNL     1      14.460   8.844 -31.898  1.00  0.00    -0.225 N 
ATOM      3  H3  UNL     1      14.713   8.972 -32.878  1.00  0.00     0.209 HD
HETATM    4  N4  UNL     1      13.230   9.022 -31.548  1.00  0.00    -0.272 N 
ATOM      5  H4  UNL     1      12.525   9.285 -32.237  1.00  0.00     0.190 HD
HETATM    6  C7  UNL     1      12.897   8.855 -30.253  1.00  0.00     0.131 A 
HETATM    7  N11 UNL     1      13.833   8.505 -29.336  1.00  0.00    -0.176 N 
ATOM      8  H11 UNL     1      13.575   8.380 -28.357  1.00  0.00     0.185 HD
HETATM    9  C14 UNL     1      15.120   8.325 -29.735  1.00  0.00     0.700 A 
ENDROOT
BRANCH   6  10
HETATM   10  C8  UNL     1      11.496   9.054 -29.881  1.00  0.00     0.210 C 
BRANCH  10  11
HETATM   11  N5  UNL     1      10.663   8.148 -30.641  1.00  0.00    -0.320 N 
HETATM   12  C9  UNL     1      10.529   6.803 -30.446  1.00  0.00     0.185 A 
HETATM   13  N6  UNL     1       9.685   6.279 -31.348  1.00  0.00    -0.346 N 
HETATM   14  C10 UNL     1       9.247   7.275 -32.149  1.00  0.00     0.123 A 
ATOM     15  H6  UNL     1       9.419   5.297 -31.417  1.00  0.00     0.167 HD
HETATM   16  C11 UNL     1       8.367   7.306 -33.201  1.00  0.00     0.145 A 
HETATM   17  C13 UNL     1       9.879   8.435 -31.681  1.00  0.00     0.155 A 
HETATM   18  N8  UNL     1       8.100   8.477 -33.793  1.00  0.00    -0.175 N 
HETATM   19  C12 UNL     1       8.698   9.617 -33.348  1.00  0.00     0.679 A 
ATOM     20  H8  UNL     1       7.449   8.516 -34.576  1.00  0.00     0.186 HD
HETATM   21  N10 UNL     1       9.561   9.587 -32.325  1.00  0.00    -0.174 N 
ATOM     22  H10 UNL     1       9.993  10.459 -32.019  1.00  0.00     0.186 HD
BRANCH  16  23
HETATM   23  N7  UNL     1       7.793   6.228 -33.639  1.00  0.00    -0.383 N 
ATOM     24  H72 UNL     1       8.224   5.322 -33.452  1.00  0.00     0.157 HD
ATOM     25  H71 UNL     1       6.918   6.263 -34.162  1.00  0.00     0.157 HD
ENDBRANCH  16  23
BRANCH  19  26
HETATM   26  N9  UNL     1       8.430  10.745 -33.893  1.00  0.00    -0.234 N 
ATOM     27  H92 UNL     1       9.185  11.263 -34.341  1.00  0.00     0.174 HD
ATOM     28  H91 UNL     1       7.482  11.118 -33.863  1.00  0.00     0.174 HD
ENDBRANCH  19  26
ENDBRANCH  10  11
ENDBRANCH   6  10
BRANCH   9  29
HETATM   29  N12 UNL     1      15.989   8.021 -28.847  1.00  0.00    -0.172 N 
HETATM   30  C15 UNL     1      16.608   9.029 -28.000  1.00  0.00     0.494 C 
HETATM   31  N13 UNL     1      17.192  10.121 -28.796  1.00  0.00    -0.032 N 
HETATM   32  N14 UNL     1      15.597   9.604 -27.156  1.00  0.00    -0.032 N 
ATOM     33 3H13 UNL     1      17.848   9.765 -29.492  1.00  0.00     0.278 HD
ATOM     34 2H13 UNL     1      16.502  10.535 -29.423  1.00  0.00     0.278 HD
ATOM     35 1H13 UNL     1      17.626  10.828 -28.202  1.00  0.00     0.278 HD
ATOM     36 3H14 UNL     1      14.808   9.972 -27.687  1.00  0.00     0.278 HD
ATOM     37 2H14 UNL     1      15.091   8.900 -26.619  1.00  0.00     0.278 HD
ATOM     38 1H14 UNL     1      16.032  10.311 -26.563  1.00  0.00     0.278 HD
ATOM     39  H12 UNL     1      16.255   7.043 -28.729  1.00  0.00     0.181 HD
ENDBRANCH   9  29
BRANCH   1  40
HETATM   40  C6  UNL     1      16.709   8.299 -31.641  1.00  0.00     0.197 C 
BRANCH  40  41
HETATM   41  C5  UNL     1      17.287   9.480 -32.306  1.00  0.00     0.255 C 
BRANCH  41  42
HETATM   42  N1  UNL     1      18.559   9.995 -31.914  1.00  0.00    -0.068 N 
ATOM     43  H12 UNL     1      18.502  10.827 -31.326  1.00  0.00     0.277 HD
ATOM     44  H11 UNL     1      19.082  10.423 -32.678  1.00  0.00     0.277 HD
BRANCH  42  45
HETATM   45  C4  UNL     1      19.258   8.862 -31.274  1.00  0.00     0.300 C 
BRANCH  45  46
HETATM   46  C3  UNL     1      20.710   9.043 -31.383  1.00  0.00     0.115 A 
HETATM   47  O1  UNL     1      21.599   8.322 -32.025  1.00  0.00    -0.312 OA
HETATM   48  C2  UNL     1      22.808   8.821 -31.898  1.00  0.00     0.085 A 
HETATM   49  C1  UNL     1      24.073   8.256 -32.508  1.00  0.00     0.079 C 
HETATM   50  C17 UNL     1      22.740   9.945 -31.124  1.00  0.00     0.131 A 
HETATM   51  C16 UNL     1      21.425  10.095 -30.791  1.00  0.00     0.133 A 
BRANCH  50  52
HETATM   52  O3  UNL     1      23.747  10.803 -30.719  1.00  0.00    -0.356 OA
ATOM     53  H3  UNL     1      24.112  10.946 -29.853  1.00  0.00     0.218 HD
ENDBRANCH  50  52
BRANCH  51  54
HETATM   54  O2  UNL     1      20.825  11.072 -30.007  1.00  0.00    -0.356 OA
ATOM     55  H2  UNL     1      20.399  10.883 -29.179  1.00  0.00     0.218 HD
ENDBRANCH  51  54
ENDBRANCH  45  46
ENDBRANCH  42  45
ENDBRANCH  41  42
ENDBRANCH  40  41
ENDBRANCH   1  40
TORSDOF 12
ENDMDL
MODEL 3
REMARK VINA RESULT: -8.854277834      1.057      2.107
REMARK  12 active torsions:
REMARK  status: ('A' for Active; 'I' for Inactive)
REMARK    1  A    between atoms: C3_4  and  C4_5 
REMARK    2  A    between atoms: C4_5  and  N1_6 
REMARK    3  A    between atoms: N1_6  and  C5_9 
REMARK    4  A    between atoms: C5_9  and  C6_10 
REMARK    5  A    between atoms: C6_10  and  N2_11 
REMARK    6  A    between atoms: C7_16  and  C8_17 
REMARK    7  A    between atoms: C8_17  and  N5_18 
REMARK    8  A    between atoms: C11_23  and  N7_24 
REMARK    9  A    between atoms: C12_29  and  N9_30 
REMARK   10  A    between atoms: C14_38  and  N12_39 
REMARK       I    between atoms: N12_39  and  C15_41 
REMARK       I    between atoms: C15_41  and  N13_42 
REMARK       I    between atoms: C15_41  and  N14_46 
REMARK   11  A    between atoms: C16_50  and  O2_51 
REMARK   12  A    between atoms: C17_53  and  O3_54 
ROOT
HETATM    1  N2  UNL     1      15.473   8.278 -29.714  1.00  0.00    -0.108 N 
HETATM    2  N3  UNL     1      14.894   8.994 -28.696  1.00  0.00    -0.225 N 
ATOM      3  H3  UNL     1      15.497   9.416 -27.990  1.00  0.00     0.209 HD
HETATM    4  N4  UNL     1      13.617   9.154 -28.596  1.00  0.00    -0.272 N 
ATOM      5  H4  UNL     1      13.219   9.692 -27.826  1.00  0.00     0.190 HD
HETATM    6  C7  UNL     1      12.821   8.595 -29.528  1.00  0.00     0.131 A 
HETATM    7  N11 UNL     1      13.350   7.879 -30.553  1.00  0.00    -0.176 N 
ATOM      8  H11 UNL     1      12.742   7.458 -31.256  1.00  0.00     0.185 HD
HETATM    9  C14 UNL     1      14.699   7.728 -30.631  1.00  0.00     0.700 A 
ENDROOT
BRANCH   6  10
HETATM   10  C8  UNL     1      11.377   8.796 -29.399  1.00  0.00     0.210 C 
BRANCH  10  11
HETATM   11  N5  UNL     1      10.712   8.278 -30.574  1.00  0.00    -0.320 N 
HETATM   12  C9  UNL     1      10.622   8.883 -31.796  1.00  0.00     0.185 A 
HETATM   13  N6  UNL     1       9.917   8.121 -32.646  1.00  0.00    -0.346 N 
HETATM   14  C10 UNL     1       9.536   7.000 -31.996  1.00  0.00     0.123 A 
ATOM     15  H6  UNL     1       9.706   8.349 -33.618  1.00  0.00     0.167 HD
HETATM   16  C11 UNL     1       8.830   5.890 -32.389  1.00  0.00     0.145 A 
HETATM   17  C13 UNL     1      10.049   7.128 -30.698  1.00  0.00     0.155 A 
HETATM   18  N8  UNL     1       8.632   4.900 -31.509  1.00  0.00    -0.175 N 
HETATM   19  C12 UNL     1       9.129   5.003 -30.245  1.00  0.00     0.679 A 
ATOM     20  H8  UNL     1       8.109   4.070 -31.785  1.00  0.00     0.186 HD
HETATM   21  N10 UNL     1       9.812   6.086 -29.860  1.00  0.00    -0.174 N 
ATOM     22  H10 UNL     1      10.168   6.132 -28.904  1.00  0.00     0.186 HD
BRANCH  16  23
HETATM   23  N7  UNL     1       8.347   5.780 -33.587  1.00  0.00    -0.383 N 
ATOM     24  H72 UNL     1       8.985   5.638 -34.371  1.00  0.00     0.157 HD
ATOM     25  H71 UNL     1       7.344   5.829 -33.766  1.00  0.00     0.157 HD
ENDBRANCH  16  23
BRANCH  19  26
HETATM   26  N9  UNL     1       8.964   4.050 -29.404  1.00  0.00    -0.234 N 
ATOM     27  H92 UNL     1       8.580   4.269 -28.486  1.00  0.00     0.174 HD
ATOM     28  H91 UNL     1       9.228   3.096 -29.650  1.00  0.00     0.174 HD
ENDBRANCH  19  26
ENDBRANCH  10  11
ENDBRANCH   6  10
BRANCH   9  29
HETATM   29  N12 UNL     1      15.171   7.028 -31.592  1.00  0.00    -0.172 N 
HETATM   30  C15 UNL     1      15.312   7.564 -32.937  1.00  0.00     0.494 C 
HETATM   31  N13 UNL     1      14.051   8.144 -33.425  1.00  0.00    -0.032 N 
HETATM   32  N14 UNL     1      16.289   8.617 -32.911  1.00  0.00    -0.032 N 
ATOM     33 3H13 UNL     1      13.286   7.471 -33.371  1.00  0.00     0.278 HD
ATOM     34 2H13 UNL     1      13.691   8.848 -32.780  1.00  0.00     0.278 HD
ATOM     35 1H13 UNL     1      14.151   8.520 -34.368  1.00  0.00     0.278 HD
ATOM     36 3H14 UNL     1      16.068   9.339 -32.224  1.00  0.00     0.278 HD
ATOM     37 2H14 UNL     1      17.179   8.315 -32.515  1.00  0.00     0.278 HD
ATOM     38 1H14 UNL     1      16.389   8.993 -33.854  1.00  0.00     0.278 HD
ATOM     39  H12 UNL     1      15.455   6.065 -31.409  1.00  0.00     0.181 HD
ENDBRANCH   9  29
BRANCH   1  40
HETATM   40  C6  UNL     1      16.903   8.289 -29.640  1.00  0.00     0.197 C 
BRANCH  40  41
HETATM   41  C5  UNL     1      17.544   9.616 -29.648  1.00  0.00     0.255 C 
BRANCH  41  42
HETATM   42  N1  UNL     1      18.956   9.749 -29.794  1.00  0.00    -0.068 N 
ATOM     43  H12 UNL     1      19.491   9.239 -29.091  1.00  0.00     0.277 HD
ATOM     44  H11 UNL     1      19.308  10.679 -29.560  1.00  0.00     0.277 HD
BRANCH  42  45
HETATM   45  C4  UNL     1      19.247   9.334 -31.181  1.00  0.00     0.300 C 
BRANCH  45  46
HETATM   46  C3  UNL     1      20.697   9.213 -31.375  1.00  0.00     0.115 A 
HETATM   47  O1  UNL     1      21.383   8.300 -32.020  1.00  0.00    -0.312 OA
HETATM   48  C2  UNL     1      22.672   8.550 -31.984  1.00  0.00     0.085 A 
HETATM   49  C1  UNL     1      23.759   7.714 -32.626  1.00  0.00     0.079 C 
HETATM   50  C17 UNL     1      22.877   9.698 -31.272  1.00  0.00     0.131 A 
HETATM   51  C16 UNL     1      21.642  10.125 -30.881  1.00  0.00     0.133 A 
BRANCH  50  52
HETATM   52  O3  UNL     1      24.058  10.352 -30.968  1.00  0.00    -0.356 OA
ATOM     53  H3  UNL     1      24.523  11.023 -31.454  1.00  0.00     0.218 HD
ENDBRANCH  50  52
BRANCH  51  54
HETATM   54  O2  UNL     1      21.298  11.237 -30.123  1.00  0.00    -0.356 OA
ATOM     55  H2  UNL     1      21.466  12.129 -30.405  1.00  0.00     0.218 HD
ENDBRANCH  51  54
ENDBRANCH  45  46
ENDBRANCH  42  45
ENDBRANCH  41  42
ENDBRANCH  40  41
ENDBRANCH   1  40
TORSDOF 12
ENDMDL
MODEL 4
REMARK VINA RESULT: -8.833181651      3.975      8.713
REMARK  12 active torsions:
REMARK  status: ('A' for Active; 'I' for Inactive)
REMARK    1  A    between atoms: C3_4  and  C4_5 
REMARK    2  A    between atoms: C4_5  and  N1_6 
REMARK    3  A    between atoms: N1_6  and  C5_9 
REMARK    4  A    between atoms: C5_9  and  C6_10 
REMARK    5  A    between atoms: C6_10  and  N2_11 
REMARK    6  A    between atoms: C7_16  and  C8_17 
REMARK    7  A    between atoms: C8_17  and  N5_18 
REMARK    8  A    between atoms: C11_23  and  N7_24 
REMARK    9  A    between atoms: C12_29  and  N9_30 
REMARK   10  A    between atoms: C14_38  and  N12_39 
REMARK       I    between atoms: N12_39  and  C15_41 
REMARK       I    between atoms: C15_41  and  N13_42 
REMARK       I    between atoms: C15_41  and  N14_46 
REMARK   11  A    between atoms: C16_50  and  O2_51 
REMARK   12  A    between atoms: C17_53  and  O3_54 
ROOT
HETATM    1  N2  UNL     1       9.145   7.481 -32.035  1.00  0.00    -0.108 N 
HETATM    2  N3  UNL     1       9.510   8.766 -31.715  1.00  0.00    -0.225 N 
ATOM      3  H3  UNL     1       9.030   9.539 -32.176  1.00  0.00     0.209 HD
HETATM    4  N4  UNL     1      10.435   9.034 -30.856  1.00  0.00    -0.272 N 
ATOM      5  H4  UNL     1      10.682  10.000 -30.641  1.00  0.00     0.190 HD
HETATM    6  C7  UNL     1      11.069   8.011 -30.249  1.00  0.00     0.131 A 
HETATM    7  N11 UNL     1      10.741   6.725 -30.534  1.00  0.00    -0.176 N 
ATOM      8  H11 UNL     1      11.224   5.955 -30.071  1.00  0.00     0.185 HD
HETATM    9  C14 UNL     1       9.762   6.475 -31.443  1.00  0.00     0.700 A 
ENDROOT
BRANCH   6  10
HETATM   10  C8  UNL     1      12.108   8.339 -29.273  1.00  0.00     0.210 C 
BRANCH  10  11
HETATM   11  N5  UNL     1      13.386   8.434 -29.945  1.00  0.00    -0.320 N 
HETATM   12  C9  UNL     1      13.637   8.176 -31.263  1.00  0.00     0.185 A 
HETATM   13  N6  UNL     1      14.939   8.351 -31.536  1.00  0.00    -0.346 N 
HETATM   14  C10 UNL     1      15.564   8.731 -30.399  1.00  0.00     0.123 A 
ATOM     15  H6  UNL     1      15.381   8.220 -32.445  1.00  0.00     0.167 HD
HETATM   16  C11 UNL     1      16.866   9.061 -30.119  1.00  0.00     0.145 A 
HETATM   17  C13 UNL     1      14.563   8.773 -29.419  1.00  0.00     0.155 A 
HETATM   18  N8  UNL     1      17.187   9.439 -28.875  1.00  0.00    -0.175 N 
HETATM   19  C12 UNL     1      16.228   9.494 -27.910  1.00  0.00     0.679 A 
ATOM     20  H8  UNL     1      18.151   9.687 -28.650  1.00  0.00     0.186 HD
HETATM   21  N10 UNL     1      14.959   9.167 -28.182  1.00  0.00    -0.174 N 
ATOM     22  H10 UNL     1      14.266   9.217 -27.434  1.00  0.00     0.186 HD
BRANCH  16  23
HETATM   23  N7  UNL     1      17.791   9.010 -31.026  1.00  0.00    -0.383 N 
ATOM     24  H72 UNL     1      17.827   9.733 -31.745  1.00  0.00     0.157 HD
ATOM     25  H71 UNL     1      18.489   8.265 -31.037  1.00  0.00     0.157 HD
ENDBRANCH  16  23
BRANCH  19  26
HETATM   26  N9  UNL     1      16.523   9.878 -26.724  1.00  0.00    -0.234 N 
ATOM     27  H92 UNL     1      16.122  10.751 -26.379  1.00  0.00     0.174 HD
ATOM     28  H91 UNL     1      17.157   9.327 -26.146  1.00  0.00     0.174 HD
ENDBRANCH  19  26
ENDBRANCH  10  11
ENDBRANCH   6  10
BRANCH   9  29
HETATM   29  N12 UNL     1       9.489   5.255 -31.713  1.00  0.00    -0.172 N 
HETATM   30  C15 UNL     1       8.791   4.396 -30.768  1.00  0.00     0.494 C 
HETATM   31  N13 UNL     1       9.446   4.395 -29.450  1.00  0.00    -0.032 N 
HETATM   32  N14 UNL     1       7.459   4.901 -30.587  1.00  0.00    -0.032 N 
ATOM     33 3H13 UNL     1      10.432   4.143 -29.524  1.00  0.00     0.278 HD
ATOM     34 2H13 UNL     1       9.550   5.342 -29.085  1.00  0.00     0.278 HD
ATOM     35 1H13 UNL     1       8.956   3.793 -28.788  1.00  0.00     0.278 HD
ATOM     36 3H14 UNL     1       7.447   5.881 -30.305  1.00  0.00     0.278 HD
ATOM     37 2H14 UNL     1       6.956   5.002 -31.468  1.00  0.00     0.278 HD
ATOM     38 1H14 UNL     1       6.969   4.299 -29.924  1.00  0.00     0.278 HD
ATOM     39  H12 UNL     1       9.770   4.872 -32.616  1.00  0.00     0.181 HD
ENDBRANCH   9  29
BRANCH   1  40
HETATM   40  C6  UNL     1       8.061   7.442 -32.970  1.00  0.00     0.197 C 
BRANCH  40  41
HETATM   41  C5  UNL     1       7.922   8.614 -33.852  1.00  0.00     0.255 C 
BRANCH  41  42
HETATM   42  N1  UNL     1       8.321   8.554 -35.220  1.00  0.00    -0.068 N 
ATOM     43  H12 UNL     1       7.569   8.762 -35.877  1.00  0.00     0.277 HD
ATOM     44  H11 UNL     1       8.511   7.608 -35.553  1.00  0.00     0.277 HD
BRANCH  42  45
HETATM   45  C4  UNL     1       9.477   9.467 -35.331  1.00  0.00     0.300 C 
BRANCH  45  46
HETATM   46  C3  UNL     1      10.638   8.746 -35.864  1.00  0.00     0.115 A 
HETATM   47  O1  UNL     1      10.951   8.463 -37.107  1.00  0.00    -0.312 OA
HETATM   48  C2  UNL     1      12.090   7.812 -37.182  1.00  0.00     0.085 A 
HETATM   49  C1  UNL     1      12.760   7.334 -38.452  1.00  0.00     0.079 C 
HETATM   50  C17 UNL     1      12.581   7.640 -35.918  1.00  0.00     0.131 A 
HETATM   51  C16 UNL     1      11.675   8.221 -35.078  1.00  0.00     0.133 A 
BRANCH  50  52
HETATM   52  O3  UNL     1      13.743   7.018 -35.497  1.00  0.00    -0.356 OA
ATOM     53  H3  UNL     1      14.121   6.189 -35.768  1.00  0.00     0.218 HD
ENDBRANCH  50  52
BRANCH  51  54
HETATM   54  O2  UNL     1      11.695   8.309 -33.692  1.00  0.00    -0.356 OA
ATOM     55  H2  UNL     1      12.232   7.748 -33.145  1.00  0.00     0.218 HD
ENDBRANCH  51  54
ENDBRANCH  45  46
ENDBRANCH  42  45
ENDBRANCH  41  42
ENDBRANCH  40  41
ENDBRANCH   1  40
TORSDOF 12
ENDMDL
MODEL 5
REMARK VINA RESULT: -8.804992680      3.654      6.704
REMARK  12 active torsions:
REMARK  status: ('A' for Active; 'I' for Inactive)
REMARK    1  A    between atoms: C3_4  and  C4_5 
REMARK    2  A    between atoms: C4_5  and  N1_6 
REMARK    3  A    between atoms: N1_6  and  C5_9 
REMARK    4  A    between atoms: C5_9  and  C6_10 
REMARK    5  A    between atoms: C6_10  and  N2_11 
REMARK    6  A    between atoms: C7_16  and  C8_17 
REMARK    7  A    between atoms: C8_17  and  N5_18 
REMARK    8  A    between atoms: C11_23  and  N7_24 
REMARK    9  A    between atoms: C12_29  and  N9_30 
REMARK   10  A    between atoms: C14_38  and  N12_39 
REMARK       I    between atoms: N12_39  and  C15_41 
REMARK       I    between atoms: C15_41  and  N13_42 
REMARK       I    between atoms: C15_41  and  N14_46 
REMARK   11  A    between atoms: C16_50  and  O2_51 
REMARK   12  A    between atoms: C17_53  and  O3_54 
ROOT
HETATM    1  N2  UNL     1      10.012   7.785 -31.157  1.00  0.00    -0.108 N 
HETATM    2  N3  UNL     1       9.673   9.078 -31.470  1.00  0.00    -0.225 N 
ATOM      3  H3  UNL     1      10.092   9.837 -30.933  1.00  0.00     0.209 HD
HETATM    4  N4  UNL     1       8.846   9.372 -32.416  1.00  0.00    -0.272 N 
ATOM      5  H4  UNL     1       8.615  10.344 -32.623  1.00  0.00     0.190 HD
HETATM    6  C7  UNL     1       8.292   8.368 -33.125  1.00  0.00     0.131 A 
HETATM    7  N11 UNL     1       8.599   7.075 -32.851  1.00  0.00    -0.176 N 
ATOM      8  H11 UNL     1       8.177   6.319 -33.391  1.00  0.00     0.185 HD
HETATM    9  C14 UNL     1       9.474   6.797 -31.848  1.00  0.00     0.700 A 
ENDROOT
BRANCH   6  10
HETATM   10  C8  UNL     1       7.364   8.725 -34.198  1.00  0.00     0.210 C 
BRANCH  10  11
HETATM   11  N5  UNL     1       6.107   8.039 -33.995  1.00  0.00    -0.320 N 
HETATM   12  C9  UNL     1       5.915   6.688 -33.934  1.00  0.00     0.185 A 
HETATM   13  N6  UNL     1       4.615   6.406 -33.751  1.00  0.00    -0.346 N 
HETATM   14  C10 UNL     1       3.934   7.571 -33.685  1.00  0.00     0.123 A 
ATOM     15  H6  UNL     1       4.212   5.472 -33.675  1.00  0.00     0.167 HD
HETATM   16  C11 UNL     1       2.608   7.863 -33.486  1.00  0.00     0.145 A 
HETATM   17  C13 UNL     1       4.897   8.577 -33.842  1.00  0.00     0.155 A 
HETATM   18  N8  UNL     1       2.225   9.146 -33.436  1.00  0.00    -0.175 N 
HETATM   19  C12 UNL     1       3.147  10.138 -33.579  1.00  0.00     0.679 A 
ATOM     20  H8  UNL     1       1.243   9.379 -33.289  1.00  0.00     0.186 HD
HETATM   21  N10 UNL     1       4.439   9.853 -33.777  1.00  0.00    -0.174 N 
ATOM     22  H10 UNL     1       5.103  10.621 -33.883  1.00  0.00     0.186 HD
BRANCH  16  23
HETATM   23  N7  UNL     1       1.718   6.930 -33.353  1.00  0.00    -0.383 N 
ATOM     24  H72 UNL     1       1.307   6.759 -32.435  1.00  0.00     0.157 HD
ATOM     25  H71 UNL     1       1.414   6.363 -34.145  1.00  0.00     0.157 HD
ENDBRANCH  16  23
BRANCH  19  26
HETATM   26  N9  UNL     1       2.792  11.367 -33.507  1.00  0.00    -0.234 N 
ATOM     27  H92 UNL     1       2.839  11.837 -32.603  1.00  0.00     0.174 HD
ATOM     28  H91 UNL     1       2.457  11.856 -34.337  1.00  0.00     0.174 HD
ENDBRANCH  19  26
ENDBRANCH  10  11
ENDBRANCH   6  10
BRANCH   9  29
HETATM   29  N12 UNL     1       9.726   5.569 -31.593  1.00  0.00    -0.172 N 
HETATM   30  C15 UNL     1       8.818   4.745 -30.809  1.00  0.00     0.494 C 
HETATM   31  N13 UNL     1       8.485   5.377 -29.523  1.00  0.00    -0.032 N 
HETATM   32  N14 UNL     1       7.592   4.588 -31.542  1.00  0.00    -0.032 N 
ATOM     33 3H13 UNL     1       9.326   5.611 -28.995  1.00  0.00     0.278 HD
ATOM     34 2H13 UNL     1       8.113   6.317 -29.656  1.00  0.00     0.278 HD
ATOM     35 1H13 UNL     1       7.849   4.799 -28.974  1.00  0.00     0.278 HD
ATOM     36 3H14 UNL     1       7.178   5.481 -31.807  1.00  0.00     0.278 HD
ATOM     37 2H14 UNL     1       7.743   4.219 -32.481  1.00  0.00     0.278 HD
ATOM     38 1H14 UNL     1       6.956   4.009 -30.993  1.00  0.00     0.278 HD
ATOM     39  H12 UNL     1      10.588   5.156 -31.949  1.00  0.00     0.181 HD
ENDBRANCH   9  29
BRANCH   1  40
HETATM   40  C6  UNL     1      10.987   7.718 -30.110  1.00  0.00     0.197 C 
BRANCH  40  41
HETATM   41  C5  UNL     1      12.383   7.971 -30.506  1.00  0.00     0.255 C 
BRANCH  41  42
HETATM   42  N1  UNL     1      13.023   9.206 -30.192  1.00  0.00    -0.068 N 
ATOM     43  H12 UNL     1      12.380   9.994 -30.116  1.00  0.00     0.277 HD
ATOM     44  H11 UNL     1      13.585   9.584 -30.956  1.00  0.00     0.277 HD
BRANCH  42  45
HETATM   45  C4  UNL     1      13.794   8.945 -28.959  1.00  0.00     0.300 C 
BRANCH  45  46
HETATM   46  C3  UNL     1      15.231   9.054 -29.233  1.00  0.00     0.115 A 
HETATM   47  O1  UNL     1      15.890   8.847 -30.348  1.00  0.00    -0.312 OA
HETATM   48  C2  UNL     1      17.177   9.067 -30.197  1.00  0.00     0.085 A 
HETATM   49  C1  UNL     1      18.235   8.934 -31.271  1.00  0.00     0.079 C 
HETATM   50  C17 UNL     1      17.408   9.444 -28.904  1.00  0.00     0.131 A 
HETATM   51  C16 UNL     1      16.192   9.438 -28.285  1.00  0.00     0.133 A 
BRANCH  50  52
HETATM   52  O3  UNL     1      18.596   9.777 -28.278  1.00  0.00    -0.356 OA
ATOM     53  H3  UNL     1      18.757  10.042 -27.380  1.00  0.00     0.218 HD
ENDBRANCH  50  52
BRANCH  51  54
HETATM   54  O2  UNL     1      15.878   9.732 -26.964  1.00  0.00    -0.356 OA
ATOM     55  H2  UNL     1      15.444  10.534 -26.701  1.00  0.00     0.218 HD
ENDBRANCH  51  54
ENDBRANCH  45  46
ENDBRANCH  42  45
ENDBRANCH  41  42
ENDBRANCH  40  41
ENDBRANCH   1  40
TORSDOF 12
ENDMDL
