MODEL 1
REMARK VINA RESULT: -6.646068618      0.000      0.000
REMARK  0 active torsions:
REMARK  status: ('A' for Active; 'I' for Inactive)
ROOT
HETATM    1  C1  UNL     1      -5.348   5.571 -28.170  1.00  0.00    -0.030 C 
HETATM    2  C2  UNL     1      -5.344   5.842 -29.115  1.00  0.00    -0.030 C 
HETATM    3  C3  UNL     1      -5.679   5.853 -30.454  1.00  0.00     0.026 C 
HETATM    4  C4  UNL     1      -6.675   4.487 -30.322  1.00  0.00     0.004 C 
HETATM    5  C5  UNL     1      -7.277   4.648 -28.954  1.00  0.00     0.001 C 
HETATM    6  C6  UNL     1      -6.709   3.805 -27.849  1.00  0.00     0.004 C 
HETATM    7  C7  UNL     1      -5.696   4.873 -27.036  1.00  0.00     0.026 C 
ENDROOT
TORSDOF 0
ENDMDL
MODEL 2
REMARK VINA RESULT: -6.585518003      0.640      2.459
REMARK  0 active torsions:
REMARK  status: ('A' for Active; 'I' for Inactive)
ROOT
HETATM    1  C1  UNL     1      -5.351   5.971 -29.031  1.00  0.00    -0.030 C 
HETATM    2  C2  UNL     1      -5.118   5.714 -28.112  1.00  0.00    -0.030 C 
HETATM    3  C3  UNL     1      -5.200   5.072 -26.893  1.00  0.00     0.026 C 
HETATM    4  C4  UNL     1      -6.678   4.329 -27.267  1.00  0.00     0.004 C 
HETATM    5  C5  UNL     1      -6.546   4.053 -28.739  1.00  0.00     0.001 C 
HETATM    6  C6  UNL     1      -7.266   4.975 -29.679  1.00  0.00     0.004 C 
HETATM    7  C7  UNL     1      -6.047   5.999 -30.219  1.00  0.00     0.026 C 
ENDROOT
TORSDOF 0
ENDMDL
MODEL 3
REMARK VINA RESULT: -6.545588311      0.852      1.640
REMARK  0 active torsions:
REMARK  status: ('A' for Active; 'I' for Inactive)
ROOT
HETATM    1  C1  UNL     1      -5.780   5.845 -30.052  1.00  0.00    -0.030 C 
HETATM    2  C2  UNL     1      -6.274   5.514 -30.834  1.00  0.00    -0.030 C 
HETATM    3  C3  UNL     1      -7.125   4.727 -31.582  1.00  0.00     0.026 C 
HETATM    4  C4  UNL     1      -7.413   3.647 -30.307  1.00  0.00     0.004 C 
HETATM    5  C5  UNL     1      -7.390   4.545 -29.101  1.00  0.00     0.001 C 
HETATM    6  C6  UNL     1      -6.149   4.533 -28.258  1.00  0.00     0.004 C 
HETATM    7  C7  UNL     1      -5.339   5.922 -28.749  1.00  0.00     0.026 C 
ENDROOT
TORSDOF 0
ENDMDL
MODEL 4
REMARK VINA RESULT: -6.540198263      0.704      2.040
REMARK  0 active torsions:
REMARK  status: ('A' for Active; 'I' for Inactive)
ROOT
HETATM    1  C1  UNL     1      -6.758   4.308 -28.752  1.00  0.00    -0.030 C 
HETATM    2  C2  UNL     1      -7.038   4.389 -29.690  1.00  0.00    -0.030 C 
HETATM    3  C3  UNL     1      -7.067   4.846 -30.992  1.00  0.00     0.026 C 
HETATM    4  C4  UNL     1      -5.923   6.062 -30.700  1.00  0.00     0.004 C 
HETATM    5  C5  UNL     1      -5.007   5.420 -29.694  1.00  0.00     0.001 C 
HETATM    6  C6  UNL     1      -5.168   5.827 -28.258  1.00  0.00     0.004 C 
HETATM    7  C7  UNL     1      -6.050   4.557 -27.598  1.00  0.00     0.026 C 
ENDROOT
TORSDOF 0
ENDMDL
MODEL 5
REMARK VINA RESULT: -6.514048561      0.840      2.170
REMARK  0 active torsions:
REMARK  status: ('A' for Active; 'I' for Inactive)
ROOT
HETATM    1  C1  UNL     1      -6.234   4.248 -27.318  1.00  0.00    -0.030 C 
HETATM    2  C2  UNL     1      -6.922   3.892 -27.922  1.00  0.00    -0.030 C 
HETATM    3  C3  UNL     1      -7.686   3.747 -29.063  1.00  0.00     0.026 C 
HETATM    4  C4  UNL     1      -6.981   5.086 -29.829  1.00  0.00     0.004 C 
HETATM    5  C5  UNL     1      -5.558   5.032 -29.347  1.00  0.00     0.001 C 
HETATM    6  C6  UNL     1      -5.162   5.990 -28.262  1.00  0.00     0.004 C 
HETATM    7  C7  UNL     1      -5.194   5.036 -26.878  1.00  0.00     0.026 C 
ENDROOT
TORSDOF 0
ENDMDL
