MODEL 1
REMARK VINA RESULT: -6.381063376      0.000      0.000
REMARK  0 active torsions:
REMARK  status: ('A' for Active; 'I' for Inactive)
ROOT
HETATM    1  C1  UNL     1      -7.203   4.160 -29.218  1.00  0.00     0.001 C 
HETATM    2  C2  UNL     1      -6.983   4.374 -30.694  1.00  0.00     0.004 C 
HETATM    3  C3  UNL     1      -5.942   5.411 -30.995  1.00  0.00    -0.014 C 
HETATM    4  C4  UNL     1      -4.664   5.226 -30.228  1.00  0.00     0.009 C 
HETATM    5  C5  UNL     1      -5.396   5.879 -29.048  1.00  0.00    -0.014 C 
HETATM    6  C6  UNL     1      -6.150   4.773 -28.356  1.00  0.00     0.004 C 
HETATM    7  C7  UNL     1      -6.234   6.604 -30.075  1.00  0.00     0.009 C 
ENDROOT
TORSDOF 0
ENDMDL
MODEL 2
REMARK VINA RESULT: -6.271455097      0.547      2.110
REMARK  0 active torsions:
REMARK  status: ('A' for Active; 'I' for Inactive)
ROOT
HETATM    1  C1  UNL     1      -7.169   3.919 -30.177  1.00  0.00     0.001 C 
HETATM    2  C2  UNL     1      -6.544   4.433 -28.905  1.00  0.00     0.004 C 
HETATM    3  C3  UNL     1      -5.636   5.607 -29.121  1.00  0.00    -0.014 C 
HETATM    4  C4  UNL     1      -6.242   6.693 -29.961  1.00  0.00     0.009 C 
HETATM    5  C5  UNL     1      -5.883   5.819 -31.170  1.00  0.00    -0.014 C 
HETATM    6  C6  UNL     1      -7.022   4.845 -31.338  1.00  0.00     0.004 C 
HETATM    7  C7  UNL     1      -4.757   5.263 -30.331  1.00  0.00     0.009 C 
ENDROOT
TORSDOF 0
ENDMDL
MODEL 3
REMARK VINA RESULT: -6.114522269      0.542      2.114
REMARK  0 active torsions:
REMARK  status: ('A' for Active; 'I' for Inactive)
ROOT
HETATM    1  C1  UNL     1      -6.708   3.980 -28.496  1.00  0.00     0.001 C 
HETATM    2  C2  UNL     1      -5.764   5.015 -27.938  1.00  0.00     0.004 C 
HETATM    3  C3  UNL     1      -5.239   5.961 -28.976  1.00  0.00    -0.014 C 
HETATM    4  C4  UNL     1      -6.307   6.549 -29.854  1.00  0.00     0.009 C 
HETATM    5  C5  UNL     1      -6.266   5.220 -30.621  1.00  0.00    -0.014 C 
HETATM    6  C6  UNL     1      -7.180   4.279 -29.880  1.00  0.00     0.004 C 
HETATM    7  C7  UNL     1      -4.826   5.105 -30.181  1.00  0.00     0.009 C 
ENDROOT
TORSDOF 0
ENDMDL
MODEL 4
REMARK VINA RESULT: -5.653288566      0.808      1.854
REMARK  0 active torsions:
REMARK  status: ('A' for Active; 'I' for Inactive)
ROOT
HETATM    1  C1  UNL     1      -5.251   5.060 -28.317  1.00  0.00     0.001 C 
HETATM    2  C2  UNL     1      -6.704   4.750 -28.578  1.00  0.00     0.004 C 
HETATM    3  C3  UNL     1      -7.124   5.021 -29.991  1.00  0.00    -0.014 C 
HETATM    4  C4  UNL     1      -6.201   4.434 -31.020  1.00  0.00     0.009 C 
HETATM    5  C5  UNL     1      -5.293   5.641 -30.748  1.00  0.00    -0.014 C 
HETATM    6  C6  UNL     1      -4.448   5.270 -29.556  1.00  0.00     0.004 C 
HETATM    7  C7  UNL     1      -6.545   6.393 -30.365  1.00  0.00     0.009 C 
ENDROOT
TORSDOF 0
ENDMDL
MODEL 5
REMARK VINA RESULT: -5.554192817      0.681      1.091
REMARK  0 active torsions:
REMARK  status: ('A' for Active; 'I' for Inactive)
ROOT
HETATM    1  C1  UNL     1      -6.117   4.390 -28.056  1.00  0.00     0.001 C 
HETATM    2  C2  UNL     1      -6.889   4.050 -29.305  1.00  0.00     0.004 C 
HETATM    3  C3  UNL     1      -6.465   4.847 -30.502  1.00  0.00    -0.014 C 
HETATM    4  C4  UNL     1      -4.979   4.872 -30.716  1.00  0.00     0.009 C 
HETATM    5  C5  UNL     1      -4.941   5.946 -29.620  1.00  0.00    -0.014 C 
HETATM    6  C6  UNL     1      -4.893   5.206 -28.308  1.00  0.00     0.004 C 
HETATM    7  C7  UNL     1      -6.347   6.305 -30.037  1.00  0.00     0.009 C 
ENDROOT
TORSDOF 0
ENDMDL
