MODEL 1
REMARK VINA RESULT: -6.306762205      0.000      0.000
REMARK  1 active torsions:
REMARK  status: ('A' for Active; 'I' for Inactive)
REMARK    1  A    between atoms: C2_2  and  C3_3 
ROOT
HETATM    1  C3  UNL     1      -5.575   5.098 -29.242  1.00  0.00     0.007 C 
HETATM    2  C4  UNL     1      -6.982   4.522 -29.051  1.00  0.00     0.008 C 
HETATM    3  C5  UNL     1      -7.172   3.922 -30.446  1.00  0.00     0.001 C 
HETATM    4  C6  UNL     1      -6.831   5.105 -31.310  1.00  0.00     0.001 C 
HETATM    5  C7  UNL     1      -5.785   5.882 -30.500  1.00  0.00     0.008 C 
ENDROOT
BRANCH   1   6
HETATM    6  C2  UNL     1      -5.098   5.861 -28.089  1.00  0.00    -0.032 C 
HETATM    7  C1  UNL     1      -5.148   5.494 -26.823  1.00  0.00     0.007 C 
ENDBRANCH   1   6
TORSDOF 1
ENDMDL
MODEL 2
REMARK VINA RESULT: -6.228722329      0.458      1.534
REMARK  1 active torsions:
REMARK  status: ('A' for Active; 'I' for Inactive)
REMARK    1  A    between atoms: C2_2  and  C3_3 
ROOT
HETATM    1  C3  UNL     1      -6.124   5.496 -29.329  1.00  0.00     0.007 C 
HETATM    2  C4  UNL     1      -5.551   5.185 -30.715  1.00  0.00     0.008 C 
HETATM    3  C5  UNL     1      -6.851   4.773 -31.410  1.00  0.00     0.001 C 
HETATM    4  C6  UNL     1      -7.376   3.750 -30.441  1.00  0.00     0.001 C 
HETATM    5  C7  UNL     1      -6.880   4.229 -29.071  1.00  0.00     0.008 C 
ENDROOT
BRANCH   1   6
HETATM    6  C2  UNL     1      -5.102   5.840 -28.341  1.00  0.00    -0.032 C 
HETATM    7  C1  UNL     1      -5.108   5.533 -27.058  1.00  0.00     0.007 C 
ENDBRANCH   1   6
TORSDOF 1
ENDMDL
MODEL 3
REMARK VINA RESULT: -6.190678681      0.877      3.330
REMARK  1 active torsions:
REMARK  status: ('A' for Active; 'I' for Inactive)
REMARK    1  A    between atoms: C2_2  and  C3_3 
ROOT
HETATM    1  C3  UNL     1      -6.947   4.636 -28.783  1.00  0.00     0.007 C 
HETATM    2  C4  UNL     1      -6.367   3.868 -27.591  1.00  0.00     0.008 C 
HETATM    3  C5  UNL     1      -5.798   5.055 -26.811  1.00  0.00     0.001 C 
HETATM    4  C6  UNL     1      -4.988   5.733 -27.882  1.00  0.00     0.001 C 
HETATM    5  C7  UNL     1      -5.748   5.440 -29.182  1.00  0.00     0.008 C 
ENDROOT
BRANCH   1   6
HETATM    6  C2  UNL     1      -7.504   3.768 -29.819  1.00  0.00    -0.032 C 
HETATM    7  C1  UNL     1      -7.145   3.720 -31.087  1.00  0.00     0.007 C 
ENDBRANCH   1   6
TORSDOF 1
ENDMDL
MODEL 4
REMARK VINA RESULT: -6.050908721      0.733      1.629
REMARK  1 active torsions:
REMARK  status: ('A' for Active; 'I' for Inactive)
REMARK    1  A    between atoms: C2_2  and  C3_3 
ROOT
HETATM    1  C3  UNL     1      -5.919   5.376 -28.759  1.00  0.00     0.007 C 
HETATM    2  C4  UNL     1      -4.960   5.512 -29.946  1.00  0.00     0.008 C 
HETATM    3  C5  UNL     1      -5.974   5.944 -31.008  1.00  0.00     0.001 C 
HETATM    4  C6  UNL     1      -7.016   4.869 -30.855  1.00  0.00     0.001 C 
HETATM    5  C7  UNL     1      -6.962   4.492 -29.369  1.00  0.00     0.008 C 
ENDROOT
BRANCH   1   6
HETATM    6  C2  UNL     1      -5.277   4.862 -27.549  1.00  0.00    -0.032 C 
HETATM    7  C1  UNL     1      -5.246   5.440 -26.364  1.00  0.00     0.007 C 
ENDBRANCH   1   6
TORSDOF 1
ENDMDL
MODEL 5
REMARK VINA RESULT: -6.037955908      0.780      1.110
REMARK  1 active torsions:
REMARK  status: ('A' for Active; 'I' for Inactive)
REMARK    1  A    between atoms: C2_2  and  C3_3 
ROOT
HETATM    1  C3  UNL     1      -5.970   4.693 -28.758  1.00  0.00     0.007 C 
HETATM    2  C4  UNL     1      -7.343   4.645 -29.436  1.00  0.00     0.008 C 
HETATM    3  C5  UNL     1      -6.888   4.849 -30.883  1.00  0.00     0.001 C 
HETATM    4  C6  UNL     1      -6.037   6.081 -30.740  1.00  0.00     0.001 C 
HETATM    5  C7  UNL     1      -5.445   5.975 -29.328  1.00  0.00     0.008 C 
ENDROOT
BRANCH   1   6
HETATM    6  C2  UNL     1      -6.039   4.627 -27.299  1.00  0.00    -0.032 C 
HETATM    7  C1  UNL     1      -5.352   5.358 -26.441  1.00  0.00     0.007 C 
ENDBRANCH   1   6
TORSDOF 1
ENDMDL
