MODEL 1
REMARK VINA RESULT: -7.989636310      0.000      0.000
REMARK  7 active torsions:
REMARK  status: ('A' for Active; 'I' for Inactive)
REMARK    1  A    between atoms: C6_10  and  C7_11 
REMARK    2  A    between atoms: C7_11  and  C10_14 
REMARK    3  A    between atoms: C14_18  and  C15_19 
REMARK    4  A    between atoms: C15_19  and  O2_21 
REMARK    5  A    between atoms: O2_21  and  C16_22 
REMARK    6  A    between atoms: C16_22  and  C17_23 
REMARK    7  A    between atoms: C17_23  and  C18_25 
ROOT
HETATM    1  C1  UNL     1     -18.048   7.471  -8.997  1.00  0.00     0.051 C 
HETATM    2  C2  UNL     1     -16.637   7.130  -9.353  1.00  0.00    -0.020 A 
HETATM    3  C3  UNL     1     -16.311   5.798  -9.413  1.00  0.00     0.090 A 
HETATM    4  C4  UNL     1     -17.277   4.774  -9.148  1.00  0.00     0.103 C 
HETATM    5  N1  UNL     1     -18.057   3.927  -8.939  1.00  0.00    -0.191 NA
HETATM    6  C5  UNL     1     -15.013   5.492  -9.743  1.00  0.00     0.125 A 
HETATM    7 CL1  UNL     1     -14.527   3.789  -9.838  1.00  0.00    -0.063 Cl
HETATM    8  N2  UNL     1     -14.127   6.461  -9.987  1.00  0.00    -0.347 N 
ATOM      9  H2  UNL     1     -13.173   6.194 -10.228  1.00  0.00     0.167 HD
HETATM   10  C6  UNL     1     -14.428   7.782  -9.932  1.00  0.00     0.036 A 
HETATM   11  C14 UNL     1     -15.702   8.144  -9.610  1.00  0.00     0.070 A 
ENDROOT
BRANCH  11  12
HETATM   12  C15 UNL     1     -16.152   9.524  -9.497  1.00  0.00     0.296 C 
HETATM   13  O1  UNL     1     -16.752  10.127 -10.405  1.00  0.00    -0.259 OA
BRANCH  12  14
HETATM   14  O2  UNL     1     -15.900  10.203  -8.323  1.00  0.00    -0.310 OA
BRANCH  14  15
HETATM   15  C16 UNL     1     -16.328   9.867  -7.048  1.00  0.00     0.258 C 
BRANCH  15  16
HETATM   16  C17 UNL     1     -15.274   9.500  -6.081  1.00  0.00     0.158 C 
HETATM   17  O3  UNL     1     -14.433  10.280  -5.706  1.00  0.00    -0.295 OA
BRANCH  16  18
HETATM   18  C18 UNL     1     -15.245   8.118  -5.544  1.00  0.00     0.012 C 
HETATM   19  C19 UNL     1     -14.386   7.223  -6.405  1.00  0.00     0.022 C 
HETATM   20  C20 UNL     1     -14.681   8.070  -4.143  1.00  0.00     0.022 C 
HETATM   21  C21 UNL     1     -16.666   7.586  -5.592  1.00  0.00     0.022 C 
ENDBRANCH  16  18
ENDBRANCH  15  16
ENDBRANCH  14  15
ENDBRANCH  12  14
ENDBRANCH  11  12
BRANCH  10  22
HETATM   22  C7  UNL     1     -13.376   8.790 -10.227  1.00  0.00     0.003 C 
HETATM   23  C8  UNL     1     -13.789   9.724 -11.320  1.00  0.00     0.022 C 
HETATM   24  C9  UNL     1     -12.905   9.519  -8.985  1.00  0.00     0.022 C 
BRANCH  22  25
HETATM   25  C10 UNL     1     -12.130   8.055 -10.748  1.00  0.00    -0.039 C 
HETATM   26  C11 UNL     1     -11.320   9.032 -11.576  1.00  0.00     0.015 C 
HETATM   27  C12 UNL     1     -12.509   6.895 -11.625  1.00  0.00     0.015 C 
HETATM   28  C13 UNL     1     -11.253   7.622  -9.578  1.00  0.00     0.015 C 
ENDBRANCH  22  25
ENDBRANCH  10  22
TORSDOF 7
ENDMDL
MODEL 2
REMARK VINA RESULT: -7.832983076      2.167      3.365
REMARK  7 active torsions:
REMARK  status: ('A' for Active; 'I' for Inactive)
REMARK    1  A    between atoms: C6_10  and  C7_11 
REMARK    2  A    between atoms: C7_11  and  C10_14 
REMARK    3  A    between atoms: C14_18  and  C15_19 
REMARK    4  A    between atoms: C15_19  and  O2_21 
REMARK    5  A    between atoms: O2_21  and  C16_22 
REMARK    6  A    between atoms: C16_22  and  C17_23 
REMARK    7  A    between atoms: C17_23  and  C18_25 
ROOT
HETATM    1  C1  UNL     1     -15.734   4.240  -8.878  1.00  0.00     0.051 C 
HETATM    2  C2  UNL     1     -14.748   4.988  -9.716  1.00  0.00    -0.020 A 
HETATM    3  C3  UNL     1     -14.162   4.307 -10.752  1.00  0.00     0.090 A 
HETATM    4  C4  UNL     1     -14.476   2.936 -11.026  1.00  0.00     0.103 C 
HETATM    5  N1  UNL     1     -14.728   1.818 -11.263  1.00  0.00    -0.191 NA
HETATM    6  C5  UNL     1     -13.257   5.001 -11.519  1.00  0.00     0.125 A 
HETATM    7 CL1  UNL     1     -12.464   4.177 -12.875  1.00  0.00    -0.063 Cl
HETATM    8  N2  UNL     1     -12.977   6.279 -11.249  1.00  0.00    -0.347 N 
ATOM      9  H2  UNL     1     -12.301   6.760 -11.841  1.00  0.00     0.167 HD
HETATM   10  C6  UNL     1     -13.545   6.970 -10.230  1.00  0.00     0.036 A 
HETATM   11  C14 UNL     1     -14.450   6.331  -9.436  1.00  0.00     0.070 A 
ENDROOT
BRANCH  11  12
HETATM   12  C15 UNL     1     -15.115   6.950  -8.299  1.00  0.00     0.296 C 
HETATM   13  O1  UNL     1     -14.656   6.932  -7.142  1.00  0.00    -0.259 OA
BRANCH  12  14
HETATM   14  O2  UNL     1     -16.317   7.591  -8.511  1.00  0.00    -0.310 OA
BRANCH  14  15
HETATM   15  C16 UNL     1     -17.007   8.402  -7.623  1.00  0.00     0.258 C 
BRANCH  15  16
HETATM   16  C17 UNL     1     -17.256   9.788  -8.063  1.00  0.00     0.158 C 
HETATM   17  O3  UNL     1     -16.479  10.688  -7.855  1.00  0.00    -0.295 OA
BRANCH  16  18
HETATM   18  C18 UNL     1     -18.511  10.094  -8.792  1.00  0.00     0.012 C 
HETATM   19  C19 UNL     1     -18.358   9.819 -10.268  1.00  0.00     0.022 C 
HETATM   20  C20 UNL     1     -19.669   9.260  -8.296  1.00  0.00     0.022 C 
HETATM   21  C21 UNL     1     -18.780  11.579  -8.622  1.00  0.00     0.022 C 
ENDBRANCH  16  18
ENDBRANCH  15  16
ENDBRANCH  14  15
ENDBRANCH  12  14
ENDBRANCH  11  12
BRANCH  10  22
HETATM   22  C7  UNL     1     -13.175   8.394 -10.010  1.00  0.00     0.003 C 
HETATM   23  C8  UNL     1     -14.262   9.325 -10.444  1.00  0.00     0.022 C 
HETATM   24  C9  UNL     1     -12.709   8.661  -8.594  1.00  0.00     0.022 C 
BRANCH  22  25
HETATM   25  C10 UNL     1     -11.960   8.723 -10.894  1.00  0.00    -0.039 C 
HETATM   26  C11 UNL     1     -11.404  10.060 -10.449  1.00  0.00     0.015 C 
HETATM   27  C12 UNL     1     -12.352   8.833 -12.341  1.00  0.00     0.015 C 
HETATM   28  C13 UNL     1     -10.863   7.685 -10.678  1.00  0.00     0.015 C 
ENDBRANCH  22  25
ENDBRANCH  10  22
TORSDOF 7
ENDMDL
MODEL 3
REMARK VINA RESULT: -7.802212591      1.264      2.176
REMARK  7 active torsions:
REMARK  status: ('A' for Active; 'I' for Inactive)
REMARK    1  A    between atoms: C6_10  and  C7_11 
REMARK    2  A    between atoms: C7_11  and  C10_14 
REMARK    3  A    between atoms: C14_18  and  C15_19 
REMARK    4  A    between atoms: C15_19  and  O2_21 
REMARK    5  A    between atoms: O2_21  and  C16_22 
REMARK    6  A    between atoms: C16_22  and  C17_23 
REMARK    7  A    between atoms: C17_23  and  C18_25 
ROOT
HETATM    1  C1  UNL     1     -18.207   7.221  -8.963  1.00  0.00     0.051 C 
HETATM    2  C2  UNL     1     -16.825   6.722  -9.240  1.00  0.00    -0.020 A 
HETATM    3  C3  UNL     1     -16.596   5.381  -9.062  1.00  0.00     0.090 A 
HETATM    4  C4  UNL     1     -17.632   4.490  -8.629  1.00  0.00     0.103 C 
HETATM    5  N1  UNL     1     -18.469   3.752  -8.281  1.00  0.00    -0.191 NA
HETATM    6  C5  UNL     1     -15.324   4.929  -9.321  1.00  0.00     0.125 A 
HETATM    7 CL1  UNL     1     -14.962   3.206  -9.110  1.00  0.00    -0.063 Cl
HETATM    8  N2  UNL     1     -14.372   5.774  -9.724  1.00  0.00    -0.347 N 
ATOM      9  H2  UNL     1     -13.441   5.401  -9.906  1.00  0.00     0.167 HD
HETATM   10  C6  UNL     1     -14.577   7.102  -9.906  1.00  0.00     0.036 A 
HETATM   11  C14 UNL     1     -15.821   7.606  -9.664  1.00  0.00     0.070 A 
ENDROOT
BRANCH  11  12
HETATM   12  C15 UNL     1     -16.169   9.012  -9.800  1.00  0.00     0.296 C 
HETATM   13  O1  UNL     1     -16.653   9.503 -10.837  1.00  0.00    -0.259 OA
BRANCH  12  14
HETATM   14  O2  UNL     1     -15.954   9.849  -8.725  1.00  0.00    -0.310 OA
BRANCH  14  15
HETATM   15  C16 UNL     1     -16.713   9.949  -7.570  1.00  0.00     0.258 C 
BRANCH  15  16
HETATM   16  C17 UNL     1     -16.407  11.089  -6.684  1.00  0.00     0.158 C 
HETATM   17  O3  UNL     1     -17.049  12.112  -6.690  1.00  0.00    -0.295 OA
BRANCH  16  18
HETATM   18  C18 UNL     1     -15.265  10.979  -5.743  1.00  0.00     0.012 C 
HETATM   19  C19 UNL     1     -15.622  11.551  -4.393  1.00  0.00     0.022 C 
HETATM   20  C20 UNL     1     -14.848   9.543  -5.529  1.00  0.00     0.022 C 
HETATM   21  C21 UNL     1     -14.130  11.810  -6.314  1.00  0.00     0.022 C 
ENDBRANCH  16  18
ENDBRANCH  15  16
ENDBRANCH  14  15
ENDBRANCH  12  14
ENDBRANCH  11  12
BRANCH  10  22
HETATM   22  C7  UNL     1     -13.456   7.965 -10.364  1.00  0.00     0.003 C 
HETATM   23  C8  UNL     1     -12.535   7.235 -11.291  1.00  0.00     0.022 C 
HETATM   24  C9  UNL     1     -13.934   9.283 -10.937  1.00  0.00     0.022 C 
BRANCH  22  25
HETATM   25  C10 UNL     1     -12.607   8.350  -9.141  1.00  0.00    -0.039 C 
HETATM   26  C11 UNL     1     -11.198   7.840  -9.369  1.00  0.00     0.015 C 
HETATM   27  C12 UNL     1     -13.140   7.718  -7.887  1.00  0.00     0.015 C 
HETATM   28  C13 UNL     1     -12.523   9.868  -9.024  1.00  0.00     0.015 C 
ENDBRANCH  22  25
ENDBRANCH  10  22
TORSDOF 7
ENDMDL
MODEL 4
REMARK VINA RESULT: -7.741596984      0.902      1.611
REMARK  7 active torsions:
REMARK  status: ('A' for Active; 'I' for Inactive)
REMARK    1  A    between atoms: C6_10  and  C7_11 
REMARK    2  A    between atoms: C7_11  and  C10_14 
REMARK    3  A    between atoms: C14_18  and  C15_19 
REMARK    4  A    between atoms: C15_19  and  O2_21 
REMARK    5  A    between atoms: O2_21  and  C16_22 
REMARK    6  A    between atoms: C16_22  and  C17_23 
REMARK    7  A    between atoms: C17_23  and  C18_25 
ROOT
HETATM    1  C1  UNL     1     -17.972   7.437  -8.910  1.00  0.00     0.051 C 
HETATM    2  C2  UNL     1     -16.634   6.858  -9.242  1.00  0.00    -0.020 A 
HETATM    3  C3  UNL     1     -16.474   5.508  -9.060  1.00  0.00     0.090 A 
HETATM    4  C4  UNL     1     -17.537   4.681  -8.572  1.00  0.00     0.103 C 
HETATM    5  N1  UNL     1     -18.399   3.994  -8.179  1.00  0.00    -0.191 NA
HETATM    6  C5  UNL     1     -15.242   4.982  -9.370  1.00  0.00     0.125 A 
HETATM    7 CL1  UNL     1     -14.969   3.243  -9.156  1.00  0.00    -0.063 Cl
HETATM    8  N2  UNL     1     -14.263   5.769  -9.824  1.00  0.00    -0.347 N 
ATOM      9  H2  UNL     1     -13.363   5.342 -10.042  1.00  0.00     0.167 HD
HETATM   10  C6  UNL     1     -14.401   7.105 -10.011  1.00  0.00     0.036 A 
HETATM   11  C14 UNL     1     -15.602   7.680  -9.720  1.00  0.00     0.070 A 
ENDROOT
BRANCH  11  12
HETATM   12  C15 UNL     1     -15.876   9.103  -9.856  1.00  0.00     0.296 C 
HETATM   13  O1  UNL     1     -16.461   9.599 -10.836  1.00  0.00    -0.259 OA
BRANCH  12  14
HETATM   14  O2  UNL     1     -15.468   9.950  -8.847  1.00  0.00    -0.310 OA
BRANCH  14  15
HETATM   15  C16 UNL     1     -16.046  10.110  -7.597  1.00  0.00     0.258 C 
BRANCH  15  16
HETATM   16  C17 UNL     1     -15.129  10.049  -6.442  1.00  0.00     0.158 C 
HETATM   17  O3  UNL     1     -14.049  10.590  -6.436  1.00  0.00    -0.295 OA
BRANCH  16  18
HETATM   18  C18 UNL     1     -15.547   9.295  -5.235  1.00  0.00     0.012 C 
HETATM   19  C19 UNL     1     -16.803   8.503  -5.502  1.00  0.00     0.022 C 
HETATM   20  C20 UNL     1     -14.485   8.318  -4.785  1.00  0.00     0.022 C 
HETATM   21  C21 UNL     1     -15.861  10.314  -4.154  1.00  0.00     0.022 C 
ENDBRANCH  16  18
ENDBRANCH  15  16
ENDBRANCH  14  15
ENDBRANCH  12  14
ENDBRANCH  11  12
BRANCH  10  22
HETATM   22  C7  UNL     1     -13.254   7.898 -10.528  1.00  0.00     0.003 C 
HETATM   23  C8  UNL     1     -12.396   7.098 -11.456  1.00  0.00     0.022 C 
HETATM   24  C9  UNL     1     -13.687   9.220 -11.128  1.00  0.00     0.022 C 
BRANCH  22  25
HETATM   25  C10 UNL     1     -12.352   8.279  -9.342  1.00  0.00    -0.039 C 
HETATM   26  C11 UNL     1     -10.980   7.684  -9.586  1.00  0.00     0.015 C 
HETATM   27  C12 UNL     1     -12.885   7.724  -8.051  1.00  0.00     0.015 C 
HETATM   28  C13 UNL     1     -12.182   9.793  -9.284  1.00  0.00     0.015 C 
ENDBRANCH  22  25
ENDBRANCH  10  22
TORSDOF 7
ENDMDL
MODEL 5
REMARK VINA RESULT: -7.687301555      1.971      2.706
REMARK  7 active torsions:
REMARK  status: ('A' for Active; 'I' for Inactive)
REMARK    1  A    between atoms: C6_10  and  C7_11 
REMARK    2  A    between atoms: C7_11  and  C10_14 
REMARK    3  A    between atoms: C14_18  and  C15_19 
REMARK    4  A    between atoms: C15_19  and  O2_21 
REMARK    5  A    between atoms: O2_21  and  C16_22 
REMARK    6  A    between atoms: C16_22  and  C17_23 
REMARK    7  A    between atoms: C17_23  and  C18_25 
ROOT
HETATM    1  C1  UNL     1     -15.966   4.461  -9.512  1.00  0.00     0.051 C 
HETATM    2  C2  UNL     1     -14.783   5.140 -10.123  1.00  0.00    -0.020 A 
HETATM    3  C3  UNL     1     -14.010   4.400 -10.982  1.00  0.00     0.090 A 
HETATM    4  C4  UNL     1     -14.318   3.033 -11.284  1.00  0.00     0.103 C 
HETATM    5  N1  UNL     1     -14.561   1.919 -11.544  1.00  0.00    -0.191 NA
HETATM    6  C5  UNL     1     -12.925   5.031 -11.541  1.00  0.00     0.125 A 
HETATM    7 CL1  UNL     1     -11.886   4.128 -12.659  1.00  0.00    -0.063 Cl
HETATM    8  N2  UNL     1     -12.655   6.305 -11.247  1.00  0.00    -0.347 N 
ATOM      9  H2  UNL     1     -11.841   6.738 -11.682  1.00  0.00     0.167 HD
HETATM   10  C6  UNL     1     -13.404   7.054 -10.401  1.00  0.00     0.036 A 
HETATM   11  C14 UNL     1     -14.494   6.479  -9.817  1.00  0.00     0.070 A 
ENDROOT
BRANCH  11  12
HETATM   12  C15 UNL     1     -15.369   7.163  -8.877  1.00  0.00     0.296 C 
HETATM   13  O1  UNL     1     -16.375   7.810  -9.222  1.00  0.00    -0.259 OA
BRANCH  12  14
HETATM   14  O2  UNL     1     -15.071   7.095  -7.533  1.00  0.00    -0.310 OA
BRANCH  14  15
HETATM   15  C16 UNL     1     -15.661   7.809  -6.501  1.00  0.00     0.258 C 
BRANCH  15  16
HETATM   16  C17 UNL     1     -14.853   8.894  -5.911  1.00  0.00     0.158 C 
HETATM   17  O3  UNL     1     -13.840   8.687  -5.288  1.00  0.00    -0.295 OA
BRANCH  16  18
HETATM   18  C18 UNL     1     -15.298  10.297  -6.090  1.00  0.00     0.012 C 
HETATM   19  C19 UNL     1     -14.182  11.151  -6.639  1.00  0.00     0.022 C 
HETATM   20  C20 UNL     1     -16.460  10.403  -7.050  1.00  0.00     0.022 C 
HETATM   21  C21 UNL     1     -15.659  10.833  -4.716  1.00  0.00     0.022 C 
ENDBRANCH  16  18
ENDBRANCH  15  16
ENDBRANCH  14  15
ENDBRANCH  12  14
ENDBRANCH  11  12
BRANCH  10  22
HETATM   22  C7  UNL     1     -13.028   8.469 -10.140  1.00  0.00     0.003 C 
HETATM   23  C8  UNL     1     -14.127   9.415 -10.509  1.00  0.00     0.022 C 
HETATM   24  C9  UNL     1     -12.523   8.684  -8.729  1.00  0.00     0.022 C 
BRANCH  22  25
HETATM   25  C10 UNL     1     -11.838   8.831 -11.045  1.00  0.00    -0.039 C 
HETATM   26  C11 UNL     1     -11.404  10.243 -10.706  1.00  0.00     0.015 C 
HETATM   27  C12 UNL     1     -12.225   8.791 -12.496  1.00  0.00     0.015 C 
HETATM   28  C13 UNL     1     -10.658   7.913 -10.743  1.00  0.00     0.015 C 
ENDBRANCH  22  25
ENDBRANCH  10  22
TORSDOF 7
ENDMDL
