MODEL 1
REMARK VINA RESULT: -8.611896269      0.000      0.000
REMARK  4 active torsions:
REMARK  status: ('A' for Active; 'I' for Inactive)
REMARK    1  A    between atoms: C2_2  and  C3_3 
REMARK    2  A    between atoms: C6_9  and  C7_10 
REMARK    3  A    between atoms: C7_10  and  C8_11 
REMARK    4  A    between atoms: C13_16  and  O3_17 
ROOT
HETATM    1  C8  UNL     1     -14.540   6.899  -8.680  1.00  0.00     0.023 A 
HETATM    2  C9  UNL     1     -15.075   5.659  -8.737  1.00  0.00    -0.026 A 
HETATM    3  C10 UNL     1     -16.035   4.992  -7.829  1.00  0.00     0.051 C 
HETATM    4  C11 UNL     1     -14.528   5.020  -9.858  1.00  0.00     0.001 A 
HETATM    5  C12 UNL     1     -14.705   3.774 -10.395  1.00  0.00     0.052 A 
HETATM    6  C13 UNL     1     -14.017   3.418 -11.533  1.00  0.00     0.088 A 
HETATM    7  C14 UNL     1     -13.144   4.304 -12.143  1.00  0.00     0.069 A 
HETATM    8 CL1  UNL     1     -12.283   3.794 -13.603  1.00  0.00    -0.081 Cl
HETATM    9  C15 UNL     1     -12.973   5.541 -11.602  1.00  0.00     0.057 A 
HETATM   10  C16 UNL     1     -13.660   5.905 -10.462  1.00  0.00     0.047 A 
HETATM   11  N1  UNL     1     -13.693   7.036  -9.719  1.00  0.00    -0.353 N 
HETATM   12  C17 UNL     1     -12.931   8.212 -10.005  1.00  0.00     0.156 C 
ENDROOT
BRANCH   1  13
HETATM   13  C7  UNL     1     -14.833   7.960  -7.687  1.00  0.00     0.103 C 
BRANCH  13  14
HETATM   14  C6  UNL     1     -16.223   8.459  -7.734  1.00  0.00    -0.011 C 
HETATM   15  S1  UNL     1     -17.481   7.982  -6.525  1.00  0.00    -0.100 SA
HETATM   16  C5  UNL     1     -18.871   8.355  -7.661  1.00  0.00     0.207 C 
HETATM   17  O2  UNL     1     -18.939   7.459  -8.740  1.00  0.00    -0.304 OA
HETATM   18  C20 UNL     1     -18.212   9.569  -8.347  1.00  0.00     0.069 C 
HETATM   19  C4  UNL     1     -19.003   8.169  -9.964  1.00  0.00     0.265 C 
HETATM   20  C3  UNL     1     -19.134   9.572  -9.528  1.00  0.00     0.097 C 
HETATM   21  O1  UNL     1     -18.952   7.637 -11.087  1.00  0.00    -0.265 OA
HETATM   22  C18 UNL     1     -16.816   9.279  -8.593  1.00  0.00    -0.062 C 
HETATM   23  C19 UNL     1     -15.992   9.850  -9.742  1.00  0.00     0.045 C 
BRANCH  20  24
HETATM   24  C2  UNL     1     -19.016  10.621 -10.524  1.00  0.00     0.011 C 
HETATM   25  C1  UNL     1     -18.923  11.962  -9.776  1.00  0.00     0.006 C 
ENDBRANCH  20  24
ENDBRANCH  13  14
ENDBRANCH   1  13
BRANCH   6  26
HETATM   26  O3  UNL     1     -14.184   2.158 -12.091  1.00  0.00    -0.359 OA
ATOM     27  H3  UNL     1     -13.804   1.392 -11.676  1.00  0.00     0.217 HD
ENDBRANCH   6  26
TORSDOF 4
ENDMDL
MODEL 2
REMARK VINA RESULT: -8.083602888      1.165      1.384
REMARK  4 active torsions:
REMARK  status: ('A' for Active; 'I' for Inactive)
REMARK    1  A    between atoms: C2_2  and  C3_3 
REMARK    2  A    between atoms: C6_9  and  C7_10 
REMARK    3  A    between atoms: C7_10  and  C8_11 
REMARK    4  A    between atoms: C13_16  and  O3_17 
ROOT
HETATM    1  C8  UNL     1     -13.677   7.600  -9.141  1.00  0.00     0.023 A 
HETATM    2  C9  UNL     1     -14.440   6.521  -8.857  1.00  0.00    -0.026 A 
HETATM    3  C10 UNL     1     -15.327   6.256  -7.703  1.00  0.00     0.051 C 
HETATM    4  C11 UNL     1     -14.240   5.588  -9.884  1.00  0.00     0.001 A 
HETATM    5  C12 UNL     1     -14.746   4.338 -10.116  1.00  0.00     0.052 A 
HETATM    6  C13 UNL     1     -14.359   3.642 -11.238  1.00  0.00     0.088 A 
HETATM    7  C14 UNL     1     -13.460   4.189 -12.139  1.00  0.00     0.069 A 
HETATM    8 CL1  UNL     1     -12.994   3.250 -13.566  1.00  0.00    -0.081 Cl
HETATM    9  C15 UNL     1     -12.960   5.432 -11.902  1.00  0.00     0.057 A 
HETATM   10  C16 UNL     1     -13.345   6.136 -10.779  1.00  0.00     0.047 A 
HETATM   11  N1  UNL     1     -13.024   7.359 -10.295  1.00  0.00    -0.353 N 
HETATM   12  C17 UNL     1     -12.117   8.266 -10.927  1.00  0.00     0.156 C 
ENDROOT
BRANCH   1  13
HETATM   13  C7  UNL     1     -13.575   8.859  -8.363  1.00  0.00     0.103 C 
BRANCH  13  14
HETATM   14  C6  UNL     1     -14.880   9.443  -7.995  1.00  0.00    -0.011 C 
HETATM   15  S1  UNL     1     -15.367   9.769  -6.283  1.00  0.00    -0.100 SA
HETATM   16  C5  UNL     1     -17.158   9.723  -6.667  1.00  0.00     0.207 C 
HETATM   17  O2  UNL     1     -17.602   8.435  -7.011  1.00  0.00    -0.304 OA
HETATM   18  C20 UNL     1     -17.051  10.364  -8.066  1.00  0.00     0.069 C 
HETATM   19  C4  UNL     1     -18.313   8.471  -8.236  1.00  0.00     0.265 C 
HETATM   20  C3  UNL     1     -18.407   9.915  -8.522  1.00  0.00     0.097 C 
HETATM   21  O1  UNL     1     -18.718   7.464  -8.842  1.00  0.00    -0.265 OA
HETATM   22  C18 UNL     1     -15.903   9.818  -8.756  1.00  0.00    -0.062 C 
HETATM   23  C19 UNL     1     -15.783   9.659 -10.267  1.00  0.00     0.045 C 
BRANCH  20  24
HETATM   24  C2  UNL     1     -18.897  10.333  -9.823  1.00  0.00     0.011 C 
HETATM   25  C1  UNL     1     -18.848  11.869  -9.865  1.00  0.00     0.006 C 
ENDBRANCH  20  24
ENDBRANCH  13  14
ENDBRANCH   1  13
BRANCH   6  26
HETATM   26  O3  UNL     1     -14.863   2.373 -11.488  1.00  0.00    -0.359 OA
ATOM     27  H3  UNL     1     -15.784   2.250 -11.683  1.00  0.00     0.217 HD
ENDBRANCH   6  26
TORSDOF 4
ENDMDL
MODEL 3
REMARK VINA RESULT: -7.726459445      0.969      1.986
REMARK  4 active torsions:
REMARK  status: ('A' for Active; 'I' for Inactive)
REMARK    1  A    between atoms: C2_2  and  C3_3 
REMARK    2  A    between atoms: C6_9  and  C7_10 
REMARK    3  A    between atoms: C7_10  and  C8_11 
REMARK    4  A    between atoms: C13_16  and  O3_17 
ROOT
HETATM    1  C8  UNL     1     -14.311   7.277  -8.730  1.00  0.00     0.023 A 
HETATM    2  C9  UNL     1     -13.381   7.488  -9.688  1.00  0.00    -0.026 A 
HETATM    3  C10 UNL     1     -12.539   8.675  -9.955  1.00  0.00     0.051 C 
HETATM    4  C11 UNL     1     -13.337   6.336 -10.486  1.00  0.00     0.001 A 
HETATM    5  C12 UNL     1     -12.593   5.994 -11.582  1.00  0.00     0.052 A 
HETATM    6  C13 UNL     1     -12.770   4.761 -12.168  1.00  0.00     0.088 A 
HETATM    7  C14 UNL     1     -13.694   3.859 -11.664  1.00  0.00     0.069 A 
HETATM    8 CL1  UNL     1     -13.882   2.288 -12.457  1.00  0.00    -0.081 Cl
HETATM    9  C15 UNL     1     -14.430   4.207 -10.574  1.00  0.00     0.057 A 
HETATM   10  C16 UNL     1     -14.257   5.441  -9.981  1.00  0.00     0.047 A 
HETATM   11  N1  UNL     1     -14.829   6.048  -8.914  1.00  0.00    -0.353 N 
HETATM   12  C17 UNL     1     -15.845   5.456  -8.099  1.00  0.00     0.156 C 
ENDROOT
BRANCH   1  13
HETATM   13  C7  UNL     1     -14.695   8.197  -7.632  1.00  0.00     0.103 C 
BRANCH  13  14
HETATM   14  C6  UNL     1     -16.110   8.621  -7.673  1.00  0.00    -0.011 C 
HETATM   15  S1  UNL     1     -17.318   8.147  -6.414  1.00  0.00    -0.100 SA
HETATM   16  C5  UNL     1     -18.747   8.389  -7.535  1.00  0.00     0.207 C 
HETATM   17  O2  UNL     1     -18.791   7.434  -8.564  1.00  0.00    -0.304 OA
HETATM   18  C20 UNL     1     -18.165   9.597  -8.298  1.00  0.00     0.069 C 
HETATM   19  C4  UNL     1     -18.915   8.075  -9.823  1.00  0.00     0.265 C 
HETATM   20  C3  UNL     1     -19.110   9.490  -9.457  1.00  0.00     0.097 C 
HETATM   21  O1  UNL     1     -18.859   7.487 -10.917  1.00  0.00    -0.265 OA
HETATM   22  C18 UNL     1     -16.761   9.364  -8.561  1.00  0.00    -0.062 C 
HETATM   23  C19 UNL     1     -15.991   9.914  -9.756  1.00  0.00     0.045 C 
BRANCH  20  24
HETATM   24  C2  UNL     1     -19.066  10.490 -10.508  1.00  0.00     0.011 C 
HETATM   25  C1  UNL     1     -18.976  11.869  -9.834  1.00  0.00     0.006 C 
ENDBRANCH  20  24
ENDBRANCH  13  14
ENDBRANCH   1  13
BRANCH   6  26
HETATM   26  O3  UNL     1     -12.024   4.398 -13.281  1.00  0.00    -0.359 OA
ATOM     27  H3  UNL     1     -12.367   4.534 -14.157  1.00  0.00     0.217 HD
ENDBRANCH   6  26
TORSDOF 4
ENDMDL
MODEL 4
REMARK VINA RESULT: -7.484461269      3.655      6.807
REMARK  4 active torsions:
REMARK  status: ('A' for Active; 'I' for Inactive)
REMARK    1  A    between atoms: C2_2  and  C3_3 
REMARK    2  A    between atoms: C6_9  and  C7_10 
REMARK    3  A    between atoms: C7_10  and  C8_11 
REMARK    4  A    between atoms: C13_16  and  O3_17 
ROOT
HETATM    1  C8  UNL     1     -17.375   8.199  -8.590  1.00  0.00     0.023 A 
HETATM    2  C9  UNL     1     -17.393   9.538  -8.407  1.00  0.00    -0.026 A 
HETATM    3  C10 UNL     1     -16.794  10.363  -7.336  1.00  0.00     0.051 C 
HETATM    4  C11 UNL     1     -18.151  10.091  -9.450  1.00  0.00     0.001 A 
HETATM    5  C12 UNL     1     -18.498  11.376  -9.766  1.00  0.00     0.052 A 
HETATM    6  C13 UNL     1     -19.268  11.620 -10.880  1.00  0.00     0.088 A 
HETATM    7  C14 UNL     1     -19.700  10.580 -11.688  1.00  0.00     0.069 A 
HETATM    8 CL1  UNL     1     -20.689  10.950 -13.109  1.00  0.00    -0.081 Cl
HETATM    9  C15 UNL     1     -19.351   9.304 -11.367  1.00  0.00     0.057 A 
HETATM   10  C16 UNL     1     -18.578   9.053 -10.252  1.00  0.00     0.047 A 
HETATM   11  N1  UNL     1     -18.088   7.919  -9.698  1.00  0.00    -0.353 N 
HETATM   12  C17 UNL     1     -18.301   6.606 -10.225  1.00  0.00     0.156 C 
ENDROOT
BRANCH   1  13
HETATM   13  C7  UNL     1     -16.676   7.188  -7.761  1.00  0.00     0.103 C 
BRANCH  13  14
HETATM   14  C6  UNL     1     -15.224   7.425  -7.623  1.00  0.00    -0.011 C 
HETATM   15  S1  UNL     1     -14.491   8.241  -6.185  1.00  0.00    -0.100 SA
HETATM   16  C5  UNL     1     -12.993   8.760  -7.105  1.00  0.00     0.207 C 
HETATM   17  O2  UNL     1     -13.268   9.741  -8.071  1.00  0.00    -0.304 OA
HETATM   18  C20 UNL     1     -12.896   7.506  -7.998  1.00  0.00     0.069 C 
HETATM   19  C4  UNL     1     -12.742   9.352  -9.329  1.00  0.00     0.265 C 
HETATM   20  C3  UNL     1     -11.980   8.131  -9.006  1.00  0.00     0.097 C 
HETATM   21  O1  UNL     1     -12.937   9.968 -10.391  1.00  0.00    -0.265 OA
HETATM   22  C18 UNL     1     -14.222   7.134  -8.444  1.00  0.00    -0.062 C 
HETATM   23  C19 UNL     1     -14.538   6.432  -9.760  1.00  0.00     0.045 C 
BRANCH  20  24
HETATM   24  C2  UNL     1     -11.466   7.326 -10.099  1.00  0.00     0.011 C 
HETATM   25  C1  UNL     1     -10.061   7.849 -10.439  1.00  0.00     0.006 C 
ENDBRANCH  20  24
ENDBRANCH  13  14
ENDBRANCH   1  13
BRANCH   6  26
HETATM   26  O3  UNL     1     -19.629  12.917 -11.216  1.00  0.00    -0.359 OA
ATOM     27  H3  UNL     1     -19.951  13.118 -12.087  1.00  0.00     0.217 HD
ENDBRANCH   6  26
TORSDOF 4
ENDMDL
MODEL 5
REMARK VINA RESULT: -7.387354708      1.494      2.283
REMARK  4 active torsions:
REMARK  status: ('A' for Active; 'I' for Inactive)
REMARK    1  A    between atoms: C2_2  and  C3_3 
REMARK    2  A    between atoms: C6_9  and  C7_10 
REMARK    3  A    between atoms: C7_10  and  C8_11 
REMARK    4  A    between atoms: C13_16  and  O3_17 
ROOT
HETATM    1  C8  UNL     1     -15.170   6.090  -8.919  1.00  0.00     0.023 A 
HETATM    2  C9  UNL     1     -14.075   6.620  -9.509  1.00  0.00    -0.026 A 
HETATM    3  C10 UNL     1     -13.356   7.882  -9.228  1.00  0.00     0.051 C 
HETATM    4  C11 UNL     1     -13.692   5.747 -10.538  1.00  0.00     0.001 A 
HETATM    5  C12 UNL     1     -12.672   5.775 -11.448  1.00  0.00     0.052 A 
HETATM    6  C13 UNL     1     -12.541   4.751 -12.359  1.00  0.00     0.088 A 
HETATM    7  C14 UNL     1     -13.432   3.689 -12.368  1.00  0.00     0.069 A 
HETATM    8 CL1  UNL     1     -13.220   2.399 -13.561  1.00  0.00    -0.081 Cl
HETATM    9  C15 UNL     1     -14.445   3.669 -11.459  1.00  0.00     0.057 A 
HETATM   10  C16 UNL     1     -14.581   4.692 -10.543  1.00  0.00     0.047 A 
HETATM   11  N1  UNL     1     -15.465   4.935  -9.546  1.00  0.00    -0.353 N 
HETATM   12  C17 UNL     1     -16.559   4.077  -9.211  1.00  0.00     0.156 C 
ENDROOT
BRANCH   1  13
HETATM   13  C7  UNL     1     -15.921   6.636  -7.763  1.00  0.00     0.103 C 
BRANCH  13  14
HETATM   14  C6  UNL     1     -17.185   7.305  -8.131  1.00  0.00    -0.011 C 
HETATM   15  S1  UNL     1     -18.763   6.430  -8.259  1.00  0.00    -0.100 SA
HETATM   16  C5  UNL     1     -19.490   7.678  -9.387  1.00  0.00     0.207 C 
HETATM   17  O2  UNL     1     -18.885   7.675 -10.655  1.00  0.00    -0.304 OA
HETATM   18  C20 UNL     1     -18.805   8.905  -8.752  1.00  0.00     0.069 C 
HETATM   19  C4  UNL     1     -18.482   8.987 -11.009  1.00  0.00     0.265 C 
HETATM   20  C3  UNL     1     -19.043   9.811  -9.922  1.00  0.00     0.097 C 
HETATM   21  O1  UNL     1     -17.815   9.266 -12.020  1.00  0.00    -0.265 OA
HETATM   22  C18 UNL     1     -17.432   8.574  -8.435  1.00  0.00    -0.062 C 
HETATM   23  C19 UNL     1     -16.275   9.566  -8.414  1.00  0.00     0.045 C 
BRANCH  20  24
HETATM   24  C2  UNL     1     -18.650  11.206  -9.836  1.00  0.00     0.011 C 
HETATM   25  C1  UNL     1     -19.030  11.709  -8.434  1.00  0.00     0.006 C 
ENDBRANCH  20  24
ENDBRANCH  13  14
ENDBRANCH   1  13
BRANCH   6  26
HETATM   26  O3  UNL     1     -11.512   4.764 -13.290  1.00  0.00    -0.359 OA
ATOM     27  H3  UNL     1     -10.725   5.272 -13.131  1.00  0.00     0.217 HD
ENDBRANCH   6  26
TORSDOF 4
ENDMDL
