MODEL 1
REMARK VINA RESULT: -5.606455586      0.000      0.000
REMARK  7 active torsions:
REMARK  status: ('A' for Active; 'I' for Inactive)
REMARK    1  A    between atoms: O1_2  and  C2_3 
REMARK    2  A    between atoms: C2_3  and  N1_5 
REMARK    3  A    between atoms: N1_5  and  C3_7 
REMARK    4  A    between atoms: C3_7  and  C5_9 
REMARK    5  A    between atoms: C6_10  and  C7_11 
REMARK    6  A    between atoms: C9_15  and  O2_16 
REMARK    7  A    between atoms: O2_16  and  C10_17 
ROOT
HETATM    1  C7  UNL     1     -13.496   9.367  -8.681  1.00  0.00     0.077 A 
HETATM    2  C8  UNL     1     -12.185   9.358  -9.088  1.00  0.00     0.119 A 
HETATM    3  N2  UNL     1     -11.879   8.601 -10.097  1.00  0.00    -0.339 N 
ATOM      4  H2  UNL     1     -10.917   8.561 -10.434  1.00  0.00     0.167 HD
HETATM    5  C9  UNL     1     -12.818   7.881 -10.689  1.00  0.00     0.193 A 
HETATM    6  S2  UNL     1     -14.210   8.280  -9.785  1.00  0.00    -0.036 SA
ENDROOT
BRANCH   5   7
HETATM    7  O2  UNL     1     -12.642   7.015 -11.790  1.00  0.00    -0.287 OA
BRANCH   7   8
HETATM    8  C10 UNL     1     -13.153   5.714 -11.652  1.00  0.00     0.085 A 
HETATM    9  C11 UNL     1     -13.830   5.305 -10.525  1.00  0.00     0.046 A 
HETATM   10  C12 UNL     1     -14.317   4.005 -10.437  1.00  0.00    -0.037 A 
HETATM   11  C13 UNL     1     -15.052   3.551  -9.222  1.00  0.00     0.050 C 
HETATM   12  C14 UNL     1     -14.100   3.148 -11.507  1.00  0.00     0.046 A 
HETATM   13 CL1  UNL     1     -14.690   1.500 -11.453  1.00  0.00    -0.083 Cl
HETATM   14  C15 UNL     1     -13.424   3.544 -12.639  1.00  0.00    -0.031 A 
HETATM   15  C16 UNL     1     -13.194   2.613 -13.792  1.00  0.00     0.050 C 
HETATM   16  C17 UNL     1     -12.950   4.833 -12.709  1.00  0.00    -0.020 A 
HETATM   17  C18 UNL     1     -12.217   5.291 -13.920  1.00  0.00     0.052 C 
ENDBRANCH   7   8
ENDBRANCH   5   7
BRANCH   1  18
HETATM   18  C6  UNL     1     -14.097  10.119  -7.588  1.00  0.00    -0.056 C 
HETATM   19  C5  UNL     1     -14.611  10.728  -6.683  1.00  0.00    -0.075 C 
BRANCH  19  20
HETATM   20  C3  UNL     1     -15.231  11.484  -5.567  1.00  0.00     0.160 C 
HETATM   21  C4  UNL     1     -16.482  12.176  -6.005  1.00  0.00     0.046 C 
BRANCH  20  22
HETATM   22  N1  UNL     1     -15.410  10.553  -4.493  1.00  0.00    -0.347 N 
ATOM     23  H1  UNL     1     -15.279  10.862  -3.530  1.00  0.00     0.163 HD
BRANCH  22  24
HETATM   24  C2  UNL     1     -15.768   9.208  -4.756  1.00  0.00     0.210 C 
HETATM   25  S1  UNL     1     -14.714   7.988  -4.549  1.00  0.00    -0.033 SA
BRANCH  24  26
HETATM   26  O1  UNL     1     -17.050   8.912  -5.202  1.00  0.00    -0.332 OA
HETATM   27  C1  UNL     1     -17.225   7.970  -6.239  1.00  0.00     0.212 C 
ENDBRANCH  24  26
ENDBRANCH  22  24
ENDBRANCH  20  22
ENDBRANCH  19  20
ENDBRANCH   1  18
TORSDOF 7
ENDMDL
MODEL 2
REMARK VINA RESULT: -5.527173914      6.913      8.719
REMARK  7 active torsions:
REMARK  status: ('A' for Active; 'I' for Inactive)
REMARK    1  A    between atoms: O1_2  and  C2_3 
REMARK    2  A    between atoms: C2_3  and  N1_5 
REMARK    3  A    between atoms: N1_5  and  C3_7 
REMARK    4  A    between atoms: C3_7  and  C5_9 
REMARK    5  A    between atoms: C6_10  and  C7_11 
REMARK    6  A    between atoms: C9_15  and  O2_16 
REMARK    7  A    between atoms: O2_16  and  C10_17 
ROOT
HETATM    1  C7  UNL     1     -19.766  10.854 -12.041  1.00  0.00     0.077 A 
HETATM    2  C8  UNL     1     -19.413  11.873 -11.192  1.00  0.00     0.119 A 
HETATM    3  N2  UNL     1     -18.663  11.570 -10.176  1.00  0.00    -0.339 N 
ATOM      4  H2  UNL     1     -18.377  12.295  -9.518  1.00  0.00     0.167 HD
HETATM    5  C9  UNL     1     -18.271  10.319  -9.997  1.00  0.00     0.193 A 
HETATM    6  S2  UNL     1     -18.991   9.516 -11.320  1.00  0.00    -0.036 SA
ENDROOT
BRANCH   5   7
HETATM    7  O2  UNL     1     -17.459   9.838  -8.947  1.00  0.00    -0.287 OA
BRANCH   7   8
HETATM    8  C10 UNL     1     -16.346   9.067  -9.320  1.00  0.00     0.085 A 
HETATM    9  C11 UNL     1     -15.305   9.587 -10.056  1.00  0.00     0.046 A 
HETATM   10  C12 UNL     1     -14.224   8.783 -10.400  1.00  0.00    -0.037 A 
HETATM   11  C13 UNL     1     -13.090   9.335 -11.197  1.00  0.00     0.050 C 
HETATM   12  C14 UNL     1     -14.230   7.459  -9.983  1.00  0.00     0.046 A 
HETATM   13 CL1  UNL     1     -12.895   6.399 -10.386  1.00  0.00    -0.083 Cl
HETATM   14  C15 UNL     1     -15.264   6.927  -9.247  1.00  0.00    -0.031 A 
HETATM   15  C16 UNL     1     -15.265   5.496  -8.799  1.00  0.00     0.050 C 
HETATM   16  C17 UNL     1     -16.325   7.737  -8.916  1.00  0.00    -0.020 A 
HETATM   17  C18 UNL     1     -17.458   7.190  -8.120  1.00  0.00     0.052 C 
ENDBRANCH   7   8
ENDBRANCH   5   7
BRANCH   1  18
HETATM   18  C6  UNL     1     -20.591  10.922 -13.241  1.00  0.00    -0.056 C 
HETATM   19  C5  UNL     1     -21.257  10.967 -14.244  1.00  0.00    -0.075 C 
BRANCH  19  20
HETATM   20  C3  UNL     1     -22.089  11.028 -15.470  1.00  0.00     0.160 C 
HETATM   21  C4  UNL     1     -23.501  11.409 -15.155  1.00  0.00     0.046 C 
BRANCH  20  22
HETATM   22  N1  UNL     1     -21.420  11.917 -16.374  1.00  0.00    -0.347 N 
ATOM     23  H1  UNL     1     -21.766  12.868 -16.495  1.00  0.00     0.163 HD
BRANCH  22  24
HETATM   24  C2  UNL     1     -20.283  11.485 -17.101  1.00  0.00     0.210 C 
HETATM   25  S1  UNL     1     -19.147  12.530 -17.608  1.00  0.00    -0.033 SA
BRANCH  24  26
HETATM   26  O1  UNL     1     -20.125  10.136 -17.392  1.00  0.00    -0.332 OA
HETATM   27  C1  UNL     1     -18.935   9.477 -17.013  1.00  0.00     0.212 C 
ENDBRANCH  24  26
ENDBRANCH  22  24
ENDBRANCH  20  22
ENDBRANCH  19  20
ENDBRANCH   1  18
TORSDOF 7
ENDMDL
MODEL 3
REMARK VINA RESULT: -5.517256153      7.144      8.876
REMARK  7 active torsions:
REMARK  status: ('A' for Active; 'I' for Inactive)
REMARK    1  A    between atoms: O1_2  and  C2_3 
REMARK    2  A    between atoms: C2_3  and  N1_5 
REMARK    3  A    between atoms: N1_5  and  C3_7 
REMARK    4  A    between atoms: C3_7  and  C5_9 
REMARK    5  A    between atoms: C6_10  and  C7_11 
REMARK    6  A    between atoms: C9_15  and  O2_16 
REMARK    7  A    between atoms: O2_16  and  C10_17 
ROOT
HETATM    1  C7  UNL     1     -19.846  10.863 -12.129  1.00  0.00     0.077 A 
HETATM    2  C8  UNL     1     -19.549  11.864 -11.238  1.00  0.00     0.119 A 
HETATM    3  N2  UNL     1     -18.824  11.550 -10.207  1.00  0.00    -0.339 N 
ATOM      4  H2  UNL     1     -18.579  12.261  -9.518  1.00  0.00     0.167 HD
HETATM    5  C9  UNL     1     -18.404  10.305 -10.053  1.00  0.00     0.193 A 
HETATM    6  S2  UNL     1     -19.058   9.525 -11.423  1.00  0.00    -0.036 SA
ENDROOT
BRANCH   5   7
HETATM    7  O2  UNL     1     -17.613   9.813  -8.992  1.00  0.00    -0.287 OA
BRANCH   7   8
HETATM    8  C10 UNL     1     -16.484   9.058  -9.350  1.00  0.00     0.085 A 
HETATM    9  C11 UNL     1     -15.438   9.594 -10.068  1.00  0.00     0.046 A 
HETATM   10  C12 UNL     1     -14.342   8.805 -10.398  1.00  0.00    -0.037 A 
HETATM   11  C13 UNL     1     -13.203   9.375 -11.174  1.00  0.00     0.050 C 
HETATM   12  C14 UNL     1     -14.338   7.480  -9.986  1.00  0.00     0.046 A 
HETATM   13 CL1  UNL     1     -12.984   6.437 -10.372  1.00  0.00    -0.083 Cl
HETATM   14  C15 UNL     1     -15.377   6.931  -9.269  1.00  0.00    -0.031 A 
HETATM   15  C16 UNL     1     -15.367   5.498  -8.825  1.00  0.00     0.050 C 
HETATM   16  C17 UNL     1     -16.453   7.726  -8.950  1.00  0.00    -0.020 A 
HETATM   17  C18 UNL     1     -17.591   7.162  -8.175  1.00  0.00     0.052 C 
ENDBRANCH   7   8
ENDBRANCH   5   7
BRANCH   1  18
HETATM   18  C6  UNL     1     -20.632  10.947 -13.353  1.00  0.00    -0.056 C 
HETATM   19  C5  UNL     1     -21.268  11.003 -14.375  1.00  0.00    -0.075 C 
BRANCH  19  20
HETATM   20  C3  UNL     1     -22.062  11.079 -15.626  1.00  0.00     0.160 C 
HETATM   21  C4  UNL     1     -23.501  11.373 -15.343  1.00  0.00     0.046 C 
BRANCH  20  22
HETATM   22  N1  UNL     1     -21.412  12.042 -16.465  1.00  0.00    -0.347 N 
ATOM     23  H1  UNL     1     -21.855  12.944 -16.635  1.00  0.00     0.163 HD
BRANCH  22  24
HETATM   24  C2  UNL     1     -20.159  11.752 -17.058  1.00  0.00     0.210 C 
HETATM   25  S1  UNL     1     -19.786  10.259 -17.580  1.00  0.00    -0.033 SA
BRANCH  24  26
HETATM   26  O1  UNL     1     -19.217  12.762 -17.204  1.00  0.00    -0.332 OA
HETATM   27  C1  UNL     1     -19.630  14.043 -17.631  1.00  0.00     0.212 C 
ENDBRANCH  24  26
ENDBRANCH  22  24
ENDBRANCH  20  22
ENDBRANCH  19  20
ENDBRANCH   1  18
TORSDOF 7
ENDMDL
MODEL 4
REMARK VINA RESULT: -5.508068196      6.915      9.052
REMARK  7 active torsions:
REMARK  status: ('A' for Active; 'I' for Inactive)
REMARK    1  A    between atoms: O1_2  and  C2_3 
REMARK    2  A    between atoms: C2_3  and  N1_5 
REMARK    3  A    between atoms: N1_5  and  C3_7 
REMARK    4  A    between atoms: C3_7  and  C5_9 
REMARK    5  A    between atoms: C6_10  and  C7_11 
REMARK    6  A    between atoms: C9_15  and  O2_16 
REMARK    7  A    between atoms: O2_16  and  C10_17 
ROOT
HETATM    1  C7  UNL     1     -19.790  10.918 -11.931  1.00  0.00     0.077 A 
HETATM    2  C8  UNL     1     -19.385  11.958 -11.131  1.00  0.00     0.119 A 
HETATM    3  N2  UNL     1     -18.725  11.659 -10.053  1.00  0.00    -0.339 N 
ATOM      4  H2  UNL     1     -18.405  12.398  -9.428  1.00  0.00     0.167 HD
HETATM    5  C9  UNL     1     -18.468  10.392  -9.769  1.00  0.00     0.193 A 
HETATM    6  S2  UNL     1     -19.190   9.569 -11.077  1.00  0.00    -0.036 SA
ENDROOT
BRANCH   5   7
HETATM    7  O2  UNL     1     -17.766   9.912  -8.641  1.00  0.00    -0.287 OA
BRANCH   7   8
HETATM    8  C10 UNL     1     -16.443   9.495  -8.859  1.00  0.00     0.085 A 
HETATM    9  C11 UNL     1     -15.792   9.705 -10.054  1.00  0.00     0.046 A 
HETATM   10  C12 UNL     1     -14.481   9.273 -10.220  1.00  0.00    -0.037 A 
HETATM   11  C13 UNL     1     -13.766   9.496 -11.510  1.00  0.00     0.050 C 
HETATM   12  C14 UNL     1     -13.861   8.631  -9.157  1.00  0.00     0.046 A 
HETATM   13 CL1  UNL     1     -12.210   8.064  -9.307  1.00  0.00    -0.083 Cl
HETATM   14  C15 UNL     1     -14.500   8.414  -7.958  1.00  0.00    -0.031 A 
HETATM   15  C16 UNL     1     -13.824   7.720  -6.812  1.00  0.00     0.050 C 
HETATM   16  C17 UNL     1     -15.797   8.849  -7.811  1.00  0.00    -0.020 A 
HETATM   17  C18 UNL     1     -16.514   8.629  -6.526  1.00  0.00     0.052 C 
ENDBRANCH   7   8
ENDBRANCH   5   7
BRANCH   1  18
HETATM   18  C6  UNL     1     -20.536  10.979 -13.181  1.00  0.00    -0.056 C 
HETATM   19  C5  UNL     1     -21.136  11.021 -14.225  1.00  0.00    -0.075 C 
BRANCH  19  20
HETATM   20  C3  UNL     1     -21.888  11.075 -15.503  1.00  0.00     0.160 C 
HETATM   21  C4  UNL     1     -23.322  11.436 -15.279  1.00  0.00     0.046 C 
BRANCH  20  22
HETATM   22  N1  UNL     1     -21.174  11.977 -16.358  1.00  0.00    -0.347 N 
ATOM     23  H1  UNL     1     -21.449  12.958 -16.399  1.00  0.00     0.163 HD
BRANCH  22  24
HETATM   24  C2  UNL     1     -20.092  11.518 -17.148  1.00  0.00     0.210 C 
HETATM   25  S1  UNL     1     -19.034  12.547 -17.829  1.00  0.00    -0.033 SA
BRANCH  24  26
HETATM   26  O1  UNL     1     -19.919  10.155 -17.352  1.00  0.00    -0.332 OA
HETATM   27  C1  UNL     1     -18.733   9.529 -16.908  1.00  0.00     0.212 C 
ENDBRANCH  24  26
ENDBRANCH  22  24
ENDBRANCH  20  22
ENDBRANCH  19  20
ENDBRANCH   1  18
TORSDOF 7
ENDMDL
MODEL 5
REMARK VINA RESULT: -5.467454387      6.886      8.600
REMARK  7 active torsions:
REMARK  status: ('A' for Active; 'I' for Inactive)
REMARK    1  A    between atoms: O1_2  and  C2_3 
REMARK    2  A    between atoms: C2_3  and  N1_5 
REMARK    3  A    between atoms: N1_5  and  C3_7 
REMARK    4  A    between atoms: C3_7  and  C5_9 
REMARK    5  A    between atoms: C6_10  and  C7_11 
REMARK    6  A    between atoms: C9_15  and  O2_16 
REMARK    7  A    between atoms: O2_16  and  C10_17 
ROOT
HETATM    1  C7  UNL     1     -19.811  10.833 -11.985  1.00  0.00     0.077 A 
HETATM    2  C8  UNL     1     -19.427  11.846 -11.142  1.00  0.00     0.119 A 
HETATM    3  N2  UNL     1     -18.789  11.512 -10.061  1.00  0.00    -0.339 N 
ATOM      4  H2  UNL     1     -18.486  12.232  -9.404  1.00  0.00     0.167 HD
HETATM    5  C9  UNL     1     -18.535  10.238  -9.813  1.00  0.00     0.193 A 
HETATM    6  S2  UNL     1     -19.226   9.457 -11.164  1.00  0.00    -0.036 SA
ENDROOT
BRANCH   5   7
HETATM    7  O2  UNL     1     -17.857   9.722  -8.687  1.00  0.00    -0.287 OA
BRANCH   7   8
HETATM    8  C10 UNL     1     -17.353   8.416  -8.804  1.00  0.00     0.085 A 
HETATM    9  C11 UNL     1     -18.116   7.305  -8.525  1.00  0.00     0.046 A 
HETATM   10  C12 UNL     1     -17.570   6.033  -8.656  1.00  0.00    -0.037 A 
HETATM   11  C13 UNL     1     -18.388   4.822  -8.356  1.00  0.00     0.050 C 
HETATM   12  C14 UNL     1     -16.251   5.923  -9.071  1.00  0.00     0.046 A 
HETATM   13 CL1  UNL     1     -15.509   4.347  -9.255  1.00  0.00    -0.083 Cl
HETATM   14  C15 UNL     1     -15.476   7.026  -9.353  1.00  0.00    -0.031 A 
HETATM   15  C16 UNL     1     -14.051   6.901  -9.803  1.00  0.00     0.050 C 
HETATM   16  C17 UNL     1     -16.032   8.276  -9.219  1.00  0.00    -0.020 A 
HETATM   17  C18 UNL     1     -15.221   9.487  -9.517  1.00  0.00     0.052 C 
ENDBRANCH   7   8
ENDBRANCH   5   7
BRANCH   1  18
HETATM   18  C6  UNL     1     -20.530  10.933 -13.248  1.00  0.00    -0.056 C 
HETATM   19  C5  UNL     1     -21.111  11.001 -14.302  1.00  0.00    -0.075 C 
BRANCH  19  20
HETATM   20  C3  UNL     1     -21.838  11.093 -15.592  1.00  0.00     0.160 C 
HETATM   21  C4  UNL     1     -23.272  11.463 -15.386  1.00  0.00     0.046 C 
BRANCH  20  22
HETATM   22  N1  UNL     1     -21.099  12.007 -16.413  1.00  0.00    -0.347 N 
ATOM     23  H1  UNL     1     -21.363  12.991 -16.435  1.00  0.00     0.163 HD
BRANCH  22  24
HETATM   24  C2  UNL     1     -20.006  11.554 -17.192  1.00  0.00     0.210 C 
HETATM   25  S1  UNL     1     -18.934  12.589 -17.841  1.00  0.00    -0.033 SA
BRANCH  24  26
HETATM   26  O1  UNL     1     -19.837  10.193 -17.413  1.00  0.00    -0.332 OA
HETATM   27  C1  UNL     1     -18.676   9.550 -16.931  1.00  0.00     0.212 C 
ENDBRANCH  24  26
ENDBRANCH  22  24
ENDBRANCH  20  22
ENDBRANCH  19  20
ENDBRANCH   1  18
TORSDOF 7
ENDMDL
