MODEL 1
REMARK VINA RESULT: -8.708536784      0.000      0.000
REMARK  5 active torsions:
REMARK  status: ('A' for Active; 'I' for Inactive)
REMARK    1  A    between atoms: C16_16  and  O1_17 
REMARK    2  A    between atoms: C16_16  and  C17_19 
REMARK    3  A    between atoms: C17_19  and  C18_20 
REMARK    4  A    between atoms: C18_20  and  C19_21 
REMARK    5  A    between atoms: C19_21  and  C20_22 
ROOT
HETATM    1  C1  UNL     1      12.953  -2.792 -15.750  1.00  0.00     0.014 C 
HETATM    2  C2  UNL     1      13.122  -3.350 -17.186  1.00  0.00     0.007 C 
HETATM    3  C3  UNL     1      12.129  -4.410 -17.356  1.00  0.00    -0.023 C 
HETATM    4  C4  UNL     1      11.768  -4.995 -18.532  1.00  0.00    -0.007 C 
HETATM    5  C5  UNL     1      12.486  -4.457 -19.666  1.00  0.00    -0.021 C 
HETATM    6  C6  UNL     1      12.257  -4.705 -21.087  1.00  0.00     0.024 C 
HETATM    7  C7  UNL     1      10.948  -4.325 -21.590  1.00  0.00    -0.040 C 
HETATM    8  C8  UNL     1      10.027  -5.556 -21.416  1.00  0.00     0.015 C 
HETATM    9  C9  UNL     1      10.234  -3.237 -20.800  1.00  0.00     0.015 C 
HETATM   10  C10 UNL     1      10.845  -3.937 -23.032  1.00  0.00     0.009 C 
HETATM   11  C11 UNL     1      11.994  -4.475 -23.794  1.00  0.00     0.002 C 
HETATM   12  C12 UNL     1      13.317  -4.400 -23.247  1.00  0.00     0.010 C 
HETATM   13  C13 UNL     1      13.489  -4.041 -21.757  1.00  0.00    -0.033 C 
HETATM   14  C14 UNL     1      13.462  -2.559 -21.741  1.00  0.00     0.016 C 
HETATM   15  C15 UNL     1      14.777  -4.607 -21.307  1.00  0.00     0.051 C 
HETATM   16  C16 UNL     1      15.793  -3.975 -20.484  1.00  0.00     0.076 C 
HETATM   17  C21 UNL     1      15.640  -2.793 -19.676  1.00  0.00     0.007 C 
HETATM   18  C22 UNL     1      15.139  -2.620 -18.462  1.00  0.00    -0.027 C 
HETATM   19  C23 UNL     1      14.553  -3.604 -17.517  1.00  0.00     0.035 C 
ENDROOT
BRANCH  16  20
HETATM   20  O1  UNL     1      16.299  -4.989 -19.610  1.00  0.00    -0.386 OA
ATOM     21  H1  UNL     1      15.896  -4.842 -18.762  1.00  0.00     0.211 HD
ENDBRANCH  16  20
BRANCH  16  22
HETATM   22  C17 UNL     1      17.088  -3.730 -21.303  1.00  0.00     0.042 C 
BRANCH  22  23
HETATM   23  C18 UNL     1      18.181  -4.690 -20.950  1.00  0.00     0.004 C 
BRANCH  23  24
HETATM   24  C19 UNL     1      19.409  -3.909 -20.516  1.00  0.00     0.015 C 
BRANCH  24  25
HETATM   25  C20 UNL     1      19.097  -2.459 -20.241  1.00  0.00     0.114 C 
HETATM   26 CL1  UNL     1      19.201  -2.100 -18.504  1.00  0.00    -0.130 Cl
ENDBRANCH  24  25
ENDBRANCH  23  24
ENDBRANCH  22  23
ENDBRANCH  16  22
TORSDOF 5
ENDMDL
MODEL 2
REMARK VINA RESULT: -8.435824019      1.256      1.505
REMARK  5 active torsions:
REMARK  status: ('A' for Active; 'I' for Inactive)
REMARK    1  A    between atoms: C16_16  and  O1_17 
REMARK    2  A    between atoms: C16_16  and  C17_19 
REMARK    3  A    between atoms: C17_19  and  C18_20 
REMARK    4  A    between atoms: C18_20  and  C19_21 
REMARK    5  A    between atoms: C19_21  and  C20_22 
ROOT
HETATM    1  C1  UNL     1      12.272  -5.477 -16.254  1.00  0.00     0.014 C 
HETATM    2  C2  UNL     1      12.547  -5.100 -17.731  1.00  0.00     0.007 C 
HETATM    3  C3  UNL     1      11.430  -5.616 -18.523  1.00  0.00    -0.023 C 
HETATM    4  C4  UNL     1      11.147  -5.300 -19.817  1.00  0.00    -0.007 C 
HETATM    5  C5  UNL     1      12.091  -4.364 -20.384  1.00  0.00    -0.021 C 
HETATM    6  C6  UNL     1      12.024  -3.670 -21.667  1.00  0.00     0.024 C 
HETATM    7  C7  UNL     1      10.876  -2.799 -21.854  1.00  0.00    -0.040 C 
HETATM    8  C8  UNL     1       9.755  -3.667 -22.474  1.00  0.00     0.015 C 
HETATM    9  C9  UNL     1      10.242  -2.268 -20.576  1.00  0.00     0.015 C 
HETATM   10  C10 UNL     1      11.036  -1.624 -22.767  1.00  0.00     0.009 C 
HETATM   11  C11 UNL     1      12.179  -1.836 -23.683  1.00  0.00     0.002 C 
HETATM   12  C12 UNL     1      13.408  -2.380 -23.185  1.00  0.00     0.010 C 
HETATM   13  C13 UNL     1      13.427  -3.016 -21.780  1.00  0.00    -0.033 C 
HETATM   14  C14 UNL     1      13.635  -1.865 -20.869  1.00  0.00     0.016 C 
HETATM   15  C15 UNL     1      14.533  -3.994 -21.748  1.00  0.00     0.051 C 
HETATM   16  C16 UNL     1      15.514  -4.202 -20.697  1.00  0.00     0.076 C 
HETATM   17  C21 UNL     1      15.441  -3.726 -19.341  1.00  0.00     0.007 C 
HETATM   18  C22 UNL     1      14.811  -4.203 -18.277  1.00  0.00    -0.027 C 
HETATM   19  C23 UNL     1      13.951  -5.404 -18.130  1.00  0.00     0.035 C 
ENDROOT
BRANCH  16  20
HETATM   20  O1  UNL     1      15.725  -5.615 -20.610  1.00  0.00    -0.386 OA
ATOM     21  H1  UNL     1      14.901  -5.996 -20.332  1.00  0.00     0.211 HD
ENDBRANCH  16  20
BRANCH  16  22
HETATM   22  C17 UNL     1      16.932  -3.801 -21.183  1.00  0.00     0.042 C 
BRANCH  22  23
HETATM   23  C18 UNL     1      17.975  -4.802 -20.796  1.00  0.00     0.004 C 
BRANCH  23  24
HETATM   24  C19 UNL     1      19.267  -4.074 -20.469  1.00  0.00     0.015 C 
BRANCH  24  25
HETATM   25  C20 UNL     1      19.054  -2.594 -20.265  1.00  0.00     0.114 C 
HETATM   26 CL1  UNL     1      19.122  -2.170 -18.541  1.00  0.00    -0.130 Cl
ENDBRANCH  24  25
ENDBRANCH  23  24
ENDBRANCH  22  23
ENDBRANCH  16  22
TORSDOF 5
ENDMDL
MODEL 3
REMARK VINA RESULT: -8.430282970      2.508      3.012
REMARK  5 active torsions:
REMARK  status: ('A' for Active; 'I' for Inactive)
REMARK    1  A    between atoms: C16_16  and  O1_17 
REMARK    2  A    between atoms: C16_16  and  C17_19 
REMARK    3  A    between atoms: C17_19  and  C18_20 
REMARK    4  A    between atoms: C18_20  and  C19_21 
REMARK    5  A    between atoms: C19_21  and  C20_22 
ROOT
HETATM    1  C1  UNL     1      15.166  -3.935 -16.079  1.00  0.00     0.014 C 
HETATM    2  C2  UNL     1      14.719  -4.218 -17.535  1.00  0.00     0.007 C 
HETATM    3  C3  UNL     1      13.631  -5.194 -17.470  1.00  0.00    -0.023 C 
HETATM    4  C4  UNL     1      12.792  -5.534 -18.487  1.00  0.00    -0.007 C 
HETATM    5  C5  UNL     1      13.077  -4.817 -19.710  1.00  0.00    -0.021 C 
HETATM    6  C6  UNL     1      12.302  -4.786 -20.947  1.00  0.00     0.024 C 
HETATM    7  C7  UNL     1      10.947  -4.274 -20.829  1.00  0.00    -0.040 C 
HETATM    8  C8  UNL     1      10.039  -5.485 -20.507  1.00  0.00     0.015 C 
HETATM    9  C9  UNL     1      10.703  -3.331 -19.658  1.00  0.00     0.015 C 
HETATM   10  C10 UNL     1      10.345  -3.619 -22.032  1.00  0.00     0.009 C 
HETATM   11  C11 UNL     1      11.056  -4.041 -23.259  1.00  0.00     0.002 C 
HETATM   12  C12 UNL     1      12.488  -4.115 -23.270  1.00  0.00     0.010 C 
HETATM   13  C13 UNL     1      13.249  -4.048 -21.930  1.00  0.00    -0.033 C 
HETATM   14  C14 UNL     1      13.384  -2.595 -21.667  1.00  0.00     0.016 C 
HETATM   15  C15 UNL     1      14.545  -4.730 -22.118  1.00  0.00     0.051 C 
HETATM   16  C16 UNL     1      15.857  -4.299 -21.670  1.00  0.00     0.076 C 
HETATM   17  C21 UNL     1      16.145  -3.286 -20.689  1.00  0.00     0.007 C 
HETATM   18  C22 UNL     1      16.164  -3.328 -19.365  1.00  0.00    -0.027 C 
HETATM   19  C23 UNL     1      15.882  -4.452 -18.437  1.00  0.00     0.035 C 
ENDROOT
BRANCH  16  20
HETATM   20  O1  UNL     1      16.549  -5.475 -21.239  1.00  0.00    -0.386 OA
ATOM     21  H1  UNL     1      16.104  -5.781 -20.457  1.00  0.00     0.211 HD
ENDBRANCH  16  20
BRANCH  16  22
HETATM   22  C17 UNL     1      16.762  -3.947 -22.880  1.00  0.00     0.042 C 
BRANCH  22  23
HETATM   23  C18 UNL     1      16.226  -4.481 -24.172  1.00  0.00     0.004 C 
BRANCH  23  24
HETATM   24  C19 UNL     1      16.394  -3.429 -25.254  1.00  0.00     0.015 C 
BRANCH  24  25
HETATM   25  C20 UNL     1      15.713  -3.820 -26.543  1.00  0.00     0.114 C 
HETATM   26 CL1  UNL     1      14.016  -4.263 -26.259  1.00  0.00    -0.130 Cl
ENDBRANCH  24  25
ENDBRANCH  23  24
ENDBRANCH  22  23
ENDBRANCH  16  22
TORSDOF 5
ENDMDL
MODEL 4
REMARK VINA RESULT: -8.374427184      1.534      4.231
REMARK  5 active torsions:
REMARK  status: ('A' for Active; 'I' for Inactive)
REMARK    1  A    between atoms: C16_16  and  O1_17 
REMARK    2  A    between atoms: C16_16  and  C17_19 
REMARK    3  A    between atoms: C17_19  and  C18_20 
REMARK    4  A    between atoms: C18_20  and  C19_21 
REMARK    5  A    between atoms: C19_21  and  C20_22 
ROOT
HETATM    1  C1  UNL     1      14.071  -4.467 -25.946  1.00  0.00     0.014 C 
HETATM    2  C2  UNL     1      13.960  -4.140 -24.436  1.00  0.00     0.007 C 
HETATM    3  C3  UNL     1      12.791  -3.277 -24.267  1.00  0.00    -0.023 C 
HETATM    4  C4  UNL     1      12.189  -2.956 -23.088  1.00  0.00    -0.007 C 
HETATM    5  C5  UNL     1      12.833  -3.569 -21.948  1.00  0.00    -0.021 C 
HETATM    6  C6  UNL     1      12.385  -3.599 -20.559  1.00  0.00     0.024 C 
HETATM    7  C7  UNL     1      11.104  -4.242 -20.323  1.00  0.00    -0.040 C 
HETATM    8  C8  UNL     1      10.022  -3.143 -20.455  1.00  0.00     0.015 C 
HETATM    9  C9  UNL     1      10.688  -5.272 -21.364  1.00  0.00     0.015 C 
HETATM   10  C10 UNL     1      10.880  -4.877 -18.987  1.00  0.00     0.009 C 
HETATM   11  C11 UNL     1      11.817  -4.317 -17.987  1.00  0.00     0.002 C 
HETATM   12  C12 UNL     1      13.193  -4.108 -18.329  1.00  0.00     0.010 C 
HETATM   13  C13 UNL     1      13.613  -4.183 -19.811  1.00  0.00    -0.033 C 
HETATM   14  C14 UNL     1      13.834  -5.630 -20.048  1.00  0.00     0.016 C 
HETATM   15  C15 UNL     1      14.837  -3.372 -19.970  1.00  0.00     0.051 C 
HETATM   16  C16 UNL     1      16.041  -3.704 -20.710  1.00  0.00     0.076 C 
HETATM   17  C21 UNL     1      16.191  -4.742 -21.696  1.00  0.00     0.007 C 
HETATM   18  C22 UNL     1      15.887  -4.778 -22.985  1.00  0.00    -0.027 C 
HETATM   19  C23 UNL     1      15.274  -3.743 -23.855  1.00  0.00     0.035 C 
ENDROOT
BRANCH  16  20
HETATM   20  O1  UNL     1      16.481  -2.495 -21.339  1.00  0.00    -0.386 OA
ATOM     21  H1  UNL     1      15.830  -1.833 -21.138  1.00  0.00     0.211 HD
ENDBRANCH  16  20
BRANCH  16  22
HETATM   22  C17 UNL     1      17.242  -3.896 -19.747  1.00  0.00     0.042 C 
BRANCH  22  23
HETATM   23  C18 UNL     1      18.555  -3.926 -20.465  1.00  0.00     0.004 C 
BRANCH  23  24
HETATM   24  C19 UNL     1      19.464  -2.855 -19.887  1.00  0.00     0.015 C 
BRANCH  24  25
HETATM   25  C20 UNL     1      18.792  -2.065 -18.791  1.00  0.00     0.114 C 
HETATM   26 CL1  UNL     1      18.345  -0.441 -19.357  1.00  0.00    -0.130 Cl
ENDBRANCH  24  25
ENDBRANCH  23  24
ENDBRANCH  22  23
ENDBRANCH  16  22
TORSDOF 5
ENDMDL
MODEL 5
REMARK VINA RESULT: -8.355116651      2.595      3.340
REMARK  5 active torsions:
REMARK  status: ('A' for Active; 'I' for Inactive)
REMARK    1  A    between atoms: C16_16  and  O1_17 
REMARK    2  A    between atoms: C16_16  and  C17_19 
REMARK    3  A    between atoms: C17_19  and  C18_20 
REMARK    4  A    between atoms: C18_20  and  C19_21 
REMARK    5  A    between atoms: C19_21  and  C20_22 
ROOT
HETATM    1  C1  UNL     1      15.594  -3.970 -15.637  1.00  0.00     0.014 C 
HETATM    2  C2  UNL     1      15.013  -3.868 -17.069  1.00  0.00     0.007 C 
HETATM    3  C3  UNL     1      13.584  -4.173 -16.977  1.00  0.00    -0.023 C 
HETATM    4  C4  UNL     1      12.652  -3.961 -17.947  1.00  0.00    -0.007 C 
HETATM    5  C5  UNL     1      13.214  -3.382 -19.146  1.00  0.00    -0.021 C 
HETATM    6  C6  UNL     1      12.515  -2.863 -20.318  1.00  0.00     0.024 C 
HETATM    7  C7  UNL     1      11.607  -1.756 -20.072  1.00  0.00    -0.040 C 
HETATM    8  C8  UNL     1      10.225  -2.374 -19.751  1.00  0.00     0.015 C 
HETATM    9  C9  UNL     1      11.914  -0.920 -18.837  1.00  0.00     0.015 C 
HETATM   10  C10 UNL     1      11.373  -0.788 -21.190  1.00  0.00     0.009 C 
HETATM   11  C11 UNL     1      11.729  -1.404 -22.488  1.00  0.00     0.002 C 
HETATM   12  C12 UNL     1      12.928  -2.181 -22.609  1.00  0.00     0.010 C 
HETATM   13  C13 UNL     1      13.667  -2.617 -21.328  1.00  0.00    -0.033 C 
HETATM   14  C14 UNL     1      14.525  -1.454 -20.996  1.00  0.00     0.016 C 
HETATM   15  C15 UNL     1      14.436  -3.836 -21.649  1.00  0.00     0.051 C 
HETATM   16  C16 UNL     1      15.802  -4.157 -21.276  1.00  0.00     0.076 C 
HETATM   17  C21 UNL     1      16.597  -3.510 -20.265  1.00  0.00     0.007 C 
HETATM   18  C22 UNL     1      16.641  -3.667 -18.950  1.00  0.00    -0.027 C 
HETATM   19  C23 UNL     1      15.866  -4.575 -18.067  1.00  0.00     0.035 C 
ENDROOT
BRANCH  16  20
HETATM   20  O1  UNL     1      15.823  -5.553 -20.963  1.00  0.00    -0.386 OA
ATOM     21  H1  UNL     1      16.466  -5.951 -21.538  1.00  0.00     0.211 HD
ENDBRANCH  16  20
BRANCH  16  22
HETATM   22  C17 UNL     1      16.716  -4.203 -22.529  1.00  0.00     0.042 C 
BRANCH  22  23
HETATM   23  C18 UNL     1      15.999  -4.701 -23.745  1.00  0.00     0.004 C 
BRANCH  23  24
HETATM   24  C19 UNL     1      16.165  -3.694 -24.870  1.00  0.00     0.015 C 
BRANCH  24  25
HETATM   25  C20 UNL     1      14.881  -3.471 -25.631  1.00  0.00     0.114 C 
HETATM   26 CL1  UNL     1      13.668  -4.700 -25.213  1.00  0.00    -0.130 Cl
ENDBRANCH  24  25
ENDBRANCH  23  24
ENDBRANCH  22  23
ENDBRANCH  16  22
TORSDOF 5
ENDMDL
