MODEL 1
REMARK VINA RESULT: -8.738955392      0.000      0.000
REMARK  6 active torsions:
REMARK  status: ('A' for Active; 'I' for Inactive)
REMARK       I    between atoms: C1_2  and  N1_3 
REMARK    1  A    between atoms: C1_2  and  S1_11 
REMARK    2  A    between atoms: N1_3  and  C2_5 
REMARK    3  A    between atoms: S1_11  and  C8_12 
REMARK    4  A    between atoms: C8_12  and  C17_21 
REMARK    5  A    between atoms: C9_13  and  C10_14 
REMARK    6  A    between atoms: C10_14  and  C11_15 
ROOT
HETATM    1  C8  UNL     1      12.471  -3.671 -23.098  1.00  0.00     0.016 C 
HETATM    2  C9  UNL     1      11.644  -4.677 -22.756  1.00  0.00    -0.007 C 
ENDROOT
BRANCH   1   3
HETATM    3  S1  UNL     1      12.136  -2.042 -22.509  1.00  0.00    -0.029 SA
BRANCH   3   4
HETATM    4  C1  UNL     1      13.343  -1.438 -21.368  1.00  0.00     0.285 C 
HETATM    5  O1  UNL     1      13.499  -0.192 -21.219  1.00  0.00    -0.260 OA
HETATM    6  N1  UNL     1      14.149  -2.341 -20.595  1.00  0.00    -0.347 N 
ATOM      7  H1  UNL     1      14.024  -3.347 -20.714  1.00  0.00     0.163 HD
BRANCH   6   8
HETATM    8  C2  UNL     1      15.119  -1.866 -19.669  1.00  0.00     0.085 C 
HETATM    9  C3  UNL     1      15.212  -2.672 -18.411  1.00  0.00     0.025 C 
HETATM   10  C4  UNL     1      16.129  -3.845 -18.477  1.00  0.00     0.002 C 
HETATM   11  C5  UNL     1      16.569  -4.255 -19.837  1.00  0.00     0.000 C 
HETATM   12  C6  UNL     1      16.981  -3.133 -20.732  1.00  0.00     0.002 C 
HETATM   13  C7  UNL     1      16.503  -1.788 -20.276  1.00  0.00     0.025 C 
ENDBRANCH   6   8
ENDBRANCH   3   4
ENDBRANCH   1   3
BRANCH   1  14
HETATM   14  C17 UNL     1      13.551  -3.918 -24.036  1.00  0.00    -0.019 A 
HETATM   15  C18 UNL     1      14.868  -3.939 -23.682  1.00  0.00     0.016 A 
HETATM   16  C19 UNL     1      15.835  -4.097 -24.635  1.00  0.00     0.043 A 
HETATM   17  C20 UNL     1      15.556  -4.242 -25.987  1.00  0.00     0.116 A 
HETATM   18  F1  UNL     1      16.549  -4.397 -26.904  1.00  0.00    -0.206 F 
HETATM   19  C21 UNL     1      14.240  -4.221 -26.337  1.00  0.00     0.043 A 
HETATM   20  C22 UNL     1      13.252  -4.062 -25.390  1.00  0.00     0.016 A 
ENDBRANCH   1  14
BRANCH   2  21
HETATM   21  C10 UNL     1      10.469  -4.471 -21.906  1.00  0.00     0.033 C 
BRANCH  21  22
HETATM   22  C11 UNL     1      10.538  -5.198 -20.590  1.00  0.00    -0.011 C 
HETATM   23  C12 UNL     1      10.293  -4.182 -19.490  1.00  0.00     0.005 C 
HETATM   24  C13 UNL     1      11.606  -3.729 -18.872  1.00  0.00     0.000 C 
HETATM   25  C14 UNL     1      12.138  -4.877 -18.050  1.00  0.00     0.000 C 
HETATM   26  C15 UNL     1      11.996  -6.145 -18.865  1.00  0.00     0.000 C 
HETATM   27  C16 UNL     1      11.871  -5.841 -20.344  1.00  0.00     0.005 C 
ENDBRANCH  21  22
ENDBRANCH   2  21
TORSDOF 6
ENDMDL
MODEL 2
REMARK VINA RESULT: -8.411677679      2.174      3.204
REMARK  6 active torsions:
REMARK  status: ('A' for Active; 'I' for Inactive)
REMARK       I    between atoms: C1_2  and  N1_3 
REMARK    1  A    between atoms: C1_2  and  S1_11 
REMARK    2  A    between atoms: N1_3  and  C2_5 
REMARK    3  A    between atoms: S1_11  and  C8_12 
REMARK    4  A    between atoms: C8_12  and  C17_21 
REMARK    5  A    between atoms: C9_13  and  C10_14 
REMARK    6  A    between atoms: C10_14  and  C11_15 
ROOT
HETATM    1  C8  UNL     1      12.538  -3.636 -22.441  1.00  0.00     0.016 C 
HETATM    2  C9  UNL     1      11.952  -2.433 -22.303  1.00  0.00    -0.007 C 
ENDROOT
BRANCH   1   3
HETATM    3  S1  UNL     1      12.354  -4.837 -21.161  1.00  0.00    -0.029 SA
BRANCH   3   4
HETATM    4  C1  UNL     1      13.823  -5.098 -20.216  1.00  0.00     0.285 C 
HETATM    5  O1  UNL     1      13.921  -6.117 -19.474  1.00  0.00    -0.260 OA
HETATM    6  N1  UNL     1      14.920  -4.173 -20.281  1.00  0.00    -0.347 N 
ATOM      7  H1  UNL     1      14.844  -3.350 -20.879  1.00  0.00     0.163 HD
BRANCH   6   8
HETATM    8  C2  UNL     1      16.111  -4.377 -19.529  1.00  0.00     0.085 C 
HETATM    9  C3  UNL     1      17.257  -4.914 -20.328  1.00  0.00     0.025 C 
HETATM   10  C4  UNL     1      18.091  -3.883 -21.010  1.00  0.00     0.002 C 
HETATM   11  C5  UNL     1      17.509  -2.516 -21.085  1.00  0.00     0.000 C 
HETATM   12  C6  UNL     1      16.882  -2.027 -19.822  1.00  0.00     0.002 C 
HETATM   13  C7  UNL     1      16.576  -3.114 -18.836  1.00  0.00     0.025 C 
ENDBRANCH   6   8
ENDBRANCH   3   4
ENDBRANCH   1   3
BRANCH   1  14
HETATM   14  C17 UNL     1      13.405  -3.886 -23.579  1.00  0.00    -0.019 A 
HETATM   15  C18 UNL     1      14.767  -3.863 -23.510  1.00  0.00     0.016 A 
HETATM   16  C19 UNL     1      15.517  -4.027 -24.641  1.00  0.00     0.043 A 
HETATM   17  C20 UNL     1      14.965  -4.222 -25.900  1.00  0.00     0.116 A 
HETATM   18  F1  UNL     1      15.748  -4.381 -27.001  1.00  0.00    -0.206 F 
HETATM   19  C21 UNL     1      13.605  -4.243 -25.965  1.00  0.00     0.043 A 
HETATM   20  C22 UNL     1      12.833  -4.080 -24.836  1.00  0.00     0.016 A 
ENDBRANCH   1  14
BRANCH   2  21
HETATM   21  C10 UNL     1      11.159  -2.077 -21.124  1.00  0.00     0.033 C 
BRANCH  21  22
HETATM   22  C11 UNL     1      11.636  -0.831 -20.426  1.00  0.00    -0.011 C 
HETATM   23  C12 UNL     1      13.069  -1.070 -19.986  1.00  0.00     0.005 C 
HETATM   24  C13 UNL     1      13.124  -1.453 -18.516  1.00  0.00     0.000 C 
HETATM   25  C14 UNL     1      12.810  -0.214 -17.715  1.00  0.00     0.000 C 
HETATM   26  C15 UNL     1      11.618   0.470 -18.351  1.00  0.00     0.000 C 
HETATM   27  C16 UNL     1      10.824  -0.492 -19.212  1.00  0.00     0.005 C 
ENDBRANCH  21  22
ENDBRANCH   2  21
TORSDOF 6
ENDMDL
MODEL 3
REMARK VINA RESULT: -8.349589146      2.530      5.294
REMARK  6 active torsions:
REMARK  status: ('A' for Active; 'I' for Inactive)
REMARK       I    between atoms: C1_2  and  N1_3 
REMARK    1  A    between atoms: C1_2  and  S1_11 
REMARK    2  A    between atoms: N1_3  and  C2_5 
REMARK    3  A    between atoms: S1_11  and  C8_12 
REMARK    4  A    between atoms: C8_12  and  C17_21 
REMARK    5  A    between atoms: C9_13  and  C10_14 
REMARK    6  A    between atoms: C10_14  and  C11_15 
ROOT
HETATM    1  C8  UNL     1      15.592  -4.369 -22.237  1.00  0.00     0.016 C 
HETATM    2  C9  UNL     1      16.905  -4.212 -22.488  1.00  0.00    -0.007 C 
ENDROOT
BRANCH   1   3
HETATM    3  S1  UNL     1      15.070  -4.792 -20.605  1.00  0.00    -0.029 SA
BRANCH   3   4
HETATM    4  C1  UNL     1      14.362  -3.441 -19.715  1.00  0.00     0.285 C 
HETATM    5  O1  UNL     1      14.397  -3.434 -18.451  1.00  0.00    -0.260 OA
HETATM    6  N1  UNL     1      13.751  -2.338 -20.403  1.00  0.00    -0.347 N 
ATOM      7  H1  UNL     1      13.722  -2.341 -21.423  1.00  0.00     0.163 HD
BRANCH   6   8
HETATM    8  C2  UNL     1      13.184  -1.242 -19.696  1.00  0.00     0.085 C 
HETATM    9  C3  UNL     1      13.421   0.090 -20.336  1.00  0.00     0.025 C 
HETATM   10  C4  UNL     1      12.419   0.484 -21.368  1.00  0.00     0.002 C 
HETATM   11  C5  UNL     1      11.526  -0.599 -21.858  1.00  0.00     0.000 C 
HETATM   12  C6  UNL     1      10.962  -1.482 -20.795  1.00  0.00     0.002 C 
HETATM   13  C7  UNL     1      11.693  -1.401 -19.489  1.00  0.00     0.025 C 
ENDBRANCH   6   8
ENDBRANCH   3   4
ENDBRANCH   1   3
BRANCH   1  14
HETATM   14  C17 UNL     1      14.640  -4.305 -23.331  1.00  0.00    -0.019 A 
HETATM   15  C18 UNL     1      13.287  -4.315 -23.157  1.00  0.00     0.016 A 
HETATM   16  C19 UNL     1      12.454  -4.333 -24.240  1.00  0.00     0.043 A 
HETATM   17  C20 UNL     1      12.908  -4.344 -25.552  1.00  0.00     0.116 A 
HETATM   18  F1  UNL     1      12.043  -4.362 -26.602  1.00  0.00    -0.206 F 
HETATM   19  C21 UNL     1      14.259  -4.334 -25.722  1.00  0.00     0.043 A 
HETATM   20  C22 UNL     1      15.114  -4.315 -24.643  1.00  0.00     0.016 A 
ENDBRANCH   1  14
BRANCH   2  21
HETATM   21  C10 UNL     1      17.927  -4.379 -21.451  1.00  0.00     0.033 C 
BRANCH  21  22
HETATM   22  C11 UNL     1      18.672  -3.112 -21.126  1.00  0.00    -0.011 C 
HETATM   23  C12 UNL     1      18.978  -3.127 -19.640  1.00  0.00     0.005 C 
HETATM   24  C13 UNL     1      17.975  -2.279 -18.874  1.00  0.00     0.000 C 
HETATM   25  C14 UNL     1      18.275  -0.834 -19.186  1.00  0.00     0.000 C 
HETATM   26  C15 UNL     1      18.500  -0.710 -20.678  1.00  0.00     0.000 C 
HETATM   27  C16 UNL     1      17.883  -1.873 -21.429  1.00  0.00     0.005 C 
ENDBRANCH  21  22
ENDBRANCH   2  21
TORSDOF 6
ENDMDL
MODEL 4
REMARK VINA RESULT: -8.300450778      3.415      5.672
REMARK  6 active torsions:
REMARK  status: ('A' for Active; 'I' for Inactive)
REMARK       I    between atoms: C1_2  and  N1_3 
REMARK    1  A    between atoms: C1_2  and  S1_11 
REMARK    2  A    between atoms: N1_3  and  C2_5 
REMARK    3  A    between atoms: S1_11  and  C8_12 
REMARK    4  A    between atoms: C8_12  and  C17_21 
REMARK    5  A    between atoms: C9_13  and  C10_14 
REMARK    6  A    between atoms: C10_14  and  C11_15 
ROOT
HETATM    1  C8  UNL     1      12.094  -2.415 -19.084  1.00  0.00     0.016 C 
HETATM    2  C9  UNL     1      10.875  -2.937 -19.317  1.00  0.00    -0.007 C 
ENDROOT
BRANCH   1   3
HETATM    3  S1  UNL     1      13.507  -3.471 -19.127  1.00  0.00    -0.029 SA
BRANCH   3   4
HETATM    4  C1  UNL     1      14.699  -3.012 -20.347  1.00  0.00     0.285 C 
HETATM    5  O1  UNL     1      14.368  -2.237 -21.289  1.00  0.00    -0.260 OA
HETATM    6  N1  UNL     1      16.049  -3.499 -20.284  1.00  0.00    -0.347 N 
ATOM      7  H1  UNL     1      16.319  -4.124 -19.523  1.00  0.00     0.163 HD
BRANCH   6   8
HETATM    8  C2  UNL     1      17.019  -3.130 -21.257  1.00  0.00     0.085 C 
HETATM    9  C3  UNL     1      18.416  -3.040 -20.728  1.00  0.00     0.025 C 
HETATM   10  C4  UNL     1      19.178  -4.322 -20.731  1.00  0.00     0.002 C 
HETATM   11  C5  UNL     1      18.378  -5.557 -20.941  1.00  0.00     0.000 C 
HETATM   12  C6  UNL     1      17.360  -5.473 -22.030  1.00  0.00     0.002 C 
HETATM   13  C7  UNL     1      17.029  -4.071 -22.443  1.00  0.00     0.025 C 
ENDBRANCH   6   8
ENDBRANCH   3   4
ENDBRANCH   1   3
BRANCH   1  14
HETATM   14  C17 UNL     1      12.214  -1.023 -18.689  1.00  0.00    -0.019 A 
HETATM   15  C18 UNL     1      12.267   0.012 -19.575  1.00  0.00     0.016 A 
HETATM   16  C19 UNL     1      12.463   1.289 -19.130  1.00  0.00     0.043 A 
HETATM   17  C20 UNL     1      12.618   1.615 -17.790  1.00  0.00     0.116 A 
HETATM   18  F1  UNL     1      12.812   2.901 -17.390  1.00  0.00    -0.206 F 
HETATM   19  C21 UNL     1      12.565   0.579 -16.908  1.00  0.00     0.043 A 
HETATM   20  C22 UNL     1      12.369  -0.715 -17.337  1.00  0.00     0.016 A 
ENDBRANCH   1  14
BRANCH   2  21
HETATM   21  C10 UNL     1      10.674  -4.358 -19.608  1.00  0.00     0.033 C 
BRANCH  21  22
HETATM   22  C11 UNL     1      10.213  -4.630 -21.015  1.00  0.00    -0.011 C 
HETATM   23  C12 UNL     1      11.261  -5.503 -21.682  1.00  0.00     0.005 C 
HETATM   24  C13 UNL     1      12.184  -4.666 -22.553  1.00  0.00     0.000 C 
HETATM   25  C14 UNL     1      11.395  -4.239 -23.766  1.00  0.00     0.000 C 
HETATM   26  C15 UNL     1      10.035  -3.762 -23.299  1.00  0.00     0.000 C 
HETATM   27  C16 UNL     1      10.056  -3.382 -21.832  1.00  0.00     0.005 C 
ENDBRANCH  21  22
ENDBRANCH   2  21
TORSDOF 6
ENDMDL
MODEL 5
REMARK VINA RESULT: -8.279634787      3.030      5.503
REMARK  6 active torsions:
REMARK  status: ('A' for Active; 'I' for Inactive)
REMARK       I    between atoms: C1_2  and  N1_3 
REMARK    1  A    between atoms: C1_2  and  S1_11 
REMARK    2  A    between atoms: N1_3  and  C2_5 
REMARK    3  A    between atoms: S1_11  and  C8_12 
REMARK    4  A    between atoms: C8_12  and  C17_21 
REMARK    5  A    between atoms: C9_13  and  C10_14 
REMARK    6  A    between atoms: C10_14  and  C11_15 
ROOT
HETATM    1  C8  UNL     1      12.717  -3.217 -22.012  1.00  0.00     0.016 C 
HETATM    2  C9  UNL     1      12.744  -3.327 -23.353  1.00  0.00    -0.007 C 
ENDROOT
BRANCH   1   3
HETATM    3  S1  UNL     1      12.626  -4.678 -21.028  1.00  0.00    -0.029 SA
BRANCH   3   4
HETATM    4  C1  UNL     1      14.110  -5.023 -20.132  1.00  0.00     0.285 C 
HETATM    5  O1  UNL     1      14.099  -5.884 -19.206  1.00  0.00    -0.260 OA
HETATM    6  N1  UNL     1      15.337  -4.346 -20.443  1.00  0.00    -0.347 N 
ATOM      7  H1  UNL     1      15.348  -3.651 -21.190  1.00  0.00     0.163 HD
BRANCH   6   8
HETATM    8  C2  UNL     1      16.539  -4.621 -19.733  1.00  0.00     0.085 C 
HETATM    9  C3  UNL     1      17.704  -4.966 -20.607  1.00  0.00     0.025 C 
HETATM   10  C4  UNL     1      18.489  -3.799 -21.104  1.00  0.00     0.002 C 
HETATM   11  C5  UNL     1      17.848  -2.467 -20.950  1.00  0.00     0.000 C 
HETATM   12  C6  UNL     1      17.206  -2.224 -19.624  1.00  0.00     0.002 C 
HETATM   13  C7  UNL     1      16.952  -3.473 -18.836  1.00  0.00     0.025 C 
ENDBRANCH   6   8
ENDBRANCH   3   4
ENDBRANCH   1   3
BRANCH   1  14
HETATM   14  C17 UNL     1      12.644  -1.901 -21.402  1.00  0.00    -0.019 A 
HETATM   15  C18 UNL     1      12.280  -0.774 -22.080  1.00  0.00     0.016 A 
HETATM   16  C19 UNL     1      12.314   0.443 -21.458  1.00  0.00     0.043 A 
HETATM   17  C20 UNL     1      12.707   0.615 -20.138  1.00  0.00     0.116 A 
HETATM   18  F1  UNL     1      12.726   1.845 -19.558  1.00  0.00    -0.206 F 
HETATM   19  C21 UNL     1      13.070  -0.512 -19.466  1.00  0.00     0.043 A 
HETATM   20  C22 UNL     1      13.043  -1.747 -20.075  1.00  0.00     0.016 A 
ENDBRANCH   1  14
BRANCH   2  21
HETATM   21  C10 UNL     1      12.703  -4.624 -24.034  1.00  0.00     0.033 C 
BRANCH  21  22
HETATM   22  C11 UNL     1      13.888  -4.878 -24.926  1.00  0.00    -0.011 C 
HETATM   23  C12 UNL     1      15.120  -4.952 -24.043  1.00  0.00     0.005 C 
HETATM   24  C13 UNL     1      15.876  -3.633 -24.061  1.00  0.00     0.000 C 
HETATM   25  C14 UNL     1      16.533  -3.507 -25.413  1.00  0.00     0.000 C 
HETATM   26  C15 UNL     1      15.519  -3.898 -26.468  1.00  0.00     0.000 C 
HETATM   27  C16 UNL     1      14.103  -3.794 -25.940  1.00  0.00     0.005 C 
ENDBRANCH  21  22
ENDBRANCH   2  21
TORSDOF 6
ENDMDL
