MODEL 1
REMARK VINA RESULT: -9.856745109      0.000      0.000
REMARK  4 active torsions:
REMARK  status: ('A' for Active; 'I' for Inactive)
REMARK    1  A    between atoms: C4_6  and  N2_7 
REMARK    2  A    between atoms: N2_7  and  C5_9 
REMARK    3  A    between atoms: N3_22  and  C16_23 
REMARK    4  A    between atoms: C16_23  and  C17_24 
ROOT
HETATM    1  C1  UNL     1       7.063 -10.222 -20.477  1.00  0.00     0.052 C 
HETATM    2  C2  UNL     1       5.899 -10.660 -19.724  1.00  0.00    -0.019 A 
HETATM    3  C3  UNL     1       5.817 -12.011 -19.364  1.00  0.00     0.099 A 
HETATM    4  N1  UNL     1       4.805 -12.457 -18.611  1.00  0.00    -0.351 N 
ATOM      5  H1  UNL     1       4.767 -13.446 -18.362  1.00  0.00     0.166 HD
HETATM    6  C4  UNL     1       3.840 -11.632 -18.174  1.00  0.00     0.119 A 
HETATM    7  C9  UNL     1       3.912 -10.301 -18.523  1.00  0.00     0.048 A 
HETATM    8  C10 UNL     1       3.101  -9.253 -18.205  1.00  0.00     0.007 A 
HETATM    9  C11 UNL     1       1.944  -9.180 -17.449  1.00  0.00     0.018 A 
HETATM   10  C12 UNL     1       1.293  -7.972 -17.263  1.00  0.00     0.043 A 
HETATM   11  C13 UNL     1       1.825  -6.843 -17.848  1.00  0.00     0.118 A 
HETATM   12  F1  UNL     1       1.226  -5.624 -17.698  1.00  0.00    -0.206 F 
HETATM   13  C14 UNL     1       2.986  -6.950 -18.598  1.00  0.00     0.072 A 
HETATM   14  C15 UNL     1       3.652  -8.148 -18.797  1.00  0.00     0.049 A 
HETATM   15  N3  UNL     1       4.789  -8.472 -19.486  1.00  0.00    -0.341 N 
HETATM   16  C23 UNL     1       4.940  -9.780 -19.308  1.00  0.00     0.057 A 
ENDROOT
BRANCH  15  17
HETATM   17  C16 UNL     1       5.569  -7.500 -20.186  1.00  0.00     0.168 C 
BRANCH  17  18
HETATM   18  C17 UNL     1       5.119  -7.291 -21.618  1.00  0.00    -0.040 A 
HETATM   19  C18 UNL     1       5.895  -7.562 -22.709  1.00  0.00     0.012 A 
HETATM   20  C19 UNL     1       5.427  -7.323 -23.969  1.00  0.00     0.043 A 
HETATM   21  C20 UNL     1       4.173  -6.808 -24.209  1.00  0.00     0.116 A 
HETATM   22  F2  UNL     1       3.706  -6.570 -25.459  1.00  0.00    -0.206 F 
HETATM   23  C21 UNL     1       3.372  -6.527 -23.126  1.00  0.00     0.043 A 
HETATM   24  C22 UNL     1       3.849  -6.769 -21.867  1.00  0.00     0.012 A 
ENDBRANCH  17  18
ENDBRANCH  15  17
BRANCH   6  25
HETATM   25  N2  UNL     1       2.910 -12.127 -17.460  1.00  0.00    -0.341 N 
ATOM     26  H2  UNL     1       2.012 -12.353 -17.889  1.00  0.00     0.167 HD
BRANCH  25  27
HETATM   27  C5  UNL     1       3.110 -12.377 -16.038  1.00  0.00     0.040 A 
HETATM   28  C6  UNL     1       2.678 -13.477 -15.405  1.00  0.00     0.037 A 
HETATM   29  C7  UNL     1       2.937 -13.580 -14.063  1.00  0.00     0.052 A 
HETATM   30  S1  UNL     1       3.775 -12.136 -13.729  1.00  0.00    -0.111 SA
HETATM   31  C8  UNL     1       3.776 -11.444 -15.287  1.00  0.00     0.079 A 
ENDBRANCH  25  27
ENDBRANCH   6  25
TORSDOF 4
ENDMDL
MODEL 2
REMARK VINA RESULT: -9.755050831      0.521      1.017
REMARK  4 active torsions:
REMARK  status: ('A' for Active; 'I' for Inactive)
REMARK    1  A    between atoms: C4_6  and  N2_7 
REMARK    2  A    between atoms: N2_7  and  C5_9 
REMARK    3  A    between atoms: N3_22  and  C16_23 
REMARK    4  A    between atoms: C16_23  and  C17_24 
ROOT
HETATM    1  C1  UNL     1       7.267 -10.080 -20.588  1.00  0.00     0.052 C 
HETATM    2  C2  UNL     1       6.149 -10.708 -19.904  1.00  0.00    -0.019 A 
HETATM    3  C3  UNL     1       6.204 -12.090 -19.683  1.00  0.00     0.099 A 
HETATM    4  N1  UNL     1       5.239 -12.712 -18.996  1.00  0.00    -0.351 N 
ATOM      5  H1  UNL     1       5.301 -13.719 -18.849  1.00  0.00     0.166 HD
HETATM    6  C4  UNL     1       4.190 -12.039 -18.496  1.00  0.00     0.119 A 
HETATM    7  C9  UNL     1       4.127 -10.679 -18.708  1.00  0.00     0.048 A 
HETATM    8  C10 UNL     1       3.210  -9.756 -18.300  1.00  0.00     0.007 A 
HETATM    9  C11 UNL     1       2.046  -9.880 -17.562  1.00  0.00     0.018 A 
HETATM   10  C12 UNL     1       1.273  -8.769 -17.267  1.00  0.00     0.043 A 
HETATM   11  C13 UNL     1       1.690  -7.538 -17.725  1.00  0.00     0.118 A 
HETATM   12  F1  UNL     1       0.966  -6.408 -17.464  1.00  0.00    -0.206 F 
HETATM   13  C14 UNL     1       2.860  -7.449 -18.462  1.00  0.00     0.072 A 
HETATM   14  C15 UNL     1       3.648  -8.546 -18.769  1.00  0.00     0.049 A 
HETATM   15  N3  UNL     1       4.817  -8.681 -19.466  1.00  0.00    -0.341 N 
HETATM   16  C23 UNL     1       5.101  -9.978 -19.418  1.00  0.00     0.057 A 
ENDROOT
BRANCH  15  17
HETATM   17  C16 UNL     1       5.497  -7.568 -20.051  1.00  0.00     0.168 C 
BRANCH  17  18
HETATM   18  C17 UNL     1       5.018  -7.242 -21.451  1.00  0.00    -0.040 A 
HETATM   19  C18 UNL     1       3.824  -6.639 -21.728  1.00  0.00     0.012 A 
HETATM   20  C19 UNL     1       3.450  -6.400 -23.020  1.00  0.00     0.043 A 
HETATM   21  C20 UNL     1       4.238  -6.744 -24.094  1.00  0.00     0.116 A 
HETATM   22  F2  UNL     1       3.870  -6.508 -25.378  1.00  0.00    -0.206 F 
HETATM   23  C21 UNL     1       5.446  -7.353 -23.842  1.00  0.00     0.043 A 
HETATM   24  C22 UNL     1       5.812  -7.589 -22.545  1.00  0.00     0.012 A 
ENDBRANCH  17  18
ENDBRANCH  15  17
BRANCH   6  25
HETATM   25  N2  UNL     1       3.311 -12.696 -17.852  1.00  0.00    -0.341 N 
ATOM     26  H2  UNL     1       2.539 -13.130 -18.356  1.00  0.00     0.167 HD
BRANCH  25  27
HETATM   27  C5  UNL     1       3.394 -12.838 -16.403  1.00  0.00     0.040 A 
HETATM   28  C6  UNL     1       2.537 -13.566 -15.674  1.00  0.00     0.037 A 
HETATM   29  C7  UNL     1       2.735 -13.610 -14.318  1.00  0.00     0.052 A 
HETATM   30  S1  UNL     1       4.113 -12.632 -14.107  1.00  0.00    -0.111 SA
HETATM   31  C8  UNL     1       4.400 -12.196 -15.730  1.00  0.00     0.079 A 
ENDBRANCH  25  27
ENDBRANCH   6  25
TORSDOF 4
ENDMDL
MODEL 3
REMARK VINA RESULT: -9.713386753      1.741      3.560
REMARK  4 active torsions:
REMARK  status: ('A' for Active; 'I' for Inactive)
REMARK    1  A    between atoms: C4_6  and  N2_7 
REMARK    2  A    between atoms: N2_7  and  C5_9 
REMARK    3  A    between atoms: N3_22  and  C16_23 
REMARK    4  A    between atoms: C16_23  and  C17_24 
ROOT
HETATM    1  C1  UNL     1       2.313  -6.552 -18.768  1.00  0.00     0.052 C 
HETATM    2  C2  UNL     1       2.568  -7.910 -18.317  1.00  0.00    -0.019 A 
HETATM    3  C3  UNL     1       1.570  -8.555 -17.574  1.00  0.00     0.099 A 
HETATM    4  N1  UNL     1       1.719  -9.830 -17.194  1.00  0.00    -0.351 N 
ATOM      5  H1  UNL     1       0.979 -10.278 -16.653  1.00  0.00     0.166 HD
HETATM    6  C4  UNL     1       2.820 -10.531 -17.508  1.00  0.00     0.119 A 
HETATM    7  C9  UNL     1       3.807  -9.904 -18.237  1.00  0.00     0.048 A 
HETATM    8  C10 UNL     1       4.996 -10.372 -18.711  1.00  0.00     0.007 A 
HETATM    9  C11 UNL     1       5.606 -11.609 -18.605  1.00  0.00     0.018 A 
HETATM   10  C12 UNL     1       6.838 -11.845 -19.192  1.00  0.00     0.043 A 
HETATM   11  C13 UNL     1       7.443 -10.818 -19.885  1.00  0.00     0.118 A 
HETATM   12  F1  UNL     1       8.659 -10.993 -20.484  1.00  0.00    -0.206 F 
HETATM   13  C14 UNL     1       6.805  -9.590 -19.972  1.00  0.00     0.072 A 
HETATM   14  C15 UNL     1       5.573  -9.333 -19.393  1.00  0.00     0.049 A 
HETATM   15  N3  UNL     1       4.780  -8.219 -19.358  1.00  0.00    -0.341 N 
HETATM   16  C23 UNL     1       3.709  -8.579 -18.659  1.00  0.00     0.057 A 
ENDROOT
BRANCH  15  17
HETATM   17  C16 UNL     1       5.141  -6.997 -20.004  1.00  0.00     0.168 C 
BRANCH  17  18
HETATM   18  C17 UNL     1       4.779  -6.968 -21.476  1.00  0.00    -0.040 A 
HETATM   19  C18 UNL     1       5.647  -7.286 -22.482  1.00  0.00     0.012 A 
HETATM   20  C19 UNL     1       5.252  -7.212 -23.787  1.00  0.00     0.043 A 
HETATM   21  C20 UNL     1       3.986  -6.823 -24.157  1.00  0.00     0.116 A 
HETATM   22  F2  UNL     1       3.591  -6.748 -25.452  1.00  0.00    -0.206 F 
HETATM   23  C21 UNL     1       3.093  -6.497 -23.162  1.00  0.00     0.043 A 
HETATM   24  C22 UNL     1       3.496  -6.574 -21.857  1.00  0.00     0.012 A 
ENDBRANCH  17  18
ENDBRANCH  15  17
BRANCH   6  25
HETATM   25  N2  UNL     1       2.891 -11.739 -17.113  1.00  0.00    -0.341 N 
ATOM     26  H2  UNL     1       2.758 -12.496 -17.784  1.00  0.00     0.167 HD
BRANCH  25  27
HETATM   27  C5  UNL     1       3.160 -12.057 -15.716  1.00  0.00     0.040 A 
HETATM   28  C6  UNL     1       2.785 -13.199 -15.124  1.00  0.00     0.037 A 
HETATM   29  C7  UNL     1       3.106 -13.364 -13.802  1.00  0.00     0.052 A 
HETATM   30  S1  UNL     1       3.921 -11.917 -13.429  1.00  0.00    -0.111 SA
HETATM   31  C8  UNL     1       3.836 -11.146 -14.946  1.00  0.00     0.079 A 
ENDBRANCH  25  27
ENDBRANCH   6  25
TORSDOF 4
ENDMDL
MODEL 4
REMARK VINA RESULT: -9.101175023      3.068      7.237
REMARK  4 active torsions:
REMARK  status: ('A' for Active; 'I' for Inactive)
REMARK    1  A    between atoms: C4_6  and  N2_7 
REMARK    2  A    between atoms: N2_7  and  C5_9 
REMARK    3  A    between atoms: N3_22  and  C16_23 
REMARK    4  A    between atoms: C16_23  and  C17_24 
ROOT
HETATM    1  C1  UNL     1       5.575 -12.290 -17.618  1.00  0.00     0.052 C 
HETATM    2  C2  UNL     1       5.732 -10.986 -18.240  1.00  0.00    -0.019 A 
HETATM    3  C3  UNL     1       6.853 -10.775 -19.053  1.00  0.00     0.099 A 
HETATM    4  N1  UNL     1       7.013  -9.620 -19.709  1.00  0.00    -0.351 N 
ATOM      5  H1  UNL     1       7.838  -9.490 -20.296  1.00  0.00     0.166 HD
HETATM    6  C4  UNL     1       6.113  -8.628 -19.613  1.00  0.00     0.119 A 
HETATM    7  C9  UNL     1       5.008  -8.826 -18.814  1.00  0.00     0.048 A 
HETATM    8  C10 UNL     1       3.940  -8.019 -18.557  1.00  0.00     0.007 A 
HETATM    9  C11 UNL     1       3.624  -6.745 -18.993  1.00  0.00     0.018 A 
HETATM   10  C12 UNL     1       2.453  -6.127 -18.586  1.00  0.00     0.043 A 
HETATM   11  C13 UNL     1       1.609  -6.811 -17.738  1.00  0.00     0.118 A 
HETATM   12  F1  UNL     1       0.440  -6.251 -17.305  1.00  0.00    -0.206 F 
HETATM   13  C14 UNL     1       1.956  -8.086 -17.320  1.00  0.00     0.072 A 
HETATM   14  C15 UNL     1       3.122  -8.723 -17.713  1.00  0.00     0.049 A 
HETATM   15  N3  UNL     1       3.647  -9.953 -17.428  1.00  0.00    -0.341 N 
HETATM   16  C23 UNL     1       4.789 -10.007 -18.105  1.00  0.00     0.057 A 
ENDROOT
BRANCH  15  17
HETATM   17  C16 UNL     1       2.986 -10.895 -16.581  1.00  0.00     0.168 C 
BRANCH  17  18
HETATM   18  C17 UNL     1       3.465 -10.846 -15.143  1.00  0.00    -0.040 A 
HETATM   19  C18 UNL     1       4.013  -9.740 -14.559  1.00  0.00     0.012 A 
HETATM   20  C19 UNL     1       4.444  -9.783 -13.263  1.00  0.00     0.043 A 
HETATM   21  C20 UNL     1       4.351 -10.916 -12.489  1.00  0.00     0.116 A 
HETATM   22  F2  UNL     1       4.778 -10.961 -11.202  1.00  0.00    -0.206 F 
HETATM   23  C21 UNL     1       3.802 -12.044 -13.055  1.00  0.00     0.043 A 
HETATM   24  C22 UNL     1       3.373 -11.992 -14.353  1.00  0.00     0.012 A 
ENDBRANCH  17  18
ENDBRANCH  15  17
BRANCH   6  25
HETATM   25  N2  UNL     1       6.331  -7.558 -20.266  1.00  0.00    -0.341 N 
ATOM     26  H2  UNL     1       6.694  -6.738 -19.781  1.00  0.00     0.167 HD
BRANCH  25  27
HETATM   27  C5  UNL     1       6.071  -7.489 -21.699  1.00  0.00     0.040 A 
HETATM   28  C6  UNL     1       7.002  -7.707 -22.639  1.00  0.00     0.037 A 
HETATM   29  C7  UNL     1       6.615  -7.608 -23.950  1.00  0.00     0.052 A 
HETATM   30  S1  UNL     1       4.963  -7.213 -23.826  1.00  0.00    -0.111 SA
HETATM   31  C8  UNL     1       4.806  -7.184 -22.130  1.00  0.00     0.079 A 
ENDBRANCH  25  27
ENDBRANCH   6  25
TORSDOF 4
ENDMDL
MODEL 5
REMARK VINA RESULT: -8.995862765      3.087      7.194
REMARK  4 active torsions:
REMARK  status: ('A' for Active; 'I' for Inactive)
REMARK    1  A    between atoms: C4_6  and  N2_7 
REMARK    2  A    between atoms: N2_7  and  C5_9 
REMARK    3  A    between atoms: N3_22  and  C16_23 
REMARK    4  A    between atoms: C16_23  and  C17_24 
ROOT
HETATM    1  C1  UNL     1       5.696 -12.263 -17.530  1.00  0.00     0.052 C 
HETATM    2  C2  UNL     1       5.804 -10.957 -18.160  1.00  0.00    -0.019 A 
HETATM    3  C3  UNL     1       6.941 -10.693 -18.935  1.00  0.00     0.099 A 
HETATM    4  N1  UNL     1       7.062  -9.537 -19.598  1.00  0.00    -0.351 N 
ATOM      5  H1  UNL     1       7.899  -9.367 -20.155  1.00  0.00     0.166 HD
HETATM    6  C4  UNL     1       6.105  -8.595 -19.545  1.00  0.00     0.119 A 
HETATM    7  C9  UNL     1       4.984  -8.847 -18.785  1.00  0.00     0.048 A 
HETATM    8  C10 UNL     1       3.865  -8.097 -18.576  1.00  0.00     0.007 A 
HETATM    9  C11 UNL     1       3.495  -6.847 -19.038  1.00  0.00     0.018 A 
HETATM   10  C12 UNL     1       2.277  -6.291 -18.682  1.00  0.00     0.043 A 
HETATM   11  C13 UNL     1       1.442  -7.013 -17.857  1.00  0.00     0.118 A 
HETATM   12  F1  UNL     1       0.229  -6.514 -17.473  1.00  0.00    -0.206 F 
HETATM   13  C14 UNL     1       1.842  -8.263 -17.412  1.00  0.00     0.072 A 
HETATM   14  C15 UNL     1       3.055  -8.837 -17.755  1.00  0.00     0.049 A 
HETATM   15  N3  UNL     1       3.637 -10.034 -17.437  1.00  0.00    -0.341 N 
HETATM   16  C23 UNL     1       4.804 -10.031 -18.072  1.00  0.00     0.057 A 
ENDROOT
BRANCH  15  17
HETATM   17  C16 UNL     1       2.997 -11.003 -16.604  1.00  0.00     0.168 C 
BRANCH  17  18
HETATM   18  C17 UNL     1       3.484 -10.972 -15.168  1.00  0.00    -0.040 A 
HETATM   19  C18 UNL     1       3.433 -12.044 -14.322  1.00  0.00     0.012 A 
HETATM   20  C19 UNL     1       3.869 -11.930 -13.033  1.00  0.00     0.043 A 
HETATM   21  C20 UNL     1       4.375 -10.757 -12.523  1.00  0.00     0.116 A 
HETATM   22  F2  UNL     1       4.809 -10.642 -11.244  1.00  0.00    -0.206 F 
HETATM   23  C21 UNL     1       4.438  -9.663 -13.356  1.00  0.00     0.043 A 
HETATM   24  C22 UNL     1       3.999  -9.786 -14.646  1.00  0.00     0.012 A 
ENDBRANCH  17  18
ENDBRANCH  15  17
BRANCH   6  25
HETATM   25  N2  UNL     1       6.289  -7.521 -20.203  1.00  0.00    -0.341 N 
ATOM     26  H2  UNL     1       6.578  -6.675 -19.713  1.00  0.00     0.167 HD
BRANCH  25  27
HETATM   27  C5  UNL     1       6.092  -7.484 -21.647  1.00  0.00     0.040 A 
HETATM   28  C6  UNL     1       4.904  -7.276 -22.234  1.00  0.00     0.037 A 
HETATM   29  C7  UNL     1       4.867  -7.267 -23.604  1.00  0.00     0.052 A 
HETATM   30  S1  UNL     1       6.492  -7.548 -24.027  1.00  0.00    -0.111 SA
HETATM   31  C8  UNL     1       7.172  -7.669 -22.469  1.00  0.00     0.079 A 
ENDBRANCH  25  27
ENDBRANCH   6  25
TORSDOF 4
ENDMDL
