MODEL 1
REMARK VINA RESULT: -9.895051642      0.000      0.000
REMARK  5 active torsions:
REMARK  status: ('A' for Active; 'I' for Inactive)
REMARK    1  A    between atoms: C5_5  and  C6_6 
REMARK    2  A    between atoms: C6_6  and  N1_7 
REMARK    3  A    between atoms: C6_6  and  C16_23 
REMARK    4  A    between atoms: N1_7  and  C7_9 
REMARK    5  A    between atoms: C8_12  and  C9_13 
ROOT
HETATM    1  N1  UNL     1       3.489  -8.615 -14.259  1.00  0.00    -0.356 N 
ATOM      2  H1  UNL     1       3.284  -7.927 -13.535  1.00  0.00     0.162 HD
ENDROOT
BRANCH   1   3
HETATM    3  C6  UNL     1       4.381  -9.663 -13.946  1.00  0.00     0.174 C 
BRANCH   3   4
HETATM    4  C5  UNL     1       5.533  -9.587 -14.882  1.00  0.00    -0.029 A 
HETATM    5  C4  UNL     1       5.934 -10.720 -15.552  1.00  0.00     0.010 A 
HETATM    6  C3  UNL     1       7.004 -10.704 -16.439  1.00  0.00     0.007 A 
HETATM    7  C2  UNL     1       7.668  -9.524 -16.641  1.00  0.00    -0.062 A 
HETATM    8  C1  UNL     1       8.831  -9.468 -17.594  1.00  0.00     0.048 C 
HETATM    9  C22 UNL     1       7.296  -8.374 -15.992  1.00  0.00     0.007 A 
HETATM   10  C21 UNL     1       6.220  -8.424 -15.110  1.00  0.00     0.010 A 
ENDBRANCH   3   4
BRANCH   3  11
HETATM   11  C16 UNL     1       4.852  -9.410 -12.531  1.00  0.00     0.080 A 
HETATM   12  C17 UNL     1       5.096 -10.439 -11.661  1.00  0.00     0.038 A 
HETATM   13  C18 UNL     1       5.509  -9.834 -10.469  1.00  0.00     0.035 A 
HETATM   14  C19 UNL     1       5.478  -8.478 -10.721  1.00  0.00     0.049 A 
HETATM   15  C20 UNL     1       5.851  -7.455  -9.698  1.00  0.00     0.076 C 
HETATM   16  O1  UNL     1       5.082  -8.265 -11.962  1.00  0.00    -0.317 OA
ENDBRANCH   3  11
ENDBRANCH   1   3
BRANCH   1  17
HETATM   17  C7  UNL     1       2.909  -8.475 -15.424  1.00  0.00     0.145 A 
HETATM   18  N2  UNL     1       2.612  -7.350 -16.063  1.00  0.00    -0.336 N 
HETATM   19  C8  UNL     1       2.021  -7.412 -17.240  1.00  0.00     0.054 A 
ATOM     20  H2  UNL     1       2.839  -6.446 -15.648  1.00  0.00     0.168 HD
HETATM   21  C15 UNL     1       1.749  -8.654 -17.732  1.00  0.00     0.083 A 
HETATM   22  S1  UNL     1       2.356  -9.679 -16.480  1.00  0.00    -0.064 SA
BRANCH  19  23
HETATM   23  C9  UNL     1       1.692  -6.175 -18.035  1.00  0.00     0.033 A 
HETATM   24  C10 UNL     1       0.411  -5.652 -18.002  1.00  0.00     0.017 A 
HETATM   25  C11 UNL     1      -0.004  -4.554 -18.712  1.00  0.00     0.004 A 
HETATM   26  C12 UNL     1       0.942  -3.944 -19.505  1.00  0.00     0.045 A 
HETATM   27  C13 UNL     1       2.218  -4.415 -19.575  1.00  0.00     0.155 A 
HETATM   28  F1  UNL     1       3.151  -3.833 -20.343  1.00  0.00    -0.203 F 
HETATM   29  C14 UNL     1       2.594  -5.548 -18.827  1.00  0.00     0.167 A 
HETATM   30  F2  UNL     1       3.865  -5.980 -18.955  1.00  0.00    -0.202 F 
ENDBRANCH  19  23
ENDBRANCH   1  17
TORSDOF 5
ENDMDL
MODEL 2
REMARK VINA RESULT: -9.674301757      3.564      5.552
REMARK  5 active torsions:
REMARK  status: ('A' for Active; 'I' for Inactive)
REMARK    1  A    between atoms: C5_5  and  C6_6 
REMARK    2  A    between atoms: C6_6  and  N1_7 
REMARK    3  A    between atoms: C6_6  and  C16_23 
REMARK    4  A    between atoms: N1_7  and  C7_9 
REMARK    5  A    between atoms: C8_12  and  C9_13 
ROOT
HETATM    1  N1  UNL     1       5.159 -10.001 -16.947  1.00  0.00    -0.356 N 
ATOM      2  H1  UNL     1       5.323 -11.007 -16.991  1.00  0.00     0.162 HD
ENDROOT
BRANCH   1   3
HETATM    3  C6  UNL     1       4.296  -9.513 -15.942  1.00  0.00     0.174 C 
BRANCH   3   4
HETATM    4  C5  UNL     1       3.152  -8.833 -16.603  1.00  0.00    -0.029 A 
HETATM    5  C4  UNL     1       3.046  -7.463 -16.527  1.00  0.00     0.010 A 
HETATM    6  C3  UNL     1       1.997  -6.777 -17.127  1.00  0.00     0.007 A 
HETATM    7  C2  UNL     1       1.051  -7.496 -17.807  1.00  0.00    -0.062 A 
HETATM    8  C1  UNL     1      -0.100  -6.787 -18.470  1.00  0.00     0.048 C 
HETATM    9  C22 UNL     1       1.123  -8.862 -17.905  1.00  0.00     0.007 A 
HETATM   10  C21 UNL     1       2.187  -9.519 -17.293  1.00  0.00     0.010 A 
ENDBRANCH   3   4
BRANCH   3  11
HETATM   11  C16 UNL     1       3.804 -10.725 -15.182  1.00  0.00     0.080 A 
HETATM   12  C17 UNL     1       4.094 -10.907 -13.856  1.00  0.00     0.038 A 
HETATM   13  C18 UNL     1       3.482 -12.113 -13.499  1.00  0.00     0.035 A 
HETATM   14  C19 UNL     1       2.869 -12.563 -14.650  1.00  0.00     0.049 A 
HETATM   15  C20 UNL     1       2.092 -13.838 -14.709  1.00  0.00     0.076 C 
HETATM   16  O1  UNL     1       3.083 -11.708 -15.632  1.00  0.00    -0.317 OA
ENDBRANCH   3  11
ENDBRANCH   1   3
BRANCH   1  17
HETATM   17  C7  UNL     1       5.760  -9.239 -17.825  1.00  0.00     0.145 A 
HETATM   18  N2  UNL     1       5.411  -9.005 -19.085  1.00  0.00    -0.336 N 
HETATM   19  C8  UNL     1       6.151  -8.199 -19.821  1.00  0.00     0.054 A 
ATOM     20  H2  UNL     1       4.580  -9.445 -19.479  1.00  0.00     0.168 HD
HETATM   21  C15 UNL     1       7.247  -7.648 -19.226  1.00  0.00     0.083 A 
HETATM   22  S1  UNL     1       7.165  -8.313 -17.633  1.00  0.00    -0.064 SA
BRANCH  19  23
HETATM   23  C9  UNL     1       5.791  -7.863 -21.245  1.00  0.00     0.033 A 
HETATM   24  C10 UNL     1       6.703  -8.085 -22.260  1.00  0.00     0.017 A 
HETATM   25  C11 UNL     1       6.491  -7.784 -23.582  1.00  0.00     0.004 A 
HETATM   26  C12 UNL     1       5.274  -7.223 -23.895  1.00  0.00     0.045 A 
HETATM   27  C13 UNL     1       4.337  -6.982 -22.935  1.00  0.00     0.155 A 
HETATM   28  F1  UNL     1       3.147  -6.436 -23.223  1.00  0.00    -0.203 F 
HETATM   29  C14 UNL     1       4.604  -7.309 -21.592  1.00  0.00     0.167 A 
HETATM   30  F2  UNL     1       3.647  -7.027 -20.684  1.00  0.00    -0.202 F 
ENDBRANCH  19  23
ENDBRANCH   1  17
TORSDOF 5
ENDMDL
MODEL 3
REMARK VINA RESULT: -9.617861933      3.266      5.118
REMARK  5 active torsions:
REMARK  status: ('A' for Active; 'I' for Inactive)
REMARK    1  A    between atoms: C5_5  and  C6_6 
REMARK    2  A    between atoms: C6_6  and  N1_7 
REMARK    3  A    between atoms: C6_6  and  C16_23 
REMARK    4  A    between atoms: N1_7  and  C7_9 
REMARK    5  A    between atoms: C8_12  and  C9_13 
ROOT
HETATM    1  N1  UNL     1       5.867  -9.233 -16.603  1.00  0.00    -0.356 N 
ATOM      2  H1  UNL     1       5.911 -10.134 -16.127  1.00  0.00     0.162 HD
ENDROOT
BRANCH   1   3
HETATM    3  C6  UNL     1       5.177  -8.179 -15.968  1.00  0.00     0.174 C 
BRANCH   3   4
HETATM    4  C5  UNL     1       3.816  -8.093 -16.557  1.00  0.00    -0.029 A 
HETATM    5  C4  UNL     1       3.239  -6.859 -16.747  1.00  0.00     0.010 A 
HETATM    6  C3  UNL     1       1.968  -6.722 -17.295  1.00  0.00     0.007 A 
HETATM    7  C2  UNL     1       1.285  -7.854 -17.649  1.00  0.00    -0.062 A 
HETATM    8  C1  UNL     1      -0.093  -7.745 -18.245  1.00  0.00     0.048 C 
HETATM    9  C22 UNL     1       1.828  -9.101 -17.476  1.00  0.00     0.007 A 
HETATM   10  C21 UNL     1       3.102  -9.204 -16.925  1.00  0.00     0.010 A 
ENDBRANCH   3   4
BRANCH   3  11
HETATM   11  C16 UNL     1       5.081  -8.556 -14.507  1.00  0.00     0.080 A 
HETATM   12  C17 UNL     1       4.432  -9.692 -14.100  1.00  0.00     0.038 A 
HETATM   13  C18 UNL     1       4.547  -9.713 -12.706  1.00  0.00     0.035 A 
HETATM   14  C19 UNL     1       5.259  -8.576 -12.384  1.00  0.00     0.049 A 
HETATM   15  C20 UNL     1       5.608  -8.209 -10.978  1.00  0.00     0.076 C 
HETATM   16  O1  UNL     1       5.561  -7.913 -13.485  1.00  0.00    -0.317 OA
ENDBRANCH   3  11
ENDBRANCH   1   3
BRANCH   1  17
HETATM   17  C7  UNL     1       6.454  -9.123 -17.768  1.00  0.00     0.145 A 
HETATM   18  N2  UNL     1       5.925  -8.728 -18.920  1.00  0.00    -0.336 N 
HETATM   19  C8  UNL     1       6.684  -8.681 -19.998  1.00  0.00     0.054 A 
ATOM     20  H2  UNL     1       4.941  -8.463 -18.971  1.00  0.00     0.168 HD
HETATM   21  C15 UNL     1       7.989  -9.049 -19.852  1.00  0.00     0.083 A 
HETATM   22  S1  UNL     1       8.067  -9.446 -18.172  1.00  0.00    -0.064 SA
BRANCH  19  23
HETATM   23  C9  UNL     1       6.156  -8.207 -21.326  1.00  0.00     0.033 A 
HETATM   24  C10 UNL     1       6.974  -8.222 -22.442  1.00  0.00     0.017 A 
HETATM   25  C11 UNL     1       6.607  -7.782 -23.688  1.00  0.00     0.004 A 
HETATM   26  C12 UNL     1       5.325  -7.296 -23.812  1.00  0.00     0.045 A 
HETATM   27  C13 UNL     1       4.476  -7.257 -22.748  1.00  0.00     0.155 A 
HETATM   28  F1  UNL     1       3.224  -6.786 -22.852  1.00  0.00    -0.203 F 
HETATM   29  C14 UNL     1       4.902  -7.720 -21.488  1.00  0.00     0.167 A 
HETATM   30  F2  UNL     1       4.024  -7.637 -20.468  1.00  0.00    -0.202 F 
ENDBRANCH  19  23
ENDBRANCH   1  17
TORSDOF 5
ENDMDL
MODEL 4
REMARK VINA RESULT: -9.616682492      3.051      7.208
REMARK  5 active torsions:
REMARK  status: ('A' for Active; 'I' for Inactive)
REMARK    1  A    between atoms: C5_5  and  C6_6 
REMARK    2  A    between atoms: C6_6  and  N1_7 
REMARK    3  A    between atoms: C6_6  and  C16_23 
REMARK    4  A    between atoms: N1_7  and  C7_9 
REMARK    5  A    between atoms: C8_12  and  C9_13 
ROOT
HETATM    1  N1  UNL     1       2.559  -8.614 -16.628  1.00  0.00    -0.356 N 
ATOM      2  H1  UNL     1       1.704  -8.904 -17.102  1.00  0.00     0.162 HD
ENDROOT
BRANCH   1   3
HETATM    3  C6  UNL     1       3.067  -7.326 -16.904  1.00  0.00     0.174 C 
BRANCH   3   4
HETATM    4  C5  UNL     1       4.267  -7.476 -17.768  1.00  0.00    -0.029 A 
HETATM    5  C4  UNL     1       5.472  -6.969 -17.344  1.00  0.00     0.010 A 
HETATM    6  C3  UNL     1       6.625  -7.082 -18.113  1.00  0.00     0.007 A 
HETATM    7  C2  UNL     1       6.543  -7.718 -19.323  1.00  0.00    -0.062 A 
HETATM    8  C1  UNL     1       7.770  -7.859 -20.183  1.00  0.00     0.048 C 
HETATM    9  C22 UNL     1       5.358  -8.236 -19.780  1.00  0.00     0.007 A 
HETATM   10  C21 UNL     1       4.222  -8.106 -18.985  1.00  0.00     0.010 A 
ENDBRANCH   3   4
BRANCH   3  11
HETATM   11  C16 UNL     1       1.979  -6.595 -17.658  1.00  0.00     0.080 A 
HETATM   12  C17 UNL     1       0.762  -7.174 -17.903  1.00  0.00     0.038 A 
HETATM   13  C18 UNL     1       0.026  -6.217 -18.610  1.00  0.00     0.035 A 
HETATM   14  C19 UNL     1       0.868  -5.132 -18.735  1.00  0.00     0.049 A 
HETATM   15  C20 UNL     1       0.469  -3.874 -19.435  1.00  0.00     0.076 C 
HETATM   16  O1  UNL     1       2.023  -5.395 -18.154  1.00  0.00    -0.317 OA
ENDBRANCH   3  11
ENDBRANCH   1   3
BRANCH   1  17
HETATM   17  C7  UNL     1       3.121  -9.457 -15.798  1.00  0.00     0.145 A 
HETATM   18  N2  UNL     1       3.668  -9.203 -14.616  1.00  0.00    -0.336 N 
HETATM   19  C8  UNL     1       4.189 -10.194 -13.919  1.00  0.00     0.054 A 
ATOM     20  H2  UNL     1       3.685  -8.251 -14.249  1.00  0.00     0.168 HD
HETATM   21  C15 UNL     1       4.129 -11.439 -14.472  1.00  0.00     0.083 A 
HETATM   22  S1  UNL     1       3.326 -11.129 -15.970  1.00  0.00    -0.064 SA
BRANCH  19  23
HETATM   23  C9  UNL     1       4.791  -9.981 -12.554  1.00  0.00     0.033 A 
HETATM   24  C10 UNL     1       4.653 -10.951 -11.578  1.00  0.00     0.017 A 
HETATM   25  C11 UNL     1       5.130 -10.844 -10.296  1.00  0.00     0.004 A 
HETATM   26  C12 UNL     1       5.793  -9.678  -9.984  1.00  0.00     0.045 A 
HETATM   27  C13 UNL     1       5.958  -8.689 -10.906  1.00  0.00     0.155 A 
HETATM   28  F1  UNL     1       6.600  -7.547 -10.618  1.00  0.00    -0.203 F 
HETATM   29  C14 UNL     1       5.448  -8.847 -12.209  1.00  0.00     0.167 A 
HETATM   30  F2  UNL     1       5.624  -7.825 -13.071  1.00  0.00    -0.202 F 
ENDBRANCH  19  23
ENDBRANCH   1  17
TORSDOF 5
ENDMDL
MODEL 5
REMARK VINA RESULT: -9.607193009      3.753      5.591
REMARK  5 active torsions:
REMARK  status: ('A' for Active; 'I' for Inactive)
REMARK    1  A    between atoms: C5_5  and  C6_6 
REMARK    2  A    between atoms: C6_6  and  N1_7 
REMARK    3  A    between atoms: C6_6  and  C16_23 
REMARK    4  A    between atoms: N1_7  and  C7_9 
REMARK    5  A    between atoms: C8_12  and  C9_13 
ROOT
HETATM    1  N1  UNL     1       5.137  -9.983 -16.892  1.00  0.00    -0.356 N 
ATOM      2  H1  UNL     1       5.326 -10.984 -16.937  1.00  0.00     0.162 HD
ENDROOT
BRANCH   1   3
HETATM    3  C6  UNL     1       4.257  -9.518 -15.891  1.00  0.00     0.174 C 
BRANCH   3   4
HETATM    4  C5  UNL     1       3.113  -8.842 -16.557  1.00  0.00    -0.029 A 
HETATM    5  C4  UNL     1       2.978  -7.478 -16.446  1.00  0.00     0.010 A 
HETATM    6  C3  UNL     1       1.927  -6.796 -17.049  1.00  0.00     0.007 A 
HETATM    7  C2  UNL     1       1.010  -7.514 -17.768  1.00  0.00    -0.062 A 
HETATM    8  C1  UNL     1      -0.141  -6.810 -18.435  1.00  0.00     0.048 C 
HETATM    9  C22 UNL     1       1.111  -8.876 -17.900  1.00  0.00     0.007 A 
HETATM   10  C21 UNL     1       2.176  -9.528 -17.284  1.00  0.00     0.010 A 
ENDBRANCH   3   4
BRANCH   3  11
HETATM   11  C16 UNL     1       3.770 -10.745 -15.153  1.00  0.00     0.080 A 
HETATM   12  C17 UNL     1       4.079 -10.959 -13.836  1.00  0.00     0.038 A 
HETATM   13  C18 UNL     1       3.466 -12.171 -13.498  1.00  0.00     0.035 A 
HETATM   14  C19 UNL     1       2.835 -12.591 -14.650  1.00  0.00     0.049 A 
HETATM   15  C20 UNL     1       2.051 -13.861 -14.728  1.00  0.00     0.076 C 
HETATM   16  O1  UNL     1       3.038 -11.714 -15.615  1.00  0.00    -0.317 OA
ENDBRANCH   3  11
ENDBRANCH   1   3
BRANCH   1  17
HETATM   17  C7  UNL     1       5.725  -9.205 -17.765  1.00  0.00     0.145 A 
HETATM   18  N2  UNL     1       5.345  -8.931 -19.007  1.00  0.00    -0.336 N 
HETATM   19  C8  UNL     1       6.076  -8.115 -19.741  1.00  0.00     0.054 A 
ATOM     20  H2  UNL     1       4.496  -9.348 -19.390  1.00  0.00     0.168 HD
HETATM   21  C15 UNL     1       7.196  -7.596 -19.162  1.00  0.00     0.083 A 
HETATM   22  S1  UNL     1       7.149  -8.305 -17.587  1.00  0.00    -0.064 SA
BRANCH  19  23
HETATM   23  C9  UNL     1       5.681  -7.733 -21.144  1.00  0.00     0.033 A 
HETATM   24  C10 UNL     1       4.456  -7.135 -21.380  1.00  0.00     0.017 A 
HETATM   25  C11 UNL     1       3.985  -6.779 -22.618  1.00  0.00     0.004 A 
HETATM   26  C12 UNL     1       4.810  -7.046 -23.688  1.00  0.00     0.045 A 
HETATM   27  C13 UNL     1       6.026  -7.634 -23.514  1.00  0.00     0.155 A 
HETATM   28  F1  UNL     1       6.842  -7.900 -24.546  1.00  0.00    -0.203 F 
HETATM   29  C14 UNL     1       6.465  -7.980 -22.222  1.00  0.00     0.167 A 
HETATM   30  F2  UNL     1       7.669  -8.578 -22.116  1.00  0.00    -0.202 F 
ENDBRANCH  19  23
ENDBRANCH   1  17
TORSDOF 5
ENDMDL
