MODEL 1
REMARK VINA RESULT: -8.884330522      0.000      0.000
REMARK  4 active torsions:
REMARK  status: ('A' for Active; 'I' for Inactive)
REMARK    1  A    between atoms: C2_2  and  C3_3 
REMARK    2  A    between atoms: C3_3  and  N1_6 
REMARK    3  A    between atoms: C6_9  and  C7_10 
REMARK    4  A    between atoms: C11_14  and  C12_15 
ROOT
HETATM    1  N1  UNL     1       4.784  -8.677 -19.863  1.00  0.00    -0.247 N 
HETATM    2  N2  UNL     1       3.647  -8.030 -19.745  1.00  0.00    -0.297 N 
ATOM      3  H2  UNL     1       3.191  -7.521 -20.502  1.00  0.00     0.187 HD
HETATM    4  C6  UNL     1       3.158  -8.130 -18.478  1.00  0.00     0.050 A 
HETATM    5  C11 UNL     1       4.045  -8.887 -17.761  1.00  0.00     0.067 A 
HETATM    6  C22 UNL     1       5.058  -9.214 -18.670  1.00  0.00     0.275 A 
HETATM    7  O2  UNL     1       6.068  -9.912 -18.380  1.00  0.00    -0.266 OA
ENDROOT
BRANCH   5   8
HETATM    8  C12 UNL     1       4.011  -9.272 -16.346  1.00  0.00    -0.009 C 
HETATM    9  C13 UNL     1       4.735  -8.563 -15.510  1.00  0.00    -0.039 C 
HETATM   10  C14 UNL     1       5.553  -7.398 -15.967  1.00  0.00     0.050 C 
HETATM   11  C15 UNL     1       4.907  -8.957 -14.129  1.00  0.00     0.007 A 
HETATM   12  C16 UNL     1       5.637  -8.222 -13.224  1.00  0.00     0.060 A 
HETATM   13  C20 UNL     1       4.276 -10.144 -13.736  1.00  0.00     0.083 A 
HETATM   14  C17 UNL     1       5.754  -8.645 -11.926  1.00  0.00     0.155 A 
HETATM   15  F1  UNL     1       6.472  -7.935 -11.000  1.00  0.00    -0.203 F 
HETATM   16  C18 UNL     1       5.138  -9.816 -11.519  1.00  0.00     0.157 A 
HETATM   17  F2  UNL     1       5.274 -10.205 -10.220  1.00  0.00    -0.203 F 
HETATM   18  C19 UNL     1       4.407 -10.551 -12.427  1.00  0.00     0.083 A 
HETATM   19  O1  UNL     1       3.549 -10.868 -14.655  1.00  0.00    -0.346 OA
HETATM   20  C21 UNL     1       3.066 -10.265 -15.814  1.00  0.00     0.216 C 
ENDBRANCH   5   8
BRANCH   4  21
HETATM   21  C7  UNL     1       1.865  -7.508 -18.053  1.00  0.00    -0.006 C 
HETATM   22  C8  UNL     1       1.441  -6.526 -19.171  1.00  0.00     0.021 C 
HETATM   23  C9  UNL     1       0.746  -8.480 -17.899  1.00  0.00     0.021 C 
HETATM   24  C10 UNL     1       2.023  -6.598 -16.842  1.00  0.00     0.021 C 
ENDBRANCH   4  21
BRANCH   1  25
HETATM   25  C3  UNL     1       5.601  -8.783 -21.089  1.00  0.00     0.049 C 
HETATM   26  C4  UNL     1       6.016 -10.217 -21.254  1.00  0.00     0.040 C 
HETATM   27  C5  UNL     1       4.779  -8.309 -22.255  1.00  0.00     0.040 C 
BRANCH  25  28
HETATM   28  C2  UNL     1       6.859  -7.948 -20.946  1.00  0.00     0.028 C 
HETATM   29  C1  UNL     1       7.357  -7.457 -22.259  1.00  0.00     0.007 C 
ENDBRANCH  25  28
ENDBRANCH   1  25
TORSDOF 4
ENDMDL
MODEL 2
REMARK VINA RESULT: -8.800582228      1.548      3.394
REMARK  4 active torsions:
REMARK  status: ('A' for Active; 'I' for Inactive)
REMARK    1  A    between atoms: C2_2  and  C3_3 
REMARK    2  A    between atoms: C3_3  and  N1_6 
REMARK    3  A    between atoms: C6_9  and  C7_10 
REMARK    4  A    between atoms: C11_14  and  C12_15 
ROOT
HETATM    1  N1  UNL     1       3.094  -7.126 -19.076  1.00  0.00    -0.247 N 
HETATM    2  N2  UNL     1       4.025  -7.955 -19.493  1.00  0.00    -0.297 N 
ATOM      3  H2  UNL     1       4.382  -7.990 -20.447  1.00  0.00     0.187 HD
HETATM    4  C6  UNL     1       4.448  -8.761 -18.480  1.00  0.00     0.050 A 
HETATM    5  C11 UNL     1       3.738  -8.412 -17.363  1.00  0.00     0.067 A 
HETATM    6  C22 UNL     1       2.894  -7.377 -17.779  1.00  0.00     0.275 A 
HETATM    7  O2  UNL     1       2.075  -6.787 -17.023  1.00  0.00    -0.266 OA
ENDROOT
BRANCH   5   8
HETATM    8  C12 UNL     1       3.785  -8.985 -16.013  1.00  0.00    -0.009 C 
HETATM    9  C13 UNL     1       4.563  -8.396 -15.134  1.00  0.00    -0.039 C 
HETATM   10  C14 UNL     1       5.362  -7.180 -15.478  1.00  0.00     0.050 C 
HETATM   11  C15 UNL     1       4.813  -8.973 -13.831  1.00  0.00     0.007 A 
HETATM   12  C16 UNL     1       5.602  -8.367 -12.881  1.00  0.00     0.060 A 
HETATM   13  C20 UNL     1       4.197 -10.202 -13.564  1.00  0.00     0.083 A 
HETATM   14  C17 UNL     1       5.792  -8.961 -11.661  1.00  0.00     0.155 A 
HETATM   15  F1  UNL     1       6.570  -8.383 -10.692  1.00  0.00    -0.203 F 
HETATM   16  C18 UNL     1       5.192 -10.177 -11.379  1.00  0.00     0.157 A 
HETATM   17  F2  UNL     1       5.402 -10.737 -10.155  1.00  0.00    -0.203 F 
HETATM   18  C19 UNL     1       4.402 -10.781 -12.333  1.00  0.00     0.083 A 
HETATM   19  O1  UNL     1       3.411 -10.795 -14.528  1.00  0.00    -0.346 OA
HETATM   20  C21 UNL     1       2.864 -10.041 -15.564  1.00  0.00     0.216 C 
ENDBRANCH   5   8
BRANCH   4  21
HETATM   21  C7  UNL     1       5.518  -9.793 -18.654  1.00  0.00    -0.006 C 
HETATM   22  C8  UNL     1       5.878  -9.828 -20.158  1.00  0.00     0.021 C 
HETATM   23  C9  UNL     1       6.781  -9.486 -17.926  1.00  0.00     0.021 C 
HETATM   24  C10 UNL     1       5.016 -11.206 -18.390  1.00  0.00     0.021 C 
ENDBRANCH   4  21
BRANCH   1  25
HETATM   25  C3  UNL     1       2.403  -6.112 -19.899  1.00  0.00     0.049 C 
HETATM   26  C4  UNL     1       2.875  -6.259 -21.317  1.00  0.00     0.040 C 
HETATM   27  C5  UNL     1       0.921  -6.332 -19.786  1.00  0.00     0.040 C 
BRANCH  25  28
HETATM   28  C2  UNL     1       2.775  -4.720 -19.426  1.00  0.00     0.028 C 
HETATM   29  C1  UNL     1       1.579  -3.907 -19.081  1.00  0.00     0.007 C 
ENDBRANCH  25  28
ENDBRANCH   1  25
TORSDOF 4
ENDMDL
MODEL 3
REMARK VINA RESULT: -8.738491619      3.909      7.017
REMARK  4 active torsions:
REMARK  status: ('A' for Active; 'I' for Inactive)
REMARK    1  A    between atoms: C2_2  and  C3_3 
REMARK    2  A    between atoms: C3_3  and  N1_6 
REMARK    3  A    between atoms: C6_9  and  C7_10 
REMARK    4  A    between atoms: C11_14  and  C12_15 
ROOT
HETATM    1  N1  UNL     1       4.761 -11.533 -15.947  1.00  0.00    -0.247 N 
HETATM    2  N2  UNL     1       5.972 -11.024 -15.974  1.00  0.00    -0.297 N 
ATOM      3  H2  UNL     1       6.777 -11.423 -15.492  1.00  0.00     0.187 HD
HETATM    4  C6  UNL     1       6.008  -9.893 -16.732  1.00  0.00     0.050 A 
HETATM    5  C11 UNL     1       4.742  -9.684 -17.207  1.00  0.00     0.067 A 
HETATM    6  C22 UNL     1       3.983 -10.740 -16.690  1.00  0.00     0.275 A 
HETATM    7  O2  UNL     1       2.751 -10.896 -16.909  1.00  0.00    -0.266 OA
ENDROOT
BRANCH   5   8
HETATM    8  C12 UNL     1       4.229  -8.595 -18.046  1.00  0.00    -0.009 C 
HETATM    9  C13 UNL     1       3.427  -7.722 -17.479  1.00  0.00    -0.039 C 
HETATM   10  C14 UNL     1       3.057  -7.815 -16.033  1.00  0.00     0.050 C 
HETATM   11  C15 UNL     1       2.734  -6.713 -18.248  1.00  0.00     0.007 A 
HETATM   12  C16 UNL     1       1.910  -5.770 -17.680  1.00  0.00     0.060 A 
HETATM   13  C20 UNL     1       2.949  -6.727 -19.632  1.00  0.00     0.083 A 
HETATM   14  C17 UNL     1       1.289  -4.833 -18.464  1.00  0.00     0.155 A 
HETATM   15  F1  UNL     1       0.463  -3.880 -17.928  1.00  0.00    -0.203 F 
HETATM   16  C18 UNL     1       1.488  -4.832 -19.834  1.00  0.00     0.157 A 
HETATM   17  F2  UNL     1       0.856  -3.885 -20.582  1.00  0.00    -0.203 F 
HETATM   18  C19 UNL     1       2.315  -5.778 -20.401  1.00  0.00     0.083 A 
HETATM   19  O1  UNL     1       3.778  -7.679 -20.185  1.00  0.00    -0.346 OA
HETATM   20  C21 UNL     1       4.727  -8.336 -19.405  1.00  0.00     0.216 C 
ENDBRANCH   5   8
BRANCH   4  21
HETATM   21  C7  UNL     1       7.261  -9.106 -16.960  1.00  0.00    -0.006 C 
HETATM   22  C8  UNL     1       8.349  -9.702 -16.035  1.00  0.00     0.021 C 
HETATM   23  C9  UNL     1       7.791  -9.201 -18.349  1.00  0.00     0.021 C 
HETATM   24  C10 UNL     1       7.147  -7.668 -16.471  1.00  0.00     0.021 C 
ENDBRANCH   4  21
BRANCH   1  25
HETATM   25  C3  UNL     1       4.347 -12.753 -15.224  1.00  0.00     0.049 C 
HETATM   26  C4  UNL     1       5.532 -13.673 -15.142  1.00  0.00     0.040 C 
HETATM   27  C5  UNL     1       3.860 -12.359 -13.858  1.00  0.00     0.040 C 
BRANCH  25  28
HETATM   28  C2  UNL     1       3.255 -13.468 -15.997  1.00  0.00     0.028 C 
HETATM   29  C1  UNL     1       2.160 -13.943 -15.109  1.00  0.00     0.007 C 
ENDBRANCH  25  28
ENDBRANCH   1  25
TORSDOF 4
ENDMDL
MODEL 4
REMARK VINA RESULT: -8.536722069      4.172      7.675
REMARK  4 active torsions:
REMARK  status: ('A' for Active; 'I' for Inactive)
REMARK    1  A    between atoms: C2_2  and  C3_3 
REMARK    2  A    between atoms: C3_3  and  N1_6 
REMARK    3  A    between atoms: C6_9  and  C7_10 
REMARK    4  A    between atoms: C11_14  and  C12_15 
ROOT
HETATM    1  N1  UNL     1       4.712  -9.510 -15.034  1.00  0.00    -0.247 N 
HETATM    2  N2  UNL     1       4.149 -10.583 -15.542  1.00  0.00    -0.297 N 
ATOM      3  H2  UNL     1       3.586 -11.247 -15.010  1.00  0.00     0.187 HD
HETATM    4  C6  UNL     1       4.417 -10.691 -16.873  1.00  0.00     0.050 A 
HETATM    5  C11 UNL     1       5.195  -9.618 -17.216  1.00  0.00     0.067 A 
HETATM    6  C22 UNL     1       5.359  -8.896 -16.029  1.00  0.00     0.275 A 
HETATM    7  O2  UNL     1       6.024  -7.828 -15.938  1.00  0.00    -0.266 OA
ENDROOT
BRANCH   5   8
HETATM    8  C12 UNL     1       5.783  -9.271 -18.515  1.00  0.00    -0.009 C 
HETATM    9  C13 UNL     1       5.061  -8.532 -19.326  1.00  0.00    -0.039 C 
HETATM   10  C14 UNL     1       3.699  -8.043 -18.946  1.00  0.00     0.050 C 
HETATM   11  C15 UNL     1       5.471  -8.275 -20.689  1.00  0.00     0.007 A 
HETATM   12  C16 UNL     1       4.750  -7.483 -21.552  1.00  0.00     0.060 A 
HETATM   13  C20 UNL     1       6.669  -8.871 -21.103  1.00  0.00     0.083 A 
HETATM   14  C17 UNL     1       5.198  -7.270 -22.830  1.00  0.00     0.155 A 
HETATM   15  F1  UNL     1       4.504  -6.486 -23.714  1.00  0.00    -0.203 F 
HETATM   16  C18 UNL     1       6.379  -7.852 -23.258  1.00  0.00     0.157 A 
HETATM   17  F2  UNL     1       6.795  -7.617 -24.534  1.00  0.00    -0.203 F 
HETATM   18  C19 UNL     1       7.100  -8.644 -22.390  1.00  0.00     0.083 A 
HETATM   19  O1  UNL     1       7.378  -9.660 -20.224  1.00  0.00    -0.346 OA
HETATM   20  C21 UNL     1       7.189  -9.542 -18.849  1.00  0.00     0.216 C 
ENDBRANCH   5   8
BRANCH   4  21
HETATM   21  C7  UNL     1       3.890 -11.806 -17.722  1.00  0.00    -0.006 C 
HETATM   22  C8  UNL     1       3.472 -12.948 -16.767  1.00  0.00     0.021 C 
HETATM   23  C9  UNL     1       2.676 -11.447 -18.507  1.00  0.00     0.021 C 
HETATM   24  C10 UNL     1       4.973 -12.453 -18.575  1.00  0.00     0.021 C 
ENDBRANCH   4  21
BRANCH   1  25
HETATM   25  C3  UNL     1       4.639  -9.076 -13.624  1.00  0.00     0.049 C 
HETATM   26  C4  UNL     1       3.729  -7.882 -13.548  1.00  0.00     0.040 C 
HETATM   27  C5  UNL     1       4.120 -10.217 -12.796  1.00  0.00     0.040 C 
BRANCH  25  28
HETATM   28  C2  UNL     1       6.011  -8.646 -13.143  1.00  0.00     0.028 C 
HETATM   29  C1  UNL     1       6.019  -8.320 -11.692  1.00  0.00     0.007 C 
ENDBRANCH  25  28
ENDBRANCH   1  25
TORSDOF 4
ENDMDL
MODEL 5
REMARK VINA RESULT: -8.533761821      1.850      3.979
REMARK  4 active torsions:
REMARK  status: ('A' for Active; 'I' for Inactive)
REMARK    1  A    between atoms: C2_2  and  C3_3 
REMARK    2  A    between atoms: C3_3  and  N1_6 
REMARK    3  A    between atoms: C6_9  and  C7_10 
REMARK    4  A    between atoms: C11_14  and  C12_15 
ROOT
HETATM    1  N1  UNL     1       3.390  -6.733 -19.421  1.00  0.00    -0.247 N 
HETATM    2  N2  UNL     1       4.310  -7.495 -19.968  1.00  0.00    -0.297 N 
ATOM      3  H2  UNL     1       4.439  -7.614 -20.973  1.00  0.00     0.187 HD
HETATM    4  C6  UNL     1       5.068  -8.105 -19.015  1.00  0.00     0.050 A 
HETATM    5  C11 UNL     1       4.591  -7.698 -17.798  1.00  0.00     0.067 A 
HETATM    6  C22 UNL     1       3.533  -6.832 -18.096  1.00  0.00     0.275 A 
HETATM    7  O2  UNL     1       2.833  -6.247 -17.225  1.00  0.00    -0.266 OA
ENDROOT
BRANCH   5   8
HETATM    8  C12 UNL     1       5.030  -8.078 -16.451  1.00  0.00    -0.009 C 
HETATM    9  C13 UNL     1       4.394  -9.067 -15.865  1.00  0.00    -0.039 C 
HETATM   10  C14 UNL     1       3.277  -9.797 -16.541  1.00  0.00     0.050 C 
HETATM   11  C15 UNL     1       4.631  -9.410 -14.481  1.00  0.00     0.007 A 
HETATM   12  C16 UNL     1       4.001 -10.457 -13.849  1.00  0.00     0.060 A 
HETATM   13  C20 UNL     1       5.559  -8.620 -13.792  1.00  0.00     0.083 A 
HETATM   14  C17 UNL     1       4.276 -10.737 -12.536  1.00  0.00     0.155 A 
HETATM   15  F1  UNL     1       3.667 -11.774 -11.878  1.00  0.00    -0.203 F 
HETATM   16  C18 UNL     1       5.190  -9.966 -11.838  1.00  0.00     0.157 A 
HETATM   17  F2  UNL     1       5.440 -10.275 -10.535  1.00  0.00    -0.203 F 
HETATM   18  C19 UNL     1       5.820  -8.918 -12.474  1.00  0.00     0.083 A 
HETATM   19  O1  UNL     1       6.181  -7.575 -14.440  1.00  0.00    -0.346 OA
HETATM   20  C21 UNL     1       6.251  -7.542 -15.831  1.00  0.00     0.216 C 
ENDBRANCH   5   8
BRANCH   4  21
HETATM   21  C7  UNL     1       6.207  -9.020 -19.342  1.00  0.00    -0.006 C 
HETATM   22  C8  UNL     1       6.219  -9.201 -20.879  1.00  0.00     0.021 C 
HETATM   23  C9  UNL     1       7.544  -8.478 -18.971  1.00  0.00     0.021 C 
HETATM   24  C10 UNL     1       5.984 -10.437 -18.833  1.00  0.00     0.021 C 
ENDBRANCH   4  21
BRANCH   1  25
HETATM   25  C3  UNL     1       2.389  -5.925 -20.146  1.00  0.00     0.049 C 
HETATM   26  C4  UNL     1       2.645  -6.072 -21.619  1.00  0.00     0.040 C 
HETATM   27  C5  UNL     1       1.017  -6.412 -19.773  1.00  0.00     0.040 C 
BRANCH  25  28
HETATM   28  C2  UNL     1       2.551  -4.459 -19.790  1.00  0.00     0.028 C 
HETATM   29  C1  UNL     1       1.294  -3.870 -19.256  1.00  0.00     0.007 C 
ENDBRANCH  25  28
ENDBRANCH   1  25
TORSDOF 4
ENDMDL
