MODEL 1
REMARK VINA RESULT: -9.960047481      0.000      0.000
REMARK  7 active torsions:
REMARK  status: ('A' for Active; 'I' for Inactive)
REMARK    1  A    between atoms: C2_2  and  C4_4 
REMARK    2  A    between atoms: C4_4  and  C5_5 
REMARK    3  A    between atoms: C4_4  and  C18_23 
REMARK    4  A    between atoms: C5_5  and  C6_6 
REMARK    5  A    between atoms: C7_7  and  C8_8 
REMARK    6  A    between atoms: C14_16  and  C15_17 
REMARK    7  A    between atoms: C19_28  and  C20_29 
ROOT
HETATM    1  C5  UNL     1       6.287  -7.518 -16.099  1.00  0.00     0.107 C 
ENDROOT
BRANCH   1   2
HETATM    2  C4  UNL     1       5.941  -8.841 -15.524  1.00  0.00     0.069 C 
BRANCH   2   3
HETATM    3  C2  UNL     1       7.021  -9.880 -15.544  1.00  0.00    -0.011 C 
HETATM    4  C1  UNL     1       6.600 -11.169 -16.199  1.00  0.00     0.010 C 
HETATM    5  C3  UNL     1       8.223  -9.284 -16.263  1.00  0.00     0.010 C 
ENDBRANCH   2   3
BRANCH   2   6
HETATM    6  C18 UNL     1       5.582  -8.569 -14.072  1.00  0.00     0.102 A 
HETATM    7  N2  UNL     1       4.515  -7.811 -13.705  1.00  0.00    -0.287 N 
HETATM    8  N3  UNL     1       4.462  -7.783 -12.403  1.00  0.00    -0.287 N 
ATOM      9  H2  UNL     1       3.866  -7.345 -14.340  1.00  0.00     0.188 HD
HETATM   10  C19 UNL     1       5.486  -8.514 -11.887  1.00  0.00     0.105 A 
ATOM     11  H3  UNL     1       3.759  -7.287 -11.853  1.00  0.00     0.188 HD
HETATM   12  N4  UNL     1       6.166  -8.990 -12.968  1.00  0.00    -0.333 N 
ATOM     13  H4  UNL     1       6.998  -9.579 -12.929  1.00  0.00     0.168 HD
BRANCH  10  14
HETATM   14  C20 UNL     1       5.797  -8.749 -10.478  1.00  0.00     0.009 C 
HETATM   15  C21 UNL     1       5.094  -7.718  -9.580  1.00  0.00     0.023 C 
HETATM   16  C22 UNL     1       5.303 -10.158 -10.114  1.00  0.00     0.023 C 
HETATM   17  C23 UNL     1       7.270  -8.679 -10.145  1.00  0.00     0.023 C 
ENDBRANCH  10  14
ENDBRANCH   2   6
ENDBRANCH   1   2
BRANCH   1  18
HETATM   18  C6  UNL     1       5.664  -7.164 -17.326  1.00  0.00    -0.100 C 
HETATM   19  C7  UNL     1       5.090  -6.955 -18.359  1.00  0.00    -0.067 C 
BRANCH  19  20
HETATM   20  C8  UNL     1       4.370  -6.807 -19.610  1.00  0.00     0.018 A 
HETATM   21  C9  UNL     1       3.116  -6.302 -19.745  1.00  0.00     0.023 A 
HETATM   22  C10 UNL     1       2.548  -6.126 -21.016  1.00  0.00     0.032 A 
HETATM   23  C11 UNL     1       3.229  -6.454 -22.170  1.00  0.00     0.043 A 
HETATM   24  N1  UNL     1       2.677  -6.251 -23.408  1.00  0.00    -0.365 N 
HETATM   25  C16 UNL     1       4.497  -6.970 -22.049  1.00  0.00     0.007 A 
HETATM   26  C12 UNL     1       3.356  -6.539 -24.522  1.00  0.00     0.089 A 
ATOM     27  H1  UNL     1       1.733  -5.873 -23.479  1.00  0.00     0.165 HD
HETATM   28  C13 UNL     1       4.624  -7.052 -24.481  1.00  0.00     0.034 A 
HETATM   29  C14 UNL     1       5.198  -7.269 -23.207  1.00  0.00     0.061 A 
HETATM   30  C17 UNL     1       5.047  -7.141 -20.795  1.00  0.00     0.035 A 
BRANCH  29  31
HETATM   31  C15 UNL     1       6.553  -7.818 -23.105  1.00  0.00     0.418 C 
HETATM   32  F1  UNL     1       7.018  -8.012 -24.421  1.00  0.00    -0.166 F 
HETATM   33  F2  UNL     1       6.559  -9.100 -22.561  1.00  0.00    -0.166 F 
HETATM   34  F3  UNL     1       7.481  -6.978 -22.533  1.00  0.00    -0.166 F 
ENDBRANCH  29  31
ENDBRANCH  19  20
ENDBRANCH   1  18
TORSDOF 7
ENDMDL
MODEL 2
REMARK VINA RESULT: -9.547189850      3.062      4.952
REMARK  7 active torsions:
REMARK  status: ('A' for Active; 'I' for Inactive)
REMARK    1  A    between atoms: C2_2  and  C4_4 
REMARK    2  A    between atoms: C4_4  and  C5_5 
REMARK    3  A    between atoms: C4_4  and  C18_23 
REMARK    4  A    between atoms: C5_5  and  C6_6 
REMARK    5  A    between atoms: C7_7  and  C8_8 
REMARK    6  A    between atoms: C14_16  and  C15_17 
REMARK    7  A    between atoms: C19_28  and  C20_29 
ROOT
HETATM    1  C5  UNL     1       8.580  -9.447 -17.240  1.00  0.00     0.107 C 
ENDROOT
BRANCH   1   2
HETATM    2  C4  UNL     1       7.575  -9.479 -16.149  1.00  0.00     0.069 C 
BRANCH   2   3
HETATM    3  C2  UNL     1       6.767  -8.233 -15.949  1.00  0.00    -0.011 C 
HETATM    4  C1  UNL     1       5.973  -8.233 -14.669  1.00  0.00     0.010 C 
HETATM    5  C3  UNL     1       7.726  -7.051 -15.983  1.00  0.00     0.010 C 
ENDBRANCH   2   3
BRANCH   2   6
HETATM    6  C18 UNL     1       6.618 -10.602 -16.513  1.00  0.00     0.102 A 
HETATM    7  N2  UNL     1       6.972 -11.914 -16.480  1.00  0.00    -0.287 N 
HETATM    8  N3  UNL     1       5.936 -12.627 -16.824  1.00  0.00    -0.287 N 
ATOM      9  H2  UNL     1       7.892 -12.279 -16.229  1.00  0.00     0.188 HD
HETATM   10  C19 UNL     1       4.884 -11.806 -17.090  1.00  0.00     0.105 A 
ATOM     11  H3  UNL     1       5.916 -13.646 -16.883  1.00  0.00     0.188 HD
HETATM   12  N4  UNL     1       5.355 -10.544 -16.885  1.00  0.00    -0.333 N 
ATOM     13  H4  UNL     1       4.814  -9.687 -17.001  1.00  0.00     0.168 HD
BRANCH  10  14
HETATM   14  C20 UNL     1       3.535 -12.187 -17.505  1.00  0.00     0.009 C 
HETATM   15  C21 UNL     1       2.927 -13.209 -16.531  1.00  0.00     0.023 C 
HETATM   16  C22 UNL     1       2.669 -10.917 -17.513  1.00  0.00     0.023 C 
HETATM   17  C23 UNL     1       3.458 -12.804 -18.883  1.00  0.00     0.023 C 
ENDBRANCH  10  14
ENDBRANCH   2   6
ENDBRANCH   1   2
BRANCH   1  18
HETATM   18  C6  UNL     1       8.123  -9.055 -18.527  1.00  0.00    -0.100 C 
HETATM   19  C7  UNL     1       7.649  -8.700 -19.570  1.00  0.00    -0.067 C 
BRANCH  19  20
HETATM   20  C8  UNL     1       6.980  -8.270 -20.785  1.00  0.00     0.018 A 
HETATM   21  C9  UNL     1       7.433  -8.469 -22.049  1.00  0.00     0.023 A 
HETATM   22  C10 UNL     1       6.660  -8.083 -23.156  1.00  0.00     0.032 A 
HETATM   23  C11 UNL     1       5.422  -7.494 -23.009  1.00  0.00     0.043 A 
HETATM   24  N1  UNL     1       4.662  -7.148 -24.096  1.00  0.00    -0.365 N 
HETATM   25  C16 UNL     1       4.952  -7.283 -21.735  1.00  0.00     0.007 A 
HETATM   26  C12 UNL     1       3.448  -6.608 -23.946  1.00  0.00     0.089 A 
ATOM     27  H1  UNL     1       5.029  -7.306 -25.034  1.00  0.00     0.165 HD
HETATM   28  C13 UNL     1       2.913  -6.372 -22.710  1.00  0.00     0.034 A 
HETATM   29  C14 UNL     1       3.694  -6.721 -21.584  1.00  0.00     0.061 A 
HETATM   30  C17 UNL     1       5.719  -7.663 -20.653  1.00  0.00     0.035 A 
BRANCH  29  31
HETATM   31  C15 UNL     1       3.169  -6.488 -20.236  1.00  0.00     0.418 C 
HETATM   32  F1  UNL     1       1.806  -6.158 -20.376  1.00  0.00    -0.166 F 
HETATM   33  F2  UNL     1       3.723  -5.354 -19.647  1.00  0.00    -0.166 F 
HETATM   34  F3  UNL     1       3.172  -7.589 -19.410  1.00  0.00    -0.166 F 
ENDBRANCH  29  31
ENDBRANCH  19  20
ENDBRANCH   1  18
TORSDOF 7
ENDMDL
MODEL 3
REMARK VINA RESULT: -9.492919197      1.748      2.165
REMARK  7 active torsions:
REMARK  status: ('A' for Active; 'I' for Inactive)
REMARK    1  A    between atoms: C2_2  and  C4_4 
REMARK    2  A    between atoms: C4_4  and  C5_5 
REMARK    3  A    between atoms: C4_4  and  C18_23 
REMARK    4  A    between atoms: C5_5  and  C6_6 
REMARK    5  A    between atoms: C7_7  and  C8_8 
REMARK    6  A    between atoms: C14_16  and  C15_17 
REMARK    7  A    between atoms: C19_28  and  C20_29 
ROOT
HETATM    1  C5  UNL     1       3.299  -7.060 -15.332  1.00  0.00     0.107 C 
ENDROOT
BRANCH   1   2
HETATM    2  C4  UNL     1       3.408  -8.451 -14.827  1.00  0.00     0.069 C 
BRANCH   2   3
HETATM    3  C2  UNL     1       3.839  -9.489 -15.818  1.00  0.00    -0.011 C 
HETATM    4  C1  UNL     1       4.569 -10.648 -15.193  1.00  0.00     0.010 C 
HETATM    5  C3  UNL     1       2.595  -9.974 -16.550  1.00  0.00     0.010 C 
ENDBRANCH   2   3
BRANCH   2   6
HETATM    6  C18 UNL     1       4.449  -8.400 -13.722  1.00  0.00     0.102 A 
HETATM    7  N2  UNL     1       5.705  -7.914 -13.912  1.00  0.00    -0.287 N 
HETATM    8  N3  UNL     1       6.347  -7.985 -12.780  1.00  0.00    -0.287 N 
ATOM      9  H2  UNL     1       6.080  -7.555 -14.791  1.00  0.00     0.188 HD
HETATM   10  C19 UNL     1       5.536  -8.517 -11.826  1.00  0.00     0.105 A 
ATOM     11  H3  UNL     1       7.312  -7.687 -12.631  1.00  0.00     0.188 HD
HETATM   12  N4  UNL     1       4.354  -8.765 -12.459  1.00  0.00    -0.333 N 
ATOM     13  H4  UNL     1       3.526  -9.169 -12.023  1.00  0.00     0.168 HD
BRANCH  10  14
HETATM   14  C20 UNL     1       5.852  -8.769 -10.421  1.00  0.00     0.009 C 
HETATM   15  C21 UNL     1       5.157  -7.745  -9.508  1.00  0.00     0.023 C 
HETATM   16  C22 UNL     1       5.353 -10.180 -10.071  1.00  0.00     0.023 C 
HETATM   17  C23 UNL     1       7.327  -8.709 -10.095  1.00  0.00     0.023 C 
ENDBRANCH  10  14
ENDBRANCH   2   6
ENDBRANCH   1   2
BRANCH   1  18
HETATM   18  C6  UNL     1       3.465  -6.866 -16.729  1.00  0.00    -0.100 C 
HETATM   19  C7  UNL     1       3.584  -6.800 -17.922  1.00  0.00    -0.067 C 
BRANCH  19  20
HETATM   20  C8  UNL     1       3.729  -6.827 -19.366  1.00  0.00     0.018 A 
HETATM   21  C9  UNL     1       2.879  -6.252 -20.256  1.00  0.00     0.023 A 
HETATM   22  C10 UNL     1       3.162  -6.270 -21.631  1.00  0.00     0.032 A 
HETATM   23  C11 UNL     1       4.301  -6.864 -22.131  1.00  0.00     0.043 A 
HETATM   24  N1  UNL     1       4.585  -6.850 -23.472  1.00  0.00    -0.365 N 
HETATM   25  C16 UNL     1       5.169  -7.453 -21.243  1.00  0.00     0.007 A 
HETATM   26  C12 UNL     1       5.708  -7.398 -23.947  1.00  0.00     0.089 A 
ATOM     27  H1  UNL     1       3.927  -6.414 -24.118  1.00  0.00     0.165 HD
HETATM   28  C13 UNL     1       6.619  -7.999 -23.123  1.00  0.00     0.034 A 
HETATM   29  C14 UNL     1       6.331  -8.022 -21.739  1.00  0.00     0.061 A 
HETATM   30  C17 UNL     1       4.882  -7.433 -19.894  1.00  0.00     0.035 A 
BRANCH  29  31
HETATM   31  C15 UNL     1       7.274  -8.655 -20.812  1.00  0.00     0.418 C 
HETATM   32  F1  UNL     1       8.203  -9.371 -21.594  1.00  0.00    -0.166 F 
HETATM   33  F2  UNL     1       6.666  -9.640 -20.039  1.00  0.00    -0.166 F 
HETATM   34  F3  UNL     1       8.045  -7.782 -20.077  1.00  0.00    -0.166 F 
ENDBRANCH  29  31
ENDBRANCH  19  20
ENDBRANCH   1  18
TORSDOF 7
ENDMDL
MODEL 4
REMARK VINA RESULT: -9.125530774      4.150      5.480
REMARK  7 active torsions:
REMARK  status: ('A' for Active; 'I' for Inactive)
REMARK    1  A    between atoms: C2_2  and  C4_4 
REMARK    2  A    between atoms: C4_4  and  C5_5 
REMARK    3  A    between atoms: C4_4  and  C18_23 
REMARK    4  A    between atoms: C5_5  and  C6_6 
REMARK    5  A    between atoms: C7_7  and  C8_8 
REMARK    6  A    between atoms: C14_16  and  C15_17 
REMARK    7  A    between atoms: C19_28  and  C20_29 
ROOT
HETATM    1  C5  UNL     1       6.381 -11.171 -20.027  1.00  0.00     0.107 C 
ENDROOT
BRANCH   1   2
HETATM    2  C4  UNL     1       7.235 -11.191 -18.814  1.00  0.00     0.069 C 
BRANCH   2   3
HETATM    3  C2  UNL     1       7.745  -9.867 -18.335  1.00  0.00    -0.011 C 
HETATM    4  C1  UNL     1       8.177  -9.877 -16.892  1.00  0.00     0.010 C 
HETATM    5  C3  UNL     1       8.903  -9.464 -19.236  1.00  0.00     0.010 C 
ENDBRANCH   2   3
BRANCH   2   6
HETATM    6  C18 UNL     1       6.364 -11.781 -17.717  1.00  0.00     0.102 A 
HETATM    7  N2  UNL     1       6.625 -12.979 -17.130  1.00  0.00    -0.287 N 
HETATM    8  N3  UNL     1       5.715 -13.196 -16.221  1.00  0.00    -0.287 N 
ATOM      9  H2  UNL     1       7.399 -13.601 -17.361  1.00  0.00     0.188 HD
HETATM   10  C19 UNL     1       4.841 -12.154 -16.190  1.00  0.00     0.105 A 
ATOM     11  H3  UNL     1       5.667 -14.022 -15.623  1.00  0.00     0.188 HD
HETATM   12  N4  UNL     1       5.283 -11.288 -17.145  1.00  0.00    -0.333 N 
ATOM     13  H4  UNL     1       4.845 -10.398 -17.381  1.00  0.00     0.168 HD
BRANCH  10  14
HETATM   14  C20 UNL     1       3.677 -11.989 -15.321  1.00  0.00     0.009 C 
HETATM   15  C21 UNL     1       2.888 -10.723 -15.694  1.00  0.00     0.023 C 
HETATM   16  C22 UNL     1       2.775 -13.220 -15.501  1.00  0.00     0.023 C 
HETATM   17  C23 UNL     1       4.009 -11.874 -13.850  1.00  0.00     0.023 C 
ENDBRANCH  10  14
ENDBRANCH   2   6
ENDBRANCH   1   2
BRANCH   1  18
HETATM   18  C6  UNL     1       5.555 -10.032 -20.217  1.00  0.00    -0.100 C 
HETATM   19  C7  UNL     1       4.925  -9.016 -20.325  1.00  0.00    -0.067 C 
BRANCH  19  20
HETATM   20  C8  UNL     1       4.228  -7.744 -20.381  1.00  0.00     0.018 A 
HETATM   21  C9  UNL     1       4.368  -6.809 -21.357  1.00  0.00     0.023 A 
HETATM   22  C10 UNL     1       3.579  -5.648 -21.354  1.00  0.00     0.032 A 
HETATM   23  C11 UNL     1       2.640  -5.408 -20.373  1.00  0.00     0.043 A 
HETATM   24  N1  UNL     1       1.854  -4.287 -20.396  1.00  0.00    -0.365 N 
HETATM   25  C16 UNL     1       2.490  -6.343 -19.377  1.00  0.00     0.007 A 
HETATM   26  C12 UNL     1       0.922  -4.077 -19.460  1.00  0.00     0.089 A 
ATOM     27  H1  UNL     1       1.982  -3.600 -21.138  1.00  0.00     0.165 HD
HETATM   28  C13 UNL     1       0.713  -4.965 -18.441  1.00  0.00     0.034 A 
HETATM   29  C14 UNL     1       1.524  -6.122 -18.408  1.00  0.00     0.061 A 
HETATM   30  C17 UNL     1       3.271  -7.481 -19.386  1.00  0.00     0.035 A 
BRANCH  29  31
HETATM   31  C15 UNL     1       1.343  -7.106 -17.336  1.00  0.00     0.418 C 
HETATM   32  F1  UNL     1       0.135  -6.787 -16.685  1.00  0.00    -0.166 F 
HETATM   33  F2  UNL     1       2.302  -6.971 -16.335  1.00  0.00    -0.166 F 
HETATM   34  F3  UNL     1       1.174  -8.405 -17.759  1.00  0.00    -0.166 F 
ENDBRANCH  29  31
ENDBRANCH  19  20
ENDBRANCH   1  18
TORSDOF 7
ENDMDL
MODEL 5
REMARK VINA RESULT: -9.066275251      2.215      2.987
REMARK  7 active torsions:
REMARK  status: ('A' for Active; 'I' for Inactive)
REMARK    1  A    between atoms: C2_2  and  C4_4 
REMARK    2  A    between atoms: C4_4  and  C5_5 
REMARK    3  A    between atoms: C4_4  and  C18_23 
REMARK    4  A    between atoms: C5_5  and  C6_6 
REMARK    5  A    between atoms: C7_7  and  C8_8 
REMARK    6  A    between atoms: C14_16  and  C15_17 
REMARK    7  A    between atoms: C19_28  and  C20_29 
ROOT
HETATM    1  C5  UNL     1       6.485  -9.500 -15.621  1.00  0.00     0.107 C 
ENDROOT
BRANCH   1   2
HETATM    2  C4  UNL     1       5.112  -9.732 -15.106  1.00  0.00     0.069 C 
BRANCH   2   3
HETATM    3  C2  UNL     1       4.706 -11.160 -14.909  1.00  0.00    -0.011 C 
HETATM    4  C1  UNL     1       3.250 -11.415 -15.197  1.00  0.00     0.010 C 
HETATM    5  C3  UNL     1       5.586 -12.019 -15.806  1.00  0.00     0.010 C 
ENDBRANCH   2   3
BRANCH   2   6
HETATM    6  C18 UNL     1       5.066  -9.042 -13.752  1.00  0.00     0.102 A 
HETATM    7  N2  UNL     1       4.303  -7.945 -13.508  1.00  0.00    -0.287 N 
HETATM    8  N3  UNL     1       4.463  -7.604 -12.259  1.00  0.00    -0.287 N 
ATOM      9  H2  UNL     1       3.706  -7.469 -14.185  1.00  0.00     0.188 HD
HETATM   10  C19 UNL     1       5.331  -8.462 -11.659  1.00  0.00     0.105 A 
ATOM     11  H3  UNL     1       4.007  -6.814 -11.802  1.00  0.00     0.188 HD
HETATM   12  N4  UNL     1       5.688  -9.349 -12.631  1.00  0.00    -0.333 N 
ATOM     13  H4  UNL     1       6.334 -10.128 -12.509  1.00  0.00     0.168 HD
BRANCH  10  14
HETATM   14  C20 UNL     1       5.787  -8.447 -10.270  1.00  0.00     0.009 C 
HETATM   15  C21 UNL     1       4.894  -7.541  -9.407  1.00  0.00     0.023 C 
HETATM   16  C22 UNL     1       5.716  -9.886  -9.735  1.00  0.00     0.023 C 
HETATM   17  C23 UNL     1       7.206  -7.959 -10.086  1.00  0.00     0.023 C 
ENDBRANCH  10  14
ENDBRANCH   2   6
ENDBRANCH   1   2
BRANCH   1  18
HETATM   18  C6  UNL     1       6.606  -9.106 -16.980  1.00  0.00    -0.100 C 
HETATM   19  C7  UNL     1       6.617  -8.814 -18.144  1.00  0.00    -0.067 C 
BRANCH  19  20
HETATM   20  C8  UNL     1       6.545  -8.523 -19.564  1.00  0.00     0.018 A 
HETATM   21  C9  UNL     1       7.411  -8.977 -20.508  1.00  0.00     0.023 A 
HETATM   22  C10 UNL     1       7.196  -8.701 -21.867  1.00  0.00     0.032 A 
HETATM   23  C11 UNL     1       6.111  -7.968 -22.299  1.00  0.00     0.043 A 
HETATM   24  N1  UNL     1       5.893  -7.729 -23.631  1.00  0.00    -0.365 N 
HETATM   25  C16 UNL     1       5.228  -7.499 -21.355  1.00  0.00     0.007 A 
HETATM   26  C12 UNL     1       4.821  -7.047 -24.045  1.00  0.00     0.089 A 
ATOM     27  H1  UNL     1       6.561  -8.079 -24.318  1.00  0.00     0.165 HD
HETATM   28  C13 UNL     1       3.898  -6.553 -23.164  1.00  0.00     0.034 A 
HETATM   29  C14 UNL     1       4.119  -6.790 -21.787  1.00  0.00     0.061 A 
HETATM   30  C17 UNL     1       5.448  -7.773 -20.021  1.00  0.00     0.035 A 
BRANCH  29  31
HETATM   31  C15 UNL     1       3.162  -6.282 -20.801  1.00  0.00     0.418 C 
HETATM   32  F1  UNL     1       2.014  -5.875 -21.511  1.00  0.00    -0.166 F 
HETATM   33  F2  UNL     1       3.607  -5.109 -20.196  1.00  0.00    -0.166 F 
HETATM   34  F3  UNL     1       2.697  -7.216 -19.903  1.00  0.00    -0.166 F 
ENDBRANCH  29  31
ENDBRANCH  19  20
ENDBRANCH   1  18
TORSDOF 7
ENDMDL
